AV-unprocessed.smi:1643|AV-procd|sdf|6583|dock5
  -GOLD-   22720 7273D 1   1.00000     0.00000
 Structure written by MMmdl.
 54 56  0  0  0  0  0  0  0  0  2 V2000
  148.9830  136.9457  159.7892 C   0  0  0  0  0  0  0  0  0  0  0  0
  149.0970  136.3817  158.3708 C   0  0  0  0  0  0  0  0  0  0  0  0
  150.0792  135.6921  158.0949 O   0  0  0  0  0  0  0  0  0  0  0  0
  148.1247  136.6626  157.4703 N   0  0  0  0  0  0  0  0  0  0  0  0
  148.1929  136.2058  156.0777 C   0  0  0  0  0  0  0  0  0  0  0  0
  148.8906  137.2583  155.2008 C   0  0  0  0  0  0  0  0  0  0  0  0
  148.2611  138.6661  155.2600 C   0  0  0  0  0  0  0  0  0  0  0  0
  148.4236  139.3332  156.5592 N   0  0  0  0  0  0  0  0  0  0  0  0
  148.5865  140.7823  156.4309 C   0  0  0  0  0  0  0  0  0  0  0  0
  149.5862  141.2295  155.3445 C   0  0  1  0  0  0  0  0  0  0  0  0
  148.8863  142.0362  154.4190 O   0  0  0  0  0  0  0  0  0  0  0  0
  150.7718  142.0237  155.9312 C   0  0  0  0  0  0  0  0  0  0  0  0
  151.3067  141.4250  157.1618 N   0  0  0  0  0  0  0  0  0  0  0  0
  151.5826  140.1226  157.4414 C   0  0  0  0  0  0  0  0  0  0  0  0
  152.0571  140.0674  158.7165 N   0  3  0  0  0  0  0  0  0  0  0  0
  152.0848  141.3536  159.2592 C   0  0  0  0  0  0  0  0  0  0  0  0
  152.4837  141.8037  160.5122 C   0  0  0  0  0  0  0  0  0  0  0  0
  152.3914  143.1924  160.7580 C   0  0  0  0  0  0  0  0  0  0  0  0
  152.8193  143.7181  162.1178 C   0  0  0  0  0  0  0  0  0  0  0  0
  151.9128  144.0801  159.7598 C   0  0  0  0  0  0  0  0  0  0  0  0
  151.8231  145.5719  160.0325 C   0  0  0  0  0  0  0  0  0  0  0  0
  151.5107  143.6020  158.4922 C   0  0  0  0  0  0  0  0  0  0  0  0
  151.6055  142.2308  158.2666 C   0  0  0  0  0  0  0  0  0  0  0  0
  147.3158  139.0357  157.4796 C   0  0  0  0  0  0  0  0  0  0  0  0
  146.9837  137.5476  157.7320 C   0  0  0  0  0  0  0  0  0  0  0  0
  148.9218  138.0338  159.7731 H   0  0  0  0  0  0  0  0  0  0  0  0
  149.8575  136.6727  160.3811 H   0  0  0  0  0  0  0  0  0  0  0  0
  148.1030  136.5480  160.2949 H   0  0  0  0  0  0  0  0  0  0  0  0
  148.7206  135.2537  156.0018 H   0  0  0  0  0  0  0  0  0  0  0  0
  147.1953  136.0030  155.6866 H   0  0  0  0  0  0  0  0  0  0  0  0
  149.9430  137.3262  155.4797 H   0  0  0  0  0  0  0  0  0  0  0  0
  148.8792  136.9104  154.1677 H   0  0  0  0  0  0  0  0  0  0  0  0
  148.7368  139.2493  154.4740 H   0  0  0  0  0  0  0  0  0  0  0  0
  147.2068  138.6274  154.9819 H   0  0  0  0  0  0  0  0  0  0  0  0
  147.6121  141.2393  156.2507 H   0  0  0  0  0  0  0  0  0  0  0  0
  148.9344  141.1914  157.3810 H   0  0  0  0  0  0  0  0  0  0  0  0
  149.9663  140.3723  154.7904 H   0  0  0  0  0  0  0  0  0  0  0  0
  148.5946  142.8178  154.8631 H   0  0  0  0  0  0  0  0  0  0  0  0
  151.5752  142.1383  155.2031 H   0  0  0  0  0  0  0  0  0  0  0  0
  150.4518  143.0340  156.1900 H   0  0  0  0  0  0  0  0  0  0  0  0
  151.4474  139.2846  156.7727 H   0  0  0  0  0  0  0  0  0  0  0  0
  152.8498  141.1221  161.2659 H   0  0  0  0  0  0  0  0  0  0  0  0
  153.6617  144.4027  162.0150 H   0  0  0  0  0  0  0  0  0  0  0  0
  153.1260  142.9083  162.7806 H   0  0  0  0  0  0  0  0  0  0  0  0
  151.9979  144.2486  162.5998 H   0  0  0  0  0  0  0  0  0  0  0  0
  151.4640  146.1158  159.1582 H   0  0  0  0  0  0  0  0  0  0  0  0
  152.8023  145.9736  160.2948 H   0  0  0  0  0  0  0  0  0  0  0  0
  151.1349  145.7702  160.8543 H   0  0  0  0  0  0  0  0  0  0  0  0
  151.1521  144.2791  157.7311 H   0  0  0  0  0  0  0  0  0  0  0  0
  147.5502  139.4851  158.4452 H   0  0  0  0  0  0  0  0  0  0  0  0
  146.4094  139.5395  157.1403 H   0  0  0  0  0  0  0  0  0  0  0  0
  146.1484  137.2688  157.0887 H   0  0  0  0  0  0  0  0  0  0  0  0
  146.5930  137.4142  158.7409 H   0  0  0  0  0  0  0  0  0  0  0  0
  152.3393  139.2132  159.1798 H   0  0  0  0  0  0  0  0  0  0  0  0
  1  2  1  0  0  0  0
  1 26  1  0  0  0  0
  1 27  1  0  0  0  0
  1 28  1  0  0  0  0
  2  3  2  0  0  0  0
  2  4  1  0  0  0  0
  4 25  1  0  0  0  0
  4  5  1  0  0  0  0
  5  6  1  0  0  0  0
  5 29  1  0  0  0  0
  5 30  1  0  0  0  0
  6  7  1  0  0  0  0
  6 31  1  0  0  0  0
  6 32  1  0  0  0  0
  7  8  1  0  0  0  0
  7 33  1  0  0  0  0
  7 34  1  0  0  0  0
  8  9  1  0  0  0  0
  8 24  1  0  0  0  0
  9 10  1  0  0  0  0
  9 35  1  0  0  0  0
  9 36  1  0  0  0  0
 10 11  1  0  0  0  0
 10 12  1  0  0  0  0
 10 37  1  0  0  0  0
 11 38  1  0  0  0  0
 12 13  1  0  0  0  0
 12 39  1  0  0  0  0
 12 40  1  0  0  0  0
 13 23  1  0  0  0  0
 13 14  1  0  0  0  0
 14 15  2  0  0  0  0
 14 41  1  0  0  0  0
 15 16  1  0  0  0  0
 15 54  1  0  0  0  0
 16 23  2  0  0  0  0
 16 17  1  0  0  0  0
 17 18  2  0  0  0  0
 17 42  1  0  0  0  0
 18 19  1  0  0  0  0
 18 20  1  0  0  0  0
 19 43  1  0  0  0  0
 19 44  1  0  0  0  0
 19 45  1  0  0  0  0
 20 21  1  0  0  0  0
 20 22  2  0  0  0  0
 21 46  1  0  0  0  0
 21 47  1  0  0  0  0
 21 48  1  0  0  0  0
 22 23  1  0  0  0  0
 22 49  1  0  0  0  0
 24 25  1  0  0  0  0
 24 50  1  0  0  0  0
 24 51  1  0  0  0  0
 25 52  1  0  0  0  0
 25 53  1  0  0  0  0
M  CHG  1  15   1
M  END
> <s_m_source_file>
AV-unprocessed.smi

> <i_m_source_file_index>
1643

> <i_lp_mmshare_version>
43012

> <i_f3d_flags>
0

> <s_epik_input>
W0NIM11DKD1PKU4xW0NIMl1bQ0gyXVtDSDJdTihbQ0gyXVtDSDJdMSlbQ0gyXVtDQEhdKFtPSF0pW0NIMl1uKFtjSF1uMiljKGMyMylbY0hdYyhbQ0gzXSljKFtjSF0zKVtDSDNd

> <s_epik_cmdline>
J2VwaWtfcHl0aG9uJywgJy1waCcsICc3LjAnLCAnLXRuJywgJzgnLCAnLW1hJywgJzIwMCcsICctbWV0YWxfYmluZGluZycsICctaW1hZScsICc8aW5maWxlLm1hZT4nLCAnLW9tYWUnLCAnPG91dGZpbGUubWFlPic=

> <r_epik_Ionization_Penalty>
2.25269

> <r_epik_Ionization_Penalty_Charging>
1.20735

> <r_epik_Ionization_Penalty_Neutral>
1.04533

> <r_epik_State_Penalty>
2.37869

> <r_epik_Charging_Adjusted_Penalty>
3.58604

> <i_epik_Tot_Q>
1

> <i_epik_Tot_abs_Q>
1

> <r_epik_Metal_State_Penalty>
6.40045

> <b_epik_Metal_Only>
0

> <s_lp_Force_Field>
OPLS_2005

> <r_lp_Energy>
51.5531

> <b_lp_Chiralities_Consistent>
1

> <s_lp_Variant>
AV-unprocessed.smi:1643-12

> <Gold.Version>
5.8.1

> <Gold.Id.Protein>
6NUR|6NUR_protein|mol2

> <Gold.PLP.Fitness>
46.7355

> <Gold.PLP.PLP>
-42.9857

> <Gold.PLP.part.hbond>
-3.0000

> <Gold.PLP.part.metal>
0.0000

> <Gold.PLP.part.buried>
-7.4126

> <Gold.PLP.part.nonpolar>
-32.7488

> <Gold.PLP.part.repulsive>
0.1172

> <Gold.PLP.ligand.clash>
0.0000

> <Gold.PLP.ligand.torsion>
1.1495

> <Gold.PLP.Chemscore.Hbond>
1.9903

> <Gold.PLP.Chemscore.CHOScore>
0.0000

> <Gold.PLP.Chemscore.Metal>
0.0000

> <Gold.Chemscore.Hbonds>
donor molecule, donor type, donor heavy atom, donor atom, acceptor molecule, acceptor atom, score
      L1  H    11    38       P1  8028  0.93
      P1  H  6896  6907       L1     3  0.88
      P1  H  8011  8017       L1    11  0.12

> <Gold.PLP.Chemscore.Internal.Correction>
0.0777

> <Gold.Rescore>
     Score         DG    S(hbond)    S(metal)    S(lipo)     H(rot)  DE(clash)    DE(int)     intcor
     19.36     -20.54       2.10        0.00     115.30       2.12       0.05       1.14       ----

> <Gold.Chemscore.Fitness>
19.3601

> <Gold.Chemscore.DG>
-20.5434

> <Gold.Chemscore.ZeroCoef>
-5.4800

> <Gold.Chemscore.Hbond>
2.0976

> <Gold.Chemscore.Metal>
0.0000

> <Gold.Chemscore.Lipo>
115.2952

> <Gold.Chemscore.Internal_Hbond>
0.0000

> <Gold.Chemscore.DEClash>
0.0462

> <Gold.Chemscore.DEInternal>
1.1371

> <Gold.Chemscore.Rot>
2.1220

> <Gold.Chemscore.Internal.Correction>
   9.000000E+99

> <Gold.Chemscore.Hbonds>
donor molecule, donor type, donor heavy atom, donor atom, acceptor molecule, acceptor atom, score
      L1  H    11    38       P1  8028  0.86
      P1  H  6896  6907       L1     3  0.78
      P1  H  8011  8017       L1    11  0.10

> <Gold.Chemscore.Hbond.Weighted>
-7.0061

> <Gold.Chemscore.Metal.Weighted>
-0.0000

> <Gold.Chemscore.Lipo.Weighted>
-13.4895

> <Gold.Chemscore.Internal_Hbond.Weighted>
0.0000

> <Gold.Chemscore.DEClash.Weighted>
0.0462

> <Gold.Chemscore.DEInternal.Weighted>
1.1371

> <Gold.Chemscore.Rot.Weighted>
5.4322

> <Gold.Chemscore.Internal.Correction.Weighted>
   9.000000E+99

> <Gold.Protein.RotatedTorsions>
[ 6907 6896 6895 6894 ] final  -69.88 input  -60.11 | X-H torsion
[ 7974 7965 7964 7962 ] final  165.56 input  175.53 | X-H torsion
[ 8008 7997 7996 7995 ] final   54.83 input   59.86 | X-H torsion
[ 10167 10162 10161 10158 ] final   97.05 input  -65.29 | X-H torsion
[ 10718 10713 10712 10709 ] final  170.21 input   66.30 | X-H torsion
[ 10763 10752 10751 10750 ] final  100.05 input  -60.55 | X-H torsion
[ 11005 11000 10999 10996 ] final  -23.99 input  -57.11 | X-H torsion

> <Gold.Protein.ActiveResidues>
 VAL166  LYS551  ARG553  GLY616  TRP617  ASP618  TYR619  PRO620  LYS621  CYS622 
 ASP623  PHE694  ASN695  SER759  ASP760  ASP761  ALA762  ILE779  LEU786  VAL792 
 PHE793  MET794  SER795  GLU796  ALA797  LYS798  CYS799  TRP800  GLU811  SER814 

> <Gold.Protein.RotatedAtoms>
  150.7284  134.5533  159.5805 H   0  0  0  0  0  0  0  0  0  0  0  0  # atno 6907 bound_to 6896
  152.3015  134.7603  160.0366 H   0  0  0  0  0  0  0  0  0  0  0  0  # atno 6908 bound_to 6896
  151.8182  133.3355  159.3612 H   0  0  0  0  0  0  0  0  0  0  0  0  # atno 6909 bound_to 6896
  144.7498  139.8487  143.6370 H   0  0  0  0  0  0  0  0  0  0  0  0  # atno 7974 bound_to 7965
  155.4912  140.3471  155.4355 H   0  0  0  0  0  0  0  0  0  0  0  0  # atno 8008 bound_to 7997
  156.0976  140.1427  156.9539 H   0  0  0  0  0  0  0  0  0  0  0  0  # atno 8009 bound_to 7997
  154.4673  140.0913  156.7031 H   0  0  0  0  0  0  0  0  0  0  0  0  # atno 8010 bound_to 7997
  139.7837  144.6879  150.9988 H   0  0  0  0  0  0  0  0  0  0  0  0  # atno 10167 bound_to 10162
  157.0114  131.0205  151.2802 H   0  0  0  0  0  0  0  0  0  0  0  0  # atno 10718 bound_to 10713
  153.3090  135.4092  155.1319 H   0  0  0  0  0  0  0  0  0  0  0  0  # atno 10763 bound_to 10752
  154.8571  135.3560  154.5749 H   0  0  0  0  0  0  0  0  0  0  0  0  # atno 10764 bound_to 10752
  153.6177  135.7065  153.5381 H   0  0  0  0  0  0  0  0  0  0  0  0  # atno 10765 bound_to 10752
  140.8803  133.7658  156.0294 H   0  0  0  0  0  0  0  0  0  0  0  0  # atno 11005 bound_to 11000
  146.1431  139.4493  143.0096 LP  0  0  0  0  0  0  0  0  0  0  0  0  # atno 17320 bound_to 7965
  145.6987  141.0142  143.1516 LP  0  0  0  0  0  0  0  0  0  0  0  0  # atno 17321 bound_to 7965
  140.7819  143.4456  151.0488 LP  0  0  0  0  0  0  0  0  0  0  0  0  # atno 17342 bound_to 10162
  139.8135  143.7918  152.3173 LP  0  0  0  0  0  0  0  0  0  0  0  0  # atno 17343 bound_to 10162
  157.5317  130.8063  149.7925 LP  0  0  0  0  0  0  0  0  0  0  0  0  # atno 17370 bound_to 10713
  156.0135  130.3823  150.2187 LP  0  0  0  0  0  0  0  0  0  0  0  0  # atno 17371 bound_to 10713
  140.8469  134.3000  157.5291 LP  0  0  0  0  0  0  0  0  0  0  0  0  # atno 17394 bound_to 11000
  139.8719  134.9446  156.3887 LP  0  0  0  0  0  0  0  0  0  0  0  0  # atno 17395 bound_to 11000

$$$$
