AV-unprocessed.smi:1260|AV-procd|sdf|5293|dock3
  -GOLD-   22720 4413D 1   1.00000     0.00000
 Structure written by MMmdl.
 37 39  0  0  0  0  0  0  0  0  2 V2000
  147.7903  135.3356  156.3012 O   0  0  0  0  0  0  0  0  0  0  0  0
  148.2234  135.7818  155.2394 C   0  0  0  0  0  0  0  0  0  0  0  0
  148.5850  137.2621  155.1244 C   0  0  0  0  0  0  0  0  0  0  0  0
  150.0143  137.4254  154.9377 N   0  0  0  0  0  0  0  0  0  0  0  0
  150.7068  138.1498  154.0562 C   0  0  0  0  0  0  0  0  0  0  0  0
  152.0121  138.0320  154.2439 N   0  0  0  0  0  0  0  0  0  0  0  0
  152.0978  137.1664  155.3216 N   0  0  0  0  0  0  0  0  0  0  0  0
  150.9156  136.8041  155.7385 N   0  0  0  0  0  0  0  0  0  0  0  0
  148.3867  135.0372  154.1344 N   0  0  0  0  0  0  0  0  0  0  0  0
  148.0530  133.6204  154.0184 C   0  0  2  0  0  0  0  0  0  0  0  0
  149.0633  132.7059  154.7246 C   0  0  0  0  0  0  0  0  0  0  0  0
  149.1794  131.4565  153.8283 C   0  0  0  0  0  0  0  0  0  0  0  0
  148.2410  131.6513  152.6982 N   0  3  1  0  0  0  0  0  0  0  0  0
  146.9580  130.9242  152.9061 C   0  0  0  0  0  0  0  0  0  0  0  0
  145.8970  131.3092  151.8667 C   0  0  0  0  0  0  0  0  0  0  0  0
  145.6458  132.8187  151.9016 C   0  0  0  0  0  0  0  0  0  0  0  0
  146.9593  133.5569  151.6267 C   0  0  0  0  0  0  0  0  0  0  0  0
  148.1062  133.1226  152.5679 C   0  0  1  0  0  0  0  0  0  0  0  0
  148.0555  137.7110  154.2826 H   0  0  0  0  0  0  0  0  0  0  0  0
  148.2819  137.8022  156.0224 H   0  0  0  0  0  0  0  0  0  0  0  0
  150.2587  138.7631  153.2886 H   0  0  0  0  0  0  0  0  0  0  0  0
  148.7555  135.4887  153.3098 H   0  0  0  0  0  0  0  0  0  0  0  0
  147.0657  133.4255  154.4409 H   0  0  0  0  0  0  0  0  0  0  0  0
  150.0393  133.1850  154.8148 H   0  0  0  0  0  0  0  0  0  0  0  0
  148.7284  132.4537  155.7315 H   0  0  0  0  0  0  0  0  0  0  0  0
  150.1915  131.3852  153.4280 H   0  0  0  0  0  0  0  0  0  0  0  0
  148.9856  130.5334  154.3770 H   0  0  0  0  0  0  0  0  0  0  0  0
  147.1474  129.8512  152.8599 H   0  0  0  0  0  0  0  0  0  0  0  0
  146.5722  131.1284  153.9060 H   0  0  0  0  0  0  0  0  0  0  0  0
  146.2230  131.0073  150.8704 H   0  0  0  0  0  0  0  0  0  0  0  0
  144.9689  130.7728  152.0664 H   0  0  0  0  0  0  0  0  0  0  0  0
  144.8980  133.0937  151.1571 H   0  0  0  0  0  0  0  0  0  0  0  0
  145.2429  133.1123  152.8716 H   0  0  0  0  0  0  0  0  0  0  0  0
  147.2591  133.3535  150.5977 H   0  0  0  0  0  0  0  0  0  0  0  0
  146.8050  134.6346  151.6803 H   0  0  0  0  0  0  0  0  0  0  0  0
  149.0390  133.4828  152.1285 H   0  0  0  0  0  0  0  0  0  0  0  0
  148.6560  131.2883  151.8518 H   0  0  0  0  0  0  0  0  0  0  0  0
  1  2  2  0  0  0  0
  2  3  1  0  0  0  0
  2  9  1  0  0  0  0
  3  4  1  0  0  0  0
  3 19  1  0  0  0  0
  3 20  1  0  0  0  0
  4  8  1  0  0  0  0
  4  5  1  0  0  0  0
  5  6  2  0  0  0  0
  5 21  1  0  0  0  0
  6  7  1  0  0  0  0
  7  8  2  0  0  0  0
  9 10  1  0  0  0  0
  9 22  1  0  0  0  0
 10 18  1  0  0  0  0
 10 11  1  0  0  0  0
 10 23  1  0  0  0  0
 11 12  1  0  0  0  0
 11 24  1  0  0  0  0
 11 25  1  0  0  0  0
 12 13  1  0  0  0  0
 12 26  1  0  0  0  0
 12 27  1  0  0  0  0
 13 18  1  0  0  0  0
 13 14  1  0  0  0  0
 13 37  1  0  0  0  0
 14 15  1  0  0  0  0
 14 28  1  0  0  0  0
 14 29  1  0  0  0  0
 15 16  1  0  0  0  0
 15 30  1  0  0  0  0
 15 31  1  0  0  0  0
 16 17  1  0  0  0  0
 16 32  1  0  0  0  0
 16 33  1  0  0  0  0
 17 18  1  0  0  0  0
 17 34  1  0  0  0  0
 17 35  1  0  0  0  0
 18 36  1  0  0  0  0
M  CHG  1  13   1
M  END
> <s_m_source_file>
AV-unprocessed.smi

> <i_m_source_file_index>
1260

> <i_lp_mmshare_version>
43012

> <i_f3d_flags>
0

> <s_epik_input>
bjFubltjSF1uMVtDSDJdQyg9TylbTkhdW0NASF0oW0NIMl1bQ0gyXTIpW0NAQEhdKE4yMylbQ0gyXVtDSDJdW0NIMl1bQ0gyXTM=

> <s_epik_cmdline>
J2VwaWtfcHl0aG9uJywgJy1waCcsICc3LjAnLCAnLXRuJywgJzgnLCAnLW1hJywgJzIwMCcsICctbWV0YWxfYmluZGluZycsICctaW1hZScsICc8aW5maWxlLm1hZT4nLCAnLW9tYWUnLCAnPG91dGZpbGUubWFlPic=

> <r_lp_tautomer_probability>
1

> <r_epik_Ionization_Penalty>
0.00234324

> <r_epik_Ionization_Penalty_Charging>
0.00233897

> <r_epik_Ionization_Penalty_Neutral>
4.26861e-06

> <r_epik_State_Penalty>
0.00161477

> <r_epik_Charging_Adjusted_Penalty>
0.00395374

> <i_epik_Tot_Q>
1

> <i_epik_Tot_abs_Q>
1

> <r_epik_Metal_State_Penalty>
-0

> <b_epik_Metal_Only>
0

> <s_lp_Force_Field>
OPLS_2005

> <r_lp_Energy>
39.6077

> <b_lp_Chiralities_Consistent>
1

> <s_lp_Variant>
AV-unprocessed.smi:1260-1

> <Gold.Version>
5.8.1

> <Gold.Id.Protein>
6NUR|6NUR_protein|mol2

> <Gold.PLP.Fitness>
37.4739

> <Gold.PLP.PLP>
-27.2441

> <Gold.PLP.part.hbond>
-3.2809

> <Gold.PLP.part.metal>
0.0000

> <Gold.PLP.part.buried>
-3.9028

> <Gold.PLP.part.nonpolar>
-19.9146

> <Gold.PLP.part.repulsive>
0.2770

> <Gold.PLP.ligand.clash>
0.0000

> <Gold.PLP.ligand.torsion>
0.3058

> <Gold.PLP.Chemscore.Hbond>
2.8800

> <Gold.PLP.Chemscore.CHOScore>
0.7297

> <Gold.PLP.Chemscore.Metal>
0.0000

> <Gold.Chemscore.Hbonds>
donor molecule, donor type, donor heavy atom, donor atom, acceptor molecule, acceptor atom, score
      L1  H     9    22       P1  7948  1.00
      L1  H    13    37       P1 10747  1.00
      P1  H 10752 10764       L1     7  0.88
      L1  C     5    21       P1  7957  0.95

> <Gold.PLP.Chemscore.Internal.Correction>
0.0124

> <Gold.Rescore>
     Score         DG    S(hbond)    S(metal)    S(lipo)     H(rot)  DE(clash)    DE(int)     intcor
     15.08     -15.49       2.81        0.00      48.57       1.98       0.03       0.38       ----

> <Gold.Chemscore.Fitness>
15.0789

> <Gold.Chemscore.DG>
-15.4923

> <Gold.Chemscore.ZeroCoef>
-5.4800

> <Gold.Chemscore.Hbond>
2.8107

> <Gold.Chemscore.Metal>
0.0000

> <Gold.Chemscore.Lipo>
48.5671

> <Gold.Chemscore.Internal_Hbond>
0.0000

> <Gold.Chemscore.DEClash>
0.0301

> <Gold.Chemscore.DEInternal>
0.3833

> <Gold.Chemscore.Rot>
1.9757

> <Gold.Chemscore.Internal.Correction>
   9.000000E+99

> <Gold.Chemscore.Hbonds>
donor molecule, donor type, donor heavy atom, donor atom, acceptor molecule, acceptor atom, score
      L1  H     9    22       P1  7948  0.90
      L1  H    13    37       P1 10747  0.97
      P1  H 10752 10764       L1     7  0.29

> <Gold.Chemscore.Hbond.Weighted>
-9.3877

> <Gold.Chemscore.Metal.Weighted>
-0.0000

> <Gold.Chemscore.Lipo.Weighted>
-5.6823

> <Gold.Chemscore.Internal_Hbond.Weighted>
0.0000

> <Gold.Chemscore.DEClash.Weighted>
0.0301

> <Gold.Chemscore.DEInternal.Weighted>
0.3833

> <Gold.Chemscore.Rot.Weighted>
5.0578

> <Gold.Chemscore.Internal.Correction.Weighted>
   9.000000E+99

> <Gold.Protein.RotatedTorsions>
[ 6907 6896 6895 6894 ] final  110.09 input  -60.11 | X-H torsion
[ 7974 7965 7964 7962 ] final  -14.99 input  175.53 | X-H torsion
[ 8008 7997 7996 7995 ] final   67.65 input   59.86 | X-H torsion
[ 10167 10162 10161 10158 ] final -118.77 input  -65.29 | X-H torsion
[ 10718 10713 10712 10709 ] final   72.58 input   66.30 | X-H torsion
[ 10763 10752 10751 10750 ] final  -54.97 input  -60.55 | X-H torsion
[ 11005 11000 10999 10996 ] final -102.33 input  -57.11 | X-H torsion

> <Gold.Protein.ActiveResidues>
 VAL166  LYS551  ARG553  GLY616  TRP617  ASP618  TYR619  PRO620  LYS621  CYS622 
 ASP623  PHE694  ASN695  SER759  ASP760  ASP761  ALA762  ILE779  LEU786  VAL792 
 PHE793  MET794  SER795  GLU796  ALA797  LYS798  CYS799  TRP800  GLU811  SER814 

> <Gold.Protein.RotatedAtoms>
  152.5036  133.8850  159.7364 H   0  0  0  0  0  0  0  0  0  0  0  0  # atno 6907 bound_to 6896
  150.9303  133.6766  159.2819 H   0  0  0  0  0  0  0  0  0  0  0  0  # atno 6908 bound_to 6896
  151.4113  135.0990  159.9638 H   0  0  0  0  0  0  0  0  0  0  0  0  # atno 6909 bound_to 6896
  146.2051  140.3428  142.8410 H   0  0  0  0  0  0  0  0  0  0  0  0  # atno 7974 bound_to 7965
  155.6962  140.3495  155.4914 H   0  0  0  0  0  0  0  0  0  0  0  0  # atno 8008 bound_to 7997
  155.9481  140.1114  157.1022 H   0  0  0  0  0  0  0  0  0  0  0  0  # atno 8009 bound_to 7997
  154.4116  140.1199  156.5002 H   0  0  0  0  0  0  0  0  0  0  0  0  # atno 8010 bound_to 7997
  140.0539  143.5033  152.2067 H   0  0  0  0  0  0  0  0  0  0  0  0  # atno 10167 bound_to 10162
  157.6508  130.9586  150.0949 H   0  0  0  0  0  0  0  0  0  0  0  0  # atno 10718 bound_to 10713
  154.1834  135.6439  153.5040 H   0  0  0  0  0  0  0  0  0  0  0  0  # atno 10763 bound_to 10752
  153.0053  135.5411  154.6491 H   0  0  0  0  0  0  0  0  0  0  0  0  # atno 10764 bound_to 10752
  154.5861  135.2929  155.0656 H   0  0  0  0  0  0  0  0  0  0  0  0  # atno 10765 bound_to 10752
  141.1194  133.8549  157.1345 H   0  0  0  0  0  0  0  0  0  0  0  0  # atno 11005 bound_to 11000
  144.8773  140.7354  143.6009 LP  0  0  0  0  0  0  0  0  0  0  0  0  # atno 17320 bound_to 7965
  145.3348  139.1749  143.4517 LP  0  0  0  0  0  0  0  0  0  0  0  0  # atno 17321 bound_to 7965
  139.5936  144.7559  151.3341 LP  0  0  0  0  0  0  0  0  0  0  0  0  # atno 17342 bound_to 10162
  140.7204  143.7152  150.7738 LP  0  0  0  0  0  0  0  0  0  0  0  0  # atno 17343 bound_to 10162
  156.1888  130.3653  149.8937 LP  0  0  0  0  0  0  0  0  0  0  0  0  # atno 17370 bound_to 10713
  156.6871  130.8881  151.3583 LP  0  0  0  0  0  0  0  0  0  0  0  0  # atno 17371 bound_to 10713
  140.0139  134.9976  157.0453 LP  0  0  0  0  0  0  0  0  0  0  0  0  # atno 17394 bound_to 11000
  140.4552  134.1541  155.7185 LP  0  0  0  0  0  0  0  0  0  0  0  0  # atno 17395 bound_to 11000

$$$$
