AV-unprocessed.smi:568|AV-procd|sdf|2958|dock3
  -GOLD-   2262023463D 1   1.00000     0.00000
 Structure written by MMmdl.
 35 36  0  0  0  0  0  0  0  0  1 V2000
  148.5688  125.0184  150.0548 C   0  0  0  0  0  0  0  0  0  0  0  0
  148.3319  125.2729  151.5159 C   0  0  0  0  0  0  0  0  0  0  0  0
  148.2096  124.2445  152.3380 N   0  0  0  0  0  0  0  0  0  0  0  0
  148.0015  124.7909  153.6077 O   0  0  0  0  0  0  0  0  0  0  0  0
  148.0056  126.1434  153.4995 C   0  0  0  0  0  0  0  0  0  0  0  0
  147.7990  126.9095  154.7620 C   0  0  0  0  0  0  0  0  0  0  0  0
  148.2085  126.5179  152.1991 C   0  0  0  0  0  0  0  0  0  0  0  0
  148.2876  127.9068  151.6193 C   0  0  0  0  0  0  0  0  0  0  0  0
  147.0997  128.7345  152.1103 C   0  0  0  0  0  0  0  0  0  0  0  0
  146.2621  128.2256  152.8549 O   0  0  0  0  0  0  0  0  0  0  0  0
  147.0367  130.0051  151.6819 N   0  0  0  0  0  0  0  0  0  0  0  0
  145.9833  130.9603  152.0111 C   0  0  0  0  0  0  0  0  0  0  0  0
  145.0595  131.2381  150.8100 C   0  0  1  0  0  0  0  0  0  0  0  0
  144.0326  132.3222  151.0659 C   0  0  0  0  0  0  0  0  0  0  0  0
  143.6048  132.7003  149.6503 C   0  0  0  0  0  0  0  0  0  0  0  0
  144.7337  132.4481  148.8183 O   0  0  0  0  0  0  0  0  0  0  0  0
  145.7544  131.7951  149.5663 C   0  0  0  0  0  0  0  0  0  0  0  0
  148.9106  125.9177  149.5427 H   0  0  0  0  0  0  0  0  0  0  0  0
  147.6546  124.6848  149.5636 H   0  0  0  0  0  0  0  0  0  0  0  0
  149.3273  124.2497  149.9061 H   0  0  0  0  0  0  0  0  0  0  0  0
  148.0167  127.9680  154.6201 H   0  0  0  0  0  0  0  0  0  0  0  0
  148.4510  126.5358  155.5517 H   0  0  0  0  0  0  0  0  0  0  0  0
  146.7678  126.8194  155.1031 H   0  0  0  0  0  0  0  0  0  0  0  0
  149.2105  128.4078  151.9130 H   0  0  0  0  0  0  0  0  0  0  0  0
  148.2950  127.8847  150.5288 H   0  0  0  0  0  0  0  0  0  0  0  0
  147.7718  130.3332  151.0726 H   0  0  0  0  0  0  0  0  0  0  0  0
  145.3985  130.5343  152.8265 H   0  0  0  0  0  0  0  0  0  0  0  0
  146.4076  131.8893  152.3959 H   0  0  0  0  0  0  0  0  0  0  0  0
  144.5327  130.3219  150.5371 H   0  0  0  0  0  0  0  0  0  0  0  0
  143.1996  131.9878  151.6846 H   0  0  0  0  0  0  0  0  0  0  0  0
  144.4983  133.1793  151.5550 H   0  0  0  0  0  0  0  0  0  0  0  0
  142.7819  132.0660  149.3185 H   0  0  0  0  0  0  0  0  0  0  0  0
  143.2815  133.7390  149.5785 H   0  0  0  0  0  0  0  0  0  0  0  0
  146.5050  132.5370  149.8432 H   0  0  0  0  0  0  0  0  0  0  0  0
  146.2453  131.0208  148.9762 H   0  0  0  0  0  0  0  0  0  0  0  0
  1  2  1  0  0  0  0
  1 18  1  0  0  0  0
  1 19  1  0  0  0  0
  1 20  1  0  0  0  0
  2  7  1  0  0  0  0
  2  3  2  0  0  0  0
  3  4  1  0  0  0  0
  4  5  1  0  0  0  0
  5  6  1  0  0  0  0
  5  7  2  0  0  0  0
  6 21  1  0  0  0  0
  6 22  1  0  0  0  0
  6 23  1  0  0  0  0
  7  8  1  0  0  0  0
  8  9  1  0  0  0  0
  8 24  1  0  0  0  0
  8 25  1  0  0  0  0
  9 10  2  0  0  0  0
  9 11  1  0  0  0  0
 11 12  1  0  0  0  0
 11 26  1  0  0  0  0
 12 13  1  0  0  0  0
 12 27  1  0  0  0  0
 12 28  1  0  0  0  0
 13 17  1  0  0  0  0
 13 14  1  0  0  0  0
 13 29  1  0  0  0  0
 14 15  1  0  0  0  0
 14 30  1  0  0  0  0
 14 31  1  0  0  0  0
 15 16  1  0  0  0  0
 15 32  1  0  0  0  0
 15 33  1  0  0  0  0
 16 17  1  0  0  0  0
 17 34  1  0  0  0  0
 17 35  1  0  0  0  0
M  END
> <s_m_source_file>
AV-unprocessed.smi

> <i_m_source_file_index>
568

> <i_lp_mmshare_version>
43012

> <i_f3d_flags>
0

> <s_epik_input>
W0NIM11jMW5vYyhbQ0gzXSljMVtDSDJdQyg9TylbTkhdW0NIMl1bQ0BASF0yW0NIMl1bQ0gyXU9bQ0gyXTI=

> <s_epik_cmdline>
J2VwaWtfcHl0aG9uJywgJy1waCcsICc3LjAnLCAnLXRuJywgJzgnLCAnLW1hJywgJzIwMCcsICctbWV0YWxfYmluZGluZycsICctaW1hZScsICc8aW5maWxlLm1hZT4nLCAnLW9tYWUnLCAnPG91dGZpbGUubWFlPic=

> <r_lp_tautomer_probability>
1

> <r_epik_Ionization_Penalty>
2.07075e-08

> <r_epik_Ionization_Penalty_Charging>
0

> <r_epik_Ionization_Penalty_Neutral>
2.07075e-08

> <r_epik_State_Penalty>
-0

> <r_epik_Charging_Adjusted_Penalty>
0

> <i_epik_Tot_Q>
0

> <i_epik_Tot_abs_Q>
0

> <r_epik_Metal_State_Penalty>
-0

> <b_epik_Metal_Only>
0

> <s_lp_Force_Field>
OPLS_2005

> <r_lp_Energy>
12.1953

> <b_lp_Chiralities_Consistent>
1

> <s_lp_Variant>
AV-unprocessed.smi:568-2

> <Gold.Version>
5.8.1

> <Gold.Id.Protein>
6NUR|6NUR_protein|mol2

> <Gold.PLP.Fitness>
36.6515

> <Gold.PLP.PLP>
-34.0355

> <Gold.PLP.part.hbond>
-2.4044

> <Gold.PLP.part.metal>
0.0000

> <Gold.PLP.part.buried>
-5.5626

> <Gold.PLP.part.nonpolar>
-27.4986

> <Gold.PLP.part.repulsive>
1.3720

> <Gold.PLP.ligand.clash>
0.0000

> <Gold.PLP.ligand.torsion>
0.1864

> <Gold.PLP.Chemscore.Hbond>
0.9913

> <Gold.PLP.Chemscore.CHOScore>
0.0000

> <Gold.PLP.Chemscore.Metal>
0.0000

> <Gold.Chemscore.Hbonds>
donor molecule, donor type, donor heavy atom, donor atom, acceptor molecule, acceptor atom, score
      L1  H    11    26       P1 10747  0.98

> <Gold.PLP.Chemscore.Internal.Correction>
0.0150

> <Gold.Rescore>
     Score         DG    S(hbond)    S(metal)    S(lipo)     H(rot)  DE(clash)    DE(int)     intcor
     14.40     -14.78       1.00        0.00      85.14       1.56       0.12       0.26       ----

> <Gold.Chemscore.Fitness>
14.3976

> <Gold.Chemscore.DG>
-14.7850

> <Gold.Chemscore.ZeroCoef>
-5.4800

> <Gold.Chemscore.Hbond>
0.9953

> <Gold.Chemscore.Metal>
0.0000

> <Gold.Chemscore.Lipo>
85.1412

> <Gold.Chemscore.Internal_Hbond>
0.0000

> <Gold.Chemscore.DEClash>
0.1238

> <Gold.Chemscore.DEInternal>
0.2636

> <Gold.Chemscore.Rot>
1.5551

> <Gold.Chemscore.Internal.Correction>
   9.000000E+99

> <Gold.Chemscore.Hbonds>
donor molecule, donor type, donor heavy atom, donor atom, acceptor molecule, acceptor atom, score
      L1  H    11    26       P1 10747  0.91

> <Gold.Chemscore.Hbond.Weighted>
-3.3244

> <Gold.Chemscore.Metal.Weighted>
-0.0000

> <Gold.Chemscore.Lipo.Weighted>
-9.9615

> <Gold.Chemscore.Internal_Hbond.Weighted>
0.0000

> <Gold.Chemscore.DEClash.Weighted>
0.1238

> <Gold.Chemscore.DEInternal.Weighted>
0.2636

> <Gold.Chemscore.Rot.Weighted>
3.9809

> <Gold.Chemscore.Internal.Correction.Weighted>
   9.000000E+99

> <Gold.Protein.RotatedTorsions>
[ 6907 6896 6895 6894 ] final   39.86 input  -60.11 | X-H torsion
[ 7974 7965 7964 7962 ] final  130.07 input  175.53 | X-H torsion
[ 8008 7997 7996 7995 ] final   60.13 input   59.86 | X-H torsion
[ 10167 10162 10161 10158 ] final   34.26 input  -65.29 | X-H torsion
[ 10718 10713 10712 10709 ] final -162.89 input   66.30 | X-H torsion
[ 10763 10752 10751 10750 ] final  -74.62 input  -60.55 | X-H torsion
[ 11005 11000 10999 10996 ] final -123.88 input  -57.11 | X-H torsion

> <Gold.Protein.ActiveResidues>
 VAL166  LYS551  ARG553  GLY616  TRP617  ASP618  TYR619  PRO620  LYS621  CYS622 
 ASP623  PHE694  ASN695  SER759  ASP760  ASP761  ALA762  ILE779  LEU786  VAL792 
 PHE793  MET794  SER795  GLU796  ALA797  LYS798  CYS799  TRP800  GLU811  SER814 

> <Gold.Protein.RotatedAtoms>
  152.1750  134.8802  160.0531 H   0  0  0  0  0  0  0  0  0  0  0  0  # atno 6907 bound_to 6896
  151.9748  133.3733  159.4093 H   0  0  0  0  0  0  0  0  0  0  0  0  # atno 6908 bound_to 6896
  150.6908  134.4024  159.5169 H   0  0  0  0  0  0  0  0  0  0  0  0  # atno 6909 bound_to 6896
  145.0219  139.4124  143.5193 H   0  0  0  0  0  0  0  0  0  0  0  0  # atno 7974 bound_to 7965
  155.5773  140.3491  155.4531 H   0  0  0  0  0  0  0  0  0  0  0  0  # atno 8008 bound_to 7997
  156.0399  140.1293  157.0192 H   0  0  0  0  0  0  0  0  0  0  0  0  # atno 8009 bound_to 7997
  154.4387  140.1026  156.6208 H   0  0  0  0  0  0  0  0  0  0  0  0  # atno 8010 bound_to 7997
  140.4331  144.1296  150.6162 H   0  0  0  0  0  0  0  0  0  0  0  0  # atno 10167 bound_to 10162
  156.6169  130.8874  151.2949 H   0  0  0  0  0  0  0  0  0  0  0  0  # atno 10718 bound_to 10713
  154.4755  135.5858  153.6352 H   0  0  0  0  0  0  0  0  0  0  0  0  # atno 10763 bound_to 10752
  152.9840  135.6077  154.3312 H   0  0  0  0  0  0  0  0  0  0  0  0  # atno 10764 bound_to 10752
  154.3198  135.2844  155.2504 H   0  0  0  0  0  0  0  0  0  0  0  0  # atno 10765 bound_to 10752
  140.9885  134.0573  157.3683 H   0  0  0  0  0  0  0  0  0  0  0  0  # atno 11005 bound_to 11000
  146.3486  139.9721  142.8705 LP  0  0  0  0  0  0  0  0  0  0  0  0  # atno 17320 bound_to 7965
  145.1885  140.9800  143.4225 LP  0  0  0  0  0  0  0  0  0  0  0  0  # atno 17321 bound_to 7965
  140.4404  143.2529  151.9480 LP  0  0  0  0  0  0  0  0  0  0  0  0  # atno 17342 bound_to 10162
  139.4786  144.5659  151.8165 LP  0  0  0  0  0  0  0  0  0  0  0  0  # atno 17343 bound_to 10162
  157.7238  130.9595  150.1550 LP  0  0  0  0  0  0  0  0  0  0  0  0  # atno 17370 bound_to 10713
  156.2343  130.3685  149.8409 LP  0  0  0  0  0  0  0  0  0  0  0  0  # atno 17371 bound_to 10713
  139.8981  135.0153  156.7133 LP  0  0  0  0  0  0  0  0  0  0  0  0  # atno 17394 bound_to 11000
  140.7078  133.9250  155.8065 LP  0  0  0  0  0  0  0  0  0  0  0  0  # atno 17395 bound_to 11000

$$$$
