AV-unprocessed.smi:1534|AV-procd|sdf|6169|dock8
  -GOLD-   22720 6313D 1   1.00000     0.00000
 Structure written by MMmdl.
 37 38  0  0  0  0  0  0  0  0  2 V2000
  145.4422  135.3150  154.4780 O   0  0  0  0  0  0  0  0  0  0  0  0
  146.3377  135.6305  153.6978 C   0  0  0  0  0  0  0  0  0  0  0  0
  146.1112  136.2207  152.5126 N   0  0  0  0  0  0  0  0  0  0  0  0
  144.7942  136.4780  151.9397 C   0  0  0  0  0  0  0  0  0  0  0  0
  143.8655  135.2483  152.0043 C   0  0  0  0  0  0  0  0  0  0  0  0
  144.3467  134.0755  151.1656 C   0  0  0  0  0  0  0  0  0  0  0  0
  145.5862  133.4429  151.4035 C   0  0  0  0  0  0  0  0  0  0  0  0
  145.9633  132.3432  150.6045 C   0  0  0  0  0  0  0  0  0  0  0  0
  145.0934  131.8976  149.5876 C   0  0  0  0  0  0  0  0  0  0  0  0
  143.8676  132.5660  149.3926 C   0  0  0  0  0  0  0  0  0  0  0  0
  143.5437  133.6170  150.1771 N   0  3  0  0  0  0  0  0  0  0  0  0
  147.6343  135.4026  153.9718 N   0  0  0  0  0  0  0  0  0  0  0  0
  148.2030  134.7814  155.1690 C   0  0  1  0  0  0  0  0  0  0  0  0
  148.9883  133.4938  154.8450 C   0  0  0  0  0  0  0  0  0  0  0  0
  149.8618  133.1236  156.0525 C   0  0  0  0  0  0  0  0  0  0  0  0
  150.1981  134.6878  156.9504 S   0  0  0  0  0  0  0  0  0  0  0  0
  149.5789  134.6086  158.2823 O   0  0  0  0  0  0  0  0  0  0  0  0
  151.6108  135.0639  156.7910 O   0  0  0  0  0  0  0  0  0  0  0  0
  149.1641  135.7452  155.8731 C   0  0  0  0  0  0  0  0  0  0  0  0
  146.9094  136.4690  151.9466 H   0  0  0  0  0  0  0  0  0  0  0  0
  144.3271  137.3348  152.4280 H   0  0  0  0  0  0  0  0  0  0  0  0
  144.9440  136.7627  150.8979 H   0  0  0  0  0  0  0  0  0  0  0  0
  143.7643  134.9193  153.0398 H   0  0  0  0  0  0  0  0  0  0  0  0
  142.8628  135.5298  151.6807 H   0  0  0  0  0  0  0  0  0  0  0  0
  146.2393  133.7920  152.1902 H   0  0  0  0  0  0  0  0  0  0  0  0
  146.9075  131.8456  150.7716 H   0  0  0  0  0  0  0  0  0  0  0  0
  145.3629  131.0556  148.9667 H   0  0  0  0  0  0  0  0  0  0  0  0
  143.1420  132.2936  148.6401 H   0  0  0  0  0  0  0  0  0  0  0  0
  148.3026  135.7625  153.3054 H   0  0  0  0  0  0  0  0  0  0  0  0
  147.4111  134.5390  155.8806 H   0  0  0  0  0  0  0  0  0  0  0  0
  148.3286  132.6715  154.5664 H   0  0  0  0  0  0  0  0  0  0  0  0
  149.6395  133.6793  153.9894 H   0  0  0  0  0  0  0  0  0  0  0  0
  149.3300  132.4551  156.7299 H   0  0  0  0  0  0  0  0  0  0  0  0
  150.7994  132.6490  155.7625 H   0  0  0  0  0  0  0  0  0  0  0  0
  149.8248  136.2382  155.1588 H   0  0  0  0  0  0  0  0  0  0  0  0
  148.6578  136.5069  156.4661 H   0  0  0  0  0  0  0  0  0  0  0  0
  142.6508  134.0854  150.0203 H   0  0  0  0  0  0  0  0  0  0  0  0
  1  2  2  0  0  0  0
  2  3  1  0  0  0  0
  2 12  1  0  0  0  0
  3  4  1  0  0  0  0
  3 20  1  0  0  0  0
  4  5  1  0  0  0  0
  4 21  1  0  0  0  0
  4 22  1  0  0  0  0
  5  6  1  0  0  0  0
  5 23  1  0  0  0  0
  5 24  1  0  0  0  0
  6 11  1  0  0  0  0
  6  7  2  0  0  0  0
  7  8  1  0  0  0  0
  7 25  1  0  0  0  0
  8  9  2  0  0  0  0
  8 26  1  0  0  0  0
  9 10  1  0  0  0  0
  9 27  1  0  0  0  0
 10 11  2  0  0  0  0
 10 28  1  0  0  0  0
 11 37  1  0  0  0  0
 12 13  1  0  0  0  0
 12 29  1  0  0  0  0
 13 19  1  0  0  0  0
 13 14  1  0  0  0  0
 13 30  1  0  0  0  0
 14 15  1  0  0  0  0
 14 31  1  0  0  0  0
 14 32  1  0  0  0  0
 15 16  1  0  0  0  0
 15 33  1  0  0  0  0
 15 34  1  0  0  0  0
 16 17  2  0  0  0  0
 16 18  2  0  0  0  0
 16 19  1  0  0  0  0
 19 35  1  0  0  0  0
 19 36  1  0  0  0  0
M  CHG  1  11   1
M  END
> <s_m_source_file>
AV-unprocessed.smi

> <i_m_source_file_index>
1534

> <i_lp_mmshare_version>
43012

> <i_f3d_flags>
0

> <s_epik_input>
Tz1TMSg9TylbQ0gyXVtDSDJdW0NASF0oW0NIMl0xKVtOSF1DKD1PKVtOSF1bQ0gyXVtDSDJdYzJbY0hdW2NIXVtjSF1bY0hdbjI=

> <s_epik_cmdline>
J2VwaWtfcHl0aG9uJywgJy1waCcsICc3LjAnLCAnLXRuJywgJzgnLCAnLW1hJywgJzIwMCcsICctbWV0YWxfYmluZGluZycsICctaW1hZScsICc8aW5maWxlLm1hZT4nLCAnLW9tYWUnLCAnPG91dGZpbGUubWFlPic=

> <r_epik_Ionization_Penalty>
1.58466

> <r_epik_Ionization_Penalty_Charging>
1.58462

> <r_epik_Ionization_Penalty_Neutral>
3.4911e-05

> <r_epik_State_Penalty>
1.6815

> <r_epik_Charging_Adjusted_Penalty>
3.26612

> <i_epik_Tot_Q>
1

> <i_epik_Tot_abs_Q>
1

> <r_epik_Metal_State_Penalty>
1.72144

> <b_epik_Metal_Only>
0

> <s_lp_Force_Field>
OPLS_2005

> <r_lp_Energy>
19.4727

> <b_lp_Chiralities_Consistent>
1

> <s_lp_Variant>
AV-unprocessed.smi:1534-4

> <Gold.Version>
5.8.1

> <Gold.Id.Protein>
6NUR|6NUR_protein|mol2

> <Gold.PLP.Fitness>
48.6852

> <Gold.PLP.PLP>
-31.6810

> <Gold.PLP.part.hbond>
-4.7986

> <Gold.PLP.part.metal>
0.0000

> <Gold.PLP.part.buried>
-2.5047

> <Gold.PLP.part.nonpolar>
-23.9318

> <Gold.PLP.part.repulsive>
0.1208

> <Gold.PLP.ligand.clash>
0.0000

> <Gold.PLP.ligand.torsion>
0.0751

> <Gold.PLP.Chemscore.Hbond>
5.7130

> <Gold.PLP.Chemscore.CHOScore>
0.0000

> <Gold.PLP.Chemscore.Metal>
0.0000

> <Gold.Chemscore.Hbonds>
donor molecule, donor type, donor heavy atom, donor atom, acceptor molecule, acceptor atom, score
      L1  H     3    20       P1  7948  0.84
      L1  H    11    37       P1 10186  2.00
      L1  H    12    29       P1  7948  1.00
      P1  H  6896  6908       L1    17  1.00
      P1  H 10752 10764       L1    18  0.24

> <Gold.PLP.Chemscore.Internal.Correction>
0.0154

> <Gold.Rescore>
     Score         DG    S(hbond)    S(metal)    S(lipo)     H(rot)  DE(clash)    DE(int)     intcor
     23.32     -24.74       4.46        0.00      77.15       1.82       0.08       1.33       ----

> <Gold.Chemscore.Fitness>
23.3232

> <Gold.Chemscore.DG>
-24.7396

> <Gold.Chemscore.ZeroCoef>
-5.4800

> <Gold.Chemscore.Hbond>
4.4602

> <Gold.Chemscore.Metal>
0.0000

> <Gold.Chemscore.Lipo>
77.1521

> <Gold.Chemscore.Internal_Hbond>
0.0000

> <Gold.Chemscore.DEClash>
0.0843

> <Gold.Chemscore.DEInternal>
1.3321

> <Gold.Chemscore.Rot>
1.8220

> <Gold.Chemscore.Internal.Correction>
   9.000000E+99

> <Gold.Chemscore.Hbonds>
donor molecule, donor type, donor heavy atom, donor atom, acceptor molecule, acceptor atom, score
      L1  H     3    20       P1  7948  0.77
      L1  H    11    37       P1 10186  0.99
      L1  H    12    29       P1  7948  0.99
      P1  H  6896  6908       L1    17  0.62
      P1  H 10752 10764       L1    18  0.25

> <Gold.Chemscore.Hbond.Weighted>
-14.8971

> <Gold.Chemscore.Metal.Weighted>
-0.0000

> <Gold.Chemscore.Lipo.Weighted>
-9.0268

> <Gold.Chemscore.Internal_Hbond.Weighted>
0.0000

> <Gold.Chemscore.DEClash.Weighted>
0.0843

> <Gold.Chemscore.DEInternal.Weighted>
1.3321

> <Gold.Chemscore.Rot.Weighted>
4.6642

> <Gold.Chemscore.Internal.Correction.Weighted>
   9.000000E+99

> <Gold.Protein.RotatedTorsions>
[ 6907 6896 6895 6894 ] final  133.00 input  -60.11 | X-H torsion
[ 7974 7965 7964 7962 ] final   76.88 input  175.53 | X-H torsion
[ 8008 7997 7996 7995 ] final  -35.59 input   59.86 | X-H torsion
[ 10167 10162 10161 10158 ] final -121.68 input  -65.29 | X-H torsion
[ 10718 10713 10712 10709 ] final   -9.66 input   66.30 | X-H torsion
[ 10763 10752 10751 10750 ] final  -25.19 input  -60.55 | X-H torsion
[ 11005 11000 10999 10996 ] final  -43.05 input  -57.11 | X-H torsion

> <Gold.Protein.ActiveResidues>
 VAL166  LYS551  ARG553  GLY616  TRP617  ASP618  TYR619  PRO620  LYS621  CYS622 
 ASP623  PHE694  ASN695  SER759  ASP760  ASP761  ALA762  ILE779  LEU786  VAL792 
 PHE793  MET794  SER795  GLU796  ALA797  LYS798  CYS799  TRP800  GLU811  SER814 

> <Gold.Protein.RotatedAtoms>
  152.3265  133.5911  159.5780 H   0  0  0  0  0  0  0  0  0  0  0  0  # atno 6907 bound_to 6896
  150.7400  133.9932  159.3622 H   0  0  0  0  0  0  0  0  0  0  0  0  # atno 6908 bound_to 6896
  151.7811  135.0762  160.0425 H   0  0  0  0  0  0  0  0  0  0  0  0  # atno 6909 bound_to 6896
  145.6972  139.2571  143.1726 H   0  0  0  0  0  0  0  0  0  0  0  0  # atno 7974 bound_to 7965
  154.4092  140.1653  156.2237 H   0  0  0  0  0  0  0  0  0  0  0  0  # atno 8008 bound_to 7997
  155.9342  140.3412  155.6251 H   0  0  0  0  0  0  0  0  0  0  0  0  # atno 8009 bound_to 7997
  155.7069  140.0752  157.2378 H   0  0  0  0  0  0  0  0  0  0  0  0  # atno 8010 bound_to 7997
  140.0225  143.5330  152.2214 H   0  0  0  0  0  0  0  0  0  0  0  0  # atno 10167 bound_to 10162
  156.6847  130.5047  149.5961 H   0  0  0  0  0  0  0  0  0  0  0  0  # atno 10718 bound_to 10713
  153.6959  135.6959  153.5076 H   0  0  0  0  0  0  0  0  0  0  0  0  # atno 10763 bound_to 10752
  153.2378  135.4316  155.0664 H   0  0  0  0  0  0  0  0  0  0  0  0  # atno 10764 bound_to 10752
  154.8359  135.3500  154.6500 H   0  0  0  0  0  0  0  0  0  0  0  0  # atno 10765 bound_to 10752
  141.0357  133.6801  156.2679 H   0  0  0  0  0  0  0  0  0  0  0  0  # atno 11005 bound_to 11000
  146.0830  140.7743  142.9632 LP  0  0  0  0  0  0  0  0  0  0  0  0  # atno 17320 bound_to 7965
  144.6979  140.3518  143.7180 LP  0  0  0  0  0  0  0  0  0  0  0  0  # atno 17321 bound_to 7965
  139.6130  144.7613  151.2908 LP  0  0  0  0  0  0  0  0  0  0  0  0  # atno 17342 bound_to 10162
  140.7336  143.6788  150.8018 LP  0  0  0  0  0  0  0  0  0  0  0  0  # atno 17343 bound_to 10162
  156.1841  130.6518  151.0986 LP  0  0  0  0  0  0  0  0  0  0  0  0  # atno 17370 bound_to 10713
  157.7031  131.0768  150.6757 LP  0  0  0  0  0  0  0  0  0  0  0  0  # atno 17371 bound_to 10713
  140.6326  134.5248  157.5561 LP  0  0  0  0  0  0  0  0  0  0  0  0  # atno 17394 bound_to 11000
  139.9239  134.8094  156.1127 LP  0  0  0  0  0  0  0  0  0  0  0  0  # atno 17395 bound_to 11000

$$$$
