AV-unprocessed.smi:1584|AV-procd|sdf|6368|dock6
  -GOLD-   22720 6593D 1   1.00000     0.00000
 Structure written by MMmdl.
 39 40  0  0  0  0  0  0  0  0  1 V2000
  150.5831  137.3274  156.6564 C   0  0  0  0  0  0  0  0  0  0  0  0
  151.6828  138.1349  155.9518 C   0  0  1  0  0  0  0  0  0  0  0  0
  151.3471  138.3829  154.4684 C   0  0  0  0  0  0  0  0  0  0  0  0
  150.3684  139.4421  154.2953 N   0  0  0  0  0  0  0  0  0  0  0  0
  149.1173  139.3678  153.7194 C   0  0  0  0  0  0  0  0  0  0  0  0
  148.5597  140.6116  153.7975 C   0  0  0  0  0  0  0  0  0  0  0  0
  149.5601  141.3900  154.4439 C   0  0  0  0  0  0  0  0  0  0  0  0
  150.6416  140.6874  154.7403 N   0  0  0  0  0  0  0  0  0  0  0  0
  151.8713  139.4114  156.6383 N   0  0  0  0  0  0  0  0  0  0  0  0
  152.1801  139.5660  157.9349 C   0  0  0  0  0  0  0  0  0  0  0  0
  152.2923  138.6259  158.7222 O   0  0  0  0  0  0  0  0  0  0  0  0
  152.4024  141.0074  158.4111 C   0  0  1  0  0  0  0  0  0  0  0  0
  151.2778  141.9272  157.9206 C   0  0  0  0  0  0  0  0  0  0  0  0
  151.5588  143.3731  158.3500 C   0  0  0  0  0  0  0  0  0  0  0  0
  151.9396  143.5047  159.7638 N   0  0  0  0  0  0  0  0  0  0  0  0
  151.8437  144.8613  160.3054 C   0  0  0  0  0  0  0  0  0  0  0  0
  152.4216  142.4942  160.5275 C   0  0  0  0  0  0  0  0  0  0  0  0
  152.7880  142.6630  161.6909 O   0  0  0  0  0  0  0  0  0  0  0  0
  152.4893  141.0709  159.9489 C   0  0  0  0  0  0  0  0  0  0  0  0
  150.4357  136.3618  156.1724 H   0  0  0  0  0  0  0  0  0  0  0  0
  149.6297  137.8567  156.6413 H   0  0  0  0  0  0  0  0  0  0  0  0
  150.8426  137.1360  157.6981 H   0  0  0  0  0  0  0  0  0  0  0  0
  152.6046  137.5513  155.9934 H   0  0  0  0  0  0  0  0  0  0  0  0
  152.2481  138.6577  153.9180 H   0  0  0  0  0  0  0  0  0  0  0  0
  150.9639  137.4735  154.0033 H   0  0  0  0  0  0  0  0  0  0  0  0
  148.7306  138.4455  153.3118 H   0  0  0  0  0  0  0  0  0  0  0  0
  147.5854  140.9186  153.4474 H   0  0  0  0  0  0  0  0  0  0  0  0
  149.5323  142.4373  154.7058 H   0  0  0  0  0  0  0  0  0  0  0  0
  151.7935  140.2438  156.0723 H   0  0  0  0  0  0  0  0  0  0  0  0
  153.3459  141.3675  157.9958 H   0  0  0  0  0  0  0  0  0  0  0  0
  151.1798  141.8770  156.8352 H   0  0  0  0  0  0  0  0  0  0  0  0
  150.3203  141.6064  158.3352 H   0  0  0  0  0  0  0  0  0  0  0  0
  152.3701  143.7806  157.7456 H   0  0  0  0  0  0  0  0  0  0  0  0
  150.6780  143.9821  158.1409 H   0  0  0  0  0  0  0  0  0  0  0  0
  152.8080  145.1927  160.6940 H   0  0  0  0  0  0  0  0  0  0  0  0
  151.1168  144.8974  161.1179 H   0  0  0  0  0  0  0  0  0  0  0  0
  151.5340  145.5855  159.5510 H   0  0  0  0  0  0  0  0  0  0  0  0
  151.6733  140.5048  160.4010 H   0  0  0  0  0  0  0  0  0  0  0  0
  153.4135  140.5987  160.2851 H   0  0  0  0  0  0  0  0  0  0  0  0
  1  2  1  0  0  0  0
  1 20  1  0  0  0  0
  1 21  1  0  0  0  0
  1 22  1  0  0  0  0
  2  3  1  0  0  0  0
  2  9  1  0  0  0  0
  2 23  1  0  0  0  0
  3  4  1  0  0  0  0
  3 24  1  0  0  0  0
  3 25  1  0  0  0  0
  4  8  1  0  0  0  0
  4  5  1  0  0  0  0
  5  6  2  0  0  0  0
  5 26  1  0  0  0  0
  6  7  1  0  0  0  0
  6 27  1  0  0  0  0
  7  8  2  0  0  0  0
  7 28  1  0  0  0  0
  9 10  1  0  0  0  0
  9 29  1  0  0  0  0
 10 11  2  0  0  0  0
 10 12  1  0  0  0  0
 12 19  1  0  0  0  0
 12 13  1  0  0  0  0
 12 30  1  0  0  0  0
 13 14  1  0  0  0  0
 13 31  1  0  0  0  0
 13 32  1  0  0  0  0
 14 15  1  0  0  0  0
 14 33  1  0  0  0  0
 14 34  1  0  0  0  0
 15 16  1  0  0  0  0
 15 17  1  0  0  0  0
 16 35  1  0  0  0  0
 16 36  1  0  0  0  0
 16 37  1  0  0  0  0
 17 18  2  0  0  0  0
 17 19  1  0  0  0  0
 19 38  1  0  0  0  0
 19 39  1  0  0  0  0
M  END
> <s_m_source_file>
AV-unprocessed.smi

> <i_m_source_file_index>
1584

> <i_lp_mmshare_version>
43012

> <i_f3d_flags>
0

> <s_epik_input>
bjFbY0hdW2NIXVtjSF1uMVtDSDJdW0NAQEhdKFtDSDNdKVtOSF1DKD1PKVtDQEBIXTJbQ0gyXVtDSDJdTihbQ0gzXSlDKD1PKVtDSDJdMg==

> <s_epik_cmdline>
J2VwaWtfcHl0aG9uJywgJy1waCcsICc3LjAnLCAnLXRuJywgJzgnLCAnLW1hJywgJzIwMCcsICctbWV0YWxfYmluZGluZycsICctaW1hZScsICc8aW5maWxlLm1hZT4nLCAnLW9tYWUnLCAnPG91dGZpbGUubWFlPic=

> <r_lp_tautomer_probability>
1

> <r_epik_Ionization_Penalty>
0.000299422

> <r_epik_Ionization_Penalty_Charging>
0

> <r_epik_Ionization_Penalty_Neutral>
0.000299422

> <r_epik_State_Penalty>
-0

> <r_epik_Charging_Adjusted_Penalty>
0

> <i_epik_Tot_Q>
0

> <i_epik_Tot_abs_Q>
0

> <r_epik_Metal_State_Penalty>
-0

> <b_epik_Metal_Only>
0

> <s_lp_Force_Field>
OPLS_2005

> <r_lp_Energy>
13.2703

> <b_lp_Chiralities_Consistent>
1

> <s_lp_Variant>
AV-unprocessed.smi:1584-4

> <Gold.Version>
5.8.1

> <Gold.Id.Protein>
6NUR|6NUR_protein|mol2

> <Gold.PLP.Fitness>
45.1126

> <Gold.PLP.PLP>
-38.7676

> <Gold.PLP.part.hbond>
-1.0000

> <Gold.PLP.part.metal>
0.0000

> <Gold.PLP.part.buried>
-4.0424

> <Gold.PLP.part.nonpolar>
-33.2244

> <Gold.PLP.part.repulsive>
0.2411

> <Gold.PLP.ligand.clash>
0.0000

> <Gold.PLP.ligand.torsion>
0.3861

> <Gold.PLP.Chemscore.Hbond>
1.0000

> <Gold.PLP.Chemscore.CHOScore>
1.3644

> <Gold.PLP.Chemscore.Metal>
0.0000

> <Gold.Chemscore.Hbonds>
donor molecule, donor type, donor heavy atom, donor atom, acceptor molecule, acceptor atom, score
      P1  H  7989  7998       L1     8  0.41
      L1  C     5    26       P1  7948  0.75
      L1  C     7    28       P1  8028  0.96

> <Gold.PLP.Chemscore.Internal.Correction>
0.0240

> <Gold.Rescore>
     Score         DG    S(hbond)    S(metal)    S(lipo)     H(rot)  DE(clash)    DE(int)     intcor
     11.04     -12.87       0.84        0.00      75.72       1.67       0.00       1.83       ----

> <Gold.Chemscore.Fitness>
11.0422

> <Gold.Chemscore.DG>
-12.8704

> <Gold.Chemscore.ZeroCoef>
-5.4800

> <Gold.Chemscore.Hbond>
0.8429

> <Gold.Chemscore.Metal>
0.0000

> <Gold.Chemscore.Lipo>
75.7187

> <Gold.Chemscore.Internal_Hbond>
0.0000

> <Gold.Chemscore.DEClash>
0.0000

> <Gold.Chemscore.DEInternal>
1.8282

> <Gold.Chemscore.Rot>
1.6734

> <Gold.Chemscore.Internal.Correction>
   9.000000E+99

> <Gold.Chemscore.Hbonds>
donor molecule, donor type, donor heavy atom, donor atom, acceptor molecule, acceptor atom, score
      P1  H  7989  7998       L1     8  0.01

> <Gold.Chemscore.Hbond.Weighted>
-2.8153

> <Gold.Chemscore.Metal.Weighted>
-0.0000

> <Gold.Chemscore.Lipo.Weighted>
-8.8591

> <Gold.Chemscore.Internal_Hbond.Weighted>
0.0000

> <Gold.Chemscore.DEClash.Weighted>
0.0000

> <Gold.Chemscore.DEInternal.Weighted>
1.8282

> <Gold.Chemscore.Rot.Weighted>
4.2840

> <Gold.Chemscore.Internal.Correction.Weighted>
   9.000000E+99

> <Gold.Protein.RotatedTorsions>
[ 6907 6896 6895 6894 ] final  -69.71 input  -60.11 | X-H torsion
[ 7974 7965 7964 7962 ] final   86.82 input  175.53 | X-H torsion
[ 8008 7997 7996 7995 ] final  -75.30 input   59.86 | X-H torsion
[ 10167 10162 10161 10158 ] final  -13.14 input  -65.29 | X-H torsion
[ 10718 10713 10712 10709 ] final  150.49 input   66.30 | X-H torsion
[ 10763 10752 10751 10750 ] final   -5.19 input  -60.55 | X-H torsion
[ 11005 11000 10999 10996 ] final   49.06 input  -57.11 | X-H torsion

> <Gold.Protein.ActiveResidues>
 VAL166  LYS551  ARG553  GLY616  TRP617  ASP618  TYR619  PRO620  LYS621  CYS622 
 ASP623  PHE694  ASN695  SER759  ASP760  ASP761  ALA762  ILE779  LEU786  VAL792 
 PHE793  MET794  SER795  GLU796  ALA797  LYS798  CYS799  TRP800  GLU811  SER814 

> <Gold.Protein.RotatedAtoms>
  150.7292  134.5557  159.5816 H   0  0  0  0  0  0  0  0  0  0  0  0  # atno 6907 bound_to 6896
  152.3033  134.7582  160.0362 H   0  0  0  0  0  0  0  0  0  0  0  0  # atno 6908 bound_to 6896
  151.8155  133.3352  159.3605 H   0  0  0  0  0  0  0  0  0  0  0  0  # atno 6909 bound_to 6896
  145.5672  139.2310  143.2426 H   0  0  0  0  0  0  0  0  0  0  0  0  # atno 7974 bound_to 7965
  154.5405  140.0746  156.8501 H   0  0  0  0  0  0  0  0  0  0  0  0  # atno 8008 bound_to 7997
  155.3191  140.3395  155.4223 H   0  0  0  0  0  0  0  0  0  0  0  0  # atno 8009 bound_to 7997
  156.1869  140.1672  156.8154 H   0  0  0  0  0  0  0  0  0  0  0  0  # atno 8010 bound_to 7997
  140.7176  143.5458  150.9357 H   0  0  0  0  0  0  0  0  0  0  0  0  # atno 10167 bound_to 10162
  157.2828  131.0838  151.1519 H   0  0  0  0  0  0  0  0  0  0  0  0  # atno 10718 bound_to 10713
  153.3951  135.7003  153.6467 H   0  0  0  0  0  0  0  0  0  0  0  0  # atno 10763 bound_to 10752
  153.5023  135.3649  155.2546 H   0  0  0  0  0  0  0  0  0  0  0  0  # atno 10764 bound_to 10752
  154.8706  135.4115  154.3275 H   0  0  0  0  0  0  0  0  0  0  0  0  # atno 10765 bound_to 10752
  140.1136  134.4922  155.8656 H   0  0  0  0  0  0  0  0  0  0  0  0  # atno 11005 bound_to 11000
  146.1810  140.6498  142.9189 LP  0  0  0  0  0  0  0  0  0  0  0  0  # atno 17320 bound_to 7965
  144.7455  140.5055  143.6839 LP  0  0  0  0  0  0  0  0  0  0  0  0  # atno 17321 bound_to 7965
  139.9181  143.6639  152.3102 LP  0  0  0  0  0  0  0  0  0  0  0  0  # atno 17342 bound_to 10162
  139.7046  144.7630  151.1215 LP  0  0  0  0  0  0  0  0  0  0  0  0  # atno 17343 bound_to 10162
  157.2946  130.6813  149.6132 LP  0  0  0  0  0  0  0  0  0  0  0  0  # atno 17370 bound_to 10713
  155.9665  130.4410  150.5324 LP  0  0  0  0  0  0  0  0  0  0  0  0  # atno 17371 bound_to 10713
  141.2136  133.6736  156.6753 LP  0  0  0  0  0  0  0  0  0  0  0  0  # atno 17394 bound_to 11000
  140.3058  134.8127  157.4135 LP  0  0  0  0  0  0  0  0  0  0  0  0  # atno 17395 bound_to 11000

$$$$
