AV-unprocessed.smi:128|AV-procd|sdf|1156|dock3
  -GOLD-   2262018293D 1   1.00000     0.00000
 Structure written by MMmdl.
 41 44  0  0  0  0  0  0  0  0  1 V2000
  150.6157  139.2234  154.2772 O   0  0  0  0  0  0  0  0  0  0  0  0
  150.8676  139.9479  155.2415 C   0  0  0  0  0  0  0  0  0  0  0  0
  150.1068  141.1504  155.5636 C   0  0  0  0  0  0  0  0  0  0  0  0
  149.0917  141.5278  154.7681 F   0  0  0  0  0  0  0  0  0  0  0  0
  150.4073  141.8950  156.6494 C   0  0  0  0  0  0  0  0  0  0  0  0
  151.4332  141.5789  157.5226 N   0  0  0  0  0  0  0  0  0  0  0  0
  151.7202  142.4478  158.7246 C   0  0  1  0  0  0  0  0  0  0  0  0
  152.2475  143.8203  158.2899 C   0  0  0  0  0  0  0  0  0  0  0  0
  151.5307  144.7435  159.2513 C   0  0  0  0  0  0  0  0  0  0  0  0
  150.1941  144.0327  159.4213 C   0  0  0  0  0  0  0  0  0  0  0  0
  150.5342  142.6497  159.4391 O   0  0  0  0  0  0  0  0  0  0  0  0
  152.2360  140.4427  157.2799 C   0  0  0  0  0  0  0  0  0  0  0  0
  153.1611  140.1453  158.0391 O   0  0  0  0  0  0  0  0  0  0  0  0
  151.9284  139.6655  156.1368 N   0  0  0  0  0  0  0  0  0  0  0  0
  152.7189  138.4708  155.8831 C   0  0  0  0  0  0  0  0  0  0  0  0
  151.9856  137.2322  156.3024 C   0  0  0  0  0  0  0  0  0  0  0  0
  151.5163  136.9520  157.5189 N   0  0  0  0  0  0  0  0  0  0  0  0
  150.9216  135.7152  157.4151 N   0  0  0  0  0  0  0  0  0  0  0  0
  151.0743  135.3329  156.1426 C   0  0  0  0  0  0  0  0  0  0  0  0
  150.6326  134.0928  155.5071 C   0  0  0  0  0  0  0  0  0  0  0  0
  149.8359  134.1209  154.3393 C   0  0  0  0  0  0  0  0  0  0  0  0
  149.4182  132.9197  153.7337 C   0  0  0  0  0  0  0  0  0  0  0  0
  149.7895  131.6816  154.2916 C   0  0  0  0  0  0  0  0  0  0  0  0
  149.2257  130.0594  153.4718 Br  0  0  0  0  0  0  0  0  0  0  0  0
  150.5783  131.6453  155.4570 C   0  0  0  0  0  0  0  0  0  0  0  0
  150.9980  132.8458  156.0622 C   0  0  0  0  0  0  0  0  0  0  0  0
  151.7328  136.2558  155.3916 O   0  0  0  0  0  0  0  0  0  0  0  0
  149.8131  142.7764  156.8347 H   0  0  0  0  0  0  0  0  0  0  0  0
  152.4067  141.9032  159.3739 H   0  0  0  0  0  0  0  0  0  0  0  0
  153.3346  143.8662  158.3588 H   0  0  0  0  0  0  0  0  0  0  0  0
  151.9443  144.0324  157.2633 H   0  0  0  0  0  0  0  0  0  0  0  0
  152.0610  144.7806  160.2039 H   0  0  0  0  0  0  0  0  0  0  0  0
  151.4289  145.7611  158.8735 H   0  0  0  0  0  0  0  0  0  0  0  0
  149.6749  144.3270  160.3337 H   0  0  0  0  0  0  0  0  0  0  0  0
  149.5388  144.2409  158.5748 H   0  0  0  0  0  0  0  0  0  0  0  0
  152.9553  138.4444  154.8179 H   0  0  0  0  0  0  0  0  0  0  0  0
  153.6738  138.5488  156.4036 H   0  0  0  0  0  0  0  0  0  0  0  0
  149.5421  135.0604  153.8942 H   0  0  0  0  0  0  0  0  0  0  0  0
  148.8132  132.9490  152.8395 H   0  0  0  0  0  0  0  0  0  0  0  0
  150.8628  130.6966  155.8878 H   0  0  0  0  0  0  0  0  0  0  0  0
  151.6027  132.8008  156.9563 H   0  0  0  0  0  0  0  0  0  0  0  0
  1  2  2  0  0  0  0
  2 14  1  0  0  0  0
  2  3  1  0  0  0  0
  3  4  1  0  0  0  0
  3  5  2  0  0  0  0
  5  6  1  0  0  0  0
  5 28  1  0  0  0  0
  6  7  1  0  0  0  0
  6 12  1  0  0  0  0
  7 11  1  0  0  0  0
  7  8  1  0  0  0  0
  7 29  1  0  0  0  0
  8  9  1  0  0  0  0
  8 30  1  0  0  0  0
  8 31  1  0  0  0  0
  9 10  1  0  0  0  0
  9 32  1  0  0  0  0
  9 33  1  0  0  0  0
 10 11  1  0  0  0  0
 10 34  1  0  0  0  0
 10 35  1  0  0  0  0
 12 13  2  0  0  0  0
 12 14  1  0  0  0  0
 14 15  1  0  0  0  0
 15 16  1  0  0  0  0
 15 36  1  0  0  0  0
 15 37  1  0  0  0  0
 16 27  1  0  0  0  0
 16 17  2  0  0  0  0
 17 18  1  0  0  0  0
 18 19  2  0  0  0  0
 19 20  1  0  0  0  0
 19 27  1  0  0  0  0
 20 26  1  0  0  0  0
 20 21  2  0  0  0  0
 21 22  1  0  0  0  0
 21 38  1  0  0  0  0
 22 23  2  0  0  0  0
 22 39  1  0  0  0  0
 23 24  1  0  0  0  0
 23 25  1  0  0  0  0
 25 26  2  0  0  0  0
 25 40  1  0  0  0  0
 26 41  1  0  0  0  0
M  END
> <s_m_source_file>
AV-unprocessed.smi

> <i_m_source_file_index>
128

> <i_lp_mmshare_version>
43012

> <i_f3d_flags>
0

> <s_epik_input>
TzFbQ0gyXVtDSDJdW0NIMl1bQ0BIXTFuKFtjSF1jKEYpYzI9TyljKD1PKW4yW0NIMl1jM25uYyhvMyktYzRbY0hdW2NIXWMoQnIpW2NIXVtjSF00

> <s_epik_cmdline>
J2VwaWtfcHl0aG9uJywgJy1waCcsICc3LjAnLCAnLXRuJywgJzgnLCAnLW1hJywgJzIwMCcsICctbWV0YWxfYmluZGluZycsICctaW1hZScsICc8aW5maWxlLm1hZT4nLCAnLW9tYWUnLCAnPG91dGZpbGUubWFlPic=

> <r_lp_tautomer_probability>
1

> <r_epik_Ionization_Penalty>
2.55537e-09

> <r_epik_Ionization_Penalty_Charging>
2.54231e-09

> <r_epik_Ionization_Penalty_Neutral>
1.30653e-11

> <r_epik_State_Penalty>
-0

> <r_epik_Charging_Adjusted_Penalty>
2.54231e-09

> <i_epik_Tot_Q>
0

> <i_epik_Tot_abs_Q>
0

> <r_epik_Metal_State_Penalty>
-0

> <b_epik_Metal_Only>
0

> <s_epik_Chemistry_Notes>
This compound contains an acetal/aminal-like group ( X-CH(R)-Y where X, Y are N, S, or O) that may be acid/base labile, releasing an aldehyde.

> <s_lp_Force_Field>
OPLS_2005

> <r_lp_Energy>
32.2768

> <b_lp_Chiralities_Consistent>
1

> <s_lp_Variant>
AV-unprocessed.smi:128-2

> <Gold.Version>
5.8.1

> <Gold.Id.Protein>
6NUR|6NUR_protein|mol2

> <Gold.PLP.Fitness>
60.1422

> <Gold.PLP.PLP>
-53.8361

> <Gold.PLP.part.hbond>
-4.8415

> <Gold.PLP.part.metal>
0.0000

> <Gold.PLP.part.buried>
-3.0677

> <Gold.PLP.part.nonpolar>
-45.0465

> <Gold.PLP.part.repulsive>
0.2858

> <Gold.PLP.ligand.clash>
0.0000

> <Gold.PLP.ligand.torsion>
1.3596

> <Gold.PLP.Chemscore.Hbond>
2.0000

> <Gold.PLP.Chemscore.CHOScore>
1.0000

> <Gold.PLP.Chemscore.Metal>
0.0000

> <Gold.Chemscore.Hbonds>
donor molecule, donor type, donor heavy atom, donor atom, acceptor molecule, acceptor atom, score
      P1  H  7997  8010       L1    13  0.96
      P1  H 10752 10765       L1    27  1.00
      L1  C     5    28       P1  8028  1.00

> <Gold.PLP.Chemscore.Internal.Correction>
0.0253

> <Gold.Rescore>
     Score         DG    S(hbond)    S(metal)    S(lipo)     H(rot)  DE(clash)    DE(int)     intcor
     16.50     -18.50       2.24        0.00      84.41       1.70       0.15       1.85       ----

> <Gold.Chemscore.Fitness>
16.4964

> <Gold.Chemscore.DG>
-18.4974

> <Gold.Chemscore.ZeroCoef>
-5.4800

> <Gold.Chemscore.Hbond>
2.2421

> <Gold.Chemscore.Metal>
0.0000

> <Gold.Chemscore.Lipo>
84.4088

> <Gold.Chemscore.Internal_Hbond>
0.0000

> <Gold.Chemscore.DEClash>
0.1536

> <Gold.Chemscore.DEInternal>
1.8474

> <Gold.Chemscore.Rot>
1.6980

> <Gold.Chemscore.Internal.Correction>
   9.000000E+99

> <Gold.Chemscore.Hbonds>
donor molecule, donor type, donor heavy atom, donor atom, acceptor molecule, acceptor atom, score
      P1  H  7997  8010       L1    13  0.56
      P1  H 10752 10765       L1    27  0.26

> <Gold.Chemscore.Hbond.Weighted>
-7.4885

> <Gold.Chemscore.Metal.Weighted>
-0.0000

> <Gold.Chemscore.Lipo.Weighted>
-9.8758

> <Gold.Chemscore.Internal_Hbond.Weighted>
0.0000

> <Gold.Chemscore.DEClash.Weighted>
0.1536

> <Gold.Chemscore.DEInternal.Weighted>
1.8474

> <Gold.Chemscore.Rot.Weighted>
4.3469

> <Gold.Chemscore.Internal.Correction.Weighted>
   9.000000E+99

> <Gold.Protein.RotatedTorsions>
[ 6907 6896 6895 6894 ] final  -28.23 input  -60.11 | X-H torsion
[ 7974 7965 7964 7962 ] final  163.89 input  175.53 | X-H torsion
[ 8008 7997 7996 7995 ] final   32.35 input   59.86 | X-H torsion
[ 10167 10162 10161 10158 ] final  179.76 input  -65.29 | X-H torsion
[ 10718 10713 10712 10709 ] final   62.50 input   66.30 | X-H torsion
[ 10763 10752 10751 10750 ] final -150.51 input  -60.55 | X-H torsion
[ 11005 11000 10999 10996 ] final -176.11 input  -57.11 | X-H torsion

> <Gold.Protein.ActiveResidues>
 VAL166  LYS551  ARG553  GLY616  TRP617  ASP618  TYR619  PRO620  LYS621  CYS622 
 ASP623  PHE694  ASN695  SER759  ASP760  ASP761  ALA762  ILE779  LEU786  VAL792 
 PHE793  MET794  SER795  GLU796  ALA797  LYS798  CYS799  TRP800  GLU811  SER814 

> <Gold.Protein.RotatedAtoms>
  151.1358  135.0154  159.8602 H   0  0  0  0  0  0  0  0  0  0  0  0  # atno 6907 bound_to 6896
  152.5452  134.1557  159.8547 H   0  0  0  0  0  0  0  0  0  0  0  0  # atno 6908 bound_to 6896
  151.1628  133.4789  159.2627 H   0  0  0  0  0  0  0  0  0  0  0  0  # atno 6909 bound_to 6896
  144.7569  139.8247  143.6346 H   0  0  0  0  0  0  0  0  0  0  0  0  # atno 7974 bound_to 7965
  155.1211  140.3248  155.4497 H   0  0  0  0  0  0  0  0  0  0  0  0  # atno 8008 bound_to 7997
  156.2662  140.2027  156.6281 H   0  0  0  0  0  0  0  0  0  0  0  0  # atno 8009 bound_to 7997
  154.6683  140.0539  157.0125 H   0  0  0  0  0  0  0  0  0  0  0  0  # atno 8010 bound_to 7997
  139.5350  144.2522  152.0775 H   0  0  0  0  0  0  0  0  0  0  0  0  # atno 10167 bound_to 10162
  157.5905  130.9054  149.9596 H   0  0  0  0  0  0  0  0  0  0  0  0  # atno 10718 bound_to 10713
  154.8114  135.3282  154.7294 H   0  0  0  0  0  0  0  0  0  0  0  0  # atno 10763 bound_to 10752
  153.7943  135.6908  153.4870 H   0  0  0  0  0  0  0  0  0  0  0  0  # atno 10764 bound_to 10752
  153.1896  135.4556  155.0079 H   0  0  0  0  0  0  0  0  0  0  0  0  # atno 10765 bound_to 10752
  140.4558  134.6301  157.4821 H   0  0  0  0  0  0  0  0  0  0  0  0  # atno 11005 bound_to 11000
  146.1590  139.4697  143.0000 LP  0  0  0  0  0  0  0  0  0  0  0  0  # atno 17320 bound_to 7965
  145.6748  141.0207  143.1638 LP  0  0  0  0  0  0  0  0  0  0  0  0  # atno 17321 bound_to 7965
  140.1991  144.4675  150.6440 LP  0  0  0  0  0  0  0  0  0  0  0  0  # atno 17342 bound_to 10162
  140.6552  143.2235  151.5985 LP  0  0  0  0  0  0  0  0  0  0  0  0  # atno 17343 bound_to 10162
  156.0959  130.3659  150.0307 LP  0  0  0  0  0  0  0  0  0  0  0  0  # atno 17370 bound_to 10713
  156.8430  130.9432  151.3630 LP  0  0  0  0  0  0  0  0  0  0  0  0  # atno 17371 bound_to 10713
  139.9977  134.6885  155.9582 LP  0  0  0  0  0  0  0  0  0  0  0  0  # atno 17394 bound_to 11000
  141.1644  133.6537  156.4427 LP  0  0  0  0  0  0  0  0  0  0  0  0  # atno 17395 bound_to 11000

$$$$
