#       Name:                AV-unprocessed.smi:36
#       Creating user name   scv26
#       Creation time:       Thu Mar 26 16:06:17 2020


#       File generated by GOLD software.
#

@<TRIPOS>MOLECULE
AV-unprocessed.smi:36
    73    76     1
SMALL
NO_CHARGES


@<TRIPOS>ATOM
      1 ****        -5.8286   2.4611  -2.7217 C.3            1 S1                 0.0000
      2 ****        -5.0542   1.1332  -2.7551 C.3            1 S1                 0.0000
      3 ****        -5.4071   0.2909  -1.5176 C.3            1 S1                 0.0000
      4 ****        -5.4096   0.3517  -4.0308 C.3            1 S1                 0.0000
      5 ****        -3.1777   1.4911  -2.7485 Si             1 S1                 0.0000
      6 ****        -2.6664   2.5216  -4.2602 C.3            1 S1                 0.0000
      7 ****        -2.6553   2.3829  -1.1537 C.3            1 S1                 0.0000
      8 ****        -2.3710   0.0069  -2.8239 O.3            1 S1                 0.0000
      9 ****        -0.9689  -0.1255  -2.7295 C.3            1 S1                 0.0000
     10 ****        -0.6140  -1.6159  -2.6605 C.3            1 S1                 0.0000
     11 ****         0.8017  -1.8115  -2.7331 O.3            1 S1                 0.0000
     12 ****         1.2262  -2.7035  -1.7427 C.3            1 S1                 0.0000
     13 ****         1.8422  -1.9107  -0.6282 N.pl3          1 S1                 0.0000
     14 ****         1.9937  -0.5447  -0.5028 C.2            1 S1                 0.0000
     15 ****         2.5807  -0.1440   0.5931 N.2            1 S1                 0.0000
     16 ****         2.8871  -1.3222   1.2607 C.ar           1 S1                 0.0000
     17 ****         3.5292  -1.6176   2.4914 C.ar           1 S1                 0.0000
     18 ****         3.9687  -0.6152   3.2878 N.am           1 S1                 0.0000
     19 ****         4.7094  -0.7191   4.5325 C.2            1 S1                 0.0000
     20 ****         5.1227  -1.7970   4.9613 O.2            1 S1                 0.0000
     21 ****         5.0245   0.5768   5.2209 C.ar           1 S1                 0.0000
     22 ****         6.1998   0.6985   5.9956 C.ar           1 S1                 0.0000
     23 ****         6.4928   1.9046   6.6614 C.ar           1 S1                 0.0000
     24 ****         5.6095   2.9962   6.5647 C.ar           1 S1                 0.0000
     25 ****         4.4311   2.8802   5.8040 C.ar           1 S1                 0.0000
     26 ****         4.1370   1.6749   5.1372 C.ar           1 S1                 0.0000
     27 ****         3.6639  -2.9277   2.8278 N.ar           1 S1                 0.0000
     28 ****         3.2082  -3.8825   2.0114 C.ar           1 S1                 0.0000
     29 ****         2.5899  -3.7495   0.8358 N.ar           1 S1                 0.0000
     30 ****         2.4425  -2.4362   0.4965 C.ar           1 S1                 0.0000
     31 ****        -0.0356  -3.4143  -1.2512 C.3            1 S1                 0.0000
     32 ****        -1.0642  -2.3101  -1.3705 C.3            1 S1                 0.0000
     33 ****        -2.3697  -2.8412  -1.4699 O.3            1 S1                 0.0000
     34 ****        -6.9056   2.2906  -2.7256 H              1 S1                 0.0000
     35 ****        -5.5915   3.0813  -3.5865 H              1 S1                 0.0000
     36 ****        -5.5908   3.0379  -1.8277 H              1 S1                 0.0000
     37 ****        -5.1782   0.8243  -0.5947 H              1 S1                 0.0000
     38 ****        -4.8489  -0.6460  -1.5033 H              1 S1                 0.0000
     39 ****        -6.4687   0.0421  -1.4971 H              1 S1                 0.0000
     40 ****        -6.4718   0.1070  -4.0632 H              1 S1                 0.0000
     41 ****        -4.8545  -0.5853  -4.0885 H              1 S1                 0.0000
     42 ****        -5.1780   0.9268  -4.9275 H              1 S1                 0.0000
     43 ****        -3.1623   3.4919  -4.2698 H              1 S1                 0.0000
     44 ****        -2.9180   2.0179  -5.1932 H              1 S1                 0.0000
     45 ****        -1.5926   2.7067  -4.2721 H              1 S1                 0.0000
     46 ****        -3.1944   3.3212  -1.0252 H              1 S1                 0.0000
     47 ****        -1.5916   2.6199  -1.1577 H              1 S1                 0.0000
     48 ****        -2.8479   1.7724  -0.2718 H              1 S1                 0.0000
     49 ****        -0.5092   0.3324  -3.6058 H              1 S1                 0.0000
     50 ****        -0.6038   0.4057  -1.8512 H              1 S1                 0.0000
     51 ****        -1.0358  -2.1329  -3.5241 H              1 S1                 0.0000
     52 ****         2.0216  -3.3666  -2.0848 H              1 S1                 0.0000
     53 ****         1.6565   0.1573  -1.2501 H              1 S1                 0.0000
     54 ****         3.7363   0.3204   2.9879 H              1 S1                 0.0000
     55 ****         6.8871  -0.1310   6.0810 H              1 S1                 0.0000
     56 ****         7.3953   1.9916   7.2482 H              1 S1                 0.0000
     57 ****         5.8333   3.9203   7.0768 H              1 S1                 0.0000
     58 ****         3.7503   3.7158   5.7344 H              1 S1                 0.0000
     59 ****         3.2221   1.6043   4.5673 H              1 S1                 0.0000
     60 ****         3.3586  -4.8969   2.3501 H              1 S1                 0.0000
     61 ****        -0.2556  -4.2338  -1.9372 H              1 S1                 0.0000
     62 ****         0.0687  -3.8170  -0.2438 H              1 S1                 0.0000
     63 ****        -0.9961  -1.6354  -0.5156 H              1 S1                 0.0000
     64 ****        -2.9726  -2.1271  -1.6135 H              1 S1                 0.0000
     65 ****         1.2620  -0.9332  -2.6037 LP             1 S1                 0.0000
     66 ****         1.0368  -2.1818  -3.6317 LP             1 S1                 0.0000
     67 ****         2.7665   0.7946   0.8841 LP             1 S1                 0.0000
     68 ****         4.9514  -2.6380   4.4482 LP             1 S1                 0.0000
     69 ****         5.6296  -1.8312   5.8227 LP             1 S1                 0.0000
     70 ****         4.1056  -3.1779   3.6894 LP             1 S1                 0.0000
     71 ****         2.2748  -4.5151   0.2751 LP             1 S1                 0.0000
     72 ****        -2.6059  -3.3174  -0.6228 LP             1 S1                 0.0000
     73 ****        -2.4162  -3.4817  -2.2364 LP             1 S1                 0.0000
@<TRIPOS>BOND
    1    1    2 1     
    2    1   34 1     
    3    1   35 1     
    4    1   36 1     
    5    2    3 1     
    6    2    4 1     
    7    2    5 1     
    8    3   37 1     
    9    3   38 1     
   10    3   39 1     
   11    4   40 1     
   12    4   41 1     
   13    4   42 1     
   14    5    6 1     
   15    5    7 1     
   16    5    8 1     
   17    6   43 1     
   18    6   44 1     
   19    6   45 1     
   20    7   46 1     
   21    7   47 1     
   22    7   48 1     
   23    8    9 1     
   24    9   10 1     
   25    9   49 1     
   26    9   50 1     
   27   10   32 1     
   28   10   11 1     
   29   10   51 1     
   30   11   12 1     
   31   12   13 1     
   32   12   31 1     
   33   12   52 1     
   34   13   30 1     
   35   13   14 1     
   36   14   15 2     
   37   14   53 1     
   38   15   16 1     
   39   16   30 ar    
   40   16   17 ar    
   41   17   18 1     
   42   17   27 ar    
   43   18   19 am    
   44   18   54 1     
   45   19   20 2     
   46   19   21 1     
   47   21   26 ar    
   48   21   22 ar    
   49   22   23 ar    
   50   22   55 1     
   51   23   24 ar    
   52   23   56 1     
   53   24   25 ar    
   54   24   57 1     
   55   25   26 ar    
   56   25   58 1     
   57   26   59 1     
   58   27   28 ar    
   59   28   29 ar    
   60   28   60 1     
   61   29   30 ar    
   62   31   32 1     
   63   31   61 1     
   64   31   62 1     
   65   32   33 1     
   66   32   63 1     
   67   33   64 1     
   68   11   65 1     
   69   11   66 1     
   70   15   67 1     
   71   20   68 1     
   72   20   69 1     
   73   27   70 1     
   74   29   71 1     
   75   33   72 1     
   76   33   73 1     
@<TRIPOS>SUBSTRUCTURE
      1 S1             1
@<TRIPOS>SET
LONE_PAIRS      STATIC     ATOMS    <user>   **** ""
9 65 66 67 68 69 70 71 72 73
DONOR_HYDROGENS      STATIC     ATOMS    <user>   **** ""
2 54 64
ATOM$BLUE        STATIC     ATOMS    COLORGROUP SYSTEM
9 65 66 67 68 69 70 71 72 73
ATOM$RED        STATIC     ATOMS    COLORGROUP SYSTEM
2 54 64
