AV-unprocessed.smi:563|AV-procd|sdf|2946|dock9
  -GOLD-   2262023443D 1   1.00000     0.00000
 Structure written by MMmdl.
 31 32  0  0  0  0  0  0  0  0  1 V2000
  152.7284  143.1714  161.7997 C   0  0  0  0  0  0  0  0  0  0  0  0
  152.1539  143.7403  160.5479 C   0  0  0  0  0  0  0  0  0  0  0  0
  152.3797  143.2316  159.3338 N   0  0  0  0  0  0  0  0  0  0  0  0
  151.7267  143.9428  158.3211 C   0  0  0  0  0  0  0  0  0  0  0  0
  151.8728  143.5164  156.8897 C   0  0  0  0  0  0  0  0  0  0  0  0
  151.0469  142.2572  156.6243 C   0  0  0  0  0  0  0  0  0  0  0  0
  151.4463  141.1635  157.0238 O   0  0  0  0  0  0  0  0  0  0  0  0
  149.8948  142.4256  155.9562 N   0  0  0  0  0  0  0  0  0  0  0  0
  148.9583  141.3591  155.6125 C   0  0  0  0  0  0  0  0  0  0  0  0
  148.8781  141.1706  154.0852 C   0  0  0  0  0  0  0  0  0  0  0  0
  147.3882  141.1300  153.7405 C   0  0  0  0  0  0  0  0  0  0  0  0
  146.7305  141.9969  154.8091 C   0  0  0  0  0  0  0  0  0  0  0  0
  147.5263  141.6922  156.0784 C   0  0  0  0  0  0  0  0  0  0  0  0
  150.9999  145.0082  158.7927 C   0  0  0  0  0  0  0  0  0  0  0  0
  151.1037  145.1515  160.5256 S   0  0  0  0  0  0  0  0  0  0  0  0
  153.6036  142.5605  161.5764 H   0  0  0  0  0  0  0  0  0  0  0  0
  151.9855  142.5514  162.3017 H   0  0  0  0  0  0  0  0  0  0  0  0
  153.0278  143.9747  162.4732 H   0  0  0  0  0  0  0  0  0  0  0  0
  151.5401  144.3097  156.2191 H   0  0  0  0  0  0  0  0  0  0  0  0
  152.9182  143.3256  156.6427 H   0  0  0  0  0  0  0  0  0  0  0  0
  149.6495  143.3605  155.6636 H   0  0  0  0  0  0  0  0  0  0  0  0
  149.2829  140.4251  156.0754 H   0  0  0  0  0  0  0  0  0  0  0  0
  149.3381  142.0143  153.5680 H   0  0  0  0  0  0  0  0  0  0  0  0
  149.3966  140.2702  153.7543 H   0  0  0  0  0  0  0  0  0  0  0  0
  147.1807  141.4794  152.7289 H   0  0  0  0  0  0  0  0  0  0  0  0
  147.0193  140.1066  153.8218 H   0  0  0  0  0  0  0  0  0  0  0  0
  146.8426  143.0502  154.5481 H   0  0  0  0  0  0  0  0  0  0  0  0
  145.6654  141.7920  154.9213 H   0  0  0  0  0  0  0  0  0  0  0  0
  147.0979  140.8177  156.5696 H   0  0  0  0  0  0  0  0  0  0  0  0
  147.4802  142.5135  156.7948 H   0  0  0  0  0  0  0  0  0  0  0  0
  150.4091  145.7130  158.2264 H   0  0  0  0  0  0  0  0  0  0  0  0
  1  2  1  0  0  0  0
  1 16  1  0  0  0  0
  1 17  1  0  0  0  0
  1 18  1  0  0  0  0
  2 15  1  0  0  0  0
  2  3  2  0  0  0  0
  3  4  1  0  0  0  0
  4  5  1  0  0  0  0
  4 14  2  0  0  0  0
  5  6  1  0  0  0  0
  5 19  1  0  0  0  0
  5 20  1  0  0  0  0
  6  7  2  0  0  0  0
  6  8  1  0  0  0  0
  8  9  1  0  0  0  0
  8 21  1  0  0  0  0
  9 13  1  0  0  0  0
  9 10  1  0  0  0  0
  9 22  1  0  0  0  0
 10 11  1  0  0  0  0
 10 23  1  0  0  0  0
 10 24  1  0  0  0  0
 11 12  1  0  0  0  0
 11 25  1  0  0  0  0
 11 26  1  0  0  0  0
 12 13  1  0  0  0  0
 12 27  1  0  0  0  0
 12 28  1  0  0  0  0
 13 29  1  0  0  0  0
 13 30  1  0  0  0  0
 14 15  1  0  0  0  0
 14 31  1  0  0  0  0
M  END
> <s_m_source_file>
AV-unprocessed.smi

> <i_m_source_file_index>
563

> <i_lp_mmshare_version>
43012

> <i_f3d_flags>
0

> <s_epik_input>
W0NIM11jMW5jKFtjSF1zMSlbQ0gyXUMoPU8pW05IXVtDSF0yW0NIMl1bQ0gyXVtDSDJdW0NIMl0y

> <s_epik_cmdline>
J2VwaWtfcHl0aG9uJywgJy1waCcsICc3LjAnLCAnLXRuJywgJzgnLCAnLW1hJywgJzIwMCcsICctbWV0YWxfYmluZGluZycsICctaW1hZScsICc8aW5maWxlLm1hZT4nLCAnLW9tYWUnLCAnPG91dGZpbGUubWFlPic=

> <r_lp_tautomer_probability>
1

> <r_epik_Ionization_Penalty>
6.26871e-05

> <r_epik_Ionization_Penalty_Charging>
0

> <r_epik_Ionization_Penalty_Neutral>
6.26871e-05

> <r_epik_State_Penalty>
-0

> <r_epik_Charging_Adjusted_Penalty>
0

> <i_epik_Tot_Q>
0

> <i_epik_Tot_abs_Q>
0

> <r_epik_Metal_State_Penalty>
-0

> <b_epik_Metal_Only>
0

> <s_lp_Force_Field>
OPLS_2005

> <r_lp_Energy>
15.9106

> <b_lp_Chiralities_Consistent>
1

> <s_lp_Variant>
AV-unprocessed.smi:563-1

> <Gold.Version>
5.8.1

> <Gold.Id.Protein>
6NUR|6NUR_protein|mol2

> <Gold.PLP.Fitness>
39.0038

> <Gold.PLP.PLP>
-33.8631

> <Gold.PLP.part.hbond>
-0.9013

> <Gold.PLP.part.metal>
0.0000

> <Gold.PLP.part.buried>
-4.3545

> <Gold.PLP.part.nonpolar>
-29.7167

> <Gold.PLP.part.repulsive>
0.1558

> <Gold.PLP.ligand.clash>
0.0000

> <Gold.PLP.ligand.torsion>
0.4244

> <Gold.PLP.Chemscore.Hbond>
1.0000

> <Gold.PLP.Chemscore.CHOScore>
0.9954

> <Gold.PLP.Chemscore.Metal>
0.0000

> <Gold.Chemscore.Hbonds>
donor molecule, donor type, donor heavy atom, donor atom, acceptor molecule, acceptor atom, score
      L1  H     8    21       P1  8028  1.00
      L1  C    14    31       P1  8029  0.65

> <Gold.PLP.Chemscore.Internal.Correction>
0.0034

> <Gold.Rescore>
     Score         DG    S(hbond)    S(metal)    S(lipo)     H(rot)  DE(clash)    DE(int)     intcor
     16.09     -17.08       0.99        0.00      99.14       1.29       0.72       0.28       ----

> <Gold.Chemscore.Fitness>
16.0874

> <Gold.Chemscore.DG>
-17.0815

> <Gold.Chemscore.ZeroCoef>
-5.4800

> <Gold.Chemscore.Hbond>
0.9930

> <Gold.Chemscore.Metal>
0.0000

> <Gold.Chemscore.Lipo>
99.1359

> <Gold.Chemscore.Internal_Hbond>
0.0000

> <Gold.Chemscore.DEClash>
0.7182

> <Gold.Chemscore.DEInternal>
0.2759

> <Gold.Chemscore.Rot>
1.2946

> <Gold.Chemscore.Internal.Correction>
   9.000000E+99

> <Gold.Chemscore.Hbonds>
donor molecule, donor type, donor heavy atom, donor atom, acceptor molecule, acceptor atom, score
      L1  H     8    21       P1  8028  0.95

> <Gold.Chemscore.Hbond.Weighted>
-3.3167

> <Gold.Chemscore.Metal.Weighted>
-0.0000

> <Gold.Chemscore.Lipo.Weighted>
-11.5989

> <Gold.Chemscore.Internal_Hbond.Weighted>
0.0000

> <Gold.Chemscore.DEClash.Weighted>
0.7182

> <Gold.Chemscore.DEInternal.Weighted>
0.2759

> <Gold.Chemscore.Rot.Weighted>
3.3141

> <Gold.Chemscore.Internal.Correction.Weighted>
   9.000000E+99

> <Gold.Protein.RotatedTorsions>
[ 6907 6896 6895 6894 ] final -105.27 input  -60.11 | X-H torsion
[ 7974 7965 7964 7962 ] final  117.30 input  175.53 | X-H torsion
[ 8008 7997 7996 7995 ] final -159.76 input   59.86 | X-H torsion
[ 10167 10162 10161 10158 ] final  -57.82 input  -65.29 | X-H torsion
[ 10718 10713 10712 10709 ] final   57.28 input   66.30 | X-H torsion
[ 10763 10752 10751 10750 ] final -153.16 input  -60.55 | X-H torsion
[ 11005 11000 10999 10996 ] final  -97.52 input  -57.11 | X-H torsion

> <Gold.Protein.ActiveResidues>
 VAL166  LYS551  ARG553  GLY616  TRP617  ASP618  TYR619  PRO620  LYS621  CYS622 
 ASP623  PHE694  ASN695  SER759  ASP760  ASP761  ALA762  ILE779  LEU786  VAL792 
 PHE793  MET794  SER795  GLU796  ALA797  LYS798  CYS799  TRP800  GLU811  SER814 

> <Gold.Protein.RotatedAtoms>
  150.7328  134.0152  159.3682 H   0  0  0  0  0  0  0  0  0  0  0  0  # atno 6907 bound_to 6896
  151.8114  135.0677  160.0423 H   0  0  0  0  0  0  0  0  0  0  0  0  # atno 6908 bound_to 6896
  152.3070  133.5677  159.5692 H   0  0  0  0  0  0  0  0  0  0  0  0  # atno 6909 bound_to 6896
  145.1690  139.3112  143.4477 H   0  0  0  0  0  0  0  0  0  0  0  0  # atno 7974 bound_to 7965
  155.7673  140.0847  157.2125 H   0  0  0  0  0  0  0  0  0  0  0  0  # atno 8008 bound_to 7997
  154.3999  140.1532  156.2958 H   0  0  0  0  0  0  0  0  0  0  0  0  # atno 8009 bound_to 7997
  155.8781  140.3422  155.5871 H   0  0  0  0  0  0  0  0  0  0  0  0  # atno 8010 bound_to 7997
  140.6235  143.2429  151.5422 H   0  0  0  0  0  0  0  0  0  0  0  0  # atno 10167 bound_to 10162
  157.5501  130.8759  149.8950 H   0  0  0  0  0  0  0  0  0  0  0  0  # atno 10718 bound_to 10713
  154.7946  135.3219  154.7697 H   0  0  0  0  0  0  0  0  0  0  0  0  # atno 10763 bound_to 10752
  153.8378  135.6873  153.4811 H   0  0  0  0  0  0  0  0  0  0  0  0  # atno 10764 bound_to 10752
  153.1632  135.4652  154.9742 H   0  0  0  0  0  0  0  0  0  0  0  0  # atno 10765 bound_to 10752
  141.1376  133.8177  157.0717 H   0  0  0  0  0  0  0  0  0  0  0  0  # atno 11005 bound_to 11000
  146.3471  140.1829  142.8589 LP  0  0  0  0  0  0  0  0  0  0  0  0  # atno 17320 bound_to 7965
  145.0252  140.8826  143.5143 LP  0  0  0  0  0  0  0  0  0  0  0  0  # atno 17321 bound_to 7965
  139.5459  144.2523  152.1441 LP  0  0  0  0  0  0  0  0  0  0  0  0  # atno 17342 bound_to 10162
  140.1748  144.4901  150.6560 LP  0  0  0  0  0  0  0  0  0  0  0  0  # atno 17343 bound_to 10162
  156.0569  130.3707  150.1070 LP  0  0  0  0  0  0  0  0  0  0  0  0  # atno 17370 bound_to 10713
  156.9244  130.9693  151.3543 LP  0  0  0  0  0  0  0  0  0  0  0  0  # atno 17371 bound_to 10713
  140.0507  134.9807  157.1131 LP  0  0  0  0  0  0  0  0  0  0  0  0  # atno 17394 bound_to 11000
  140.3994  134.2099  155.7164 LP  0  0  0  0  0  0  0  0  0  0  0  0  # atno 17395 bound_to 11000

$$$$
