AV-unprocessed.smi:896|AV-procd|sdf|4077|dock3
  -GOLD-   22720 1563D 1   1.00000     0.00000
 Structure written by MMmdl.
 49 50  0  0  0  0  0  0  0  0  2 V2000
  151.4501  142.6498  158.9664 C   0  0  0  0  0  0  0  0  0  0  0  0
  152.1808  141.8393  158.0526 O   0  0  0  0  0  0  0  0  0  0  0  0
  151.4860  141.1913  157.0521 C   0  0  0  0  0  0  0  0  0  0  0  0
  150.1718  141.6067  156.7652 C   0  0  0  0  0  0  0  0  0  0  0  0
  149.4603  140.9535  155.7415 C   0  0  0  0  0  0  0  0  0  0  0  0
  150.0874  139.9049  155.0268 C   0  0  0  0  0  0  0  0  0  0  0  0
  149.4406  139.1748  153.9903 N   0  0  0  0  0  0  0  0  0  0  0  0
  148.1662  139.2729  153.5750 C   0  0  0  0  0  0  0  0  0  0  0  0
  147.3245  140.0438  154.0365 O   0  0  0  0  0  0  0  0  0  0  0  0
  147.9186  138.4302  152.5619 N   0  0  0  0  0  0  0  0  0  0  0  0
  146.6364  138.2996  151.8796 C   0  0  0  0  0  0  0  0  0  0  0  0
  145.6296  137.4933  152.7212 C   0  0  0  0  0  0  0  0  0  0  0  0
  144.9399  136.3508  151.9490 C   0  0  2  0  0  0  0  0  0  0  0  0
  143.9890  135.5618  152.8686 C   0  0  0  0  0  0  0  0  0  0  0  0
  143.3104  134.4028  152.1202 C   0  0  0  0  0  0  0  0  0  0  0  0
  144.3193  133.4930  151.5248 N   0  3  1  0  0  0  0  0  0  0  0  0
  143.7048  132.3017  150.9007 C   0  0  0  0  0  0  0  0  0  0  0  0
  145.2318  134.2091  150.6001 C   0  0  0  0  0  0  0  0  0  0  0  0
  145.9462  135.3694  151.3138 C   0  0  0  0  0  0  0  0  0  0  0  0
  151.4044  139.5480  155.4050 C   0  0  0  0  0  0  0  0  0  0  0  0
  152.1489  138.4187  154.7148 C   0  0  0  0  0  0  0  0  0  0  0  0
  152.0889  140.1764  156.3860 N   0  0  0  0  0  0  0  0  0  0  0  0
  152.1381  143.0879  159.6890 H   0  0  0  0  0  0  0  0  0  0  0  0
  150.7173  142.0624  159.5218 H   0  0  0  0  0  0  0  0  0  0  0  0
  150.9411  143.4687  158.4558 H   0  0  0  0  0  0  0  0  0  0  0  0
  149.7154  142.4112  157.3230 H   0  0  0  0  0  0  0  0  0  0  0  0
  148.4459  141.2583  155.5351 H   0  0  0  0  0  0  0  0  0  0  0  0
  150.0377  138.5630  153.4538 H   0  0  0  0  0  0  0  0  0  0  0  0
  148.6691  137.8357  152.2415 H   0  0  0  0  0  0  0  0  0  0  0  0
  146.2481  139.3015  151.6946 H   0  0  0  0  0  0  0  0  0  0  0  0
  146.7908  137.8418  150.9020 H   0  0  0  0  0  0  0  0  0  0  0  0
  146.1222  137.0876  153.6061 H   0  0  0  0  0  0  0  0  0  0  0  0
  144.8673  138.1805  153.0916 H   0  0  0  0  0  0  0  0  0  0  0  0
  144.3411  136.7939  151.1517 H   0  0  0  0  0  0  0  0  0  0  0  0
  144.5420  135.1686  153.7231 H   0  0  0  0  0  0  0  0  0  0  0  0
  143.2258  136.2261  153.2756 H   0  0  0  0  0  0  0  0  0  0  0  0
  142.6780  133.8449  152.8119 H   0  0  0  0  0  0  0  0  0  0  0  0
  142.6583  134.7912  151.3361 H   0  0  0  0  0  0  0  0  0  0  0  0
  143.0659  132.5843  150.0631 H   0  0  0  0  0  0  0  0  0  0  0  0
  143.0984  131.7569  151.6250 H   0  0  0  0  0  0  0  0  0  0  0  0
  144.4727  131.6211  150.5315 H   0  0  0  0  0  0  0  0  0  0  0  0
  145.9741  133.5126  150.2081 H   0  0  0  0  0  0  0  0  0  0  0  0
  144.6666  134.5846  149.7453 H   0  0  0  0  0  0  0  0  0  0  0  0
  146.5831  135.8852  150.5956 H   0  0  0  0  0  0  0  0  0  0  0  0
  146.6097  134.9707  152.0827 H   0  0  0  0  0  0  0  0  0  0  0  0
  152.2207  138.6090  153.6435 H   0  0  0  0  0  0  0  0  0  0  0  0
  151.6264  137.4734  154.8645 H   0  0  0  0  0  0  0  0  0  0  0  0
  153.1617  138.3087  155.1047 H   0  0  0  0  0  0  0  0  0  0  0  0
  144.8890  133.1555  152.2876 H   0  0  0  0  0  0  0  0  0  0  0  0
  1  2  1  0  0  0  0
  1 23  1  0  0  0  0
  1 24  1  0  0  0  0
  1 25  1  0  0  0  0
  2  3  1  0  0  0  0
  3 22  1  0  0  0  0
  3  4  2  0  0  0  0
  4  5  1  0  0  0  0
  4 26  1  0  0  0  0
  5  6  2  0  0  0  0
  5 27  1  0  0  0  0
  6  7  1  0  0  0  0
  6 20  1  0  0  0  0
  7  8  1  0  0  0  0
  7 28  1  0  0  0  0
  8  9  2  0  0  0  0
  8 10  1  0  0  0  0
 10 11  1  0  0  0  0
 10 29  1  0  0  0  0
 11 12  1  0  0  0  0
 11 30  1  0  0  0  0
 11 31  1  0  0  0  0
 12 13  1  0  0  0  0
 12 32  1  0  0  0  0
 12 33  1  0  0  0  0
 13 19  1  0  0  0  0
 13 14  1  0  0  0  0
 13 34  1  0  0  0  0
 14 15  1  0  0  0  0
 14 35  1  0  0  0  0
 14 36  1  0  0  0  0
 15 16  1  0  0  0  0
 15 37  1  0  0  0  0
 15 38  1  0  0  0  0
 16 17  1  0  0  0  0
 16 18  1  0  0  0  0
 16 49  1  0  0  0  0
 17 39  1  0  0  0  0
 17 40  1  0  0  0  0
 17 41  1  0  0  0  0
 18 19  1  0  0  0  0
 18 42  1  0  0  0  0
 18 43  1  0  0  0  0
 19 44  1  0  0  0  0
 19 45  1  0  0  0  0
 20 21  1  0  0  0  0
 20 22  2  0  0  0  0
 21 46  1  0  0  0  0
 21 47  1  0  0  0  0
 21 48  1  0  0  0  0
M  CHG  1  16   1
M  END
> <s_m_source_file>
AV-unprocessed.smi

> <i_m_source_file_index>
896

> <i_lp_mmshare_version>
43012

> <i_f3d_flags>
0

> <s_epik_input>
W0NIM11PYzFbY0hdW2NIXWMoYyhuMSlbQ0gzXSlbTkhdQyg9TylbTkhdW0NIMl1bQ0gyXVtDSF0yW0NIMl1bQ0gyXU4oW0NIM10pW0NIMl1bQ0gyXTI=

> <s_epik_cmdline>
J2VwaWtfcHl0aG9uJywgJy1waCcsICc3LjAnLCAnLXRuJywgJzgnLCAnLW1hJywgJzIwMCcsICctbWV0YWxfYmluZGluZycsICctaW1hZScsICc8aW5maWxlLm1hZT4nLCAnLW9tYWUnLCAnPG91dGZpbGUubWFlPic=

> <r_lp_tautomer_probability>
1

> <r_epik_Ionization_Penalty>
0.000968128

> <r_epik_Ionization_Penalty_Charging>
0.000718523

> <r_epik_Ionization_Penalty_Neutral>
0.000249604

> <r_epik_State_Penalty>
0.00045807

> <r_epik_Charging_Adjusted_Penalty>
0.00117659

> <i_epik_Tot_Q>
1

> <i_epik_Tot_abs_Q>
1

> <r_epik_Metal_State_Penalty>
-0

> <b_epik_Metal_Only>
0

> <s_lp_Force_Field>
OPLS_2005

> <r_lp_Energy>
19.0488

> <b_lp_Chiralities_Consistent>
1

> <s_lp_Variant>
AV-unprocessed.smi:896-1

> <Gold.Version>
5.8.1

> <Gold.Id.Protein>
6NUR|6NUR_protein|mol2

> <Gold.PLP.Fitness>
42.5005

> <Gold.PLP.PLP>
-39.8021

> <Gold.PLP.part.hbond>
-3.4088

> <Gold.PLP.part.metal>
0.0000

> <Gold.PLP.part.buried>
-1.4482

> <Gold.PLP.part.nonpolar>
-34.1558

> <Gold.PLP.part.repulsive>
0.2869

> <Gold.PLP.ligand.clash>
0.0000

> <Gold.PLP.ligand.torsion>
0.6806

> <Gold.PLP.Chemscore.Hbond>
1.3190

> <Gold.PLP.Chemscore.CHOScore>
0.0000

> <Gold.PLP.Chemscore.Metal>
0.0000

> <Gold.Chemscore.Hbonds>
donor molecule, donor type, donor heavy atom, donor atom, acceptor molecule, acceptor atom, score
      L1  H    10    29       P1  7948  0.83
      P1  H  7997  8009       L1    22  0.47

> <Gold.PLP.Chemscore.Internal.Correction>
0.1026

> <Gold.Rescore>
     Score         DG    S(hbond)    S(metal)    S(lipo)     H(rot)  DE(clash)    DE(int)     intcor
     14.55     -16.60       1.53        0.00      87.54       1.65       0.11       1.94       ----

> <Gold.Chemscore.Fitness>
14.5454

> <Gold.Chemscore.DG>
-16.5962

> <Gold.Chemscore.ZeroCoef>
-5.4800

> <Gold.Chemscore.Hbond>
1.5280

> <Gold.Chemscore.Metal>
0.0000

> <Gold.Chemscore.Lipo>
87.5389

> <Gold.Chemscore.Internal_Hbond>
0.0000

> <Gold.Chemscore.DEClash>
0.1083

> <Gold.Chemscore.DEInternal>
1.9425

> <Gold.Chemscore.Rot>
1.6521

> <Gold.Chemscore.Internal.Correction>
   9.000000E+99

> <Gold.Chemscore.Hbonds>
donor molecule, donor type, donor heavy atom, donor atom, acceptor molecule, acceptor atom, score
      L1  H    10    29       P1  7948  0.81
      P1  H  7997  8009       L1    22  0.44

> <Gold.Chemscore.Hbond.Weighted>
-5.1035

> <Gold.Chemscore.Metal.Weighted>
-0.0000

> <Gold.Chemscore.Lipo.Weighted>
-10.2421

> <Gold.Chemscore.Internal_Hbond.Weighted>
0.0000

> <Gold.Chemscore.DEClash.Weighted>
0.1083

> <Gold.Chemscore.DEInternal.Weighted>
1.9425

> <Gold.Chemscore.Rot.Weighted>
4.2294

> <Gold.Chemscore.Internal.Correction.Weighted>
   9.000000E+99

> <Gold.Protein.RotatedTorsions>
[ 6907 6896 6895 6894 ] final    4.61 input  -60.11 | X-H torsion
[ 7974 7965 7964 7962 ] final   -1.38 input  175.53 | X-H torsion
[ 8008 7997 7996 7995 ] final -162.75 input   59.86 | X-H torsion
[ 10167 10162 10161 10158 ] final -149.42 input  -65.29 | X-H torsion
[ 10718 10713 10712 10709 ] final  -40.09 input   66.30 | X-H torsion
[ 10763 10752 10751 10750 ] final  -83.45 input  -60.55 | X-H torsion
[ 11005 11000 10999 10996 ] final  -69.77 input  -57.11 | X-H torsion

> <Gold.Protein.ActiveResidues>
 VAL166  LYS551  ARG553  GLY616  TRP617  ASP618  TYR619  PRO620  LYS621  CYS622 
 ASP623  PHE694  ASN695  SER759  ASP760  ASP761  ALA762  ILE779  LEU786  VAL792 
 PHE793  MET794  SER795  GLU796  ALA797  LYS798  CYS799  TRP800  GLU811  SER814 

> <Gold.Protein.RotatedAtoms>
  151.6441  135.1009  160.0147 H   0  0  0  0  0  0  0  0  0  0  0  0  # atno 6907 bound_to 6896
  152.4037  133.6853  159.6347 H   0  0  0  0  0  0  0  0  0  0  0  0  # atno 6908 bound_to 6896
  150.7934  133.8663  159.3287 H   0  0  0  0  0  0  0  0  0  0  0  0  # atno 6909 bound_to 6896
  146.2417  140.1411  142.8335 H   0  0  0  0  0  0  0  0  0  0  0  0  # atno 7974 bound_to 7965
  155.8113  140.0906  157.1902 H   0  0  0  0  0  0  0  0  0  0  0  0  # atno 8008 bound_to 7997
  154.3980  140.1454  156.3450 H   0  0  0  0  0  0  0  0  0  0  0  0  # atno 8009 bound_to 7997
  155.8362  140.3440  155.5605 H   0  0  0  0  0  0  0  0  0  0  0  0  # atno 8010 bound_to 7997
  139.7444  143.8613  152.2571 H   0  0  0  0  0  0  0  0  0  0  0  0  # atno 10167 bound_to 10162
  156.2852  130.4221  149.8296 H   0  0  0  0  0  0  0  0  0  0  0  0  # atno 10718 bound_to 10713
  154.5879  135.5555  153.7249 H   0  0  0  0  0  0  0  0  0  0  0  0  # atno 10763 bound_to 10752
  153.0105  135.6336  154.1891 H   0  0  0  0  0  0  0  0  0  0  0  0  # atno 10764 bound_to 10752
  154.1832  135.2886  155.3025 H   0  0  0  0  0  0  0  0  0  0  0  0  # atno 10765 bound_to 10752
  141.1561  133.6773  156.6650 H   0  0  0  0  0  0  0  0  0  0  0  0  # atno 11005 bound_to 11000
  145.0246  140.8821  143.5146 LP  0  0  0  0  0  0  0  0  0  0  0  0  # atno 17320 bound_to 7965
  145.1465  139.2540  143.5463 LP  0  0  0  0  0  0  0  0  0  0  0  0  # atno 17321 bound_to 7965
  139.8573  144.7135  150.9142 LP  0  0  0  0  0  0  0  0  0  0  0  0  # atno 17342 bound_to 10162
  140.7790  143.3848  151.1413 LP  0  0  0  0  0  0  0  0  0  0  0  0  # atno 17343 bound_to 10162
  156.5729  130.8432  151.3361 LP  0  0  0  0  0  0  0  0  0  0  0  0  # atno 17370 bound_to 10713
  157.7326  130.9718  150.1937 LP  0  0  0  0  0  0  0  0  0  0  0  0  # atno 17371 bound_to 10713
  140.3218  134.8001  157.4258 LP  0  0  0  0  0  0  0  0  0  0  0  0  # atno 17394 bound_to 11000
  140.1090  134.5371  155.8283 LP  0  0  0  0  0  0  0  0  0  0  0  0  # atno 17395 bound_to 11000

$$$$
