AV-unprocessed.smi:2061|AV-procd|sdf|8384|dock5
  -GOLD-   2272011 63D 1   1.00000     0.00000
 Structure written by MMmdl.
 45 46  0  0  0  0  0  0  0  0  3 V2000
  149.7844  140.8809  156.0958 C   0  0  0  0  0  0  0  0  0  0  0  0
  150.5434  139.6840  155.6332 C   0  0  0  0  0  0  0  0  0  0  0  0
  150.1735  138.3954  155.3701 C   0  0  0  0  0  0  0  0  0  0  0  0
  151.3907  137.7850  154.9611 C   0  0  0  0  0  0  0  0  0  0  0  0
  151.5495  136.5005  154.6060 N   0  5  0  0  0  0  0  0  0  0  0  0
  150.6024  135.5854  154.9121 C   0  0  0  0  0  0  0  0  0  0  0  0
  149.9485  135.5275  155.9562 O   0  0  0  0  0  0  0  0  0  0  0  0
  150.4040  134.6739  153.9495 N   0  0  0  0  0  0  0  0  0  0  0  0
  149.4650  133.5584  154.0145 C   0  0  0  0  0  0  0  0  0  0  0  0
  148.0219  134.0013  154.3721 C   0  0  2  0  0  0  0  0  0  0  0  0
  147.2978  132.8800  155.1563 C   0  0  0  0  0  0  0  0  0  0  0  0
  147.2986  134.4329  153.1322 N   0  3  1  0  0  0  0  0  0  0  0  0
  147.1394  133.3969  152.0764 C   0  0  0  0  0  0  0  0  0  0  0  0
  146.4669  133.9852  150.8215 C   0  0  1  0  0  0  0  0  0  0  0  0
  146.1970  132.9121  149.7612 C   0  0  0  0  0  0  0  0  0  0  0  0
  145.2190  134.5750  151.1691 O   0  0  0  0  0  0  0  0  0  0  0  0
  145.3014  135.5939  152.1626 C   0  0  2  0  0  0  0  0  0  0  0  0
  145.9560  136.8832  151.6341 C   0  0  0  0  0  0  0  0  0  0  0  0
  145.9724  135.0369  153.4318 C   0  0  0  0  0  0  0  0  0  0  0  0
  152.4121  138.6246  154.9905 N   0  0  0  0  0  0  0  0  0  0  0  0
  151.8758  139.8465  155.4136 O   0  0  0  0  0  0  0  0  0  0  0  0
  149.1672  140.6361  156.9602 H   0  0  0  0  0  0  0  0  0  0  0  0
  149.1301  141.2502  155.3062 H   0  0  0  0  0  0  0  0  0  0  0  0
  150.4587  141.6886  156.3815 H   0  0  0  0  0  0  0  0  0  0  0  0
  149.1896  137.9592  155.4533 H   0  0  0  0  0  0  0  0  0  0  0  0
  150.9558  134.7612  153.1083 H   0  0  0  0  0  0  0  0  0  0  0  0
  149.5083  133.0246  153.0659 H   0  0  0  0  0  0  0  0  0  0  0  0
  149.8308  132.8596  154.7673 H   0  0  0  0  0  0  0  0  0  0  0  0
  148.0706  134.8642  155.0384 H   0  0  0  0  0  0  0  0  0  0  0  0
  147.8642  132.5715  156.0347 H   0  0  0  0  0  0  0  0  0  0  0  0
  147.1482  131.9938  154.5386 H   0  0  0  0  0  0  0  0  0  0  0  0
  146.3278  133.2053  155.5327 H   0  0  0  0  0  0  0  0  0  0  0  0
  148.1080  133.0044  151.7687 H   0  0  0  0  0  0  0  0  0  0  0  0
  146.5562  132.5623  152.4690 H   0  0  0  0  0  0  0  0  0  0  0  0
  147.1180  134.7386  150.3777 H   0  0  0  0  0  0  0  0  0  0  0  0
  147.1232  132.4357  149.4388 H   0  0  0  0  0  0  0  0  0  0  0  0
  145.7232  133.3457  148.8800 H   0  0  0  0  0  0  0  0  0  0  0  0
  145.5362  132.1342  150.1450 H   0  0  0  0  0  0  0  0  0  0  0  0
  144.2716  135.8467  152.4171 H   0  0  0  0  0  0  0  0  0  0  0  0
  145.8854  137.6817  152.3731 H   0  0  0  0  0  0  0  0  0  0  0  0
  145.4573  137.2293  150.7285 H   0  0  0  0  0  0  0  0  0  0  0  0
  147.0129  136.7495  151.4048 H   0  0  0  0  0  0  0  0  0  0  0  0
  145.3295  134.2740  153.8741 H   0  0  0  0  0  0  0  0  0  0  0  0
  146.0516  135.8339  154.1690 H   0  0  0  0  0  0  0  0  0  0  0  0
  147.8671  135.1587  152.7198 H   0  0  0  0  0  0  0  0  0  0  0  0
  1  2  1  0  0  0  0
  1 22  1  0  0  0  0
  1 23  1  0  0  0  0
  1 24  1  0  0  0  0
  2 21  1  0  0  0  0
  2  3  2  0  0  0  0
  3  4  1  0  0  0  0
  3 25  1  0  0  0  0
  4  5  1  0  0  0  0
  4 20  2  0  0  0  0
  5  6  1  0  0  0  0
  6  7  2  0  0  0  0
  6  8  1  0  0  0  0
  8  9  1  0  0  0  0
  8 26  1  0  0  0  0
  9 10  1  0  0  0  0
  9 27  1  0  0  0  0
  9 28  1  0  0  0  0
 10 11  1  0  0  0  0
 10 12  1  0  0  0  0
 10 29  1  0  0  0  0
 11 30  1  0  0  0  0
 11 31  1  0  0  0  0
 11 32  1  0  0  0  0
 12 19  1  0  0  0  0
 12 13  1  0  0  0  0
 12 45  1  0  0  0  0
 13 14  1  0  0  0  0
 13 33  1  0  0  0  0
 13 34  1  0  0  0  0
 14 15  1  0  0  0  0
 14 16  1  0  0  0  0
 14 35  1  0  0  0  0
 15 36  1  0  0  0  0
 15 37  1  0  0  0  0
 15 38  1  0  0  0  0
 16 17  1  0  0  0  0
 17 18  1  0  0  0  0
 17 19  1  0  0  0  0
 17 39  1  0  0  0  0
 18 40  1  0  0  0  0
 18 41  1  0  0  0  0
 18 42  1  0  0  0  0
 19 43  1  0  0  0  0
 19 44  1  0  0  0  0
 20 21  1  0  0  0  0
M  CHG  1   5  -1
M  CHG  1  12   1
M  END
> <s_m_source_file>
AV-unprocessed.smi

> <i_m_source_file_index>
2061

> <i_lp_mmshare_version>
43012

> <i_f3d_flags>
0

> <s_epik_input>
W0NIM11jMVtjSF1jKG5vMSlbTkhdQyg9TylbTkhdW0NIMl1bQ0BIXShbQ0gzXSlOMltDSDJdW0NAQEhdKFtDSDNdKU9bQ0BASF0oW0NIM10pW0NIMl0y

> <s_epik_cmdline>
J2VwaWtfcHl0aG9uJywgJy1waCcsICc3LjAnLCAnLXRuJywgJzgnLCAnLW1hJywgJzIwMCcsICctbWV0YWxfYmluZGluZycsICctaW1hZScsICc8aW5maWxlLm1hZT4nLCAnLW9tYWUnLCAnPG91dGZpbGUubWFlPic=

> <r_epik_Ionization_Penalty>
6.73511

> <r_epik_Ionization_Penalty_Charging>
6.73502

> <r_epik_Ionization_Penalty_Neutral>
9.50841e-05

> <r_epik_State_Penalty>
6.93549

> <r_epik_Charging_Adjusted_Penalty>
13.6705

> <i_epik_Tot_Q>
0

> <i_epik_Tot_abs_Q>
2

> <r_epik_Metal_State_Penalty>
2.87211

> <b_epik_Metal_Only>
1

> <s_lp_Force_Field>
OPLS_2005

> <r_lp_Energy>
11.3742

> <b_lp_Chiralities_Consistent>
1

> <s_lp_Variant>
AV-unprocessed.smi:2061-25

> <Gold.Version>
5.8.1

> <Gold.Id.Protein>
6NUR|6NUR_protein|mol2

> <Gold.PLP.Fitness>
44.7685

> <Gold.PLP.PLP>
-30.2173

> <Gold.PLP.part.hbond>
-5.4957

> <Gold.PLP.part.metal>
0.0000

> <Gold.PLP.part.buried>
-0.1043

> <Gold.PLP.part.nonpolar>
-25.0024

> <Gold.PLP.part.repulsive>
0.5472

> <Gold.PLP.ligand.clash>
0.0000

> <Gold.PLP.ligand.torsion>
0.7274

> <Gold.PLP.Chemscore.Hbond>
5.2885

> <Gold.PLP.Chemscore.CHOScore>
0.0000

> <Gold.PLP.Chemscore.Metal>
0.0000

> <Gold.Chemscore.Hbonds>
donor molecule, donor type, donor heavy atom, donor atom, acceptor molecule, acceptor atom, score
      L1  H     8    26       P1  7949  0.37
      L1  H    12    45       P1  7948  2.00
      P1  H  7989  7998       L1    21  0.47
      P1  H 10752 10764       L1     5  2.00

> <Gold.PLP.Chemscore.Internal.Correction>
0.1404

> <Gold.Rescore>
     Score         DG    S(hbond)    S(metal)    S(lipo)     H(rot)  DE(clash)    DE(int)     intcor
     13.08     -16.85       2.39        0.00      63.08       1.56       0.65       3.12       ----

> <Gold.Chemscore.Fitness>
13.0846

> <Gold.Chemscore.DG>
-16.8536

> <Gold.Chemscore.ZeroCoef>
-5.4800

> <Gold.Chemscore.Hbond>
2.3875

> <Gold.Chemscore.Metal>
0.0000

> <Gold.Chemscore.Lipo>
63.0788

> <Gold.Chemscore.Internal_Hbond>
0.0000

> <Gold.Chemscore.DEClash>
0.6487

> <Gold.Chemscore.DEInternal>
3.1203

> <Gold.Chemscore.Rot>
1.5550

> <Gold.Chemscore.Internal.Correction>
   9.000000E+99

> <Gold.Chemscore.Hbonds>
donor molecule, donor type, donor heavy atom, donor atom, acceptor molecule, acceptor atom, score
      L1  H     8    26       P1  7949  0.01
      L1  H    12    45       P1  7948  0.99
      P1  H  7989  7998       L1    21  0.02
      P1  H 10752 10764       L1     5  0.60

> <Gold.Chemscore.Hbond.Weighted>
-7.9742

> <Gold.Chemscore.Metal.Weighted>
-0.0000

> <Gold.Chemscore.Lipo.Weighted>
-7.3802

> <Gold.Chemscore.Internal_Hbond.Weighted>
0.0000

> <Gold.Chemscore.DEClash.Weighted>
0.6487

> <Gold.Chemscore.DEInternal.Weighted>
3.1203

> <Gold.Chemscore.Rot.Weighted>
3.9809

> <Gold.Chemscore.Internal.Correction.Weighted>
   9.000000E+99

> <Gold.Protein.RotatedTorsions>
[ 6907 6896 6895 6894 ] final   20.09 input  -60.11 | X-H torsion
[ 7974 7965 7964 7962 ] final  179.12 input  175.53 | X-H torsion
[ 8008 7997 7996 7995 ] final -134.94 input   59.86 | X-H torsion
[ 10167 10162 10161 10158 ] final -112.71 input  -65.29 | X-H torsion
[ 10718 10713 10712 10709 ] final  179.25 input   66.30 | X-H torsion
[ 10763 10752 10751 10750 ] final  -80.94 input  -60.55 | X-H torsion
[ 11005 11000 10999 10996 ] final  -67.40 input  -57.11 | X-H torsion

> <Gold.Protein.ActiveResidues>
 VAL166  LYS551  ARG553  GLY616  TRP617  ASP618  TYR619  PRO620  LYS621  CYS622 
 ASP623  PHE694  ASN695  SER759  ASP760  ASP761  ALA762  ILE779  LEU786  VAL792 
 PHE793  MET794  SER795  GLU796  ALA797  LYS798  CYS799  TRP800  GLU811  SER814 

> <Gold.Protein.RotatedAtoms>
  151.8910  135.0416  160.0497 H   0  0  0  0  0  0  0  0  0  0  0  0  # atno 6907 bound_to 6896
  152.2436  133.5151  159.5293 H   0  0  0  0  0  0  0  0  0  0  0  0  # atno 6908 bound_to 6896
  150.7061  134.0972  159.3995 H   0  0  0  0  0  0  0  0  0  0  0  0  # atno 6909 bound_to 6896
  144.7149  140.0501  143.6435 H   0  0  0  0  0  0  0  0  0  0  0  0  # atno 7974 bound_to 7965
  155.3704  140.0488  157.3045 H   0  0  0  0  0  0  0  0  0  0  0  0  # atno 8008 bound_to 7997
  154.5133  140.2199  155.9077 H   0  0  0  0  0  0  0  0  0  0  0  0  # atno 8009 bound_to 7997
  156.1607  140.3117  155.8808 H   0  0  0  0  0  0  0  0  0  0  0  0  # atno 8010 bound_to 7997
  140.1197  143.4454  152.1699 H   0  0  0  0  0  0  0  0  0  0  0  0  # atno 10167 bound_to 10162
  156.8785  130.9808  151.3065 H   0  0  0  0  0  0  0  0  0  0  0  0  # atno 10718 bound_to 10713
  154.5574  135.5644  153.6976 H   0  0  0  0  0  0  0  0  0  0  0  0  # atno 10763 bound_to 10752
  153.0007  135.6265  154.2292 H   0  0  0  0  0  0  0  0  0  0  0  0  # atno 10764 bound_to 10752
  154.2228  135.2869  155.2898 H   0  0  0  0  0  0  0  0  0  0  0  0  # atno 10765 bound_to 10752
  141.1507  133.6718  156.6287 H   0  0  0  0  0  0  0  0  0  0  0  0  # atno 11005 bound_to 11000
  145.9951  139.3046  143.0961 LP  0  0  0  0  0  0  0  0  0  0  0  0  # atno 17320 bound_to 7965
  145.8858  140.9335  143.0578 LP  0  0  0  0  0  0  0  0  0  0  0  0  # atno 17321 bound_to 7965
  139.5575  144.7383  151.4252 LP  0  0  0  0  0  0  0  0  0  0  0  0  # atno 17342 bound_to 10162
  140.6879  143.7931  150.7212 LP  0  0  0  0  0  0  0  0  0  0  0  0  # atno 17343 bound_to 10162
  157.6154  130.8614  149.9020 LP  0  0  0  0  0  0  0  0  0  0  0  0  # atno 17370 bound_to 10713
  156.0689  130.3688  150.0818 LP  0  0  0  0  0  0  0  0  0  0  0  0  # atno 17371 bound_to 10713
  140.3484  134.7790  157.4449 LP  0  0  0  0  0  0  0  0  0  0  0  0  # atno 17394 bound_to 11000
  140.0881  134.5639  155.8472 LP  0  0  0  0  0  0  0  0  0  0  0  0  # atno 17395 bound_to 11000

$$$$
