AV-unprocessed.smi:1695|AV-procd|sdf|6793|dock10
  -GOLD-   22720 7553D 1   1.00000     0.00000
 Structure written by MMmdl.
 52 54  0  0  0  0  0  0  0  0  3 V2000
  152.0390  144.6571  160.2889 C   0  0  0  0  0  0  0  0  0  0  0  0
  151.8371  143.4782  159.3518 C   0  0  0  0  0  0  0  0  0  0  0  0
  151.0102  143.6511  158.2192 C   0  0  0  0  0  0  0  0  0  0  0  0
  150.8444  142.5549  157.3812 C   0  0  0  0  0  0  0  0  0  0  0  0
  150.1058  142.4082  156.2055 N   0  3  0  0  0  0  0  0  0  0  0  0
  150.2504  141.1397  155.7330 C   0  0  0  0  0  0  0  0  0  0  0  0
  151.0744  140.4738  156.5874 N   0  0  0  0  0  0  0  0  0  0  0  0
  151.5433  139.0817  156.5353 C   0  0  0  0  0  0  0  0  0  0  0  0
  151.9701  138.6444  155.1199 C   0  0  2  0  0  0  0  0  0  0  0  0
  152.9239  139.5765  154.6531 O   0  0  0  0  0  0  0  0  0  0  0  0
  150.8036  138.5774  154.1101 C   0  0  0  0  0  0  0  0  0  0  0  0
  149.8494  137.4780  154.4073 N   0  3  1  0  0  0  0  0  0  0  0  0
  150.4898  136.3082  155.0654 C   0  0  0  0  0  0  0  0  0  0  0  0
  149.4903  135.1499  155.2491 C   0  0  0  0  0  0  0  0  0  0  0  0
  148.2065  135.5630  155.9995 C   0  0  1  0  0  0  0  0  0  0  0  0
  148.4227  135.7121  157.5173 C   0  0  0  0  0  0  0  0  0  0  0  0
  147.3534  136.0249  158.2536 N   0  0  0  0  0  0  0  0  0  0  0  0
  149.5308  135.5492  158.0237 O   0  0  0  0  0  0  0  0  0  0  0  0
  147.6243  136.8363  155.3509 C   0  0  0  0  0  0  0  0  0  0  0  0
  148.6657  137.9567  155.1663 C   0  0  0  0  0  0  0  0  0  0  0  0
  151.4664  141.3165  157.6357 C   0  0  0  0  0  0  0  0  0  0  0  0
  152.2840  141.1300  158.7487 C   0  0  0  0  0  0  0  0  0  0  0  0
  152.4651  142.2331  159.6133 C   0  0  0  0  0  0  0  0  0  0  0  0
  153.3515  142.0579  160.8348 C   0  0  0  0  0  0  0  0  0  0  0  0
  151.5377  145.5518  159.9188 H   0  0  0  0  0  0  0  0  0  0  0  0
  153.0990  144.8902  160.3926 H   0  0  0  0  0  0  0  0  0  0  0  0
  151.6351  144.4329  161.2766 H   0  0  0  0  0  0  0  0  0  0  0  0
  150.5278  144.5959  158.0143 H   0  0  0  0  0  0  0  0  0  0  0  0
  149.7922  140.7351  154.8415 H   0  0  0  0  0  0  0  0  0  0  0  0
  152.3495  138.9411  157.2553 H   0  0  0  0  0  0  0  0  0  0  0  0
  150.7170  138.4590  156.8813 H   0  0  0  0  0  0  0  0  0  0  0  0
  152.4626  137.6757  155.1969 H   0  0  0  0  0  0  0  0  0  0  0  0
  153.4149  139.1841  153.9470 H   0  0  0  0  0  0  0  0  0  0  0  0
  150.2514  139.5172  154.0846 H   0  0  0  0  0  0  0  0  0  0  0  0
  151.2226  138.4458  153.1111 H   0  0  0  0  0  0  0  0  0  0  0  0
  151.3243  135.9495  154.4649 H   0  0  0  0  0  0  0  0  0  0  0  0
  150.9137  136.6107  156.0231 H   0  0  0  0  0  0  0  0  0  0  0  0
  149.2140  134.7644  154.2669 H   0  0  0  0  0  0  0  0  0  0  0  0
  149.9792  134.3220  155.7645 H   0  0  0  0  0  0  0  0  0  0  0  0
  147.4762  134.7636  155.8622 H   0  0  0  0  0  0  0  0  0  0  0  0
  147.4402  136.1343  159.2537 H   0  0  0  0  0  0  0  0  0  0  0  0
  146.4569  136.1515  157.8060 H   0  0  0  0  0  0  0  0  0  0  0  0
  147.2105  136.5763  154.3756 H   0  0  0  0  0  0  0  0  0  0  0  0
  146.7846  137.2095  155.9386 H   0  0  0  0  0  0  0  0  0  0  0  0
  148.9832  138.3594  156.1283 H   0  0  0  0  0  0  0  0  0  0  0  0
  148.1979  138.7810  154.6268 H   0  0  0  0  0  0  0  0  0  0  0  0
  152.7665  140.1859  158.9512 H   0  0  0  0  0  0  0  0  0  0  0  0
  153.7191  141.0347  160.9187 H   0  0  0  0  0  0  0  0  0  0  0  0
  152.7995  142.2875  161.7465 H   0  0  0  0  0  0  0  0  0  0  0  0
  154.2165  142.7191  160.7771 H   0  0  0  0  0  0  0  0  0  0  0  0
  149.4994  137.1596  153.5145 H   0  0  0  0  0  0  0  0  0  0  0  0
  149.5404  143.1190  155.7586 H   0  0  0  0  0  0  0  0  0  0  0  0
  1  2  1  0  0  0  0
  1 25  1  0  0  0  0
  1 26  1  0  0  0  0
  1 27  1  0  0  0  0
  2 23  1  0  0  0  0
  2  3  2  0  0  0  0
  3  4  1  0  0  0  0
  3 28  1  0  0  0  0
  4 21  2  0  0  0  0
  4  5  1  0  0  0  0
  5  6  2  0  0  0  0
  5 52  1  0  0  0  0
  6  7  1  0  0  0  0
  6 29  1  0  0  0  0
  7  8  1  0  0  0  0
  7 21  1  0  0  0  0
  8  9  1  0  0  0  0
  8 30  1  0  0  0  0
  8 31  1  0  0  0  0
  9 10  1  0  0  0  0
  9 11  1  0  0  0  0
  9 32  1  0  0  0  0
 10 33  1  0  0  0  0
 11 12  1  0  0  0  0
 11 34  1  0  0  0  0
 11 35  1  0  0  0  0
 12 20  1  0  0  0  0
 12 13  1  0  0  0  0
 12 51  1  0  0  0  0
 13 14  1  0  0  0  0
 13 36  1  0  0  0  0
 13 37  1  0  0  0  0
 14 15  1  0  0  0  0
 14 38  1  0  0  0  0
 14 39  1  0  0  0  0
 15 16  1  0  0  0  0
 15 19  1  0  0  0  0
 15 40  1  0  0  0  0
 16 17  1  0  0  0  0
 16 18  2  0  0  0  0
 17 41  1  0  0  0  0
 17 42  1  0  0  0  0
 19 20  1  0  0  0  0
 19 43  1  0  0  0  0
 19 44  1  0  0  0  0
 20 45  1  0  0  0  0
 20 46  1  0  0  0  0
 21 22  1  0  0  0  0
 22 23  2  0  0  0  0
 22 47  1  0  0  0  0
 23 24  1  0  0  0  0
 24 48  1  0  0  0  0
 24 49  1  0  0  0  0
 24 50  1  0  0  0  0
M  CHG  1   5   1
M  CHG  1  12   1
M  END
> <s_m_source_file>
AV-unprocessed.smi

> <i_m_source_file_index>
1695

> <i_lp_mmshare_version>
43012

> <i_f3d_flags>
0

> <s_epik_input>
W0NIM11jKFtjSF0xKWMoW0NIM10pW2NIXWMoYzEyKW4oW2NIXW4yKVtDSDJdW0NASF0oW09IXSlbQ0gyXU4zW0NIMl1bQ0gyXVtDSF0oQyg9TylbTkgyXSlbQ0gyXVtDSDJdMw==

> <s_epik_cmdline>
J2VwaWtfcHl0aG9uJywgJy1waCcsICc3LjAnLCAnLXRuJywgJzgnLCAnLW1hJywgJzIwMCcsICctbWV0YWxfYmluZGluZycsICctaW1hZScsICc8aW5maWxlLm1hZT4nLCAnLW9tYWUnLCAnPG91dGZpbGUubWFlPic=

> <r_epik_Ionization_Penalty>
1.20173

> <r_epik_Ionization_Penalty_Charging>
1.20172

> <r_epik_Ionization_Penalty_Neutral>
1.7852e-06

> <r_epik_State_Penalty>
1.28089

> <r_epik_Charging_Adjusted_Penalty>
2.48261

> <i_epik_Tot_Q>
2

> <i_epik_Tot_abs_Q>
2

> <r_epik_Metal_State_Penalty>
1.35652

> <b_epik_Metal_Only>
0

> <s_lp_Force_Field>
OPLS_2005

> <r_lp_Energy>
28.6872

> <b_lp_Chiralities_Consistent>
1

> <s_lp_Variant>
AV-unprocessed.smi:1695-5

> <Gold.Version>
5.8.1

> <Gold.Id.Protein>
6NUR|6NUR_protein|mol2

> <Gold.PLP.Fitness>
64.0515

> <Gold.PLP.PLP>
-46.9743

> <Gold.PLP.part.hbond>
-4.9998

> <Gold.PLP.part.metal>
0.0000

> <Gold.PLP.part.buried>
-7.3417

> <Gold.PLP.part.nonpolar>
-35.7434

> <Gold.PLP.part.repulsive>
0.1621

> <Gold.PLP.ligand.clash>
0.0000

> <Gold.PLP.ligand.torsion>
0.7344

> <Gold.PLP.Chemscore.Hbond>
6.1605

> <Gold.PLP.Chemscore.CHOScore>
0.0000

> <Gold.PLP.Chemscore.Metal>
0.0000

> <Gold.Chemscore.Hbonds>
donor molecule, donor type, donor heavy atom, donor atom, acceptor molecule, acceptor atom, score
      L1  H     5    52       P1  8028  2.00
      L1  H    12    51       P1  7948  2.00
      P1  H  6896  6909       L1    18  0.73
      P1  H  7989  7998       L1    10  0.29
      P1  H  7997  8008       L1    10  0.94

> <Gold.PLP.Chemscore.Internal.Correction>
0.0646

> <Gold.Rescore>
     Score         DG    S(hbond)    S(metal)    S(lipo)     H(rot)  DE(clash)    DE(int)     intcor
     22.99     -23.76       3.65        0.00     115.89       2.91       0.10       0.67       ----

> <Gold.Chemscore.Fitness>
22.9906

> <Gold.Chemscore.DG>
-23.7597

> <Gold.Chemscore.ZeroCoef>
-5.4800

> <Gold.Chemscore.Hbond>
3.6459

> <Gold.Chemscore.Metal>
0.0000

> <Gold.Chemscore.Lipo>
115.8877

> <Gold.Chemscore.Internal_Hbond>
0.0000

> <Gold.Chemscore.DEClash>
0.0998

> <Gold.Chemscore.DEInternal>
0.6692

> <Gold.Chemscore.Rot>
2.9127

> <Gold.Chemscore.Internal.Correction>
   9.000000E+99

> <Gold.Chemscore.Hbonds>
donor molecule, donor type, donor heavy atom, donor atom, acceptor molecule, acceptor atom, score
      L1  H     5    52       P1  8028  0.97
      L1  H    12    51       P1  7948  0.90
      P1  H  6896  6909       L1    18  0.71
      P1  H  7989  7998       L1    10  0.02
      P1  H  7997  8008       L1    10  0.23

> <Gold.Chemscore.Hbond.Weighted>
-12.1773

> <Gold.Chemscore.Metal.Weighted>
-0.0000

> <Gold.Chemscore.Lipo.Weighted>
-13.5589

> <Gold.Chemscore.Internal_Hbond.Weighted>
0.0000

> <Gold.Chemscore.DEClash.Weighted>
0.0998

> <Gold.Chemscore.DEInternal.Weighted>
0.6692

> <Gold.Chemscore.Rot.Weighted>
7.4565

> <Gold.Chemscore.Internal.Correction.Weighted>
   9.000000E+99

> <Gold.Protein.RotatedTorsions>
[ 6907 6896 6895 6894 ] final   40.62 input  -60.11 | X-H torsion
[ 7974 7965 7964 7962 ] final  178.30 input  175.53 | X-H torsion
[ 8008 7997 7996 7995 ] final  -13.41 input   59.86 | X-H torsion
[ 10167 10162 10161 10158 ] final   81.10 input  -65.29 | X-H torsion
[ 10718 10713 10712 10709 ] final   89.23 input   66.30 | X-H torsion
[ 10763 10752 10751 10750 ] final  128.23 input  -60.55 | X-H torsion
[ 11005 11000 10999 10996 ] final   84.03 input  -57.11 | X-H torsion

> <Gold.Protein.ActiveResidues>
 VAL166  LYS551  ARG553  GLY616  TRP617  ASP618  TYR619  PRO620  LYS621  CYS622 
 ASP623  PHE694  ASN695  SER759  ASP760  ASP761  ALA762  ILE779  LEU786  VAL792 
 PHE793  MET794  SER795  GLU796  ALA797  LYS798  CYS799  TRP800  GLU811  SER814 

> <Gold.Protein.RotatedAtoms>
  152.1848  134.8723  160.0522 H   0  0  0  0  0  0  0  0  0  0  0  0  # atno 6907 bound_to 6896
  151.9634  133.3697  159.4052 H   0  0  0  0  0  0  0  0  0  0  0  0  # atno 6908 bound_to 6896
  150.6924  134.4140  159.5218 H   0  0  0  0  0  0  0  0  0  0  0  0  # atno 6909 bound_to 6896
  144.7158  140.0377  143.6438 H   0  0  0  0  0  0  0  0  0  0  0  0  # atno 7974 bound_to 7965
  154.5295  140.2250  155.8830 H   0  0  0  0  0  0  0  0  0  0  0  0  # atno 8008 bound_to 7997
  156.1748  140.3113  155.9004 H   0  0  0  0  0  0  0  0  0  0  0  0  # atno 8009 bound_to 7997
  155.3482  140.0454  157.3036 H   0  0  0  0  0  0  0  0  0  0  0  0  # atno 8010 bound_to 7997
  139.9428  144.6078  150.8235 H   0  0  0  0  0  0  0  0  0  0  0  0  # atno 10167 bound_to 10162
  157.6954  131.0325  150.3394 H   0  0  0  0  0  0  0  0  0  0  0  0  # atno 10718 bound_to 10713
  153.7222  135.3251  155.3269 H   0  0  0  0  0  0  0  0  0  0  0  0  # atno 10763 bound_to 10752
  154.8352  135.4502  154.1206 H   0  0  0  0  0  0  0  0  0  0  0  0  # atno 10764 bound_to 10752
  153.2330  135.6962  153.7949 H   0  0  0  0  0  0  0  0  0  0  0  0  # atno 10765 bound_to 10752
  139.9013  134.8187  156.2389 H   0  0  0  0  0  0  0  0  0  0  0  0  # atno 11005 bound_to 11000
  146.0050  139.3122  143.0905 LP  0  0  0  0  0  0  0  0  0  0  0  0  # atno 17320 bound_to 7965
  145.8749  140.9398  143.0631 LP  0  0  0  0  0  0  0  0  0  0  0  0  # atno 17321 bound_to 7965
  140.7606  143.3155  151.2744 LP  0  0  0  0  0  0  0  0  0  0  0  0  # atno 17342 bound_to 10162
  139.6691  144.0052  152.2741 LP  0  0  0  0  0  0  0  0  0  0  0  0  # atno 17343 bound_to 10162
  156.3857  130.3888  149.7067 LP  0  0  0  0  0  0  0  0  0  0  0  0  # atno 17370 bound_to 10713
  156.4435  130.7872  151.2893 LP  0  0  0  0  0  0  0  0  0  0  0  0  # atno 17371 bound_to 10713
  141.0297  133.6995  156.1409 LP  0  0  0  0  0  0  0  0  0  0  0  0  # atno 17394 bound_to 11000
  140.7114  134.4458  157.5581 LP  0  0  0  0  0  0  0  0  0  0  0  0  # atno 17395 bound_to 11000

$$$$
