AV-unprocessed.smi:2007|AV-procd|sdf|8135|dock5
  -GOLD-   2272010373D 1   1.00000     0.00000
 Structure written by MMmdl.
 37 38  0  0  0  0  0  0  0  0  2 V2000
  150.7702  138.7160  153.8851 C   0  0  0  0  0  0  0  0  0  0  0  0
  149.6588  139.6014  154.4646 C   0  0  2  0  0  0  0  0  0  0  0  0
  148.5948  139.9337  153.3921 C   0  0  0  0  0  0  0  0  0  0  0  0
  147.5966  138.8510  153.2004 N   0  3  0  0  0  0  0  0  0  0  0  0
  147.1111  138.2766  154.4770 C   0  0  0  0  0  0  0  0  0  0  0  0
  146.1380  137.1164  154.2050 C   0  0  0  0  0  0  0  0  0  0  0  0
  145.0617  137.5726  153.3946 O   0  0  0  0  0  0  0  0  0  0  0  0
  145.5109  138.0492  152.1320 C   0  0  0  0  0  0  0  0  0  0  0  0
  146.4534  139.2456  152.3419 C   0  0  0  0  0  0  0  0  0  0  0  0
  150.2604  140.8145  155.0209 N   0  0  0  0  0  0  0  0  0  0  0  0
  151.3005  140.8621  155.8670 C   0  0  0  0  0  0  0  0  0  0  0  0
  151.8599  139.8587  156.3102 O   0  0  0  0  0  0  0  0  0  0  0  0
  151.6310  142.1307  156.1644 N   0  0  0  0  0  0  0  0  0  0  0  0
  152.6420  142.5873  157.0505 C   0  0  0  0  0  0  0  0  0  0  0  0
  153.0040  143.8686  157.1848 N   0  0  0  0  0  0  0  0  0  0  0  0
  154.0263  144.0288  158.1238 C   0  0  0  0  0  0  0  0  0  0  0  0
  154.4369  142.8498  158.6947 C   0  0  0  0  0  0  0  0  0  0  0  0
  153.5480  141.4837  158.0753 S   0  0  0  0  0  0  0  0  0  0  0  0
  150.3641  137.7813  153.4976 H   0  0  0  0  0  0  0  0  0  0  0  0
  151.5082  138.4613  154.6468 H   0  0  0  0  0  0  0  0  0  0  0  0
  151.2929  139.2149  153.0681 H   0  0  0  0  0  0  0  0  0  0  0  0
  149.1941  139.0330  155.2713 H   0  0  0  0  0  0  0  0  0  0  0  0
  148.0785  140.8448  153.6991 H   0  0  0  0  0  0  0  0  0  0  0  0
  149.0690  140.1635  152.4366 H   0  0  0  0  0  0  0  0  0  0  0  0
  147.9547  137.9141  155.0658 H   0  0  0  0  0  0  0  0  0  0  0  0
  146.6171  139.0526  155.0638 H   0  0  0  0  0  0  0  0  0  0  0  0
  146.6495  136.2854  153.7165 H   0  0  0  0  0  0  0  0  0  0  0  0
  145.7361  136.7352  155.1440 H   0  0  0  0  0  0  0  0  0  0  0  0
  146.0116  137.2498  151.5829 H   0  0  0  0  0  0  0  0  0  0  0  0
  144.6472  138.3506  151.5394 H   0  0  0  0  0  0  0  0  0  0  0  0
  145.9115  140.0712  152.8058 H   0  0  0  0  0  0  0  0  0  0  0  0
  146.8078  139.6005  151.3745 H   0  0  0  0  0  0  0  0  0  0  0  0
  149.8669  141.6917  154.7120 H   0  0  0  0  0  0  0  0  0  0  0  0
  151.0937  142.8554  155.7114 H   0  0  0  0  0  0  0  0  0  0  0  0
  154.4045  145.0204  158.3240 H   0  0  0  0  0  0  0  0  0  0  0  0
  155.2048  142.7028  159.4398 H   0  0  0  0  0  0  0  0  0  0  0  0
  148.0771  138.1035  152.7195 H   0  0  0  0  0  0  0  0  0  0  0  0
  1  2  1  0  0  0  0
  1 19  1  0  0  0  0
  1 20  1  0  0  0  0
  1 21  1  0  0  0  0
  2  3  1  0  0  0  0
  2 10  1  0  0  0  0
  2 22  1  0  0  0  0
  3  4  1  0  0  0  0
  3 23  1  0  0  0  0
  3 24  1  0  0  0  0
  4  9  1  0  0  0  0
  4  5  1  0  0  0  0
  4 37  1  0  0  0  0
  5  6  1  0  0  0  0
  5 25  1  0  0  0  0
  5 26  1  0  0  0  0
  6  7  1  0  0  0  0
  6 27  1  0  0  0  0
  6 28  1  0  0  0  0
  7  8  1  0  0  0  0
  8  9  1  0  0  0  0
  8 29  1  0  0  0  0
  8 30  1  0  0  0  0
  9 31  1  0  0  0  0
  9 32  1  0  0  0  0
 10 11  1  0  0  0  0
 10 33  1  0  0  0  0
 11 12  2  0  0  0  0
 11 13  1  0  0  0  0
 13 14  1  0  0  0  0
 13 34  1  0  0  0  0
 14 18  1  0  0  0  0
 14 15  2  0  0  0  0
 15 16  1  0  0  0  0
 16 17  2  0  0  0  0
 16 35  1  0  0  0  0
 17 18  1  0  0  0  0
 17 36  1  0  0  0  0
M  CHG  1   4   1
M  END
> <s_m_source_file>
AV-unprocessed.smi

> <i_m_source_file_index>
2007

> <i_lp_mmshare_version>
43012

> <i_f3d_flags>
0

> <s_epik_input>
W0NIMl0xW0NIMl1PW0NIMl1bQ0gyXU4xW0NIMl1bQ0BASF0oW0NIM10pW05IXUMoPU8pW05IXWMybltjSF1bY0hdczI=

> <s_epik_cmdline>
J2VwaWtfcHl0aG9uJywgJy1waCcsICc3LjAnLCAnLXRuJywgJzgnLCAnLW1hJywgJzIwMCcsICctbWV0YWxfYmluZGluZycsICctaW1hZScsICc8aW5maWxlLm1hZT4nLCAnLW9tYWUnLCAnPG91dGZpbGUubWFlPic=

> <r_lp_tautomer_probability>
0.999

> <r_epik_Ionization_Penalty>
0.695848

> <r_epik_Ionization_Penalty_Charging>
0.695697

> <r_epik_Ionization_Penalty_Neutral>
0.000150585

> <r_epik_State_Penalty>
0.717972

> <r_epik_Charging_Adjusted_Penalty>
1.41367

> <i_epik_Tot_Q>
1

> <i_epik_Tot_abs_Q>
1

> <r_epik_Metal_State_Penalty>
0.763271

> <b_epik_Metal_Only>
0

> <s_lp_Force_Field>
OPLS_2005

> <r_lp_Energy>
20.6348

> <b_lp_Chiralities_Consistent>
1

> <s_lp_Variant>
AV-unprocessed.smi:2007-3

> <Gold.Version>
5.8.1

> <Gold.Id.Protein>
6NUR|6NUR_protein|mol2

> <Gold.PLP.Fitness>
40.6005

> <Gold.PLP.PLP>
-32.3605

> <Gold.PLP.part.hbond>
-3.0000

> <Gold.PLP.part.metal>
0.0000

> <Gold.PLP.part.buried>
2.9868

> <Gold.PLP.part.nonpolar>
-33.3765

> <Gold.PLP.part.repulsive>
0.5974

> <Gold.PLP.ligand.clash>
0.0000

> <Gold.PLP.ligand.torsion>
0.4006

> <Gold.PLP.Chemscore.Hbond>
3.0000

> <Gold.PLP.Chemscore.CHOScore>
0.0000

> <Gold.PLP.Chemscore.Metal>
0.0000

> <Gold.Chemscore.Hbonds>
donor molecule, donor type, donor heavy atom, donor atom, acceptor molecule, acceptor atom, score
      L1  H     4    37       P1  7948  1.07

> <Gold.PLP.Chemscore.Internal.Correction>
0.0411

> <Gold.Rescore>
     Score         DG    S(hbond)    S(metal)    S(lipo)     H(rot)  DE(clash)    DE(int)     intcor
     11.91     -17.30       1.91        0.00      82.34       1.63       1.80       3.60       ----

> <Gold.Chemscore.Fitness>
11.9079

> <Gold.Chemscore.DG>
-17.3038

> <Gold.Chemscore.ZeroCoef>
-5.4800

> <Gold.Chemscore.Hbond>
1.9055

> <Gold.Chemscore.Metal>
0.0000

> <Gold.Chemscore.Lipo>
82.3399

> <Gold.Chemscore.Internal_Hbond>
0.0000

> <Gold.Chemscore.DEClash>
1.7950

> <Gold.Chemscore.DEInternal>
3.6009

> <Gold.Chemscore.Rot>
1.6306

> <Gold.Chemscore.Internal.Correction>
   9.000000E+99

> <Gold.Chemscore.Hbonds>
donor molecule, donor type, donor heavy atom, donor atom, acceptor molecule, acceptor atom, score
      L1  H     4    37       P1  7948  0.52

> <Gold.Chemscore.Hbond.Weighted>
-6.3643

> <Gold.Chemscore.Metal.Weighted>
-0.0000

> <Gold.Chemscore.Lipo.Weighted>
-9.6338

> <Gold.Chemscore.Internal_Hbond.Weighted>
0.0000

> <Gold.Chemscore.DEClash.Weighted>
1.7950

> <Gold.Chemscore.DEInternal.Weighted>
3.6009

> <Gold.Chemscore.Rot.Weighted>
4.1743

> <Gold.Chemscore.Internal.Correction.Weighted>
   9.000000E+99

> <Gold.Protein.RotatedTorsions>
[ 6907 6896 6895 6894 ] final -125.56 input  -60.11 | X-H torsion
[ 7974 7965 7964 7962 ] final  127.80 input  175.53 | X-H torsion
[ 8008 7997 7996 7995 ] final   30.78 input   59.86 | X-H torsion
[ 10167 10162 10161 10158 ] final -109.30 input  -65.29 | X-H torsion
[ 10718 10713 10712 10709 ] final  171.33 input   66.30 | X-H torsion
[ 10763 10752 10751 10750 ] final   94.45 input  -60.55 | X-H torsion
[ 11005 11000 10999 10996 ] final  -75.65 input  -57.11 | X-H torsion

> <Gold.Protein.ActiveResidues>
 VAL166  LYS551  ARG553  GLY616  TRP617  ASP618  TYR619  PRO620  LYS621  CYS622 
 ASP623  PHE694  ASN695  SER759  ASP760  ASP761  ALA762  ILE779  LEU786  VAL792 
 PHE793  MET794  SER795  GLU796  ALA797  LYS798  CYS799  TRP800  GLU811  SER814 

> <Gold.Protein.RotatedAtoms>
  150.8880  133.7282  159.2912 H   0  0  0  0  0  0  0  0  0  0  0  0  # atno 6907 bound_to 6896
  151.4842  135.1052  159.9795 H   0  0  0  0  0  0  0  0  0  0  0  0  # atno 6908 bound_to 6896
  152.4802  133.8189  159.7098 H   0  0  0  0  0  0  0  0  0  0  0  0  # atno 6909 bound_to 6896
  145.0465  139.3918  143.5075 H   0  0  0  0  0  0  0  0  0  0  0  0  # atno 7974 bound_to 7965
  155.0960  140.3225  155.4560 H   0  0  0  0  0  0  0  0  0  0  0  0  # atno 8008 bound_to 7997
  156.2730  140.2069  156.6033 H   0  0  0  0  0  0  0  0  0  0  0  0  # atno 8009 bound_to 7997
  154.6866  140.0520  157.0308 H   0  0  0  0  0  0  0  0  0  0  0  0  # atno 8010 bound_to 7997
  140.1568  143.4153  152.1454 H   0  0  0  0  0  0  0  0  0  0  0  0  # atno 10167 bound_to 10162
  156.9951  131.0159  151.2846 H   0  0  0  0  0  0  0  0  0  0  0  0  # atno 10718 bound_to 10713
  153.2418  135.4289  155.0705 H   0  0  0  0  0  0  0  0  0  0  0  0  # atno 10763 bound_to 10752
  154.8344  135.3404  154.6639 H   0  0  0  0  0  0  0  0  0  0  0  0  # atno 10764 bound_to 10752
  153.7062  135.7025  153.5106 H   0  0  0  0  0  0  0  0  0  0  0  0  # atno 10765 bound_to 10752
  141.1647  133.6954  156.7550 H   0  0  0  0  0  0  0  0  0  0  0  0  # atno 11005 bound_to 11000
  146.3514  140.0094  142.8668 LP  0  0  0  0  0  0  0  0  0  0  0  0  # atno 17320 bound_to 7965
  145.1581  140.9658  143.4393 LP  0  0  0  0  0  0  0  0  0  0  0  0  # atno 17321 bound_to 7965
  139.5399  144.7247  151.4767 LP  0  0  0  0  0  0  0  0  0  0  0  0  # atno 17342 bound_to 10162
  140.6668  143.8381  150.6951 LP  0  0  0  0  0  0  0  0  0  0  0  0  # atno 17343 bound_to 10162
  157.5431  130.8133  149.8053 LP  0  0  0  0  0  0  0  0  0  0  0  0  # atno 17370 bound_to 10713
  156.0192  130.3802  150.2014 LP  0  0  0  0  0  0  0  0  0  0  0  0  # atno 17371 bound_to 10713
  140.2576  134.8492  157.3728 LP  0  0  0  0  0  0  0  0  0  0  0  0  # atno 17394 bound_to 11000
  140.1642  134.4690  155.7874 LP  0  0  0  0  0  0  0  0  0  0  0  0  # atno 17395 bound_to 11000

$$$$
