AV-unprocessed.smi:1978|AV-procd|sdf|8004|dock4
  -GOLD-   2272010193D 1   1.00000     0.00000
 Structure written by MMmdl.
 44 45  0  0  0  0  0  0  0  0  3 V2000
  151.1416  141.1741  155.7220 C   0  0  0  0  0  0  0  0  0  0  0  0
  151.5069  139.7551  155.4491 C   0  0  0  0  0  0  0  0  0  0  0  0
  150.7779  138.6687  155.0565 C   0  0  0  0  0  0  0  0  0  0  0  0
  151.7523  137.6367  154.9744 C   0  0  0  0  0  0  0  0  0  0  0  0
  151.5254  136.3599  154.6291 N   0  5  0  0  0  0  0  0  0  0  0  0
  150.5219  135.6660  155.2123 C   0  0  0  0  0  0  0  0  0  0  0  0
  150.6207  134.9150  156.1854 O   0  0  0  0  0  0  0  0  0  0  0  0
  149.3299  135.8596  154.6311 N   0  0  0  0  0  0  0  0  0  0  0  0
  148.0598  135.2769  155.0535 C   0  0  0  0  0  0  0  0  0  0  0  0
  146.8644  136.0373  154.4363 C   0  0  2  0  0  0  0  0  0  0  0  0
  145.6164  136.0206  155.3467 C   0  0  0  0  0  0  0  0  0  0  0  0
  146.5727  135.5647  153.0432 N   0  3  1  0  0  0  0  0  0  0  0  0
  146.1175  134.1440  152.9715 C   0  0  0  0  0  0  0  0  0  0  0  0
  146.1017  133.6309  151.5251 C   0  0  0  0  0  0  0  0  0  0  0  0
  145.1952  134.5049  150.6569 C   0  0  0  0  0  0  0  0  0  0  0  0
  145.6434  135.9661  150.7569 C   0  0  0  0  0  0  0  0  0  0  0  0
  145.6907  136.4600  152.2203 C   0  0  2  0  0  0  0  0  0  0  0  0
  146.1228  137.9409  152.2290 C   0  0  0  0  0  0  0  0  0  0  0  0
  152.9616  138.0550  155.3080 N   0  0  0  0  0  0  0  0  0  0  0  0
  152.8143  139.4144  155.6077 O   0  0  0  0  0  0  0  0  0  0  0  0
  150.4902  141.2429  156.5931 H   0  0  0  0  0  0  0  0  0  0  0  0
  150.6162  141.6067  154.8706 H   0  0  0  0  0  0  0  0  0  0  0  0
  152.0281  141.7793  155.9135 H   0  0  0  0  0  0  0  0  0  0  0  0
  149.7186  138.6204  154.8530 H   0  0  0  0  0  0  0  0  0  0  0  0
  149.3049  136.4798  153.8347 H   0  0  0  0  0  0  0  0  0  0  0  0
  148.0440  134.2317  154.7423 H   0  0  0  0  0  0  0  0  0  0  0  0
  148.0000  135.2850  156.1412 H   0  0  0  0  0  0  0  0  0  0  0  0
  147.2091  137.0672  154.3830 H   0  0  0  0  0  0  0  0  0  0  0  0
  145.8217  136.4968  156.3058 H   0  0  0  0  0  0  0  0  0  0  0  0
  145.2839  135.0048  155.5602 H   0  0  0  0  0  0  0  0  0  0  0  0
  144.7826  136.5620  154.9010 H   0  0  0  0  0  0  0  0  0  0  0  0
  146.7656  133.4893  153.5500 H   0  0  0  0  0  0  0  0  0  0  0  0
  145.1183  134.0521  153.3993 H   0  0  0  0  0  0  0  0  0  0  0  0
  147.1154  133.6301  151.1221 H   0  0  0  0  0  0  0  0  0  0  0  0
  145.7558  132.5970  151.4999 H   0  0  0  0  0  0  0  0  0  0  0  0
  145.2269  134.1697  149.6198 H   0  0  0  0  0  0  0  0  0  0  0  0
  144.1598  134.4098  150.9865 H   0  0  0  0  0  0  0  0  0  0  0  0
  146.6285  136.0744  150.3005 H   0  0  0  0  0  0  0  0  0  0  0  0
  144.9651  136.5884  150.1718 H   0  0  0  0  0  0  0  0  0  0  0  0
  144.6786  136.4062  152.6237 H   0  0  0  0  0  0  0  0  0  0  0  0
  145.5577  138.5153  151.4942 H   0  0  0  0  0  0  0  0  0  0  0  0
  147.1804  138.0506  151.9867 H   0  0  0  0  0  0  0  0  0  0  0  0
  145.9369  138.4190  153.1904 H   0  0  0  0  0  0  0  0  0  0  0  0
  147.4687  135.5862  152.5779 H   0  0  0  0  0  0  0  0  0  0  0  0
  1  2  1  0  0  0  0
  1 21  1  0  0  0  0
  1 22  1  0  0  0  0
  1 23  1  0  0  0  0
  2 20  1  0  0  0  0
  2  3  2  0  0  0  0
  3  4  1  0  0  0  0
  3 24  1  0  0  0  0
  4  5  1  0  0  0  0
  4 19  2  0  0  0  0
  5  6  1  0  0  0  0
  6  7  2  0  0  0  0
  6  8  1  0  0  0  0
  8  9  1  0  0  0  0
  8 25  1  0  0  0  0
  9 10  1  0  0  0  0
  9 26  1  0  0  0  0
  9 27  1  0  0  0  0
 10 11  1  0  0  0  0
 10 12  1  0  0  0  0
 10 28  1  0  0  0  0
 11 29  1  0  0  0  0
 11 30  1  0  0  0  0
 11 31  1  0  0  0  0
 12 17  1  0  0  0  0
 12 13  1  0  0  0  0
 12 44  1  0  0  0  0
 13 14  1  0  0  0  0
 13 32  1  0  0  0  0
 13 33  1  0  0  0  0
 14 15  1  0  0  0  0
 14 34  1  0  0  0  0
 14 35  1  0  0  0  0
 15 16  1  0  0  0  0
 15 36  1  0  0  0  0
 15 37  1  0  0  0  0
 16 17  1  0  0  0  0
 16 38  1  0  0  0  0
 16 39  1  0  0  0  0
 17 18  1  0  0  0  0
 17 40  1  0  0  0  0
 18 41  1  0  0  0  0
 18 42  1  0  0  0  0
 18 43  1  0  0  0  0
 19 20  1  0  0  0  0
M  CHG  1   5  -1
M  CHG  1  12   1
M  END
> <s_m_source_file>
AV-unprocessed.smi

> <i_m_source_file_index>
1978

> <i_lp_mmshare_version>
43012

> <i_f3d_flags>
0

> <s_epik_input>
W0NIM11jMVtjSF1jKG5vMSlbTkhdQyg9TylbTkhdW0NIMl1bQ0BIXShbQ0gzXSlOMltDSDJdW0NIMl1bQ0gyXVtDSDJdW0NASF0yW0NIM10=

> <s_epik_cmdline>
J2VwaWtfcHl0aG9uJywgJy1waCcsICc3LjAnLCAnLXRuJywgJzgnLCAnLW1hJywgJzIwMCcsICctbWV0YWxfYmluZGluZycsICctaW1hZScsICc8aW5maWxlLm1hZT4nLCAnLW9tYWUnLCAnPG91dGZpbGUubWFlPic=

> <r_epik_Ionization_Penalty>
6.22372

> <r_epik_Ionization_Penalty_Charging>
6.22362

> <r_epik_Ionization_Penalty_Neutral>
9.65074e-05

> <r_epik_State_Penalty>
6.22363

> <r_epik_Charging_Adjusted_Penalty>
12.4472

> <i_epik_Tot_Q>
0

> <i_epik_Tot_abs_Q>
2

> <r_epik_Metal_State_Penalty>
2.16675

> <b_epik_Metal_Only>
1

> <s_lp_Force_Field>
OPLS_2005

> <r_lp_Energy>
13.293

> <b_lp_Chiralities_Consistent>
1

> <s_lp_Variant>
AV-unprocessed.smi:1978-13

> <Gold.Version>
5.8.1

> <Gold.Id.Protein>
6NUR|6NUR_protein|mol2

> <Gold.PLP.Fitness>
45.7377

> <Gold.PLP.PLP>
-32.0809

> <Gold.PLP.part.hbond>
-4.4355

> <Gold.PLP.part.metal>
0.0000

> <Gold.PLP.part.buried>
-3.9764

> <Gold.PLP.part.nonpolar>
-24.3896

> <Gold.PLP.part.repulsive>
0.4690

> <Gold.PLP.ligand.clash>
0.0000

> <Gold.PLP.ligand.torsion>
1.6923

> <Gold.PLP.Chemscore.Hbond>
5.6240

> <Gold.PLP.Chemscore.CHOScore>
0.0000

> <Gold.PLP.Chemscore.Metal>
0.0000

> <Gold.Chemscore.Hbonds>
donor molecule, donor type, donor heavy atom, donor atom, acceptor molecule, acceptor atom, score
      L1  H     8    25       P1  7948  0.69
      L1  H    12    44       P1  7948  2.00
      P1  H  7997  8009       L1    20  1.00
      P1  H 10752 10764       L1     5  2.00

> <Gold.PLP.Chemscore.Internal.Correction>
0.1695

> <Gold.Rescore>
     Score         DG    S(hbond)    S(metal)    S(lipo)     H(rot)  DE(clash)    DE(int)     intcor
     17.63     -19.55       3.26        0.00      60.36       1.52       0.17       1.76       ----

> <Gold.Chemscore.Fitness>
17.6268

> <Gold.Chemscore.DG>
-19.5540

> <Gold.Chemscore.ZeroCoef>
-5.4800

> <Gold.Chemscore.Hbond>
3.2638

> <Gold.Chemscore.Metal>
0.0000

> <Gold.Chemscore.Lipo>
60.3554

> <Gold.Chemscore.Internal_Hbond>
0.0000

> <Gold.Chemscore.DEClash>
0.1662

> <Gold.Chemscore.DEInternal>
1.7610

> <Gold.Chemscore.Rot>
1.5190

> <Gold.Chemscore.Internal.Correction>
   9.000000E+99

> <Gold.Chemscore.Hbonds>
donor molecule, donor type, donor heavy atom, donor atom, acceptor molecule, acceptor atom, score
      L1  H     8    25       P1  7948  0.61
      L1  H    12    44       P1  7948  1.00
      P1  H  7997  8009       L1    20  0.78
      P1  H 10752 10764       L1     5  0.68

> <Gold.Chemscore.Hbond.Weighted>
-10.9011

> <Gold.Chemscore.Metal.Weighted>
-0.0000

> <Gold.Chemscore.Lipo.Weighted>
-7.0616

> <Gold.Chemscore.Internal_Hbond.Weighted>
0.0000

> <Gold.Chemscore.DEClash.Weighted>
0.1662

> <Gold.Chemscore.DEInternal.Weighted>
1.7610

> <Gold.Chemscore.Rot.Weighted>
3.8886

> <Gold.Chemscore.Internal.Correction.Weighted>
   9.000000E+99

> <Gold.Protein.RotatedTorsions>
[ 6907 6896 6895 6894 ] final -170.77 input  -60.11 | X-H torsion
[ 7974 7965 7964 7962 ] final  -43.56 input  175.53 | X-H torsion
[ 8008 7997 7996 7995 ] final -139.94 input   59.86 | X-H torsion
[ 10167 10162 10161 10158 ] final  -53.34 input  -65.29 | X-H torsion
[ 10718 10713 10712 10709 ] final  -90.68 input   66.30 | X-H torsion
[ 10763 10752 10751 10750 ] final  -83.07 input  -60.55 | X-H torsion
[ 11005 11000 10999 10996 ] final  -93.96 input  -57.11 | X-H torsion

> <Gold.Protein.ActiveResidues>
 VAL166  LYS551  ARG553  GLY616  TRP617  ASP618  TYR619  PRO620  LYS621  CYS622 
 ASP623  PHE694  ASN695  SER759  ASP760  ASP761  ALA762  ILE779  LEU786  VAL792 
 PHE793  MET794  SER795  GLU796  ALA797  LYS798  CYS799  TRP800  GLU811  SER814 

> <Gold.Protein.RotatedAtoms>
  151.5130  133.3481  159.2888 H   0  0  0  0  0  0  0  0  0  0  0  0  # atno 6907 bound_to 6896
  150.8700  134.8074  159.7158 H   0  0  0  0  0  0  0  0  0  0  0  0  # atno 6908 bound_to 6896
  152.4691  134.5013  159.9777 H   0  0  0  0  0  0  0  0  0  0  0  0  # atno 6909 bound_to 6896
  146.0006  140.7078  142.9272 H   0  0  0  0  0  0  0  0  0  0  0  0  # atno 7974 bound_to 7965
  155.4531  140.0540  157.2999 H   0  0  0  0  0  0  0  0  0  0  0  0  # atno 8008 bound_to 7997
  154.4769  140.2064  155.9813 H   0  0  0  0  0  0  0  0  0  0  0  0  # atno 8009 bound_to 7997
  156.1145  140.3198  155.8124 H   0  0  0  0  0  0  0  0  0  0  0  0  # atno 8010 bound_to 7997
  140.6490  143.2553  151.4778 H   0  0  0  0  0  0  0  0  0  0  0  0  # atno 10167 bound_to 10162
  155.9989  130.4919  150.5360 H   0  0  0  0  0  0  0  0  0  0  0  0  # atno 10718 bound_to 10713
  154.5834  135.5569  153.7207 H   0  0  0  0  0  0  0  0  0  0  0  0  # atno 10763 bound_to 10752
  153.0090  135.6325  154.1951 H   0  0  0  0  0  0  0  0  0  0  0  0  # atno 10764 bound_to 10752
  154.1892  135.2883  155.3007 H   0  0  0  0  0  0  0  0  0  0  0  0  # atno 10765 bound_to 10752
  141.1483  133.7923  157.0232 H   0  0  0  0  0  0  0  0  0  0  0  0  # atno 11005 bound_to 11000
  144.6918  140.3227  143.7229 LP  0  0  0  0  0  0  0  0  0  0  0  0  # atno 17320 bound_to 7965
  145.7493  139.1788  143.2331 LP  0  0  0  0  0  0  0  0  0  0  0  0  # atno 17321 bound_to 7965
  139.5703  144.1944  152.1826 LP  0  0  0  0  0  0  0  0  0  0  0  0  # atno 17342 bound_to 10162
  140.1239  144.5349  150.6845 LP  0  0  0  0  0  0  0  0  0  0  0  0  # atno 17343 bound_to 10162
  157.3303  131.0698  151.1866 LP  0  0  0  0  0  0  0  0  0  0  0  0  # atno 17370 bound_to 10713
  157.2749  130.6722  149.6037 LP  0  0  0  0  0  0  0  0  0  0  0  0  # atno 17371 bound_to 10713
  140.0802  134.9652  157.1612 LP  0  0  0  0  0  0  0  0  0  0  0  0  # atno 17394 bound_to 11000
  140.3587  134.2518  155.7189 LP  0  0  0  0  0  0  0  0  0  0  0  0  # atno 17395 bound_to 11000

$$$$
