#       Name:                AV-unprocessed.smi:1944
#       Creating user name   scv26
#       Creation time:       Fri Mar 27 10:00:08 2020


#       File generated by GOLD software.
#

@<TRIPOS>MOLECULE
AV-unprocessed.smi:1944
    51    52     1
SMALL
NO_CHARGES


@<TRIPOS>ATOM
      1 ****        -6.5112  -1.4831  -0.3129 C.3            1 S1                 0.0000
      2 ****        -5.2490  -1.0133   0.1484 O.3            1 S1                 0.0000
      3 ****        -5.1464   0.3007   0.5640 C.ar           1 S1                 0.0000
      4 ****        -6.2577   1.0780   0.5259 N.ar           1 S1                 0.0000
      5 ****        -6.1604   2.3599   0.9341 C.ar           1 S1                 0.0000
      6 ****        -4.9634   2.9297   1.4049 C.ar           1 S1                 0.0000
      7 ****        -3.8093   2.1259   1.4451 C.ar           1 S1                 0.0000
      8 ****        -3.8916   0.7826   1.0049 C.ar           1 S1                 0.0000
      9 ****        -2.7906  -0.1172   1.0257 N.am           1 S1                 0.0000
     10 ****        -1.4795   0.1710   0.9668 C.2            1 S1                 0.0000
     11 ****        -1.0031   1.2992   0.8409 O.2            1 S1                 0.0000
     12 ****        -0.7315  -0.9392   1.0397 N.am           1 S1                 0.0000
     13 ****         0.7265  -0.9611   1.0129 C.3            1 S1                 0.0000
     14 ****         1.2661  -0.8138  -0.4236 C.3            1 S1                 0.0000
     15 ****         2.7499  -0.8913  -0.5061 N.4            1 S1                 1.0000
     16 ****         3.2204  -1.1144  -1.9001 C.3            1 S1                 0.0000
     17 ****         4.7275  -1.4123  -1.9431 C.3            1 S1                 0.0000
     18 ****         5.5296  -0.2932  -1.2708 C.3            1 S1                 0.0000
     19 ****         5.0140  -0.0702   0.1574 C.3            1 S1                 0.0000
     20 ****         3.4951   0.2039   0.1934 C.3            1 S1                 0.0000
     21 ****         3.1463   1.6185  -0.3182 C.3            1 S1                 0.0000
     22 ****        -6.4202  -2.5281  -0.6083 H              1 S1                 0.0000
     23 ****        -6.8520  -0.9224  -1.1845 H              1 S1                 0.0000
     24 ****        -7.2695  -1.4257   0.4693 H              1 S1                 0.0000
     25 ****        -7.0657   2.9471   0.8908 H              1 S1                 0.0000
     26 ****        -4.9324   3.9583   1.7327 H              1 S1                 0.0000
     27 ****        -2.8920   2.5478   1.8255 H              1 S1                 0.0000
     28 ****        -3.0353  -1.0968   1.0275 H              1 S1                 0.0000
     29 ****        -1.2025  -1.8273   1.1348 H              1 S1                 0.0000
     30 ****         1.0979  -0.1709   1.6657 H              1 S1                 0.0000
     31 ****         1.0617  -1.9055   1.4426 H              1 S1                 0.0000
     32 ****         0.8450  -1.6241  -1.0206 H              1 S1                 0.0000
     33 ****         0.9106   0.1071  -0.8860 H              1 S1                 0.0000
     34 ****         2.6859  -1.9590  -2.3365 H              1 S1                 0.0000
     35 ****         2.9847  -0.2478  -2.5187 H              1 S1                 0.0000
     36 ****         4.9279  -2.3590  -1.4394 H              1 S1                 0.0000
     37 ****         5.0540  -1.5362  -2.9761 H              1 S1                 0.0000
     38 ****         6.5892  -0.5499  -1.2515 H              1 S1                 0.0000
     39 ****         5.4448   0.6265  -1.8504 H              1 S1                 0.0000
     40 ****         5.2315  -0.9573   0.7541 H              1 S1                 0.0000
     41 ****         5.5588   0.7489   0.6281 H              1 S1                 0.0000
     42 ****         3.2199   0.1745   1.2466 H              1 S1                 0.0000
     43 ****         3.7382   2.3711   0.2031 H              1 S1                 0.0000
     44 ****         2.1006   1.8682  -0.1398 H              1 S1                 0.0000
     45 ****         3.3414   1.7362  -1.3837 H              1 S1                 0.0000
     46 ****         2.9973  -1.7370  -0.0124 H              1 S1                 0.0000
     47 ****        -4.5964  -1.1384  -0.5989 LP             1 S1                 0.0000
     48 ****        -4.9844  -1.5891   0.9219 LP             1 S1                 0.0000
     49 ****        -7.1291   0.7090   0.2025 LP             1 S1                 0.0000
     50 ****        -1.6080   2.0927   0.7734 LP             1 S1                 0.0000
     51 ****        -0.0113   1.4221   0.8060 LP             1 S1                 0.0000
@<TRIPOS>BOND
    1    1    2 1     
    2    1   22 1     
    3    1   23 1     
    4    1   24 1     
    5    2    3 1     
    6    3    8 ar    
    7    3    4 ar    
    8    4    5 ar    
    9    5    6 ar    
   10    5   25 1     
   11    6    7 ar    
   12    6   26 1     
   13    7    8 ar    
   14    7   27 1     
   15    8    9 1     
   16    9   10 am    
   17    9   28 1     
   18   10   11 2     
   19   10   12 am    
   20   12   13 1     
   21   12   29 1     
   22   13   14 1     
   23   13   30 1     
   24   13   31 1     
   25   14   15 1     
   26   14   32 1     
   27   14   33 1     
   28   15   20 1     
   29   15   16 1     
   30   15   46 1     
   31   16   17 1     
   32   16   34 1     
   33   16   35 1     
   34   17   18 1     
   35   17   36 1     
   36   17   37 1     
   37   18   19 1     
   38   18   38 1     
   39   18   39 1     
   40   19   20 1     
   41   19   40 1     
   42   19   41 1     
   43   20   21 1     
   44   20   42 1     
   45   21   43 1     
   46   21   44 1     
   47   21   45 1     
   48    2   47 1     
   49    2   48 1     
   50    4   49 1     
   51   11   50 1     
   52   11   51 1     
@<TRIPOS>SUBSTRUCTURE
      1 S1             1
@<TRIPOS>SET
LONE_PAIRS      STATIC     ATOMS    <user>   **** ""
5 47 48 49 50 51
DONOR_HYDROGENS      STATIC     ATOMS    <user>   **** ""
3 28 29 46
ATOM$BLUE        STATIC     ATOMS    COLORGROUP SYSTEM
5 47 48 49 50 51
ATOM$RED        STATIC     ATOMS    COLORGROUP SYSTEM
3 28 29 46
