AV-unprocessed.smi:2908|AV-procd|sdf|11168|dock1
  -GOLD-   2272016 53D 1   1.00000     0.00000
 Structure written by MMmdl.
 43 44  0  0  0  0  0  0  0  0  1 V2000
  146.9429  139.8613  156.7379 O   0  0  0  0  0  0  0  0  0  0  0  0
  148.0159  139.3863  157.1124 C   0  0  0  0  0  0  0  0  0  0  0  0
  149.0852  140.1542  157.3730 N   0  0  0  0  0  0  0  0  0  0  0  0
  149.0941  141.6118  157.4084 C   0  0  0  0  0  0  0  0  0  0  0  0
  150.5239  142.1694  157.2806 C   0  0  0  0  0  0  0  0  0  0  0  0
  150.8243  143.2954  158.2579 C   0  0  0  0  0  0  0  0  0  0  0  0
  151.9650  144.1077  158.0868 C   0  0  0  0  0  0  0  0  0  0  0  0
  152.1809  145.1621  158.9951 C   0  0  0  0  0  0  0  0  0  0  0  0
  151.2528  145.3627  160.0351 C   0  0  0  0  0  0  0  0  0  0  0  0
  150.1464  144.4950  160.1220 C   0  0  0  0  0  0  0  0  0  0  0  0
  149.9280  143.4839  159.2540 N   0  0  0  0  0  0  0  0  0  0  0  0
  148.2177  138.0578  157.3032 N   0  0  0  0  0  0  0  0  0  0  0  0
  149.4808  137.4233  157.7123 C   0  0  0  0  0  0  0  0  0  0  0  0
  149.4062  137.1317  159.2208 C   0  0  0  0  0  0  0  0  0  0  0  0
  148.1882  136.2393  159.5671 C   0  0  0  0  0  0  0  0  0  0  0  0
  148.0850  135.9965  161.0958 C   0  0  1  0  0  0  0  0  0  0  0  0
  147.6011  137.1581  161.7443 O   0  0  0  0  0  0  0  0  0  0  0  0
  147.2335  134.7796  161.5206 C   0  0  0  0  0  0  0  0  0  0  0  0
  147.3223  134.6129  162.8404 F   0  0  0  0  0  0  0  0  0  0  0  0
  145.9509  134.9228  161.1874 F   0  0  0  0  0  0  0  0  0  0  0  0
  147.7057  133.6772  160.9385 F   0  0  0  0  0  0  0  0  0  0  0  0
  146.8918  136.7857  158.9132 C   0  0  0  0  0  0  0  0  0  0  0  0
  147.1013  137.1149  157.4226 C   0  0  0  0  0  0  0  0  0  0  0  0
  149.9346  139.6906  157.6616 H   0  0  0  0  0  0  0  0  0  0  0  0
  148.4617  141.9997  156.6095 H   0  0  0  0  0  0  0  0  0  0  0  0
  148.6652  141.9582  158.3503 H   0  0  0  0  0  0  0  0  0  0  0  0
  151.2434  141.3645  157.4393 H   0  0  0  0  0  0  0  0  0  0  0  0
  150.6908  142.5252  156.2633 H   0  0  0  0  0  0  0  0  0  0  0  0
  152.6540  143.9331  157.2734 H   0  0  0  0  0  0  0  0  0  0  0  0
  153.0410  145.8072  158.8944 H   0  0  0  0  0  0  0  0  0  0  0  0
  151.3853  146.1615  160.7494 H   0  0  0  0  0  0  0  0  0  0  0  0
  149.4136  144.6196  160.9052 H   0  0  0  0  0  0  0  0  0  0  0  0
  149.6152  136.4925  157.1593 H   0  0  0  0  0  0  0  0  0  0  0  0
  150.3667  138.0177  157.4882 H   0  0  0  0  0  0  0  0  0  0  0  0
  150.3287  136.6509  159.5477 H   0  0  0  0  0  0  0  0  0  0  0  0
  149.3437  138.0772  159.7612 H   0  0  0  0  0  0  0  0  0  0  0  0
  148.3848  135.2718  159.1033 H   0  0  0  0  0  0  0  0  0  0  0  0
  149.0953  135.8268  161.4709 H   0  0  0  0  0  0  0  0  0  0  0  0
  147.1610  136.8967  162.5384 H   0  0  0  0  0  0  0  0  0  0  0  0
  146.0850  136.0589  158.9983 H   0  0  0  0  0  0  0  0  0  0  0  0
  146.5573  137.6842  159.4334 H   0  0  0  0  0  0  0  0  0  0  0  0
  146.1780  137.5024  156.9896 H   0  0  0  0  0  0  0  0  0  0  0  0
  147.3283  136.2053  156.8647 H   0  0  0  0  0  0  0  0  0  0  0  0
  1  2  2  0  0  0  0
  2  3  1  0  0  0  0
  2 12  1  0  0  0  0
  3  4  1  0  0  0  0
  3 24  1  0  0  0  0
  4  5  1  0  0  0  0
  4 25  1  0  0  0  0
  4 26  1  0  0  0  0
  5  6  1  0  0  0  0
  5 27  1  0  0  0  0
  5 28  1  0  0  0  0
  6 11  1  0  0  0  0
  6  7  2  0  0  0  0
  7  8  1  0  0  0  0
  7 29  1  0  0  0  0
  8  9  2  0  0  0  0
  8 30  1  0  0  0  0
  9 10  1  0  0  0  0
  9 31  1  0  0  0  0
 10 11  2  0  0  0  0
 10 32  1  0  0  0  0
 12 23  1  0  0  0  0
 12 13  1  0  0  0  0
 13 14  1  0  0  0  0
 13 33  1  0  0  0  0
 13 34  1  0  0  0  0
 14 15  1  0  0  0  0
 14 35  1  0  0  0  0
 14 36  1  0  0  0  0
 15 16  1  0  0  0  0
 15 22  1  0  0  0  0
 15 37  1  0  0  0  0
 16 17  1  0  0  0  0
 16 18  1  0  0  0  0
 16 38  1  0  0  0  0
 17 39  1  0  0  0  0
 18 19  1  0  0  0  0
 18 20  1  0  0  0  0
 18 21  1  0  0  0  0
 22 23  1  0  0  0  0
 22 40  1  0  0  0  0
 22 41  1  0  0  0  0
 23 42  1  0  0  0  0
 23 43  1  0  0  0  0
M  END
> <s_m_source_file>
AV-unprocessed.smi

> <i_m_source_file_index>
2908

> <i_lp_mmshare_version>
43012

> <i_f3d_flags>
0

> <s_epik_input>
RkMoRikoRilbQ0BASF0oW09IXSlbQ0hdKFtDSDJdW0NIMl0xKVtDSDJdW0NIMl1OMUMoPU8pW05IXVtDSDJdW0NIMl1jMltjSF1bY0hdW2NIXVtjSF1uMg==

> <s_epik_cmdline>
J2VwaWtfcHl0aG9uJywgJy1waCcsICc3LjAnLCAnLXRuJywgJzgnLCAnLW1hJywgJzIwMCcsICctbWV0YWxfYmluZGluZycsICctaW1hZScsICc8aW5maWxlLm1hZT4nLCAnLW9tYWUnLCAnPG91dGZpbGUubWFlPic=

> <r_epik_Ionization_Penalty>
0.0451198

> <r_epik_Ionization_Penalty_Charging>
0

> <r_epik_Ionization_Penalty_Neutral>
0.0451198

> <r_epik_State_Penalty>
0.0381178

> <r_epik_Charging_Adjusted_Penalty>
0.0381178

> <i_epik_Tot_Q>
0

> <i_epik_Tot_abs_Q>
0

> <r_epik_Metal_State_Penalty>
0.0354176

> <b_epik_Metal_Only>
0

> <s_lp_Force_Field>
OPLS_2005

> <r_lp_Energy>
37.4058

> <b_lp_Chiralities_Consistent>
1

> <s_lp_Variant>
AV-unprocessed.smi:2908-2

> <Gold.Version>
5.8.1

> <Gold.Id.Protein>
6NUR|6NUR_protein|mol2

> <Gold.PLP.Fitness>
46.2951

> <Gold.PLP.PLP>
-42.4764

> <Gold.PLP.part.hbond>
-2.1173

> <Gold.PLP.part.metal>
0.0000

> <Gold.PLP.part.buried>
-6.2930

> <Gold.PLP.part.nonpolar>
-33.9701

> <Gold.PLP.part.repulsive>
0.2099

> <Gold.PLP.ligand.clash>
0.0000

> <Gold.PLP.ligand.torsion>
0.8668

> <Gold.PLP.Chemscore.Hbond>
1.7280

> <Gold.PLP.Chemscore.CHOScore>
0.0000

> <Gold.PLP.Chemscore.Metal>
0.0000

> <Gold.Chemscore.Hbonds>
donor molecule, donor type, donor heavy atom, donor atom, acceptor molecule, acceptor atom, score
      P1  H  6931  6943       L1    17  1.00
      P1  H  6934  6947       L1    17  0.67

> <Gold.PLP.Chemscore.Internal.Correction>
0.3683

> <Gold.Rescore>
     Score         DG    S(hbond)    S(metal)    S(lipo)     H(rot)  DE(clash)    DE(int)     intcor
     14.09     -15.02       1.32        0.00      94.30       2.30       0.01       0.92       ----

> <Gold.Chemscore.Fitness>
14.0854

> <Gold.Chemscore.DG>
-15.0209

> <Gold.Chemscore.ZeroCoef>
-5.4800

> <Gold.Chemscore.Hbond>
1.3200

> <Gold.Chemscore.Metal>
0.0000

> <Gold.Chemscore.Lipo>
94.2962

> <Gold.Chemscore.Internal_Hbond>
0.0000

> <Gold.Chemscore.DEClash>
0.0111

> <Gold.Chemscore.DEInternal>
0.9244

> <Gold.Chemscore.Rot>
2.3048

> <Gold.Chemscore.Internal.Correction>
   9.000000E+99

> <Gold.Chemscore.Hbonds>
donor molecule, donor type, donor heavy atom, donor atom, acceptor molecule, acceptor atom, score
      P1  H  6931  6943       L1    17  0.49
      P1  H  6934  6947       L1    17  0.62

> <Gold.Chemscore.Hbond.Weighted>
-4.4087

> <Gold.Chemscore.Metal.Weighted>
-0.0000

> <Gold.Chemscore.Lipo.Weighted>
-11.0327

> <Gold.Chemscore.Internal_Hbond.Weighted>
0.0000

> <Gold.Chemscore.DEClash.Weighted>
0.0111

> <Gold.Chemscore.DEInternal.Weighted>
0.9244

> <Gold.Chemscore.Rot.Weighted>
5.9004

> <Gold.Chemscore.Internal.Correction.Weighted>
   9.000000E+99

> <Gold.Protein.RotatedTorsions>
[ 6907 6896 6895 6894 ] final -149.58 input  -60.11 | X-H torsion
[ 7974 7965 7964 7962 ] final  150.40 input  175.53 | X-H torsion
[ 8008 7997 7996 7995 ] final  130.61 input   59.86 | X-H torsion
[ 10167 10162 10161 10158 ] final  146.98 input  -65.29 | X-H torsion
[ 10718 10713 10712 10709 ] final -169.51 input   66.30 | X-H torsion
[ 10763 10752 10751 10750 ] final -111.80 input  -60.55 | X-H torsion
[ 11005 11000 10999 10996 ] final   51.99 input  -57.11 | X-H torsion

> <Gold.Protein.ActiveResidues>
 VAL166  LYS551  ARG553  GLY616  TRP617  ASP618  TYR619  PRO620  LYS621  CYS622 
 ASP623  PHE694  ASN695  SER759  ASP760  ASP761  ALA762  ILE779  LEU786  VAL792 
 PHE793  MET794  SER795  GLU796  ALA797  LYS798  CYS799  TRP800  GLU811  SER814 

> <Gold.Protein.RotatedAtoms>
  151.1862  133.4695  159.2594 H   0  0  0  0  0  0  0  0  0  0  0  0  # atno 6907 bound_to 6896
  151.1210  135.0079  159.8548 H   0  0  0  0  0  0  0  0  0  0  0  0  # atno 6908 bound_to 6896
  152.5456  134.1773  159.8674 H   0  0  0  0  0  0  0  0  0  0  0  0  # atno 6909 bound_to 6896
  144.8367  139.6403  143.6035 H   0  0  0  0  0  0  0  0  0  0  0  0  # atno 7974 bound_to 7965
  156.2957  140.2592  156.2789 H   0  0  0  0  0  0  0  0  0  0  0  0  # atno 8008 bound_to 7997
  154.9621  140.0392  157.2213 H   0  0  0  0  0  0  0  0  0  0  0  0  # atno 8009 bound_to 7997
  154.7937  140.2816  155.5977 H   0  0  0  0  0  0  0  0  0  0  0  0  # atno 8010 bound_to 7997
  139.4897  144.5789  151.6911 H   0  0  0  0  0  0  0  0  0  0  0  0  # atno 10167 bound_to 10162
  156.7126  130.9239  151.3090 H   0  0  0  0  0  0  0  0  0  0  0  0  # atno 10718 bound_to 10713
  154.8318  135.4514  154.1095 H   0  0  0  0  0  0  0  0  0  0  0  0  # atno 10763 bound_to 10752
  153.2362  135.6911  153.7841 H   0  0  0  0  0  0  0  0  0  0  0  0  # atno 10764 bound_to 10752
  153.7205  135.3342  155.3242 H   0  0  0  0  0  0  0  0  0  0  0  0  # atno 10765 bound_to 10752
  140.0886  134.5240  155.8874 H   0  0  0  0  0  0  0  0  0  0  0  0  # atno 11005 bound_to 11000
  146.2665  139.6532  142.9326 LP  0  0  0  0  0  0  0  0  0  0  0  0  # atno 17320 bound_to 7965
  145.4780  141.0437  143.2662 LP  0  0  0  0  0  0  0  0  0  0  0  0  # atno 17321 bound_to 7965
  140.5391  144.0608  150.6081 LP  0  0  0  0  0  0  0  0  0  0  0  0  # atno 17342 bound_to 10162
  140.3624  143.2900  152.0369 LP  0  0  0  0  0  0  0  0  0  0  0  0  # atno 17343 bound_to 10162
  157.6930  130.9253  150.0566 LP  0  0  0  0  0  0  0  0  0  0  0  0  # atno 17370 bound_to 10713
  156.1650  130.3645  149.9245 LP  0  0  0  0  0  0  0  0  0  0  0  0  # atno 17371 bound_to 10713
  141.2071  133.6661  156.6282 LP  0  0  0  0  0  0  0  0  0  0  0  0  # atno 17394 bound_to 11000
  140.3384  134.7870  157.4379 LP  0  0  0  0  0  0  0  0  0  0  0  0  # atno 17395 bound_to 11000

$$$$
