AV-unprocessed.smi:2324|AV-procd|sdf|9292|dock3
  -GOLD-   2272012513D 1   1.00000     0.00000
 Structure written by MMmdl.
 37 39  0  0  0  0  0  0  0  0  1 V2000
  151.4336  141.4779  156.9828 O   0  0  0  0  0  0  0  0  0  0  0  0
  150.7139  142.4114  156.6314 C   0  0  0  0  0  0  0  0  0  0  0  0
  149.7995  142.2516  155.6508 N   0  0  0  0  0  0  0  0  0  0  0  0
  149.4501  141.1189  154.8589 C   0  0  0  0  0  0  0  0  0  0  0  0
  148.1600  141.1735  154.2888 C   0  0  0  0  0  0  0  0  0  0  0  0
  147.7334  140.0979  153.4913 C   0  0  0  0  0  0  0  0  0  0  0  0
  148.6322  139.0326  153.3139 C   0  0  0  0  0  0  0  0  0  0  0  0
  149.8599  139.0202  153.8763 N   0  0  0  0  0  0  0  0  0  0  0  0
  150.2571  140.0478  154.6344 N   0  0  0  0  0  0  0  0  0  0  0  0
  150.7901  143.6335  157.1838 N   0  0  0  0  0  0  0  0  0  0  0  0
  151.7093  144.0307  158.2455 C   0  0  1  0  0  0  0  0  0  0  0  0
  151.2455  145.3373  158.9111 C   0  0  0  0  0  0  0  0  0  0  0  0
  152.1176  145.6618  160.1339 C   0  0  0  0  0  0  0  0  0  0  0  0
  152.0986  144.5714  161.0491 O   0  0  0  0  0  0  0  0  0  0  0  0
  152.6432  143.3731  160.5046 C   0  0  1  0  0  0  0  0  0  0  0  0
  152.6725  142.3289  161.6030 C   0  0  0  0  0  0  0  0  0  0  0  0
  153.3965  142.5942  162.9023 C   0  0  0  0  0  0  0  0  0  0  0  0
  153.9460  141.5824  161.9257 C   0  0  0  0  0  0  0  0  0  0  0  0
  151.7901  142.9214  159.3046 C   0  0  0  0  0  0  0  0  0  0  0  0
  149.2662  143.0831  155.4426 H   0  0  0  0  0  0  0  0  0  0  0  0
  147.5084  142.0187  154.4578 H   0  0  0  0  0  0  0  0  0  0  0  0
  146.7557  140.0900  153.0330 H   0  0  0  0  0  0  0  0  0  0  0  0
  148.3645  138.1774  152.7114 H   0  0  0  0  0  0  0  0  0  0  0  0
  150.1617  144.3450  156.8374 H   0  0  0  0  0  0  0  0  0  0  0  0
  152.7062  144.1769  157.8250 H   0  0  0  0  0  0  0  0  0  0  0  0
  151.2819  146.1629  158.1996 H   0  0  0  0  0  0  0  0  0  0  0  0
  150.2059  145.2434  159.2283 H   0  0  0  0  0  0  0  0  0  0  0  0
  153.1432  145.8806  159.8330 H   0  0  0  0  0  0  0  0  0  0  0  0
  151.7385  146.5504  160.6386 H   0  0  0  0  0  0  0  0  0  0  0  0
  153.6676  143.5614  160.1780 H   0  0  0  0  0  0  0  0  0  0  0  0
  151.7528  141.7520  161.6830 H   0  0  0  0  0  0  0  0  0  0  0  0
  153.9303  143.5372  163.0021 H   0  0  0  0  0  0  0  0  0  0  0  0
  152.9419  142.2170  163.8162 H   0  0  0  0  0  0  0  0  0  0  0  0
  153.8577  140.5300  162.1875 H   0  0  0  0  0  0  0  0  0  0  0  0
  154.8457  141.8526  161.3764 H   0  0  0  0  0  0  0  0  0  0  0  0
  150.7866  142.6654  159.6486 H   0  0  0  0  0  0  0  0  0  0  0  0
  152.2098  142.0151  158.8662 H   0  0  0  0  0  0  0  0  0  0  0  0
  1  2  2  0  0  0  0
  2  3  1  0  0  0  0
  2 10  1  0  0  0  0
  3  4  1  0  0  0  0
  3 20  1  0  0  0  0
  4  9  1  0  0  0  0
  4  5  2  0  0  0  0
  5  6  1  0  0  0  0
  5 21  1  0  0  0  0
  6  7  2  0  0  0  0
  6 22  1  0  0  0  0
  7  8  1  0  0  0  0
  7 23  1  0  0  0  0
  8  9  2  0  0  0  0
 10 11  1  0  0  0  0
 10 24  1  0  0  0  0
 11 19  1  0  0  0  0
 11 12  1  0  0  0  0
 11 25  1  0  0  0  0
 12 13  1  0  0  0  0
 12 26  1  0  0  0  0
 12 27  1  0  0  0  0
 13 14  1  0  0  0  0
 13 28  1  0  0  0  0
 13 29  1  0  0  0  0
 14 15  1  0  0  0  0
 15 16  1  0  0  0  0
 15 19  1  0  0  0  0
 15 30  1  0  0  0  0
 16 18  1  0  0  0  0
 16 17  1  0  0  0  0
 16 31  1  0  0  0  0
 17 18  1  0  0  0  0
 17 32  1  0  0  0  0
 17 33  1  0  0  0  0
 18 34  1  0  0  0  0
 18 35  1  0  0  0  0
 19 36  1  0  0  0  0
 19 37  1  0  0  0  0
M  END
> <s_m_source_file>
AV-unprocessed.smi

> <i_m_source_file_index>
2324

> <i_lp_mmshare_version>
43012

> <i_f3d_flags>
0

> <s_epik_input>
bjFuW2NIXVtjSF1bY0hdYzFbTkhdQyg9TylbTkhdW0NAQEhdMltDSDJdW0NIMl1PW0NASF0oW0NIMl0yKVtDSF0zW0NIMl1bQ0gyXTM=

> <s_epik_cmdline>
J2VwaWtfcHl0aG9uJywgJy1waCcsICc3LjAnLCAnLXRuJywgJzgnLCAnLW1hJywgJzIwMCcsICctbWV0YWxfYmluZGluZycsICctaW1hZScsICc8aW5maWxlLm1hZT4nLCAnLW9tYWUnLCAnPG91dGZpbGUubWFlPic=

> <r_lp_tautomer_probability>
1

> <r_epik_Ionization_Penalty>
0.00521499

> <r_epik_Ionization_Penalty_Charging>
0

> <r_epik_Ionization_Penalty_Neutral>
0.00521499

> <r_epik_State_Penalty>
-0

> <r_epik_Charging_Adjusted_Penalty>
0

> <i_epik_Tot_Q>
0

> <i_epik_Tot_abs_Q>
0

> <r_epik_Metal_State_Penalty>
-0

> <b_epik_Metal_Only>
0

> <s_lp_Force_Field>
OPLS_2005

> <r_lp_Energy>
26.0147

> <b_lp_Chiralities_Consistent>
1

> <s_lp_Variant>
AV-unprocessed.smi:2324-2

> <Gold.Version>
5.8.1

> <Gold.Id.Protein>
6NUR|6NUR_protein|mol2

> <Gold.PLP.Fitness>
51.8256

> <Gold.PLP.PLP>
-41.1023

> <Gold.PLP.part.hbond>
-3.0000

> <Gold.PLP.part.metal>
0.0000

> <Gold.PLP.part.buried>
0.9121

> <Gold.PLP.part.nonpolar>
-39.3658

> <Gold.PLP.part.repulsive>
2.0641

> <Gold.PLP.ligand.clash>
0.0000

> <Gold.PLP.ligand.torsion>
1.0660

> <Gold.PLP.Chemscore.Hbond>
2.9280

> <Gold.PLP.Chemscore.CHOScore>
1.0000

> <Gold.PLP.Chemscore.Metal>
0.0000

> <Gold.Chemscore.Hbonds>
donor molecule, donor type, donor heavy atom, donor atom, acceptor molecule, acceptor atom, score
      L1  H     3    20       P1  8028  1.00
      L1  H    10    24       P1  8028  0.94
      P1  H  7989  7998       L1     9  1.00
      L1  C     7    23       P1  7948  1.00

> <Gold.PLP.Chemscore.Internal.Correction>
1.0712

> <Gold.Rescore>
     Score         DG    S(hbond)    S(metal)    S(lipo)     H(rot)  DE(clash)    DE(int)     intcor
     17.63     -21.49       1.88        0.00     110.43       1.25       0.10       3.77       ----

> <Gold.Chemscore.Fitness>
17.6299

> <Gold.Chemscore.DG>
-21.4928

> <Gold.Chemscore.ZeroCoef>
-5.4800

> <Gold.Chemscore.Hbond>
1.8820

> <Gold.Chemscore.Metal>
0.0000

> <Gold.Chemscore.Lipo>
110.4323

> <Gold.Chemscore.Internal_Hbond>
0.0000

> <Gold.Chemscore.DEClash>
0.0959

> <Gold.Chemscore.DEInternal>
3.7670

> <Gold.Chemscore.Rot>
1.2476

> <Gold.Chemscore.Internal.Correction>
   9.000000E+99

> <Gold.Chemscore.Hbonds>
donor molecule, donor type, donor heavy atom, donor atom, acceptor molecule, acceptor atom, score
      L1  H     3    20       P1  8028  0.97
      L1  H    10    24       P1  8028  0.82
      P1  H  7989  7998       L1     9  0.08

> <Gold.Chemscore.Hbond.Weighted>
-6.2860

> <Gold.Chemscore.Metal.Weighted>
-0.0000

> <Gold.Chemscore.Lipo.Weighted>
-12.9206

> <Gold.Chemscore.Internal_Hbond.Weighted>
0.0000

> <Gold.Chemscore.DEClash.Weighted>
0.0959

> <Gold.Chemscore.DEInternal.Weighted>
3.7670

> <Gold.Chemscore.Rot.Weighted>
3.1938

> <Gold.Chemscore.Internal.Correction.Weighted>
   9.000000E+99

> <Gold.Protein.RotatedTorsions>
[ 6907 6896 6895 6894 ] final  145.46 input  -60.11 | X-H torsion
[ 7974 7965 7964 7962 ] final -131.41 input  175.53 | X-H torsion
[ 8008 7997 7996 7995 ] final    2.01 input   59.86 | X-H torsion
[ 10167 10162 10161 10158 ] final   71.89 input  -65.29 | X-H torsion
[ 10718 10713 10712 10709 ] final  -77.52 input   66.30 | X-H torsion
[ 10763 10752 10751 10750 ] final    2.58 input  -60.55 | X-H torsion
[ 11005 11000 10999 10996 ] final  -11.57 input  -57.11 | X-H torsion

> <Gold.Protein.ActiveResidues>
 VAL166  LYS551  ARG553  GLY616  TRP617  ASP618  TYR619  PRO620  LYS621  CYS622 
 ASP623  PHE694  ASN695  SER759  ASP760  ASP761  ALA762  ILE779  LEU786  VAL792 
 PHE793  MET794  SER795  GLU796  ALA797  LYS798  CYS799  TRP800  GLU811  SER814 

> <Gold.Protein.RotatedAtoms>
  152.1806  133.4705  159.4955 H   0  0  0  0  0  0  0  0  0  0  0  0  # atno 6907 bound_to 6896
  150.6934  134.1838  159.4268 H   0  0  0  0  0  0  0  0  0  0  0  0  # atno 6908 bound_to 6896
  151.9749  135.0058  160.0605 H   0  0  0  0  0  0  0  0  0  0  0  0  # atno 6909 bound_to 6896
  144.9382  140.7208  143.4863 H   0  0  0  0  0  0  0  0  0  0  0  0  # atno 7974 bound_to 7965
  154.6865  140.2644  155.6855 H   0  0  0  0  0  0  0  0  0  0  0  0  # atno 8008 bound_to 7997
  156.2716  140.2800  156.1351 H   0  0  0  0  0  0  0  0  0  0  0  0  # atno 8009 bound_to 7997
  155.0957  140.0374  157.2672 H   0  0  0  0  0  0  0  0  0  0  0  0  # atno 8010 bound_to 7997
  140.0413  144.5387  150.7432 H   0  0  0  0  0  0  0  0  0  0  0  0  # atno 10167 bound_to 10162
  156.0143  130.4493  150.3357 H   0  0  0  0  0  0  0  0  0  0  0  0  # atno 10718 bound_to 10713
  153.2938  135.6950  153.7267 H   0  0  0  0  0  0  0  0  0  0  0  0  # atno 10763 bound_to 10752
  153.6208  135.3427  155.3011 H   0  0  0  0  0  0  0  0  0  0  0  0  # atno 10764 bound_to 10752
  154.8532  135.4385  154.2029 H   0  0  0  0  0  0  0  0  0  0  0  0  # atno 10765 bound_to 10752
  140.7567  133.8548  155.9090 H   0  0  0  0  0  0  0  0  0  0  0  0  # atno 11005 bound_to 11000
  145.3033  139.1843  143.4678 LP  0  0  0  0  0  0  0  0  0  0  0  0  # atno 17320 bound_to 7965
  146.3275  140.3027  142.8622 LP  0  0  0  0  0  0  0  0  0  0  0  0  # atno 17321 bound_to 7965
  140.7259  143.2636  151.4122 LP  0  0  0  0  0  0  0  0  0  0  0  0  # atno 17342 bound_to 10162
  139.6012  144.1291  152.2200 LP  0  0  0  0  0  0  0  0  0  0  0  0  # atno 17343 bound_to 10162
  157.1454  131.0307  151.2909 LP  0  0  0  0  0  0  0  0  0  0  0  0  # atno 17370 bound_to 10713
  157.4437  130.7558  149.7091 LP  0  0  0  0  0  0  0  0  0  0  0  0  # atno 17371 bound_to 10713
  140.9701  134.1542  157.4583 LP  0  0  0  0  0  0  0  0  0  0  0  0  # atno 17394 bound_to 11000
  139.8778  134.9975  156.5852 LP  0  0  0  0  0  0  0  0  0  0  0  0  # atno 17395 bound_to 11000

$$$$
