AV-unprocessed.smi:1244|AV-procd|sdf|5227|dock6
  -GOLD-   22720 4323D 1   1.00000     0.00000
 Structure written by MMmdl.
 55 57  0  0  0  0  0  0  0  0  2 V2000
  144.4943  132.8565  150.6457 C   0  0  0  0  0  0  0  0  0  0  0  0
  145.7423  132.1097  151.1296 C   0  0  1  0  0  0  0  0  0  0  0  0
  146.6765  133.0183  151.9484 C   0  0  0  0  0  0  0  0  0  0  0  0
  147.8256  132.2454  152.4741 N   0  3  1  0  0  0  0  0  0  0  0  0
  148.8048  133.1048  153.1849 C   0  0  0  0  0  0  0  0  0  0  0  0
  148.1985  133.7871  154.4262 C   0  0  0  0  0  0  0  0  0  0  0  0
  148.5101  135.2111  154.4570 N   0  0  0  0  0  0  0  0  0  0  0  0
  149.6727  135.7300  154.8765 C   0  0  0  0  0  0  0  0  0  0  0  0
  150.6145  135.0465  155.2788 O   0  0  0  0  0  0  0  0  0  0  0  0
  149.6754  137.0692  154.7751 N   0  0  0  0  0  0  0  0  0  0  0  0
  150.7375  137.9643  155.0855 C   0  0  0  0  0  0  0  0  0  0  0  0
  152.0817  137.5216  155.1395 C   0  0  0  0  0  0  0  0  0  0  0  0
  153.0902  138.4228  155.5208 C   0  0  0  0  0  0  0  0  0  0  0  0
  152.7168  139.7358  155.8524 C   0  0  0  0  0  0  0  0  0  0  0  0
  151.4409  140.1693  155.8190 N   0  0  0  0  0  0  0  0  0  0  0  0
  150.4582  139.3159  155.4384 C   0  0  0  0  0  0  0  0  0  0  0  0
  149.1421  139.8316  155.4022 N   0  0  0  0  0  0  0  0  0  0  0  0
  148.3736  139.9848  156.6334 C   0  0  0  0  0  0  0  0  0  0  0  0
  147.2169  140.9096  156.2655 C   0  0  0  0  0  0  0  0  0  0  0  0
  147.8634  141.8554  155.2582 C   0  0  0  0  0  0  0  0  0  0  0  0
  148.8769  140.9695  154.5262 C   0  0  0  0  0  0  0  0  0  0  0  0
  147.3468  131.0955  153.2809 C   0  0  0  0  0  0  0  0  0  0  0  0
  146.3671  130.2189  152.4757 C   0  0  2  0  0  0  0  0  0  0  0  0
  147.0533  129.3602  151.3982 C   0  0  0  0  0  0  0  0  0  0  0  0
  145.3132  131.0188  151.9400 O   0  0  0  0  0  0  0  0  0  0  0  0
  144.7626  133.6984  150.0071 H   0  0  0  0  0  0  0  0  0  0  0  0
  143.9155  133.2438  151.4848 H   0  0  0  0  0  0  0  0  0  0  0  0
  143.8444  132.1976  150.0695 H   0  0  0  0  0  0  0  0  0  0  0  0
  146.2711  131.7336  150.2534 H   0  0  0  0  0  0  0  0  0  0  0  0
  147.0370  133.8311  151.3167 H   0  0  0  0  0  0  0  0  0  0  0  0
  146.1339  133.4741  152.7784 H   0  0  0  0  0  0  0  0  0  0  0  0
  149.6432  132.4855  153.5068 H   0  0  0  0  0  0  0  0  0  0  0  0
  149.2161  133.8458  152.4976 H   0  0  0  0  0  0  0  0  0  0  0  0
  147.1132  133.6946  154.4297 H   0  0  0  0  0  0  0  0  0  0  0  0
  148.5551  133.3074  155.3394 H   0  0  0  0  0  0  0  0  0  0  0  0
  147.7907  135.8454  154.1408 H   0  0  0  0  0  0  0  0  0  0  0  0
  148.8718  137.4890  154.3310 H   0  0  0  0  0  0  0  0  0  0  0  0
  152.3515  136.5002  154.9176 H   0  0  0  0  0  0  0  0  0  0  0  0
  154.1228  138.1108  155.5706 H   0  0  0  0  0  0  0  0  0  0  0  0
  153.4609  140.4560  156.1588 H   0  0  0  0  0  0  0  0  0  0  0  0
  148.0209  139.0218  157.0038 H   0  0  0  0  0  0  0  0  0  0  0  0
  148.9766  140.4529  157.4127 H   0  0  0  0  0  0  0  0  0  0  0  0
  146.4204  140.3402  155.7843 H   0  0  0  0  0  0  0  0  0  0  0  0
  146.7945  141.4258  157.1278 H   0  0  0  0  0  0  0  0  0  0  0  0
  147.1420  142.3195  154.5853 H   0  0  0  0  0  0  0  0  0  0  0  0
  148.3879  142.6512  155.7891 H   0  0  0  0  0  0  0  0  0  0  0  0
  149.7853  141.5222  154.2824 H   0  0  0  0  0  0  0  0  0  0  0  0
  148.4437  140.6025  153.5955 H   0  0  0  0  0  0  0  0  0  0  0  0
  148.1820  130.4852  153.6228 H   0  0  0  0  0  0  0  0  0  0  0  0
  146.8476  131.4729  154.1747 H   0  0  0  0  0  0  0  0  0  0  0  0
  145.8936  129.5270  153.1730 H   0  0  0  0  0  0  0  0  0  0  0  0
  147.7555  128.6604  151.8518 H   0  0  0  0  0  0  0  0  0  0  0  0
  147.6133  129.9616  150.6825 H   0  0  0  0  0  0  0  0  0  0  0  0
  146.3197  128.7753  150.8430 H   0  0  0  0  0  0  0  0  0  0  0  0
  148.3044  131.8672  151.6689 H   0  0  0  0  0  0  0  0  0  0  0  0
  1  2  1  0  0  0  0
  1 26  1  0  0  0  0
  1 27  1  0  0  0  0
  1 28  1  0  0  0  0
  2 25  1  0  0  0  0
  2  3  1  0  0  0  0
  2 29  1  0  0  0  0
  3  4  1  0  0  0  0
  3 30  1  0  0  0  0
  3 31  1  0  0  0  0
  4  5  1  0  0  0  0
  4 22  1  0  0  0  0
  4 55  1  0  0  0  0
  5  6  1  0  0  0  0
  5 32  1  0  0  0  0
  5 33  1  0  0  0  0
  6  7  1  0  0  0  0
  6 34  1  0  0  0  0
  6 35  1  0  0  0  0
  7  8  1  0  0  0  0
  7 36  1  0  0  0  0
  8  9  2  0  0  0  0
  8 10  1  0  0  0  0
 10 11  1  0  0  0  0
 10 37  1  0  0  0  0
 11 16  1  0  0  0  0
 11 12  2  0  0  0  0
 12 13  1  0  0  0  0
 12 38  1  0  0  0  0
 13 14  2  0  0  0  0
 13 39  1  0  0  0  0
 14 15  1  0  0  0  0
 14 40  1  0  0  0  0
 15 16  2  0  0  0  0
 16 17  1  0  0  0  0
 17 21  1  0  0  0  0
 17 18  1  0  0  0  0
 18 19  1  0  0  0  0
 18 41  1  0  0  0  0
 18 42  1  0  0  0  0
 19 20  1  0  0  0  0
 19 43  1  0  0  0  0
 19 44  1  0  0  0  0
 20 21  1  0  0  0  0
 20 45  1  0  0  0  0
 20 46  1  0  0  0  0
 21 47  1  0  0  0  0
 21 48  1  0  0  0  0
 22 23  1  0  0  0  0
 22 49  1  0  0  0  0
 22 50  1  0  0  0  0
 23 24  1  0  0  0  0
 23 25  1  0  0  0  0
 23 51  1  0  0  0  0
 24 52  1  0  0  0  0
 24 53  1  0  0  0  0
 24 54  1  0  0  0  0
M  CHG  1   4   1
M  END
> <s_m_source_file>
AV-unprocessed.smi

> <i_m_source_file_index>
1244

> <i_lp_mmshare_version>
43012

> <i_f3d_flags>
0

> <s_epik_input>
W0NIM11bQ0BASF0xW0NIMl1OKFtDSDJdW0NASF0oTzEpW0NIM10pW0NIMl1bQ0gyXVtOSF1DKD1PKVtOSF1jMltjSF1bY0hdW2NIXW5jMk4zW0NIMl1bQ0gyXVtDSDJdW0NIMl0z

> <s_epik_cmdline>
J2VwaWtfcHl0aG9uJywgJy1waCcsICc3LjAnLCAnLXRuJywgJzgnLCAnLW1hJywgJzIwMCcsICctbWV0YWxfYmluZGluZycsICctaW1hZScsICc8aW5maWxlLm1hZT4nLCAnLW9tYWUnLCAnPG91dGZpbGUubWFlPic=

> <r_lp_tautomer_probability>
1

> <r_epik_Ionization_Penalty>
0.684913

> <r_epik_Ionization_Penalty_Charging>
0.602531

> <r_epik_Ionization_Penalty_Neutral>
0.0823829

> <r_epik_State_Penalty>
0.678827

> <r_epik_Charging_Adjusted_Penalty>
1.28136

> <i_epik_Tot_Q>
1

> <i_epik_Tot_abs_Q>
1

> <r_epik_Metal_State_Penalty>
0.67806

> <b_epik_Metal_Only>
0

> <s_lp_Force_Field>
OPLS_2005

> <r_lp_Energy>
45.4089

> <b_lp_Chiralities_Consistent>
1

> <s_lp_Variant>
AV-unprocessed.smi:1244-7

> <Gold.Version>
5.8.1

> <Gold.Id.Protein>
6NUR|6NUR_protein|mol2

> <Gold.PLP.Fitness>
44.1298

> <Gold.PLP.PLP>
-41.3178

> <Gold.PLP.part.hbond>
-4.0000

> <Gold.PLP.part.metal>
0.0000

> <Gold.PLP.part.buried>
0.4384

> <Gold.PLP.part.nonpolar>
-38.3352

> <Gold.PLP.part.repulsive>
0.4129

> <Gold.PLP.ligand.clash>
0.0000

> <Gold.PLP.ligand.torsion>
0.8612

> <Gold.PLP.Chemscore.Hbond>
1.4017

> <Gold.PLP.Chemscore.CHOScore>
0.0000

> <Gold.PLP.Chemscore.Metal>
0.0000

> <Gold.Chemscore.Hbonds>
donor molecule, donor type, donor heavy atom, donor atom, acceptor molecule, acceptor atom, score
      L1  H     4    55       P1 10747  1.00

> <Gold.PLP.Chemscore.Internal.Correction>
0.3294

> <Gold.Rescore>
     Score         DG    S(hbond)    S(metal)    S(lipo)     H(rot)  DE(clash)    DE(int)     intcor
     14.17     -16.55       1.01        0.00     100.69       1.60       0.15       2.23       ----

> <Gold.Chemscore.Fitness>
14.1704

> <Gold.Chemscore.DG>
-16.5522

> <Gold.Chemscore.ZeroCoef>
-5.4800

> <Gold.Chemscore.Hbond>
1.0127

> <Gold.Chemscore.Metal>
0.0000

> <Gold.Chemscore.Lipo>
100.6855

> <Gold.Chemscore.Internal_Hbond>
0.0000

> <Gold.Chemscore.DEClash>
0.1500

> <Gold.Chemscore.DEInternal>
2.2318

> <Gold.Chemscore.Rot>
1.5978

> <Gold.Chemscore.Internal.Correction>
   9.000000E+99

> <Gold.Chemscore.Hbonds>
donor molecule, donor type, donor heavy atom, donor atom, acceptor molecule, acceptor atom, score
      L1  H     4    55       P1 10747  1.00

> <Gold.Chemscore.Hbond.Weighted>
-3.3825

> <Gold.Chemscore.Metal.Weighted>
-0.0000

> <Gold.Chemscore.Lipo.Weighted>
-11.7802

> <Gold.Chemscore.Internal_Hbond.Weighted>
0.0000

> <Gold.Chemscore.DEClash.Weighted>
0.1500

> <Gold.Chemscore.DEInternal.Weighted>
2.2318

> <Gold.Chemscore.Rot.Weighted>
4.0905

> <Gold.Chemscore.Internal.Correction.Weighted>
   9.000000E+99

> <Gold.Protein.RotatedTorsions>
[ 6907 6896 6895 6894 ] final  102.41 input  -60.11 | X-H torsion
[ 7974 7965 7964 7962 ] final -158.80 input  175.53 | X-H torsion
[ 8008 7997 7996 7995 ] final  -31.58 input   59.86 | X-H torsion
[ 10167 10162 10161 10158 ] final  -85.72 input  -65.29 | X-H torsion
[ 10718 10713 10712 10709 ] final  -13.90 input   66.30 | X-H torsion
[ 10763 10752 10751 10750 ] final -121.20 input  -60.55 | X-H torsion
[ 11005 11000 10999 10996 ] final   56.90 input  -57.11 | X-H torsion

> <Gold.Protein.ActiveResidues>
 VAL166  LYS551  ARG553  GLY616  TRP617  ASP618  TYR619  PRO620  LYS621  CYS622 
 ASP623  PHE694  ASN695  SER759  ASP760  ASP761  ALA762  ILE779  LEU786  VAL792 
 PHE793  MET794  SER795  GLU796  ALA797  LYS798  CYS799  TRP800  GLU811  SER814 

> <Gold.Protein.RotatedAtoms>
  152.5324  133.9980  159.7881 H   0  0  0  0  0  0  0  0  0  0  0  0  # atno 6907 bound_to 6896
  151.0204  133.5874  159.2679 H   0  0  0  0  0  0  0  0  0  0  0  0  # atno 6908 bound_to 6896
  151.2916  135.0750  159.9259 H   0  0  0  0  0  0  0  0  0  0  0  0  # atno 6909 bound_to 6896
  144.7491  140.3776  143.6062 H   0  0  0  0  0  0  0  0  0  0  0  0  # atno 7974 bound_to 7965
  154.4209  140.1760  156.1589 H   0  0  0  0  0  0  0  0  0  0  0  0  # atno 8008 bound_to 7997
  155.9854  140.3374  155.6678 H   0  0  0  0  0  0  0  0  0  0  0  0  # atno 8009 bound_to 7997
  155.6444  140.0683  157.2598 H   0  0  0  0  0  0  0  0  0  0  0  0  # atno 8010 bound_to 7997
  140.4010  143.2662  151.9142 H   0  0  0  0  0  0  0  0  0  0  0  0  # atno 10167 bound_to 10162
  156.6236  130.4882  149.6155 H   0  0  0  0  0  0  0  0  0  0  0  0  # atno 10718 bound_to 10713
  154.8662  135.4176  154.2581 H   0  0  0  0  0  0  0  0  0  0  0  0  # atno 10763 bound_to 10752
  153.3515  135.6999  153.6791 H   0  0  0  0  0  0  0  0  0  0  0  0  # atno 10764 bound_to 10752
  153.5728  135.3588  155.2817 H   0  0  0  0  0  0  0  0  0  0  0  0  # atno 10765 bound_to 10752
  140.0494  134.5759  155.9283 H   0  0  0  0  0  0  0  0  0  0  0  0  # atno 11005 bound_to 11000
  145.7012  139.1661  143.2592 LP  0  0  0  0  0  0  0  0  0  0  0  0  # atno 17320 bound_to 7965
  146.1414  140.7052  142.9365 LP  0  0  0  0  0  0  0  0  0  0  0  0  # atno 17321 bound_to 7965
  139.4785  144.5633  151.8205 LP  0  0  0  0  0  0  0  0  0  0  0  0  # atno 17342 bound_to 10162
  140.4739  144.1547  150.5922 LP  0  0  0  0  0  0  0  0  0  0  0  0  # atno 17343 bound_to 10162
  156.2291  130.6784  151.1446 LP  0  0  0  0  0  0  0  0  0  0  0  0  # atno 17370 bound_to 10713
  157.7220  131.0675  150.6093 LP  0  0  0  0  0  0  0  0  0  0  0  0  # atno 17371 bound_to 10713
  141.1923  133.6574  156.5494 LP  0  0  0  0  0  0  0  0  0  0  0  0  # atno 17394 bound_to 11000
  140.3942  134.7413  157.4740 LP  0  0  0  0  0  0  0  0  0  0  0  0  # atno 17395 bound_to 11000

$$$$
