AV-unprocessed.smi:2569|AV-procd|sdf|10102|dock1
  -GOLD-   2272014113D 1   1.00000     0.00000
 Structure written by MMmdl.
 39 41  0  0  0  0  0  0  0  0  1 V2000
  152.9340  143.0805  161.3787 C   0  0  0  0  0  0  0  0  0  0  0  0
  152.3423  142.6820  160.0381 C   0  0  0  0  0  0  0  0  0  0  0  0
  152.7295  141.4557  159.4526 C   0  0  0  0  0  0  0  0  0  0  0  0
  152.2043  141.0500  158.2062 C   0  0  0  0  0  0  0  0  0  0  0  0
  152.4429  139.9091  157.4596 N   0  0  0  0  0  0  0  0  0  0  0  0
  151.6648  140.1139  156.4010 C   0  0  0  0  0  0  0  0  0  0  0  0
  150.9559  141.2589  156.3683 N   0  0  0  0  0  0  0  0  0  0  0  0
  150.0565  141.7009  155.3166 C   0  0  0  0  0  0  0  0  0  0  0  0
  149.2061  140.5509  154.7416 C   0  0  2  0  0  0  0  0  0  0  0  0
  150.0300  139.7588  153.9100 O   0  0  0  0  0  0  0  0  0  0  0  0
  147.9651  141.0227  153.9540 C   0  0  0  0  0  0  0  0  0  0  0  0
  146.8645  141.3757  154.8330 N   0  0  0  0  0  0  0  0  0  0  0  0
  146.6122  140.6736  155.9647 N   0  0  0  0  0  0  0  0  0  0  0  0
  145.5837  141.2368  156.5314 N   0  0  0  0  0  0  0  0  0  0  0  0
  145.1328  142.3178  155.7958 N   0  0  0  0  0  0  0  0  0  0  0  0
  145.9584  142.3591  154.7584 C   0  0  0  0  0  0  0  0  0  0  0  0
  145.9106  143.3568  153.6473 C   0  0  0  0  0  0  0  0  0  0  0  0
  151.2726  141.9109  157.5558 C   0  0  0  0  0  0  0  0  0  0  0  0
  150.8744  143.1302  158.1325 C   0  0  0  0  0  0  0  0  0  0  0  0
  151.4122  143.5225  159.3757 C   0  0  0  0  0  0  0  0  0  0  0  0
  150.9834  144.8466  159.9826 C   0  0  0  0  0  0  0  0  0  0  0  0
  153.6129  142.3164  161.7585 H   0  0  0  0  0  0  0  0  0  0  0  0
  152.1451  143.2225  162.1176 H   0  0  0  0  0  0  0  0  0  0  0  0
  153.4950  144.0108  161.2872 H   0  0  0  0  0  0  0  0  0  0  0  0
  153.4367  140.8142  159.9573 H   0  0  0  0  0  0  0  0  0  0  0  0
  151.6149  139.3939  155.5969 H   0  0  0  0  0  0  0  0  0  0  0  0
  149.4096  142.4823  155.7185 H   0  0  0  0  0  0  0  0  0  0  0  0
  150.6541  142.1621  154.5291 H   0  0  0  0  0  0  0  0  0  0  0  0
  148.8796  139.9152  155.5642 H   0  0  0  0  0  0  0  0  0  0  0  0
  149.6335  139.7076  153.0533 H   0  0  0  0  0  0  0  0  0  0  0  0
  148.1948  141.9013  153.3515 H   0  0  0  0  0  0  0  0  0  0  0  0
  147.6358  140.2517  153.2558 H   0  0  0  0  0  0  0  0  0  0  0  0
  145.0795  144.0475  153.7921 H   0  0  0  0  0  0  0  0  0  0  0  0
  145.7777  142.8504  152.6910 H   0  0  0  0  0  0  0  0  0  0  0  0
  146.8370  143.9302  153.6154 H   0  0  0  0  0  0  0  0  0  0  0  0
  150.1627  143.7612  157.6216 H   0  0  0  0  0  0  0  0  0  0  0  0
  150.2773  145.3693  159.3366 H   0  0  0  0  0  0  0  0  0  0  0  0
  151.8462  145.4968  160.1292 H   0  0  0  0  0  0  0  0  0  0  0  0
  150.5006  144.6874  160.9471 H   0  0  0  0  0  0  0  0  0  0  0  0
  1  2  1  0  0  0  0
  1 22  1  0  0  0  0
  1 23  1  0  0  0  0
  1 24  1  0  0  0  0
  2 20  1  0  0  0  0
  2  3  2  0  0  0  0
  3  4  1  0  0  0  0
  3 25  1  0  0  0  0
  4 18  2  0  0  0  0
  4  5  1  0  0  0  0
  5  6  2  0  0  0  0
  6  7  1  0  0  0  0
  6 26  1  0  0  0  0
  7  8  1  0  0  0  0
  7 18  1  0  0  0  0
  8  9  1  0  0  0  0
  8 27  1  0  0  0  0
  8 28  1  0  0  0  0
  9 10  1  0  0  0  0
  9 11  1  0  0  0  0
  9 29  1  0  0  0  0
 10 30  1  0  0  0  0
 11 12  1  0  0  0  0
 11 31  1  0  0  0  0
 11 32  1  0  0  0  0
 12 16  1  0  0  0  0
 12 13  1  0  0  0  0
 13 14  2  0  0  0  0
 14 15  1  0  0  0  0
 15 16  2  0  0  0  0
 16 17  1  0  0  0  0
 17 33  1  0  0  0  0
 17 34  1  0  0  0  0
 17 35  1  0  0  0  0
 18 19  1  0  0  0  0
 19 20  2  0  0  0  0
 19 36  1  0  0  0  0
 20 21  1  0  0  0  0
 21 37  1  0  0  0  0
 21 38  1  0  0  0  0
 21 39  1  0  0  0  0
M  END
> <s_m_source_file>
AV-unprocessed.smi

> <i_m_source_file_index>
2569

> <i_lp_mmshare_version>
43012

> <i_f3d_flags>
0

> <s_epik_input>
W0NIM11jKFtjSF0xKWMoW0NIM10pW2NIXWMoYzEyKW4oW2NIXW4yKVtDSDJdW0NASF0oW09IXSlbQ0gyXW4zbm5uYzNbQ0gzXQ==

> <s_epik_cmdline>
J2VwaWtfcHl0aG9uJywgJy1waCcsICc3LjAnLCAnLXRuJywgJzgnLCAnLW1hJywgJzIwMCcsICctbWV0YWxfYmluZGluZycsICctaW1hZScsICc8aW5maWxlLm1hZT4nLCAnLW9tYWUnLCAnPG91dGZpbGUubWFlPic=

> <r_lp_tautomer_probability>
1

> <r_epik_Ionization_Penalty>
0.0946713

> <r_epik_Ionization_Penalty_Charging>
0

> <r_epik_Ionization_Penalty_Neutral>
0.0946713

> <r_epik_State_Penalty>
0.0848712

> <r_epik_Charging_Adjusted_Penalty>
0.0848712

> <i_epik_Tot_Q>
0

> <i_epik_Tot_abs_Q>
0

> <r_epik_Metal_State_Penalty>
0.0730911

> <b_epik_Metal_Only>
0

> <s_lp_Force_Field>
OPLS_2005

> <r_lp_Energy>
9.8023

> <b_lp_Chiralities_Consistent>
1

> <s_lp_Variant>
AV-unprocessed.smi:2569-1

> <Gold.Version>
5.8.1

> <Gold.Id.Protein>
6NUR|6NUR_protein|mol2

> <Gold.PLP.Fitness>
52.7903

> <Gold.PLP.PLP>
-45.9873

> <Gold.PLP.part.hbond>
-3.0000

> <Gold.PLP.part.metal>
0.0000

> <Gold.PLP.part.buried>
-5.2523

> <Gold.PLP.part.nonpolar>
-37.1352

> <Gold.PLP.part.repulsive>
0.1981

> <Gold.PLP.ligand.clash>
0.0000

> <Gold.PLP.ligand.torsion>
0.9403

> <Gold.PLP.Chemscore.Hbond>
2.8800

> <Gold.PLP.Chemscore.CHOScore>
0.0000

> <Gold.PLP.Chemscore.Metal>
0.0000

> <Gold.Chemscore.Hbonds>
donor molecule, donor type, donor heavy atom, donor atom, acceptor molecule, acceptor atom, score
      L1  H    10    30       P1  7957  1.00
      P1  H  7989  7998       L1    10  0.88
      P1  H  7997  8008       L1     5  0.81

> <Gold.PLP.Chemscore.Internal.Correction>
0.0437

> <Gold.Rescore>
     Score         DG    S(hbond)    S(metal)    S(lipo)     H(rot)  DE(clash)    DE(int)     intcor
     17.05     -18.58       2.21        0.00     104.12       2.53       0.72       0.81       ----

> <Gold.Chemscore.Fitness>
17.0517

> <Gold.Chemscore.DG>
-18.5805

> <Gold.Chemscore.ZeroCoef>
-5.4800

> <Gold.Chemscore.Hbond>
2.2119

> <Gold.Chemscore.Metal>
0.0000

> <Gold.Chemscore.Lipo>
104.1182

> <Gold.Chemscore.Internal_Hbond>
0.0000

> <Gold.Chemscore.DEClash>
0.7235

> <Gold.Chemscore.DEInternal>
0.8053

> <Gold.Chemscore.Rot>
2.5270

> <Gold.Chemscore.Internal.Correction>
   9.000000E+99

> <Gold.Chemscore.Hbonds>
donor molecule, donor type, donor heavy atom, donor atom, acceptor molecule, acceptor atom, score
      L1  H    10    30       P1  7957  0.96
      P1  H  7989  7998       L1    10  0.12
      P1  H  7997  8008       L1     5  0.17

> <Gold.Chemscore.Hbond.Weighted>
-7.3878

> <Gold.Chemscore.Metal.Weighted>
-0.0000

> <Gold.Chemscore.Lipo.Weighted>
-12.1818

> <Gold.Chemscore.Internal_Hbond.Weighted>
0.0000

> <Gold.Chemscore.DEClash.Weighted>
0.7235

> <Gold.Chemscore.DEInternal.Weighted>
0.8053

> <Gold.Chemscore.Rot.Weighted>
6.4691

> <Gold.Chemscore.Internal.Correction.Weighted>
   9.000000E+99

> <Gold.Protein.RotatedTorsions>
[ 6907 6896 6895 6894 ] final  155.06 input  -60.11 | X-H torsion
[ 7974 7965 7964 7962 ] final   49.35 input  175.53 | X-H torsion
[ 8008 7997 7996 7995 ] final  -59.78 input   59.86 | X-H torsion
[ 10167 10162 10161 10158 ] final   23.38 input  -65.29 | X-H torsion
[ 10718 10713 10712 10709 ] final -139.11 input   66.30 | X-H torsion
[ 10763 10752 10751 10750 ] final  -62.52 input  -60.55 | X-H torsion
[ 11005 11000 10999 10996 ] final -119.30 input  -57.11 | X-H torsion

> <Gold.Protein.ActiveResidues>
 VAL166  LYS551  ARG553  GLY616  TRP617  ASP618  TYR619  PRO620  LYS621  CYS622 
 ASP623  PHE694  ASN695  SER759  ASP760  ASP761  ALA762  ILE779  LEU786  VAL792 
 PHE793  MET794  SER795  GLU796  ALA797  LYS798  CYS799  TRP800  GLU811  SER814 

> <Gold.Protein.RotatedAtoms>
  152.0496  133.4013  159.4371 H   0  0  0  0  0  0  0  0  0  0  0  0  # atno 6907 bound_to 6896
  150.6871  134.3323  159.4841 H   0  0  0  0  0  0  0  0  0  0  0  0  # atno 6908 bound_to 6896
  152.1131  134.9259  160.0616 H   0  0  0  0  0  0  0  0  0  0  0  0  # atno 6909 bound_to 6896
  146.0117  139.4551  142.9952 H   0  0  0  0  0  0  0  0  0  0  0  0  # atno 7974 bound_to 7965
  154.4368  140.1054  156.6170 H   0  0  0  0  0  0  0  0  0  0  0  0  # atno 8008 bound_to 7997
  155.5748  140.3490  155.4506 H   0  0  0  0  0  0  0  0  0  0  0  0  # atno 8009 bound_to 7997
  156.0362  140.1272  157.0194 H   0  0  0  0  0  0  0  0  0  0  0  0  # atno 8010 bound_to 7997
  140.5274  143.9900  150.6447 H   0  0  0  0  0  0  0  0  0  0  0  0  # atno 10167 bound_to 10162
  156.3070  130.7461  151.1527 H   0  0  0  0  0  0  0  0  0  0  0  0  # atno 10718 bound_to 10713
  154.3011  135.6234  153.5425 H   0  0  0  0  0  0  0  0  0  0  0  0  # atno 10763 bound_to 10752
  152.9840  135.5679  154.5282 H   0  0  0  0  0  0  0  0  0  0  0  0  # atno 10764 bound_to 10752
  154.4913  135.2867  155.1470 H   0  0  0  0  0  0  0  0  0  0  0  0  # atno 10765 bound_to 10752
  141.0225  134.0103  157.3262 H   0  0  0  0  0  0  0  0  0  0  0  0  # atno 11005 bound_to 11000
  145.7331  141.0035  143.1341 LP  0  0  0  0  0  0  0  0  0  0  0  0  # atno 17320 bound_to 7965
  144.6955  139.9008  143.7458 LP  0  0  0  0  0  0  0  0  0  0  0  0  # atno 17321 bound_to 7965
  140.3265  143.3104  152.0730 LP  0  0  0  0  0  0  0  0  0  0  0  0  # atno 17342 bound_to 10162
  139.4943  144.6538  151.6617 LP  0  0  0  0  0  0  0  0  0  0  0  0  # atno 17343 bound_to 10162
  157.7382  131.0543  150.5309 LP  0  0  0  0  0  0  0  0  0  0  0  0  # atno 17370 bound_to 10713
  156.5444  130.4216  149.6138 LP  0  0  0  0  0  0  0  0  0  0  0  0  # atno 17371 bound_to 10713
  139.9155  135.0196  156.7863 LP  0  0  0  0  0  0  0  0  0  0  0  0  # atno 17394 bound_to 11000
  140.6548  133.9698  155.7774 LP  0  0  0  0  0  0  0  0  0  0  0  0  # atno 17395 bound_to 11000

$$$$
