AV-unprocessed.smi:753|AV-procd|sdf|3603|dock9
  -GOLD-   22720 0593D 1   1.00000     0.00000
 Structure written by MMmdl.
 44 46  0  0  0  0  0  0  0  0  2 V2000
  145.6305  135.8647  151.9082 C   0  0  0  0  0  0  0  0  0  0  0  0
  146.1608  137.1493  152.5087 C   0  0  0  0  0  0  0  0  0  0  0  0
  146.7232  137.2027  153.8024 C   0  0  0  0  0  0  0  0  0  0  0  0
  147.1931  138.4369  154.2983 C   0  0  0  0  0  0  0  0  0  0  0  0
  147.0926  139.5911  153.4909 C   0  0  0  0  0  0  0  0  0  0  0  0
  147.5798  140.9333  153.9999 C   0  0  0  0  0  0  0  0  0  0  0  0
  149.0747  140.9060  154.3565 C   0  0  0  0  0  0  0  0  0  0  0  0
  149.4105  141.9422  155.3246 N   0  0  0  0  0  0  0  0  0  0  0  0
  149.9157  141.7168  156.5493 C   0  0  0  0  0  0  0  0  0  0  0  0
  150.1455  140.5919  156.9898 O   0  0  0  0  0  0  0  0  0  0  0  0
  150.1609  142.8262  157.2683 N   0  0  0  0  0  0  0  0  0  0  0  0
  150.7063  142.9165  158.6246 C   0  0  2  0  0  0  0  0  0  0  0  0
  150.0677  144.0512  159.4609 C   0  0  0  0  0  0  0  0  0  0  0  0
  151.2816  144.9142  159.8518 C   0  0  1  0  0  0  0  0  0  0  0  0
  152.1612  144.1437  160.8558 C   0  0  0  0  0  0  0  0  0  0  0  0
  152.8131  143.0582  159.9766 C   0  0  0  0  0  0  0  0  0  0  0  0
  152.1937  143.3303  158.5930 C   0  0  2  0  0  0  0  0  0  0  0  0
  152.1234  144.8547  158.5847 C   0  0  0  0  0  0  0  0  0  0  0  0
  146.5221  139.4771  152.2054 C   0  0  0  0  0  0  0  0  0  0  0  0
  146.0824  138.2772  151.7672 N   0  3  0  0  0  0  0  0  0  0  0  0
  145.7997  135.0191  152.5756 H   0  0  0  0  0  0  0  0  0  0  0  0
  146.1260  135.6542  150.9600 H   0  0  0  0  0  0  0  0  0  0  0  0
  144.5586  135.9458  151.7260 H   0  0  0  0  0  0  0  0  0  0  0  0
  146.7937  136.3122  154.4099 H   0  0  0  0  0  0  0  0  0  0  0  0
  147.6226  138.4951  155.2881 H   0  0  0  0  0  0  0  0  0  0  0  0
  147.3849  141.6920  153.2405 H   0  0  0  0  0  0  0  0  0  0  0  0
  146.9915  141.2162  154.8741 H   0  0  0  0  0  0  0  0  0  0  0  0
  149.3382  139.9403  154.7886 H   0  0  0  0  0  0  0  0  0  0  0  0
  149.6856  141.0222  153.4593 H   0  0  0  0  0  0  0  0  0  0  0  0
  149.2537  142.8999  155.0452 H   0  0  0  0  0  0  0  0  0  0  0  0
  149.9412  143.7071  156.8259 H   0  0  0  0  0  0  0  0  0  0  0  0
  150.5987  141.9491  159.1188 H   0  0  0  0  0  0  0  0  0  0  0  0
  149.3616  144.6374  158.8704 H   0  0  0  0  0  0  0  0  0  0  0  0
  149.5331  143.6714  160.3322 H   0  0  0  0  0  0  0  0  0  0  0  0
  151.0158  145.9187  160.1821 H   0  0  0  0  0  0  0  0  0  0  0  0
  152.9221  144.7952  161.2878 H   0  0  0  0  0  0  0  0  0  0  0  0
  151.5778  143.7215  161.6748 H   0  0  0  0  0  0  0  0  0  0  0  0
  153.8960  143.1881  159.9484 H   0  0  0  0  0  0  0  0  0  0  0  0
  152.6083  142.0494  160.3368 H   0  0  0  0  0  0  0  0  0  0  0  0
  152.7615  142.8888  157.7729 H   0  0  0  0  0  0  0  0  0  0  0  0
  151.6167  145.2627  157.7084 H   0  0  0  0  0  0  0  0  0  0  0  0
  153.0985  145.3340  158.6891 H   0  0  0  0  0  0  0  0  0  0  0  0
  146.4010  140.3037  151.5203 H   0  0  0  0  0  0  0  0  0  0  0  0
  145.6714  138.2196  150.8352 H   0  0  0  0  0  0  0  0  0  0  0  0
  1  2  1  0  0  0  0
  1 21  1  0  0  0  0
  1 22  1  0  0  0  0
  1 23  1  0  0  0  0
  2 20  1  0  0  0  0
  2  3  2  0  0  0  0
  3  4  1  0  0  0  0
  3 24  1  0  0  0  0
  4  5  2  0  0  0  0
  4 25  1  0  0  0  0
  5  6  1  0  0  0  0
  5 19  1  0  0  0  0
  6  7  1  0  0  0  0
  6 26  1  0  0  0  0
  6 27  1  0  0  0  0
  7  8  1  0  0  0  0
  7 28  1  0  0  0  0
  7 29  1  0  0  0  0
  8  9  1  0  0  0  0
  8 30  1  0  0  0  0
  9 10  2  0  0  0  0
  9 11  1  0  0  0  0
 11 12  1  0  0  0  0
 11 31  1  0  0  0  0
 12 17  1  0  0  0  0
 12 13  1  0  0  0  0
 12 32  1  0  0  0  0
 13 14  1  0  0  0  0
 13 33  1  0  0  0  0
 13 34  1  0  0  0  0
 14 18  1  0  0  0  0
 14 15  1  0  0  0  0
 14 35  1  0  0  0  0
 15 16  1  0  0  0  0
 15 36  1  0  0  0  0
 15 37  1  0  0  0  0
 16 17  1  0  0  0  0
 16 38  1  0  0  0  0
 16 39  1  0  0  0  0
 17 18  1  0  0  0  0
 17 40  1  0  0  0  0
 18 41  1  0  0  0  0
 18 42  1  0  0  0  0
 19 20  2  0  0  0  0
 19 43  1  0  0  0  0
 20 44  1  0  0  0  0
M  CHG  1  20   1
M  END
> <s_m_source_file>
AV-unprocessed.smi

> <i_m_source_file_index>
753

> <i_lp_mmshare_version>
43012

> <i_f3d_flags>
0

> <s_epik_input>
W0NIM11jMVtjSF1bY0hdYyhbY0hdbjEpW0NIMl1bQ0gyXVtOSF1DKD1PKVtOSF1bQ0BIXShbQ0gyXVtDQEBIXTIzKVtDQEBIXShbQ0gyXTMpW0NIMl1bQ0gyXTI=

> <s_epik_cmdline>
J2VwaWtfcHl0aG9uJywgJy1waCcsICc3LjAnLCAnLXRuJywgJzgnLCAnLW1hJywgJzIwMCcsICctbWV0YWxfYmluZGluZycsICctaW1hZScsICc8aW5maWxlLm1hZT4nLCAnLW9tYWUnLCAnPG91dGZpbGUubWFlPic=

> <r_epik_Ionization_Penalty>
1.41708

> <r_epik_Ionization_Penalty_Charging>
1.41702

> <r_epik_Ionization_Penalty_Neutral>
5.73163e-05

> <r_epik_State_Penalty>
1.50048

> <r_epik_Charging_Adjusted_Penalty>
2.9175

> <i_epik_Tot_Q>
1

> <i_epik_Tot_abs_Q>
1

> <r_epik_Metal_State_Penalty>
1.55295

> <b_epik_Metal_Only>
0

> <s_lp_Force_Field>
OPLS_2005

> <r_lp_Energy>
57.028

> <b_lp_Chiralities_Consistent>
1

> <s_lp_Variant>
AV-unprocessed.smi:753-5

> <Gold.Version>
5.8.1

> <Gold.Id.Protein>
6NUR|6NUR_protein|mol2

> <Gold.PLP.Fitness>
53.0449

> <Gold.PLP.PLP>
-46.8689

> <Gold.PLP.part.hbond>
-3.7961

> <Gold.PLP.part.metal>
0.0000

> <Gold.PLP.part.buried>
-3.5489

> <Gold.PLP.part.nonpolar>
-41.4597

> <Gold.PLP.part.repulsive>
0.3039

> <Gold.PLP.ligand.clash>
0.0000

> <Gold.PLP.ligand.torsion>
0.4037

> <Gold.PLP.Chemscore.Hbond>
2.3200

> <Gold.PLP.Chemscore.CHOScore>
0.0000

> <Gold.PLP.Chemscore.Metal>
0.0000

> <Gold.Chemscore.Hbonds>
donor molecule, donor type, donor heavy atom, donor atom, acceptor molecule, acceptor atom, score
      L1  H     8    30       P1  8028  0.93
      L1  H    11    31       P1  8028  1.00
      L1  H    20    44       P1 10171  0.70

> <Gold.PLP.Chemscore.Internal.Correction>
0.0234

> <Gold.Rescore>
     Score         DG    S(hbond)    S(metal)    S(lipo)     H(rot)  DE(clash)    DE(int)     intcor
     22.69     -24.35       2.39        0.00     126.04       1.50       1.35       0.31       ----

> <Gold.Chemscore.Fitness>
22.6926

> <Gold.Chemscore.DG>
-24.3468

> <Gold.Chemscore.ZeroCoef>
-5.4800

> <Gold.Chemscore.Hbond>
2.3852

> <Gold.Chemscore.Metal>
0.0000

> <Gold.Chemscore.Lipo>
126.0426

> <Gold.Chemscore.Internal_Hbond>
0.0000

> <Gold.Chemscore.DEClash>
1.3451

> <Gold.Chemscore.DEInternal>
0.3091

> <Gold.Chemscore.Rot>
1.5027

> <Gold.Chemscore.Internal.Correction>
   9.000000E+99

> <Gold.Chemscore.Hbonds>
donor molecule, donor type, donor heavy atom, donor atom, acceptor molecule, acceptor atom, score
      L1  H     8    30       P1  8028  0.90
      L1  H    11    31       P1  8028  0.95
      L1  H    20    44       P1 10171  0.68

> <Gold.Chemscore.Hbond.Weighted>
-7.9666

> <Gold.Chemscore.Metal.Weighted>
-0.0000

> <Gold.Chemscore.Lipo.Weighted>
-14.7470

> <Gold.Chemscore.Internal_Hbond.Weighted>
0.0000

> <Gold.Chemscore.DEClash.Weighted>
1.3451

> <Gold.Chemscore.DEInternal.Weighted>
0.3091

> <Gold.Chemscore.Rot.Weighted>
3.8468

> <Gold.Chemscore.Internal.Correction.Weighted>
   9.000000E+99

> <Gold.Protein.RotatedTorsions>
[ 6907 6896 6895 6894 ] final   -7.56 input  -60.11 | X-H torsion
[ 7974 7965 7964 7962 ] final   26.95 input  175.53 | X-H torsion
[ 8008 7997 7996 7995 ] final   86.27 input   59.86 | X-H torsion
[ 10167 10162 10161 10158 ] final -151.14 input  -65.29 | X-H torsion
[ 10718 10713 10712 10709 ] final  131.09 input   66.30 | X-H torsion
[ 10763 10752 10751 10750 ] final -135.04 input  -60.55 | X-H torsion
[ 11005 11000 10999 10996 ] final -131.07 input  -57.11 | X-H torsion

> <Gold.Protein.ActiveResidues>
 VAL166  LYS551  ARG553  GLY616  TRP617  ASP618  TYR619  PRO620  LYS621  CYS622 
 ASP623  PHE694  ASN695  SER759  ASP760  ASP761  ALA762  ILE779  LEU786  VAL792 
 PHE793  MET794  SER795  GLU796  ALA797  LYS798  CYS799  TRP800  GLU811  SER814 

> <Gold.Protein.RotatedAtoms>
  151.4476  135.1026  159.9688 H   0  0  0  0  0  0  0  0  0  0  0  0  # atno 6907 bound_to 6896
  152.4900  133.8470  159.7192 H   0  0  0  0  0  0  0  0  0  0  0  0  # atno 6908 bound_to 6896
  150.9044  133.7017  159.2898 H   0  0  0  0  0  0  0  0  0  0  0  0  # atno 6909 bound_to 6896
  146.1810  139.7258  142.8900 H   0  0  0  0  0  0  0  0  0  0  0  0  # atno 7974 bound_to 7965
  155.9607  140.3393  155.6488 H   0  0  0  0  0  0  0  0  0  0  0  0  # atno 8008 bound_to 7997
  155.6802  140.0737  157.2506 H   0  0  0  0  0  0  0  0  0  0  0  0  # atno 8009 bound_to 7997
  154.4142  140.1676  156.1962 H   0  0  0  0  0  0  0  0  0  0  0  0  # atno 8010 bound_to 7997
  139.7293  143.8833  152.2529 H   0  0  0  0  0  0  0  0  0  0  0  0  # atno 10167 bound_to 10162
  157.5001  131.1094  150.9439 H   0  0  0  0  0  0  0  0  0  0  0  0  # atno 10718 bound_to 10713
  154.8709  135.3716  154.4833 H   0  0  0  0  0  0  0  0  0  0  0  0  # atno 10763 bound_to 10752
  153.5485  135.7025  153.5607 H   0  0  0  0  0  0  0  0  0  0  0  0  # atno 10764 bound_to 10752
  153.3737  135.4015  155.1771 H   0  0  0  0  0  0  0  0  0  0  0  0  # atno 10765 bound_to 10752
  140.9291  134.1343  157.4250 H   0  0  0  0  0  0  0  0  0  0  0  0  # atno 11005 bound_to 11000
  145.4075  141.0392  143.3036 LP  0  0  0  0  0  0  0  0  0  0  0  0  # atno 17320 bound_to 7965
  144.8316  139.5619  143.6941 LP  0  0  0  0  0  0  0  0  0  0  0  0  # atno 17321 bound_to 7965
  139.8752  144.7047  150.8941 LP  0  0  0  0  0  0  0  0  0  0  0  0  # atno 17342 bound_to 10162
  140.7768  143.3706  151.1657 LP  0  0  0  0  0  0  0  0  0  0  0  0  # atno 17343 bound_to 10162
  157.0113  130.5638  149.5321 LP  0  0  0  0  0  0  0  0  0  0  0  0  # atno 17370 bound_to 10713
  156.0224  130.5318  150.8312 LP  0  0  0  0  0  0  0  0  0  0  0  0  # atno 17371 bound_to 10713
  139.8792  134.9998  156.5978 LP  0  0  0  0  0  0  0  0  0  0  0  0  # atno 17394 bound_to 11000
  140.7887  133.8600  155.8627 LP  0  0  0  0  0  0  0  0  0  0  0  0  # atno 17395 bound_to 11000

$$$$
