#       Name:                AV-unprocessed.smi:693
#       Creating user name   scv26
#       Creation time:       Fri Mar 27 00:35:08 2020


#       File generated by GOLD software.
#

@<TRIPOS>MOLECULE
AV-unprocessed.smi:693
    51    52     1
SMALL
NO_CHARGES


@<TRIPOS>ATOM
      1 ****        -7.5967   2.2730   0.7795 C.3            1 S1                 0.0000
      2 ****        -6.1710   1.7630   0.8063 C.ar           1 S1                 0.0000
      3 ****        -5.6420   1.1547   1.9643 C.ar           1 S1                 0.0000
      4 ****        -4.3088   0.7024   1.9344 C.ar           1 S1                 0.0000
      5 ****        -3.5581   0.8757   0.7535 C.ar           1 S1                 0.0000
      6 ****        -2.1198   0.4049   0.6691 C.3            1 S1                 0.0000
      7 ****        -2.0071  -1.0074   0.0731 C.3            1 S1                 0.0000
      8 ****        -0.6257  -1.4729   0.0599 N.am           1 S1                 0.0000
      9 ****         0.3078  -1.1205  -0.8403 C.2            1 S1                 0.0000
     10 ****         0.0566  -0.3659  -1.7811 O.2            1 S1                 0.0000
     11 ****         1.5284  -1.6801  -0.6406 N.am           1 S1                 0.0000
     12 ****         1.9636  -2.4090   0.5617 C.3            1 S1                 0.0000
     13 ****         2.8807  -1.4862   1.3801 C.3            1 S1                 0.0000
     14 ****         4.0762  -1.0070   0.5348 C.3            1 S1                 0.0000
     15 ****         3.6386  -0.4278  -0.8353 C.3            1 S1                 0.0000
     16 ****         4.8266  -0.0938  -1.7666 C.3            1 S1                 0.0000
     17 ****         5.7023   1.0605  -1.2676 C.2            1 S1                 0.0000
     18 ****         5.5796   2.2317  -1.8968 N.am           1 S1                 0.0000
     19 ****         6.4956   0.8944  -0.3438 O.2            1 S1                 0.0000
     20 ****         2.6641  -1.4060  -1.5302 C.3            1 S1                 0.0000
     21 ****        -4.1814   1.4967  -0.3494 C.ar           1 S1                 0.0000
     22 ****        -5.4595   1.9328  -0.3300 N.ar           1 S1                 0.0000
     23 ****        -8.1495   1.9471   1.6612 H              1 S1                 0.0000
     24 ****        -8.1194   1.9039  -0.1035 H              1 S1                 0.0000
     25 ****        -7.6062   3.3629   0.7544 H              1 S1                 0.0000
     26 ****        -6.2405   1.0367   2.8556 H              1 S1                 0.0000
     27 ****        -3.8729   0.2308   2.8029 H              1 S1                 0.0000
     28 ****        -1.5531   1.1171   0.0678 H              1 S1                 0.0000
     29 ****        -1.6792   0.4264   1.6668 H              1 S1                 0.0000
     30 ****        -2.5901  -1.7091   0.6701 H              1 S1                 0.0000
     31 ****        -2.4233  -1.0355  -0.9354 H              1 S1                 0.0000
     32 ****        -0.3515  -2.1049   0.7979 H              1 S1                 0.0000
     33 ****         1.1451  -2.7675   1.1854 H              1 S1                 0.0000
     34 ****         2.5094  -3.3048   0.2620 H              1 S1                 0.0000
     35 ****         2.3110  -0.6242   1.7304 H              1 S1                 0.0000
     36 ****         3.2381  -2.0044   2.2703 H              1 S1                 0.0000
     37 ****         4.6386  -0.2691   1.1062 H              1 S1                 0.0000
     38 ****         4.7509  -1.8481   0.3699 H              1 S1                 0.0000
     39 ****         3.0906   0.4974  -0.6468 H              1 S1                 0.0000
     40 ****         5.4552  -0.9755  -1.8981 H              1 S1                 0.0000
     41 ****         4.4537   0.1576  -2.7608 H              1 S1                 0.0000
     42 ****         6.1363   3.0223  -1.6062 H              1 S1                 0.0000
     43 ****         4.9297   2.3215  -2.6642 H              1 S1                 0.0000
     44 ****         3.1732  -2.3421  -1.7646 H              1 S1                 0.0000
     45 ****         2.3433  -1.0018  -2.4915 H              1 S1                 0.0000
     46 ****        -3.6411   1.6465  -1.2727 H              1 S1                 0.0000
     47 ****        -0.8656   0.0045  -1.8925 LP             1 S1                 0.0000
     48 ****         0.7749  -0.1237  -2.4333 LP             1 S1                 0.0000
     49 ****         6.5754  -0.0023   0.0917 LP             1 S1                 0.0000
     50 ****         7.0614   1.6559  -0.0275 LP             1 S1                 0.0000
     51 ****        -5.8672   2.3684  -1.1325 LP             1 S1                 0.0000
@<TRIPOS>BOND
    1    1    2 1     
    2    1   23 1     
    3    1   24 1     
    4    1   25 1     
    5    2   22 ar    
    6    2    3 ar    
    7    3    4 ar    
    8    3   26 1     
    9    4    5 ar    
   10    4   27 1     
   11    5    6 1     
   12    5   21 ar    
   13    6    7 1     
   14    6   28 1     
   15    6   29 1     
   16    7    8 1     
   17    7   30 1     
   18    7   31 1     
   19    8    9 am    
   20    8   32 1     
   21    9   10 2     
   22    9   11 am    
   23   11   20 1     
   24   11   12 1     
   25   12   13 1     
   26   12   33 1     
   27   12   34 1     
   28   13   14 1     
   29   13   35 1     
   30   13   36 1     
   31   14   15 1     
   32   14   37 1     
   33   14   38 1     
   34   15   16 1     
   35   15   20 1     
   36   15   39 1     
   37   16   17 1     
   38   16   40 1     
   39   16   41 1     
   40   17   18 am    
   41   17   19 2     
   42   18   42 1     
   43   18   43 1     
   44   20   44 1     
   45   20   45 1     
   46   21   22 ar    
   47   21   46 1     
   48   10   47 1     
   49   10   48 1     
   50   19   49 1     
   51   19   50 1     
   52   22   51 1     
@<TRIPOS>SUBSTRUCTURE
      1 S1             1
@<TRIPOS>SET
LONE_PAIRS      STATIC     ATOMS    <user>   **** ""
5 47 48 49 50 51
DONOR_HYDROGENS      STATIC     ATOMS    <user>   **** ""
3 32 42 43
ATOM$BLUE        STATIC     ATOMS    COLORGROUP SYSTEM
5 47 48 49 50 51
ATOM$RED        STATIC     ATOMS    COLORGROUP SYSTEM
3 32 42 43
