AV-unprocessed.smi:3116|AV-procd|sdf|11867|dock10
  -GOLD-   2272017253D 1   1.00000     0.00000
 Structure written by MMmdl.
 34 34  0  0  0  0  0  0  0  0  2 V2000
  146.3448  131.9024  152.1272 C   0  0  0  0  0  0  0  0  0  0  0  0
  147.2377  133.1418  152.2843 C   0  0  1  0  0  0  0  0  0  0  0  0
  146.7436  134.2280  151.4052 N   0  3  0  0  0  0  0  0  0  0  0  0
  145.3167  134.6012  151.5721 C   0  0  2  0  0  0  0  0  0  0  0  0
  144.7891  135.1259  150.2259 C   0  0  0  0  0  0  0  0  0  0  0  0
  145.1555  135.6369  152.7186 C   0  0  1  0  0  0  0  0  0  0  0  0
  145.8300  136.9889  152.4154 C   0  0  0  0  0  0  0  0  0  0  0  0
  143.7534  135.8492  153.0607 N   0  0  0  0  0  0  0  0  0  0  0  0
  142.9929  136.9855  152.8734 C   0  0  0  0  0  0  0  0  0  0  0  0
  141.7430  136.7255  153.3571 C   0  0  0  0  0  0  0  0  0  0  0  0
  141.8324  135.3843  153.8224 C   0  0  0  0  0  0  0  0  0  0  0  0
  143.0357  134.8634  153.6453 N   0  0  0  0  0  0  0  0  0  0  0  0
  147.2818  133.5801  153.7548 C   0  0  0  0  0  0  0  0  0  0  0  0
  148.0391  134.6392  154.0518 N   0  0  0  0  0  0  0  0  0  0  0  0
  146.6523  132.9649  154.6135 O   0  0  0  0  0  0  0  0  0  0  0  0
  146.6996  131.0765  152.7452 H   0  0  0  0  0  0  0  0  0  0  0  0
  146.3404  131.5551  151.0933 H   0  0  0  0  0  0  0  0  0  0  0  0
  145.3125  132.1115  152.4114 H   0  0  0  0  0  0  0  0  0  0  0  0
  148.2440  132.8657  151.9679 H   0  0  0  0  0  0  0  0  0  0  0  0
  147.2957  135.0540  151.5852 H   0  0  0  0  0  0  0  0  0  0  0  0
  144.7366  133.7106  151.8203 H   0  0  0  0  0  0  0  0  0  0  0  0
  143.7143  135.3026  150.2546 H   0  0  0  0  0  0  0  0  0  0  0  0
  144.9678  134.4056  149.4269 H   0  0  0  0  0  0  0  0  0  0  0  0
  145.2764  136.0598  149.9443 H   0  0  0  0  0  0  0  0  0  0  0  0
  145.6362  135.2292  153.6095 H   0  0  0  0  0  0  0  0  0  0  0  0
  146.9126  136.8918  152.3418 H   0  0  0  0  0  0  0  0  0  0  0  0
  145.6308  137.7110  153.2081 H   0  0  0  0  0  0  0  0  0  0  0  0
  145.4689  137.4166  151.4795 H   0  0  0  0  0  0  0  0  0  0  0  0
  143.3994  137.8764  152.4176 H   0  0  0  0  0  0  0  0  0  0  0  0
  140.8924  137.3909  153.3730 H   0  0  0  0  0  0  0  0  0  0  0  0
  141.0651  134.7785  154.2815 H   0  0  0  0  0  0  0  0  0  0  0  0
  148.1008  134.9707  155.0037 H   0  0  0  0  0  0  0  0  0  0  0  0
  148.5488  135.1101  153.3176 H   0  0  0  0  0  0  0  0  0  0  0  0
  146.8958  133.9442  150.4477 H   0  0  0  0  0  0  0  0  0  0  0  0
  1  2  1  0  0  0  0
  1 16  1  0  0  0  0
  1 17  1  0  0  0  0
  1 18  1  0  0  0  0
  2  3  1  0  0  0  0
  2 13  1  0  0  0  0
  2 19  1  0  0  0  0
  3  4  1  0  0  0  0
  3 20  1  0  0  0  0
  3 34  1  0  0  0  0
  4  5  1  0  0  0  0
  4  6  1  0  0  0  0
  4 21  1  0  0  0  0
  5 22  1  0  0  0  0
  5 23  1  0  0  0  0
  5 24  1  0  0  0  0
  6  7  1  0  0  0  0
  6  8  1  0  0  0  0
  6 25  1  0  0  0  0
  7 26  1  0  0  0  0
  7 27  1  0  0  0  0
  7 28  1  0  0  0  0
  8 12  1  0  0  0  0
  8  9  1  0  0  0  0
  9 10  2  0  0  0  0
  9 29  1  0  0  0  0
 10 11  1  0  0  0  0
 10 30  1  0  0  0  0
 11 12  2  0  0  0  0
 11 31  1  0  0  0  0
 13 14  1  0  0  0  0
 13 15  2  0  0  0  0
 14 32  1  0  0  0  0
 14 33  1  0  0  0  0
M  CHG  1   3   1
M  END
> <s_m_source_file>
AV-unprocessed.smi

> <i_m_source_file_index>
3116

> <i_lp_mmshare_version>
43012

> <i_f3d_flags>
0

> <s_epik_input>
W05IMl1DKD1PKVtDQEhdKFtDSDNdKVtOSF1bQ0BIXShbQ0gzXSlbQ0BIXShbQ0gzXSluMVtjSF1bY0hdW2NIXW4x

> <s_epik_cmdline>
J2VwaWtfcHl0aG9uJywgJy1waCcsICc3LjAnLCAnLXRuJywgJzgnLCAnLW1hJywgJzIwMCcsICctbWV0YWxfYmluZGluZycsICctaW1hZScsICc8aW5maWxlLm1hZT4nLCAnLW9tYWUnLCAnPG91dGZpbGUubWFlPic=

> <r_lp_tautomer_probability>
1

> <r_epik_Ionization_Penalty>
0.15658

> <r_epik_Ionization_Penalty_Charging>
0.156568

> <r_epik_Ionization_Penalty_Neutral>
1.19778e-05

> <r_epik_State_Penalty>
0.145866

> <r_epik_Charging_Adjusted_Penalty>
0.302434

> <i_epik_Tot_Q>
1

> <i_epik_Tot_abs_Q>
1

> <r_epik_Metal_State_Penalty>
0.146064

> <b_epik_Metal_Only>
0

> <s_lp_Force_Field>
OPLS_2005

> <r_lp_Energy>
9.77371

> <b_lp_Chiralities_Consistent>
1

> <s_lp_Variant>
AV-unprocessed.smi:3116-6

> <Gold.Version>
5.8.1

> <Gold.Id.Protein>
6NUR|6NUR_protein|mol2

> <Gold.PLP.Fitness>
38.3043

> <Gold.PLP.PLP>
-21.4986

> <Gold.PLP.part.hbond>
-2.0000

> <Gold.PLP.part.metal>
0.0000

> <Gold.PLP.part.buried>
-1.6789

> <Gold.PLP.part.nonpolar>
-18.0668

> <Gold.PLP.part.repulsive>
0.2214

> <Gold.PLP.ligand.clash>
0.0000

> <Gold.PLP.ligand.torsion>
0.6354

> <Gold.PLP.Chemscore.Hbond>
3.0000

> <Gold.PLP.Chemscore.CHOScore>
2.9991

> <Gold.PLP.Chemscore.Metal>
0.0000

> <Gold.Chemscore.Hbonds>
donor molecule, donor type, donor heavy atom, donor atom, acceptor molecule, acceptor atom, score
      L1  H     3    20       P1  7948  2.00
      L1  H    14    33       P1  7948  1.00
      L1  C     9    29       P1 10171  0.51
      L1  C     9    29       P1 10175  0.91
      L1  C    11    31       P1 11000  0.93

> <Gold.PLP.Chemscore.Internal.Correction>
0.0792

> <Gold.Rescore>
     Score         DG    S(hbond)    S(metal)    S(lipo)     H(rot)  DE(clash)    DE(int)     intcor
     10.23     -10.80       1.86        0.00      45.81       2.45       0.01       0.55       ----

> <Gold.Chemscore.Fitness>
10.2319

> <Gold.Chemscore.DG>
-10.7991

> <Gold.Chemscore.ZeroCoef>
-5.4800

> <Gold.Chemscore.Hbond>
1.8630

> <Gold.Chemscore.Metal>
0.0000

> <Gold.Chemscore.Lipo>
45.8103

> <Gold.Chemscore.Internal_Hbond>
0.0000

> <Gold.Chemscore.DEClash>
0.0126

> <Gold.Chemscore.DEInternal>
0.5546

> <Gold.Chemscore.Rot>
2.4465

> <Gold.Chemscore.Internal.Correction>
   9.000000E+99

> <Gold.Chemscore.Hbonds>
donor molecule, donor type, donor heavy atom, donor atom, acceptor molecule, acceptor atom, score
      L1  H     3    20       P1  7948  0.78
      L1  H    14    33       P1  7948  0.82

> <Gold.Chemscore.Hbond.Weighted>
-6.2224

> <Gold.Chemscore.Metal.Weighted>
-0.0000

> <Gold.Chemscore.Lipo.Weighted>
-5.3598

> <Gold.Chemscore.Internal_Hbond.Weighted>
0.0000

> <Gold.Chemscore.DEClash.Weighted>
0.0126

> <Gold.Chemscore.DEInternal.Weighted>
0.5546

> <Gold.Chemscore.Rot.Weighted>
6.2631

> <Gold.Chemscore.Internal.Correction.Weighted>
   9.000000E+99

> <Gold.Protein.RotatedTorsions>
[ 6907 6896 6895 6894 ] final  161.82 input  -60.11 | X-H torsion
[ 7974 7965 7964 7962 ] final  -49.97 input  175.53 | X-H torsion
[ 8008 7997 7996 7995 ] final   15.29 input   59.86 | X-H torsion
[ 10167 10162 10161 10158 ] final  168.95 input  -65.29 | X-H torsion
[ 10718 10713 10712 10709 ] final  137.91 input   66.30 | X-H torsion
[ 10763 10752 10751 10750 ] final   44.58 input  -60.55 | X-H torsion
[ 11005 11000 10999 10996 ] final -122.84 input  -57.11 | X-H torsion

> <Gold.Protein.ActiveResidues>
 VAL166  LYS551  ARG553  GLY616  TRP617  ASP618  TYR619  PRO620  LYS621  CYS622 
 ASP623  PHE694  ASN695  SER759  ASP760  ASP761  ALA762  ILE779  LEU786  VAL792 
 PHE793  MET794  SER795  GLU796  ALA797  LYS798  CYS799  TRP800  GLU811  SER814 

> <Gold.Protein.RotatedAtoms>
  151.9498  133.3662  159.3995 H   0  0  0  0  0  0  0  0  0  0  0  0  # atno 6907 bound_to 6896
  150.6983  134.4352  159.5276 H   0  0  0  0  0  0  0  0  0  0  0  0  # atno 6908 bound_to 6896
  152.2023  134.8576  160.0557 H   0  0  0  0  0  0  0  0  0  0  0  0  # atno 6909 bound_to 6896
  145.9348  140.7716  142.9581 H   0  0  0  0  0  0  0  0  0  0  0  0  # atno 7974 bound_to 7965
  154.8606  140.2943  155.5541 H   0  0  0  0  0  0  0  0  0  0  0  0  # atno 8008 bound_to 7997
  156.3019  140.2479  156.3512 H   0  0  0  0  0  0  0  0  0  0  0  0  # atno 8009 bound_to 7997
  154.8922  140.0394  157.1834 H   0  0  0  0  0  0  0  0  0  0  0  0  # atno 8010 bound_to 7997
  139.4980  144.3759  151.9674 H   0  0  0  0  0  0  0  0  0  0  0  0  # atno 10167 bound_to 10162
  157.4310  131.1048  151.0250 H   0  0  0  0  0  0  0  0  0  0  0  0  # atno 10718 bound_to 10713
  152.9838  135.6066  154.3298 H   0  0  0  0  0  0  0  0  0  0  0  0  # atno 10763 bound_to 10752
  154.3002  135.2773  155.2616 H   0  0  0  0  0  0  0  0  0  0  0  0  # atno 10764 bound_to 10752
  154.4872  135.5901  153.6489 H   0  0  0  0  0  0  0  0  0  0  0  0  # atno 10765 bound_to 10752
  140.9965  134.0465  157.3591 H   0  0  0  0  0  0  0  0  0  0  0  0  # atno 11005 bound_to 11000
  144.6770  140.2186  143.7369 LP  0  0  0  0  0  0  0  0  0  0  0  0  # atno 17320 bound_to 7965
  145.8378  139.2115  143.1845 LP  0  0  0  0  0  0  0  0  0  0  0  0  # atno 17321 bound_to 7965
  140.3195  144.3444  150.6013 LP  0  0  0  0  0  0  0  0  0  0  0  0  # atno 17342 bound_to 10162
  140.5734  143.2178  151.7559 LP  0  0  0  0  0  0  0  0  0  0  0  0  # atno 17343 bound_to 10162
  157.1146  130.6036  149.5490 LP  0  0  0  0  0  0  0  0  0  0  0  0  # atno 17370 bound_to 10713
  155.9913  130.4967  150.7294 LP  0  0  0  0  0  0  0  0  0  0  0  0  # atno 17371 bound_to 10713
  139.9017  135.0167  156.7299 LP  0  0  0  0  0  0  0  0  0  0  0  0  # atno 17394 bound_to 11000
  140.6958  133.9350  155.7994 LP  0  0  0  0  0  0  0  0  0  0  0  0  # atno 17395 bound_to 11000

$$$$
