AV-unprocessed.smi:1911|AV-procd|sdf|7743|dock1
  -GOLD-   22720 9483D 1   1.00000     0.00000
 Structure written by MMmdl.
 53 55  0  0  0  0  0  0  0  0  3 V2000
  143.8747  133.7350  149.0677 N   0  0  0  0  0  0  0  0  0  0  0  0
  144.3071  133.3060  150.2556 C   0  0  0  0  0  0  0  0  0  0  0  0
  143.5435  133.1095  151.1993 O   0  0  0  0  0  0  0  0  0  0  0  0
  145.8111  133.0457  150.3907 C   0  0  0  0  0  0  0  0  0  0  0  0
  146.2598  132.9391  151.8032 N   0  3  2  0  0  0  0  0  0  0  0  0
  145.8427  134.0983  152.6367 C   0  0  0  0  0  0  0  0  0  0  0  0
  146.2055  133.8775  154.1154 C   0  0  0  0  0  0  0  0  0  0  0  0
  147.7078  133.5871  154.3045 C   0  0  2  0  0  0  0  0  0  0  0  0
  148.5288  134.7726  154.0577 N   0  0  0  0  0  0  0  0  0  0  0  0
  149.1170  135.5186  155.0042 C   0  0  0  0  0  0  0  0  0  0  0  0
  149.0110  135.2921  156.2090 O   0  0  0  0  0  0  0  0  0  0  0  0
  149.8049  136.5387  154.4632 N   0  0  0  0  0  0  0  0  0  0  0  0
  150.5621  137.5424  155.1253 C   0  0  0  0  0  0  0  0  0  0  0  0
  151.6393  138.2454  154.5303 C   0  0  0  0  0  0  0  0  0  0  0  0
  152.3136  139.2384  155.2703 C   0  0  0  0  0  0  0  0  0  0  0  0
  151.9060  139.5178  156.5958 C   0  0  0  0  0  0  0  0  0  0  0  0
  152.4952  140.4989  157.4079 N   0  0  0  0  0  0  0  0  0  0  0  0
  151.7100  141.7049  157.6647 C   0  0  0  0  0  0  0  0  0  0  0  0
  151.9296  142.0569  159.1371 C   0  0  0  0  0  0  0  0  0  0  0  0
  152.2237  140.7048  159.7738 C   0  0  0  0  0  0  0  0  0  0  0  0
  152.9959  139.9768  158.6743 C   0  0  0  0  0  0  0  0  0  0  0  0
  150.8585  138.8407  157.1150 N   0  3  0  0  0  0  0  0  0  0  0  0
  150.1846  137.8846  156.4407 C   0  0  0  0  0  0  0  0  0  0  0  0
  148.1324  132.4347  153.3777 C   0  0  0  0  0  0  0  0  0  0  0  0
  147.7185  132.6827  151.9152 C   0  0  0  0  0  0  0  0  0  0  0  0
  142.8906  133.9170  148.9291 H   0  0  0  0  0  0  0  0  0  0  0  0
  144.5261  133.8742  148.3087 H   0  0  0  0  0  0  0  0  0  0  0  0
  146.0114  132.1081  149.8704 H   0  0  0  0  0  0  0  0  0  0  0  0
  146.3826  133.8186  149.8737 H   0  0  0  0  0  0  0  0  0  0  0  0
  146.3163  135.0077  152.2636 H   0  0  0  0  0  0  0  0  0  0  0  0
  144.7662  134.2514  152.5552 H   0  0  0  0  0  0  0  0  0  0  0  0
  145.9013  134.7408  154.7083 H   0  0  0  0  0  0  0  0  0  0  0  0
  145.6293  133.0344  154.4989 H   0  0  0  0  0  0  0  0  0  0  0  0
  147.8779  133.2707  155.3353 H   0  0  0  0  0  0  0  0  0  0  0  0
  148.6728  135.0334  153.0931 H   0  0  0  0  0  0  0  0  0  0  0  0
  149.7324  136.6420  153.4616 H   0  0  0  0  0  0  0  0  0  0  0  0
  151.9516  138.0576  153.5147 H   0  0  0  0  0  0  0  0  0  0  0  0
  153.1243  139.7846  154.8107 H   0  0  0  0  0  0  0  0  0  0  0  0
  152.0398  142.5166  157.0158 H   0  0  0  0  0  0  0  0  0  0  0  0
  150.6487  141.5510  157.4718 H   0  0  0  0  0  0  0  0  0  0  0  0
  152.7991  142.7084  159.2378 H   0  0  0  0  0  0  0  0  0  0  0  0
  151.0742  142.5637  159.5847 H   0  0  0  0  0  0  0  0  0  0  0  0
  152.7839  140.7824  160.7060 H   0  0  0  0  0  0  0  0  0  0  0  0
  151.2893  140.1817  159.9814 H   0  0  0  0  0  0  0  0  0  0  0  0
  152.8898  138.8943  158.7622 H   0  0  0  0  0  0  0  0  0  0  0  0
  154.0592  140.2087  158.7405 H   0  0  0  0  0  0  0  0  0  0  0  0
  149.3685  137.4215  156.9765 H   0  0  0  0  0  0  0  0  0  0  0  0
  149.2096  132.2745  153.4406 H   0  0  0  0  0  0  0  0  0  0  0  0
  147.6692  131.5098  153.7242 H   0  0  0  0  0  0  0  0  0  0  0  0
  147.9846  131.8087  151.3194 H   0  0  0  0  0  0  0  0  0  0  0  0
  148.2705  133.5273  151.5001 H   0  0  0  0  0  0  0  0  0  0  0  0
  145.7980  132.1234  152.1810 H   0  0  0  0  0  0  0  0  0  0  0  0
  150.5626  139.0622  158.0661 H   0  0  0  0  0  0  0  0  0  0  0  0
  1  2  1  0  0  0  0
  1 26  1  0  0  0  0
  1 27  1  0  0  0  0
  2  3  2  0  0  0  0
  2  4  1  0  0  0  0
  4  5  1  0  0  0  0
  4 28  1  0  0  0  0
  4 29  1  0  0  0  0
  5 25  1  0  0  0  0
  5  6  1  0  0  0  0
  5 52  1  0  0  0  0
  6  7  1  0  0  0  0
  6 30  1  0  0  0  0
  6 31  1  0  0  0  0
  7  8  1  0  0  0  0
  7 32  1  0  0  0  0
  7 33  1  0  0  0  0
  8  9  1  0  0  0  0
  8 24  1  0  0  0  0
  8 34  1  0  0  0  0
  9 10  1  0  0  0  0
  9 35  1  0  0  0  0
 10 11  2  0  0  0  0
 10 12  1  0  0  0  0
 12 13  1  0  0  0  0
 12 36  1  0  0  0  0
 13 23  1  0  0  0  0
 13 14  2  0  0  0  0
 14 15  1  0  0  0  0
 14 37  1  0  0  0  0
 15 16  2  0  0  0  0
 15 38  1  0  0  0  0
 16 17  1  0  0  0  0
 16 22  1  0  0  0  0
 17 21  1  0  0  0  0
 17 18  1  0  0  0  0
 18 19  1  0  0  0  0
 18 39  1  0  0  0  0
 18 40  1  0  0  0  0
 19 20  1  0  0  0  0
 19 41  1  0  0  0  0
 19 42  1  0  0  0  0
 20 21  1  0  0  0  0
 20 43  1  0  0  0  0
 20 44  1  0  0  0  0
 21 45  1  0  0  0  0
 21 46  1  0  0  0  0
 22 23  2  0  0  0  0
 22 53  1  0  0  0  0
 23 47  1  0  0  0  0
 24 25  1  0  0  0  0
 24 48  1  0  0  0  0
 24 49  1  0  0  0  0
 25 50  1  0  0  0  0
 25 51  1  0  0  0  0
M  CHG  1   5   1
M  CHG  1  22   1
M  END
> <s_m_source_file>
AV-unprocessed.smi

> <i_m_source_file_index>
1911

> <i_lp_mmshare_version>
43012

> <i_f3d_flags>
0

> <s_epik_input>
W05IMl1DKD1PKVtDSDJdTjFbQ0gyXVtDSDJdW0NIXShbQ0gyXVtDSDJdMSlbTkhdQyg9TylbTkhdYzJbY0hdW2NIXWMobltjSF0yKU4zW0NIMl1bQ0gyXVtDSDJdW0NIMl0z

> <s_epik_cmdline>
J2VwaWtfcHl0aG9uJywgJy1waCcsICc3LjAnLCAnLXRuJywgJzgnLCAnLW1hJywgJzIwMCcsICctbWV0YWxfYmluZGluZycsICctaW1hZScsICc8aW5maWxlLm1hZT4nLCAnLW9tYWUnLCAnPG91dGZpbGUubWFlPic=

> <r_lp_tautomer_probability>
0.999994

> <r_epik_Ionization_Penalty>
2.11361

> <r_epik_Ionization_Penalty_Charging>
2.11355

> <r_epik_Ionization_Penalty_Neutral>
5.99226e-05

> <r_epik_State_Penalty>
2.13444

> <r_epik_Charging_Adjusted_Penalty>
4.24799

> <i_epik_Tot_Q>
2

> <i_epik_Tot_abs_Q>
2

> <r_epik_Metal_State_Penalty>
2.23538

> <b_epik_Metal_Only>
0

> <s_lp_Force_Field>
OPLS_2005

> <r_lp_Energy>
50.1523

> <b_lp_Chiralities_Consistent>
1

> <s_lp_Variant>
AV-unprocessed.smi:1911-6

> <Gold.Version>
5.8.1

> <Gold.Id.Protein>
6NUR|6NUR_protein|mol2

> <Gold.PLP.Fitness>
45.6196

> <Gold.PLP.PLP>
-34.1464

> <Gold.PLP.part.hbond>
-5.0899

> <Gold.PLP.part.metal>
0.0000

> <Gold.PLP.part.buried>
-0.7740

> <Gold.PLP.part.nonpolar>
-28.1064

> <Gold.PLP.part.repulsive>
0.4378

> <Gold.PLP.ligand.clash>
0.0000

> <Gold.PLP.ligand.torsion>
0.6575

> <Gold.PLP.Chemscore.Hbond>
4.2081

> <Gold.PLP.Chemscore.CHOScore>
0.0000

> <Gold.PLP.Chemscore.Metal>
0.0000

> <Gold.Chemscore.Hbonds>
donor molecule, donor type, donor heavy atom, donor atom, acceptor molecule, acceptor atom, score
      L1  H     1    26       P1 10186  0.99
      L1  H     1    27       P1  7921  0.98
      L1  H     9    35       P1  7948  1.00
      L1  H    12    36       P1  7948  1.00
      P1  H  7997  8008       L1    17  0.17

> <Gold.PLP.Chemscore.Internal.Correction>
0.1640

> <Gold.Rescore>
     Score         DG    S(hbond)    S(metal)    S(lipo)     H(rot)  DE(clash)    DE(int)     intcor
     18.11     -21.63       3.65        0.00      82.28       2.22       0.30       3.22       ----

> <Gold.Chemscore.Fitness>
18.1054

> <Gold.Chemscore.DG>
-21.6280

> <Gold.Chemscore.ZeroCoef>
-5.4800

> <Gold.Chemscore.Hbond>
3.6547

> <Gold.Chemscore.Metal>
0.0000

> <Gold.Chemscore.Lipo>
82.2753

> <Gold.Chemscore.Internal_Hbond>
0.0000

> <Gold.Chemscore.DEClash>
0.2987

> <Gold.Chemscore.DEInternal>
3.2240

> <Gold.Chemscore.Rot>
2.2207

> <Gold.Chemscore.Internal.Correction>
   9.000000E+99

> <Gold.Chemscore.Hbonds>
donor molecule, donor type, donor heavy atom, donor atom, acceptor molecule, acceptor atom, score
      L1  H     1    26       P1 10186  0.91
      L1  H     1    27       P1  7921  0.92
      L1  H     9    35       P1  7948  0.54
      L1  H    12    36       P1  7948  0.43

> <Gold.Chemscore.Hbond.Weighted>
-12.2067

> <Gold.Chemscore.Metal.Weighted>
-0.0000

> <Gold.Chemscore.Lipo.Weighted>
-9.6262

> <Gold.Chemscore.Internal_Hbond.Weighted>
0.0000

> <Gold.Chemscore.DEClash.Weighted>
0.2987

> <Gold.Chemscore.DEInternal.Weighted>
3.2240

> <Gold.Chemscore.Rot.Weighted>
5.6849

> <Gold.Chemscore.Internal.Correction.Weighted>
   9.000000E+99

> <Gold.Protein.RotatedTorsions>
[ 6907 6896 6895 6894 ] final   98.99 input  -60.11 | X-H torsion
[ 7974 7965 7964 7962 ] final  -43.78 input  175.53 | X-H torsion
[ 8008 7997 7996 7995 ] final  -56.77 input   59.86 | X-H torsion
[ 10167 10162 10161 10158 ] final  104.85 input  -65.29 | X-H torsion
[ 10718 10713 10712 10709 ] final -161.39 input   66.30 | X-H torsion
[ 10763 10752 10751 10750 ] final   81.32 input  -60.55 | X-H torsion
[ 11005 11000 10999 10996 ] final   29.60 input  -57.11 | X-H torsion

> <Gold.Protein.ActiveResidues>
 VAL166  LYS551  ARG553  GLY616  TRP617  ASP618  TYR619  PRO620  LYS621  CYS622 
 ASP623  PHE694  ASN695  SER759  ASP760  ASP761  ALA762  ILE779  LEU786  VAL792 
 PHE793  MET794  SER795  GLU796  ALA797  LYS798  CYS799  TRP800  GLU811  SER814 

> <Gold.Protein.RotatedAtoms>
  152.5400  134.0497  159.8104 H   0  0  0  0  0  0  0  0  0  0  0  0  # atno 6907 bound_to 6896
  151.0641  133.5512  159.2639 H   0  0  0  0  0  0  0  0  0  0  0  0  # atno 6908 bound_to 6896
  151.2400  135.0593  159.9075 H   0  0  0  0  0  0  0  0  0  0  0  0  # atno 6909 bound_to 6896
  145.9986  140.7100  142.9282 H   0  0  0  0  0  0  0  0  0  0  0  0  # atno 7974 bound_to 7965
  154.4242  140.1122  156.5690 H   0  0  0  0  0  0  0  0  0  0  0  0  # atno 8008 bound_to 7997
  155.6232  140.3495  155.4639 H   0  0  0  0  0  0  0  0  0  0  0  0  # atno 8009 bound_to 7997
  156.0008  140.1198  157.0539 H   0  0  0  0  0  0  0  0  0  0  0  0  # atno 8010 bound_to 7997
  139.7142  144.7071  151.0977 H   0  0  0  0  0  0  0  0  0  0  0  0  # atno 10167 bound_to 10162
  156.5955  130.8788  151.2901 H   0  0  0  0  0  0  0  0  0  0  0  0  # atno 10718 bound_to 10713
  153.1107  135.4770  154.9030 H   0  0  0  0  0  0  0  0  0  0  0  0  # atno 10763 bound_to 10752
  154.7477  135.3098  154.8616 H   0  0  0  0  0  0  0  0  0  0  0  0  # atno 10764 bound_to 10752
  153.9206  135.6855  153.4801 H   0  0  0  0  0  0  0  0  0  0  0  0  # atno 10765 bound_to 10752
  140.3033  134.2732  155.7749 H   0  0  0  0  0  0  0  0  0  0  0  0  # atno 11005 bound_to 11000
  144.6912  140.3193  143.7235 LP  0  0  0  0  0  0  0  0  0  0  0  0  # atno 17320 bound_to 7965
  145.7522  139.1797  143.2315 LP  0  0  0  0  0  0  0  0  0  0  0  0  # atno 17321 bound_to 7965
  140.7740  143.5252  150.9488 LP  0  0  0  0  0  0  0  0  0  0  0  0  # atno 17342 bound_to 10162
  139.8938  143.6920  152.3141 LP  0  0  0  0  0  0  0  0  0  0  0  0  # atno 17343 bound_to 10162
  157.7293  130.9669  150.1780 LP  0  0  0  0  0  0  0  0  0  0  0  0  # atno 17370 bound_to 10713
  156.2513  130.3701  149.8229 LP  0  0  0  0  0  0  0  0  0  0  0  0  # atno 17371 bound_to 10713
  141.2123  133.7660  156.9799 LP  0  0  0  0  0  0  0  0  0  0  0  0  # atno 17394 bound_to 11000
  140.1090  134.9489  157.2037 LP  0  0  0  0  0  0  0  0  0  0  0  0  # atno 17395 bound_to 11000

$$$$
