AV-unprocessed.smi:2454|AV-procd|sdf|9695|dock7
  -GOLD-   2272013333D 1   1.00000     0.00000
 Structure written by MMmdl.
 42 43  0  0  0  0  0  0  0  0  1 V2000
  152.2629  141.6833  159.1637 C   0  0  0  0  0  0  0  0  0  0  0  0
  152.0688  141.1088  157.8833 O   0  0  0  0  0  0  0  0  0  0  0  0
  151.8061  139.7143  157.9445 C   0  0  0  0  0  0  0  0  0  0  0  0
  151.9516  139.0212  156.6009 C   0  0  0  0  0  0  0  0  0  0  0  0
  150.8986  138.2423  156.0759 C   0  0  0  0  0  0  0  0  0  0  0  0
  151.1085  137.6206  154.8241 C   0  0  0  0  0  0  0  0  0  0  0  0
  150.0101  136.8555  154.3326 N   0  0  0  0  0  0  0  0  0  0  0  0
  149.1009  136.0916  154.9753 C   0  0  0  0  0  0  0  0  0  0  0  0
  149.1326  135.9566  156.1974 O   0  0  0  0  0  0  0  0  0  0  0  0
  148.1799  135.4952  154.2011 N   0  0  0  0  0  0  0  0  0  0  0  0
  147.0818  134.6488  154.6612 C   0  0  2  0  0  0  0  0  0  0  0  0
  147.6366  133.3309  155.2338 C   0  0  0  0  0  0  0  0  0  0  0  0
  148.2267  132.4281  154.1372 C   0  0  0  0  0  0  0  0  0  0  0  0
  147.2033  132.1613  153.0223 C   0  0  0  0  0  0  0  0  0  0  0  0
  146.6655  133.4731  152.4121 C   0  0  1  0  0  0  0  0  0  0  0  0
  145.6483  133.2104  151.2827 C   0  0  0  0  0  0  0  0  0  0  0  0
  146.2187  132.5529  150.2724 F   0  0  0  0  0  0  0  0  0  0  0  0
  144.6283  132.4877  151.7461 F   0  0  0  0  0  0  0  0  0  0  0  0
  145.1644  134.3656  150.8263 F   0  0  0  0  0  0  0  0  0  0  0  0
  146.0764  134.3733  153.5225 C   0  0  0  0  0  0  0  0  0  0  0  0
  152.2900  137.7939  154.1781 N   0  0  0  0  0  0  0  0  0  0  0  0
  153.2219  138.5505  154.7621 C   0  0  0  0  0  0  0  0  0  0  0  0
  153.1187  139.1716  155.9368 N   0  0  0  0  0  0  0  0  0  0  0  0
  152.4557  142.7510  159.0606 H   0  0  0  0  0  0  0  0  0  0  0  0
  153.1174  141.2346  159.6717 H   0  0  0  0  0  0  0  0  0  0  0  0
  151.3783  141.5603  159.7898 H   0  0  0  0  0  0  0  0  0  0  0  0
  152.4910  139.2411  158.6498 H   0  0  0  0  0  0  0  0  0  0  0  0
  150.7923  139.5465  158.3116 H   0  0  0  0  0  0  0  0  0  0  0  0
  149.9693  138.1282  156.6153 H   0  0  0  0  0  0  0  0  0  0  0  0
  149.9204  136.8538  153.3269 H   0  0  0  0  0  0  0  0  0  0  0  0
  148.2334  135.6616  153.2058 H   0  0  0  0  0  0  0  0  0  0  0  0
  146.5630  135.1708  155.4672 H   0  0  0  0  0  0  0  0  0  0  0  0
  148.3908  133.5368  155.9945 H   0  0  0  0  0  0  0  0  0  0  0  0
  146.8332  132.7954  155.7412 H   0  0  0  0  0  0  0  0  0  0  0  0
  149.1177  132.8929  153.7132 H   0  0  0  0  0  0  0  0  0  0  0  0
  148.5530  131.4834  154.5732 H   0  0  0  0  0  0  0  0  0  0  0  0
  147.6665  131.5497  152.2477 H   0  0  0  0  0  0  0  0  0  0  0  0
  146.3762  131.5745  153.4238 H   0  0  0  0  0  0  0  0  0  0  0  0
  147.5103  134.0003  151.9659 H   0  0  0  0  0  0  0  0  0  0  0  0
  145.1923  133.8924  153.9430 H   0  0  0  0  0  0  0  0  0  0  0  0
  145.7292  135.3164  153.0988 H   0  0  0  0  0  0  0  0  0  0  0  0
  154.1527  138.6713  154.2280 H   0  0  0  0  0  0  0  0  0  0  0  0
  1  2  1  0  0  0  0
  1 24  1  0  0  0  0
  1 25  1  0  0  0  0
  1 26  1  0  0  0  0
  2  3  1  0  0  0  0
  3  4  1  0  0  0  0
  3 27  1  0  0  0  0
  3 28  1  0  0  0  0
  4 23  1  0  0  0  0
  4  5  2  0  0  0  0
  5  6  1  0  0  0  0
  5 29  1  0  0  0  0
  6  7  1  0  0  0  0
  6 21  2  0  0  0  0
  7  8  1  0  0  0  0
  7 30  1  0  0  0  0
  8  9  2  0  0  0  0
  8 10  1  0  0  0  0
 10 11  1  0  0  0  0
 10 31  1  0  0  0  0
 11 20  1  0  0  0  0
 11 12  1  0  0  0  0
 11 32  1  0  0  0  0
 12 13  1  0  0  0  0
 12 33  1  0  0  0  0
 12 34  1  0  0  0  0
 13 14  1  0  0  0  0
 13 35  1  0  0  0  0
 13 36  1  0  0  0  0
 14 15  1  0  0  0  0
 14 37  1  0  0  0  0
 14 38  1  0  0  0  0
 15 16  1  0  0  0  0
 15 20  1  0  0  0  0
 15 39  1  0  0  0  0
 16 17  1  0  0  0  0
 16 18  1  0  0  0  0
 16 19  1  0  0  0  0
 20 40  1  0  0  0  0
 20 41  1  0  0  0  0
 21 22  1  0  0  0  0
 22 23  2  0  0  0  0
 22 42  1  0  0  0  0
M  END
> <s_m_source_file>
AV-unprocessed.smi

> <i_m_source_file_index>
2454

> <i_lp_mmshare_version>
43012

> <i_f3d_flags>
0

> <s_epik_input>
W0NIM11PW0NIMl1jMVtjSF1jKG5bY0hdbjEpW05IXUMoPU8pW05IXVtDQEBIXTJbQ0gyXVtDSDJdW0NIMl1bQ0BASF0oQyhGKShGKUYpW0NIMl0y

> <s_epik_cmdline>
J2VwaWtfcHl0aG9uJywgJy1waCcsICc3LjAnLCAnLXRuJywgJzgnLCAnLW1hJywgJzIwMCcsICctbWV0YWxfYmluZGluZycsICctaW1hZScsICc8aW5maWxlLm1hZT4nLCAnLW9tYWUnLCAnPG91dGZpbGUubWFlPic=

> <r_lp_tautomer_probability>
1

> <r_epik_Ionization_Penalty>
3.01554e-05

> <r_epik_Ionization_Penalty_Charging>
0

> <r_epik_Ionization_Penalty_Neutral>
3.01554e-05

> <r_epik_State_Penalty>
-0

> <r_epik_Charging_Adjusted_Penalty>
0

> <i_epik_Tot_Q>
0

> <i_epik_Tot_abs_Q>
0

> <r_epik_Metal_State_Penalty>
-0

> <b_epik_Metal_Only>
0

> <s_lp_Force_Field>
OPLS_2005

> <r_lp_Energy>
13.8487

> <b_lp_Chiralities_Consistent>
1

> <s_lp_Variant>
AV-unprocessed.smi:2454-1

> <Gold.Version>
5.8.1

> <Gold.Id.Protein>
6NUR|6NUR_protein|mol2

> <Gold.PLP.Fitness>
42.1166

> <Gold.PLP.PLP>
-32.3516

> <Gold.PLP.part.hbond>
-4.4220

> <Gold.PLP.part.metal>
0.0000

> <Gold.PLP.part.buried>
-5.0095

> <Gold.PLP.part.nonpolar>
-24.9108

> <Gold.PLP.part.repulsive>
0.2080

> <Gold.PLP.ligand.clash>
0.0000

> <Gold.PLP.ligand.torsion>
0.4617

> <Gold.PLP.Chemscore.Hbond>
3.5540

> <Gold.PLP.Chemscore.CHOScore>
0.0000

> <Gold.PLP.Chemscore.Metal>
0.0000

> <Gold.Chemscore.Hbonds>
donor molecule, donor type, donor heavy atom, donor atom, acceptor molecule, acceptor atom, score
      L1  H     7    30       P1  7948  0.91
      L1  H    10    31       P1  7948  1.00
      P1  H  7997  8010       L1    23  1.00
      P1  H 10752 10765       L1    21  0.40

> <Gold.PLP.Chemscore.Internal.Correction>
0.0266

> <Gold.Rescore>
     Score         DG    S(hbond)    S(metal)    S(lipo)     H(rot)  DE(clash)    DE(int)     intcor
     13.82     -15.48       2.60        0.00      46.38       1.60       0.00       1.66       ----

> <Gold.Chemscore.Fitness>
13.8207

> <Gold.Chemscore.DG>
-15.4799

> <Gold.Chemscore.ZeroCoef>
-5.4800

> <Gold.Chemscore.Hbond>
2.5985

> <Gold.Chemscore.Metal>
0.0000

> <Gold.Chemscore.Lipo>
46.3758

> <Gold.Chemscore.Internal_Hbond>
0.0000

> <Gold.Chemscore.DEClash>
0.0000

> <Gold.Chemscore.DEInternal>
1.6592

> <Gold.Chemscore.Rot>
1.6035

> <Gold.Chemscore.Internal.Correction>
   9.000000E+99

> <Gold.Chemscore.Hbonds>
donor molecule, donor type, donor heavy atom, donor atom, acceptor molecule, acceptor atom, score
      L1  H     7    30       P1  7948  0.20
      L1  H    10    31       P1  7948  0.96
      P1  H  7997  8010       L1    23  0.73
      P1  H 10752 10765       L1    21  0.06

> <Gold.Chemscore.Hbond.Weighted>
-8.6790

> <Gold.Chemscore.Metal.Weighted>
-0.0000

> <Gold.Chemscore.Lipo.Weighted>
-5.4260

> <Gold.Chemscore.Internal_Hbond.Weighted>
0.0000

> <Gold.Chemscore.DEClash.Weighted>
0.0000

> <Gold.Chemscore.DEInternal.Weighted>
1.6592

> <Gold.Chemscore.Rot.Weighted>
4.1050

> <Gold.Chemscore.Internal.Correction.Weighted>
   9.000000E+99

> <Gold.Protein.RotatedTorsions>
[ 6907 6896 6895 6894 ] final   75.74 input  -60.11 | X-H torsion
[ 7974 7965 7964 7962 ] final  -94.03 input  175.53 | X-H torsion
[ 8008 7997 7996 7995 ] final   87.53 input   59.86 | X-H torsion
[ 10167 10162 10161 10158 ] final   31.93 input  -65.29 | X-H torsion
[ 10718 10713 10712 10709 ] final  -11.57 input   66.30 | X-H torsion
[ 10763 10752 10751 10750 ] final  156.07 input  -60.55 | X-H torsion
[ 11005 11000 10999 10996 ] final  -69.42 input  -57.11 | X-H torsion

> <Gold.Protein.ActiveResidues>
 VAL166  LYS551  ARG553  GLY616  TRP617  ASP618  TYR619  PRO620  LYS621  CYS622 
 ASP623  PHE694  ASN695  SER759  ASP760  ASP761  ALA762  ILE779  LEU786  VAL792 
 PHE793  MET794  SER795  GLU796  ALA797  LYS798  CYS799  TRP800  GLU811  SER814 

> <Gold.Protein.RotatedAtoms>
  152.5040  134.4075  159.9437 H   0  0  0  0  0  0  0  0  0  0  0  0  # atno 6907 bound_to 6896
  151.4041  133.3742  159.2743 H   0  0  0  0  0  0  0  0  0  0  0  0  # atno 6908 bound_to 6896
  150.9340  134.8775  159.7628 H   0  0  0  0  0  0  0  0  0  0  0  0  # atno 6909 bound_to 6896
  145.3787  140.9515  143.2406 H   0  0  0  0  0  0  0  0  0  0  0  0  # atno 7974 bound_to 7965
  155.9765  140.3381  155.6623 H   0  0  0  0  0  0  0  0  0  0  0  0  # atno 8008 bound_to 7997
  155.6606  140.0715  157.2573 H   0  0  0  0  0  0  0  0  0  0  0  0  # atno 8009 bound_to 7997
  154.4180  140.1709  156.1760 H   0  0  0  0  0  0  0  0  0  0  0  0  # atno 8010 bound_to 7997
  140.4544  144.1000  150.6198 H   0  0  0  0  0  0  0  0  0  0  0  0  # atno 10167 bound_to 10162
  156.6571  130.4971  149.6043 H   0  0  0  0  0  0  0  0  0  0  0  0  # atno 10718 bound_to 10713
  154.1784  135.2801  155.3059 H   0  0  0  0  0  0  0  0  0  0  0  0  # atno 10763 bound_to 10752
  154.6021  135.5526  153.7388 H   0  0  0  0  0  0  0  0  0  0  0  0  # atno 10764 bound_to 10752
  153.0145  135.6394  154.1924 H   0  0  0  0  0  0  0  0  0  0  0  0  # atno 10765 bound_to 10752
  141.1553  133.6764  156.6597 H   0  0  0  0  0  0  0  0  0  0  0  0  # atno 11005 bound_to 11000
  144.8523  139.5302  143.6850 LP  0  0  0  0  0  0  0  0  0  0  0  0  # atno 17320 bound_to 7965
  146.2852  139.6984  142.9201 LP  0  0  0  0  0  0  0  0  0  0  0  0  # atno 17321 bound_to 7965
  140.4169  143.2630  151.9764 LP  0  0  0  0  0  0  0  0  0  0  0  0  # atno 17342 bound_to 10162
  139.4799  144.5866  151.7843 LP  0  0  0  0  0  0  0  0  0  0  0  0  # atno 17343 bound_to 10162
  156.2040  130.6637  151.1198 LP  0  0  0  0  0  0  0  0  0  0  0  0  # atno 17370 bound_to 10713
  157.7122  131.0728  150.6459 LP  0  0  0  0  0  0  0  0  0  0  0  0  # atno 17371 bound_to 10713
  140.3257  134.7971  157.4287 LP  0  0  0  0  0  0  0  0  0  0  0  0  # atno 17394 bound_to 11000
  140.1059  134.5410  155.8310 LP  0  0  0  0  0  0  0  0  0  0  0  0  # atno 17395 bound_to 11000

$$$$
