AV-unprocessed.smi:1047|AV-procd|sdf|4593|dock4
  -GOLD-   22720 3 73D 1   1.00000     0.00000
 Structure written by MMmdl.
 55 57  0  0  0  0  0  0  0  0  1 V2000
  143.3195  146.1222  153.9525 C   0  0  0  0  0  0  0  0  0  0  0  0
  144.4817  145.1789  153.6112 C   0  0  0  0  0  0  0  0  0  0  0  0
  144.4553  143.8924  154.3049 N   0  0  0  0  0  0  0  0  0  0  0  0
  143.9294  144.0388  155.6573 C   0  0  0  0  0  0  0  0  0  0  0  0
  143.8983  142.6982  156.4094 C   0  0  0  0  0  0  0  0  0  0  0  0
  145.2057  142.1352  156.4266 O   0  0  0  0  0  0  0  0  0  0  0  0
  145.7349  141.9159  155.1207 C   0  0  2  0  0  0  0  0  0  0  0  0
  147.1358  141.3048  155.2674 C   0  0  0  0  0  0  0  0  0  0  0  0
  147.9105  142.0091  156.2836 N   0  0  0  0  0  0  0  0  0  0  0  0
  149.0340  141.2347  156.8008 C   0  0  0  0  0  0  0  0  0  0  0  0
  150.3439  141.6142  156.0904 C   0  0  2  0  0  0  0  0  0  0  0  0
  150.5256  140.7451  154.9884 O   0  0  0  0  0  0  0  0  0  0  0  0
  151.5591  141.4925  157.0301 C   0  0  0  0  0  0  0  0  0  0  0  0
  151.4937  142.4217  158.1441 N   0  0  0  0  0  0  0  0  0  0  0  0
  150.8059  143.5786  158.2010 C   0  0  0  0  0  0  0  0  0  0  0  0
  150.8822  144.2776  159.3299 N   0  0  0  0  0  0  0  0  0  0  0  0
  151.7175  143.4812  160.0946 C   0  0  0  0  0  0  0  0  0  0  0  0
  152.1978  143.6552  161.4110 C   0  0  0  0  0  0  0  0  0  0  0  0
  153.0558  142.7000  162.0017 C   0  0  0  0  0  0  0  0  0  0  0  0
  153.5462  142.9257  163.4212 C   0  0  0  0  0  0  0  0  0  0  0  0
  153.4478  141.5491  161.2716 C   0  0  0  0  0  0  0  0  0  0  0  0
  154.3739  140.5128  161.8833 C   0  0  0  0  0  0  0  0  0  0  0  0
  152.9744  141.3583  159.9564 C   0  0  0  0  0  0  0  0  0  0  0  0
  152.1201  142.3150  159.3806 C   0  0  0  0  0  0  0  0  0  0  0  0
  145.7736  143.2649  154.3748 C   0  0  0  0  0  0  0  0  0  0  0  0
  143.4644  147.0932  153.4788 H   0  0  0  0  0  0  0  0  0  0  0  0
  143.2494  146.2864  155.0282 H   0  0  0  0  0  0  0  0  0  0  0  0
  142.3622  145.7338  153.6059 H   0  0  0  0  0  0  0  0  0  0  0  0
  144.5164  145.0189  152.5325 H   0  0  0  0  0  0  0  0  0  0  0  0
  145.4071  145.6971  153.8666 H   0  0  0  0  0  0  0  0  0  0  0  0
  144.5390  144.7507  156.2161 H   0  0  0  0  0  0  0  0  0  0  0  0
  142.9215  144.4538  155.6200 H   0  0  0  0  0  0  0  0  0  0  0  0
  143.5597  142.8458  157.4350 H   0  0  0  0  0  0  0  0  0  0  0  0
  143.2007  142.0045  155.9374 H   0  0  0  0  0  0  0  0  0  0  0  0
  145.0893  141.2248  154.5746 H   0  0  0  0  0  0  0  0  0  0  0  0
  147.0466  140.2548  155.5486 H   0  0  0  0  0  0  0  0  0  0  0  0
  147.6508  141.3289  154.3060 H   0  0  0  0  0  0  0  0  0  0  0  0
  148.2492  142.8882  155.9045 H   0  0  0  0  0  0  0  0  0  0  0  0
  149.1338  141.4317  157.8689 H   0  0  0  0  0  0  0  0  0  0  0  0
  148.8465  140.1645  156.7009 H   0  0  0  0  0  0  0  0  0  0  0  0
  150.2837  142.6400  155.7227 H   0  0  0  0  0  0  0  0  0  0  0  0
  149.8623  140.0731  155.0230 H   0  0  0  0  0  0  0  0  0  0  0  0
  151.6216  140.4819  157.4357 H   0  0  0  0  0  0  0  0  0  0  0  0
  152.4868  141.6663  156.4828 H   0  0  0  0  0  0  0  0  0  0  0  0
  150.2121  143.9252  157.3678 H   0  0  0  0  0  0  0  0  0  0  0  0
  151.8997  144.5325  161.9660 H   0  0  0  0  0  0  0  0  0  0  0  0
  154.6330  143.0089  163.4407 H   0  0  0  0  0  0  0  0  0  0  0  0
  153.2497  142.0968  164.0644 H   0  0  0  0  0  0  0  0  0  0  0  0
  153.1328  143.8413  163.8449 H   0  0  0  0  0  0  0  0  0  0  0  0
  154.5931  139.7102  161.1786 H   0  0  0  0  0  0  0  0  0  0  0  0
  153.9185  140.0677  162.7682 H   0  0  0  0  0  0  0  0  0  0  0  0
  155.3202  140.9703  162.1732 H   0  0  0  0  0  0  0  0  0  0  0  0
  153.2617  140.4850  159.3898 H   0  0  0  0  0  0  0  0  0  0  0  0
  146.1623  143.0958  153.3710 H   0  0  0  0  0  0  0  0  0  0  0  0
  146.4757  143.9358  154.8729 H   0  0  0  0  0  0  0  0  0  0  0  0
  1  2  1  0  0  0  0
  1 26  1  0  0  0  0
  1 27  1  0  0  0  0
  1 28  1  0  0  0  0
  2  3  1  0  0  0  0
  2 29  1  0  0  0  0
  2 30  1  0  0  0  0
  3 25  1  0  0  0  0
  3  4  1  0  0  0  0
  4  5  1  0  0  0  0
  4 31  1  0  0  0  0
  4 32  1  0  0  0  0
  5  6  1  0  0  0  0
  5 33  1  0  0  0  0
  5 34  1  0  0  0  0
  6  7  1  0  0  0  0
  7  8  1  0  0  0  0
  7 25  1  0  0  0  0
  7 35  1  0  0  0  0
  8  9  1  0  0  0  0
  8 36  1  0  0  0  0
  8 37  1  0  0  0  0
  9 10  1  0  0  0  0
  9 38  1  0  0  0  0
 10 11  1  0  0  0  0
 10 39  1  0  0  0  0
 10 40  1  0  0  0  0
 11 12  1  0  0  0  0
 11 13  1  0  0  0  0
 11 41  1  0  0  0  0
 12 42  1  0  0  0  0
 13 14  1  0  0  0  0
 13 43  1  0  0  0  0
 13 44  1  0  0  0  0
 14 24  1  0  0  0  0
 14 15  1  0  0  0  0
 15 16  2  0  0  0  0
 15 45  1  0  0  0  0
 16 17  1  0  0  0  0
 17 24  2  0  0  0  0
 17 18  1  0  0  0  0
 18 19  2  0  0  0  0
 18 46  1  0  0  0  0
 19 20  1  0  0  0  0
 19 21  1  0  0  0  0
 20 47  1  0  0  0  0
 20 48  1  0  0  0  0
 20 49  1  0  0  0  0
 21 22  1  0  0  0  0
 21 23  2  0  0  0  0
 22 50  1  0  0  0  0
 22 51  1  0  0  0  0
 22 52  1  0  0  0  0
 23 24  1  0  0  0  0
 23 53  1  0  0  0  0
 25 54  1  0  0  0  0
 25 55  1  0  0  0  0
M  END
> <s_m_source_file>
AV-unprocessed.smi

> <i_m_source_file_index>
1047

> <i_lp_mmshare_version>
43012

> <i_f3d_flags>
0

> <s_epik_input>
W0NIM11bQ0gyXU4xW0NIMl1bQ0gyXU9bQ0BIXShbQ0gyXTEpW0NIMl1bTkhdW0NIMl1bQ0BIXShbT0hdKVtDSDJdbihbY0hdbjIpYyhjMjMpW2NIXWMoW0NIM10pYyhbY0hdMylbQ0gzXQ==

> <s_epik_cmdline>
J2VwaWtfcHl0aG9uJywgJy1waCcsICc3LjAnLCAnLXRuJywgJzgnLCAnLW1hJywgJzIwMCcsICctbWV0YWxfYmluZGluZycsICctaW1hZScsICc8aW5maWxlLm1hZT4nLCAnLW9tYWUnLCAnPG91dGZpbGUubWFlPic=

> <r_epik_Ionization_Penalty>
2.74124

> <r_epik_Ionization_Penalty_Charging>
0

> <r_epik_Ionization_Penalty_Neutral>
2.74124

> <r_epik_State_Penalty>
2.37482

> <r_epik_Charging_Adjusted_Penalty>
2.37482

> <i_epik_Tot_Q>
0

> <i_epik_Tot_abs_Q>
0

> <r_epik_Metal_State_Penalty>
2.25944

> <b_epik_Metal_Only>
0

> <s_lp_Force_Field>
OPLS_2005

> <r_lp_Energy>
33.9666

> <b_lp_Chiralities_Consistent>
1

> <s_lp_Variant>
AV-unprocessed.smi:1047-34

> <Gold.Version>
5.8.1

> <Gold.Id.Protein>
6NUR|6NUR_protein|mol2

> <Gold.PLP.Fitness>
59.0706

> <Gold.PLP.PLP>
-53.4192

> <Gold.PLP.part.hbond>
-2.0000

> <Gold.PLP.part.metal>
0.0000

> <Gold.PLP.part.buried>
-7.7270

> <Gold.PLP.part.nonpolar>
-44.0857

> <Gold.PLP.part.repulsive>
0.3413

> <Gold.PLP.ligand.clash>
0.0000

> <Gold.PLP.ligand.torsion>
1.4738

> <Gold.PLP.Chemscore.Hbond>
1.8320

> <Gold.PLP.Chemscore.CHOScore>
1.0000

> <Gold.PLP.Chemscore.Metal>
0.0000

> <Gold.Chemscore.Hbonds>
donor molecule, donor type, donor heavy atom, donor atom, acceptor molecule, acceptor atom, score
      L1  H     9    38       P1  8028  1.00
      P1  H  7989  7998       L1    12  0.86
      L1  C    15    45       P1  8028  1.00

> <Gold.PLP.Chemscore.Internal.Correction>
0.1030

> <Gold.Rescore>
     Score         DG    S(hbond)    S(metal)    S(lipo)     H(rot)  DE(clash)    DE(int)     intcor
     19.00     -20.52       1.66        0.00     136.40       2.52       0.32       1.21       ----

> <Gold.Chemscore.Fitness>
18.9964

> <Gold.Chemscore.DG>
-20.5227

> <Gold.Chemscore.ZeroCoef>
-5.4800

> <Gold.Chemscore.Hbond>
1.6601

> <Gold.Chemscore.Metal>
0.0000

> <Gold.Chemscore.Lipo>
136.3992

> <Gold.Chemscore.Internal_Hbond>
0.0000

> <Gold.Chemscore.DEClash>
0.3177

> <Gold.Chemscore.DEInternal>
1.2086

> <Gold.Chemscore.Rot>
2.5237

> <Gold.Chemscore.Internal.Correction>
   9.000000E+99

> <Gold.Chemscore.Hbonds>
donor molecule, donor type, donor heavy atom, donor atom, acceptor molecule, acceptor atom, score
      L1  H     9    38       P1  8028  0.90
      P1  H  7989  7998       L1    12  0.83

> <Gold.Chemscore.Hbond.Weighted>
-5.5447

> <Gold.Chemscore.Metal.Weighted>
-0.0000

> <Gold.Chemscore.Lipo.Weighted>
-15.9587

> <Gold.Chemscore.Internal_Hbond.Weighted>
0.0000

> <Gold.Chemscore.DEClash.Weighted>
0.3177

> <Gold.Chemscore.DEInternal.Weighted>
1.2086

> <Gold.Chemscore.Rot.Weighted>
6.4607

> <Gold.Chemscore.Internal.Correction.Weighted>
   9.000000E+99

> <Gold.Protein.RotatedTorsions>
[ 6907 6896 6895 6894 ] final  133.85 input  -60.11 | X-H torsion
[ 7974 7965 7964 7962 ] final   22.06 input  175.53 | X-H torsion
[ 8008 7997 7996 7995 ] final   70.93 input   59.86 | X-H torsion
[ 10167 10162 10161 10158 ] final   20.94 input  -65.29 | X-H torsion
[ 10718 10713 10712 10709 ] final -118.03 input   66.30 | X-H torsion
[ 10763 10752 10751 10750 ] final  161.14 input  -60.55 | X-H torsion
[ 11005 11000 10999 10996 ] final   33.56 input  -57.11 | X-H torsion

> <Gold.Protein.ActiveResidues>
 VAL166  LYS551  ARG553  GLY616  TRP617  ASP618  TYR619  PRO620  LYS621  CYS622 
 ASP623  PHE694  ASN695  SER759  ASP760  ASP761  ALA762  ILE779  LEU786  VAL792 
 PHE793  MET794  SER795  GLU796  ALA797  LYS798  CYS799  TRP800  GLU811  SER814 

> <Gold.Protein.RotatedAtoms>
  152.3176  133.5819  159.5722 H   0  0  0  0  0  0  0  0  0  0  0  0  # atno 6907 bound_to 6896
  150.7354  134.0060  159.3662 H   0  0  0  0  0  0  0  0  0  0  0  0  # atno 6908 bound_to 6896
  151.7947  135.0726  160.0443 H   0  0  0  0  0  0  0  0  0  0  0  0  # atno 6909 bound_to 6896
  146.2045  139.7938  142.8736 H   0  0  0  0  0  0  0  0  0  0  0  0  # atno 7974 bound_to 7965
  155.7462  140.3489  155.5128 H   0  0  0  0  0  0  0  0  0  0  0  0  # atno 8008 bound_to 7997
  155.9048  140.1040  157.1345 H   0  0  0  0  0  0  0  0  0  0  0  0  # atno 8009 bound_to 7997
  154.4048  140.1279  156.4468 H   0  0  0  0  0  0  0  0  0  0  0  0  # atno 8010 bound_to 7997
  140.5465  143.9586  150.6551 H   0  0  0  0  0  0  0  0  0  0  0  0  # atno 10167 bound_to 10162
  156.1077  130.6223  150.9239 H   0  0  0  0  0  0  0  0  0  0  0  0  # atno 10718 bound_to 10713
  154.2582  135.2769  155.2789 H   0  0  0  0  0  0  0  0  0  0  0  0  # atno 10763 bound_to 10752
  154.5406  135.5703  153.6839 H   0  0  0  0  0  0  0  0  0  0  0  0  # atno 10764 bound_to 10752
  152.9967  135.6250  154.2732 H   0  0  0  0  0  0  0  0  0  0  0  0  # atno 10765 bound_to 10752
  140.2619  134.3183  155.7855 H   0  0  0  0  0  0  0  0  0  0  0  0  # atno 11005 bound_to 11000
  145.3369  141.0279  143.3414 LP  0  0  0  0  0  0  0  0  0  0  0  0  # atno 17320 bound_to 7965
  144.8759  139.4972  143.6746 LP  0  0  0  0  0  0  0  0  0  0  0  0  # atno 17321 bound_to 7965
  140.3000  143.3267  152.0981 LP  0  0  0  0  0  0  0  0  0  0  0  0  # atno 17342 bound_to 10162
  139.5009  144.6703  151.6259 LP  0  0  0  0  0  0  0  0  0  0  0  0  # atno 17343 bound_to 10162
  157.6255  131.0926  150.8542 LP  0  0  0  0  0  0  0  0  0  0  0  0  # atno 17370 bound_to 10713
  156.8658  130.5129  149.5300 LP  0  0  0  0  0  0  0  0  0  0  0  0  # atno 17371 bound_to 10713
  141.2189  133.7414  156.9199 LP  0  0  0  0  0  0  0  0  0  0  0  0  # atno 17394 bound_to 11000
  140.1457  134.9264  157.2526 LP  0  0  0  0  0  0  0  0  0  0  0  0  # atno 17395 bound_to 11000

$$$$
