AV-unprocessed.smi:2448|AV-procd|sdf|9654|dock1
  -GOLD-   2272013283D 1   1.00000     0.00000
 Structure written by MMmdl.
 37 38  0  0  0  0  0  0  0  0  1 V2000
  147.8293  138.5648  152.5055 O   0  0  0  0  0  0  0  0  0  0  0  0
  146.9761  138.6712  153.6317 C   0  0  2  0  0  0  0  0  0  0  0  0
  145.9765  137.4979  153.5977 C   0  0  0  0  0  0  0  0  0  0  0  0
  145.1925  137.4775  152.3593 N   0  0  0  0  0  0  0  0  0  0  0  0
  144.3239  136.3069  152.1691 C   0  0  1  0  0  0  0  0  0  0  0  0
  144.9678  135.0014  152.7036 C   0  0  0  0  0  0  0  0  0  0  0  0
  145.0614  133.8676  151.6983 C   0  0  0  0  0  0  0  0  0  0  0  0
  146.3021  133.2643  151.4064 C   0  0  0  0  0  0  0  0  0  0  0  0
  146.3332  132.2092  150.4725 C   0  0  0  0  0  0  0  0  0  0  0  0
  145.2337  131.7457  149.8402 N   0  0  0  0  0  0  0  0  0  0  0  0
  144.0500  132.3323  150.1194 C   0  0  0  0  0  0  0  0  0  0  0  0
  143.9095  133.3946  151.0346 C   0  0  0  0  0  0  0  0  0  0  0  0
  142.9614  136.5625  152.8476 C   0  0  0  0  0  0  0  0  0  0  0  0
  143.1308  136.7055  154.1626 F   0  0  0  0  0  0  0  0  0  0  0  0
  142.4131  137.6830  152.3774 F   0  0  0  0  0  0  0  0  0  0  0  0
  142.1250  135.5467  152.6299 F   0  0  0  0  0  0  0  0  0  0  0  0
  146.3062  140.0570  153.6531 C   0  0  0  0  0  0  0  0  0  0  0  0
  147.3688  141.0875  154.0469 C   0  0  0  0  0  0  0  0  0  0  0  0
  148.5110  140.2858  155.1996 S   0  0  0  0  0  0  0  0  0  0  0  0
  147.8566  138.6232  154.8926 C   0  0  0  0  0  0  0  0  0  0  0  0
  148.5160  139.2085  152.5885 H   0  0  0  0  0  0  0  0  0  0  0  0
  146.5114  136.5546  153.7162 H   0  0  0  0  0  0  0  0  0  0  0  0
  145.3240  137.5846  154.4620 H   0  0  0  0  0  0  0  0  0  0  0  0
  145.8243  137.5525  151.5682 H   0  0  0  0  0  0  0  0  0  0  0  0
  144.1161  136.1850  151.1050 H   0  0  0  0  0  0  0  0  0  0  0  0
  145.9589  135.2149  153.1065 H   0  0  0  0  0  0  0  0  0  0  0  0
  144.3850  134.6230  153.5433 H   0  0  0  0  0  0  0  0  0  0  0  0
  147.2098  133.5979  151.8876 H   0  0  0  0  0  0  0  0  0  0  0  0
  147.2666  131.7242  150.2279 H   0  0  0  0  0  0  0  0  0  0  0  0
  143.1876  131.9429  149.5990 H   0  0  0  0  0  0  0  0  0  0  0  0
  142.9381  133.8258  151.2271 H   0  0  0  0  0  0  0  0  0  0  0  0
  145.8395  140.3103  152.7005 H   0  0  0  0  0  0  0  0  0  0  0  0
  145.5149  140.0608  154.4044 H   0  0  0  0  0  0  0  0  0  0  0  0
  147.9356  141.3952  153.1678 H   0  0  0  0  0  0  0  0  0  0  0  0
  146.9297  141.9822  154.4883 H   0  0  0  0  0  0  0  0  0  0  0  0
  147.2530  138.3550  155.7607 H   0  0  0  0  0  0  0  0  0  0  0  0
  148.6605  137.8895  154.8208 H   0  0  0  0  0  0  0  0  0  0  0  0
  1  2  1  0  0  0  0
  1 21  1  0  0  0  0
  2 20  1  0  0  0  0
  2  3  1  0  0  0  0
  2 17  1  0  0  0  0
  3  4  1  0  0  0  0
  3 22  1  0  0  0  0
  3 23  1  0  0  0  0
  4  5  1  0  0  0  0
  4 24  1  0  0  0  0
  5  6  1  0  0  0  0
  5 13  1  0  0  0  0
  5 25  1  0  0  0  0
  6  7  1  0  0  0  0
  6 26  1  0  0  0  0
  6 27  1  0  0  0  0
  7 12  1  0  0  0  0
  7  8  2  0  0  0  0
  8  9  1  0  0  0  0
  8 28  1  0  0  0  0
  9 10  2  0  0  0  0
  9 29  1  0  0  0  0
 10 11  1  0  0  0  0
 11 12  2  0  0  0  0
 11 30  1  0  0  0  0
 12 31  1  0  0  0  0
 13 14  1  0  0  0  0
 13 15  1  0  0  0  0
 13 16  1  0  0  0  0
 17 18  1  0  0  0  0
 17 32  1  0  0  0  0
 17 33  1  0  0  0  0
 18 19  1  0  0  0  0
 18 34  1  0  0  0  0
 18 35  1  0  0  0  0
 19 20  1  0  0  0  0
 20 36  1  0  0  0  0
 20 37  1  0  0  0  0
M  END
> <s_m_source_file>
AV-unprocessed.smi

> <i_m_source_file_index>
2448

> <i_lp_mmshare_version>
43012

> <i_f3d_flags>
0

> <s_epik_input>
W0NIMl0xU1tDSDJdW0NIMl1bQ0BAXTEoW09IXSlbQ0gyXVtOSF1bQ0BASF0oQyhGKShGKUYpW0NIMl1jMltjSF1bY0hdbltjSF1bY0hdMg==

> <s_epik_cmdline>
J2VwaWtfcHl0aG9uJywgJy1waCcsICc3LjAnLCAnLXRuJywgJzgnLCAnLW1hJywgJzIwMCcsICctbWV0YWxfYmluZGluZycsICctaW1hZScsICc8aW5maWxlLm1hZT4nLCAnLW9tYWUnLCAnPG91dGZpbGUubWFlPic=

> <r_epik_Ionization_Penalty>
0.187708

> <r_epik_Ionization_Penalty_Charging>
0

> <r_epik_Ionization_Penalty_Neutral>
0.187708

> <r_epik_State_Penalty>
0.22769

> <r_epik_Charging_Adjusted_Penalty>
0.22769

> <i_epik_Tot_Q>
0

> <i_epik_Tot_abs_Q>
0

> <r_epik_Metal_State_Penalty>
0.176206

> <b_epik_Metal_Only>
0

> <s_lp_Force_Field>
OPLS_2005

> <r_lp_Energy>
32.1686

> <b_lp_Chiralities_Consistent>
1

> <s_lp_Variant>
AV-unprocessed.smi:2448-4

> <Gold.Version>
5.8.1

> <Gold.Id.Protein>
6NUR|6NUR_protein|mol2

> <Gold.PLP.Fitness>
45.4868

> <Gold.PLP.PLP>
-36.5824

> <Gold.PLP.part.hbond>
-4.4317

> <Gold.PLP.part.metal>
0.0000

> <Gold.PLP.part.buried>
-3.3779

> <Gold.PLP.part.nonpolar>
-30.1054

> <Gold.PLP.part.repulsive>
0.1545

> <Gold.PLP.ligand.clash>
0.0000

> <Gold.PLP.ligand.torsion>
1.0576

> <Gold.PLP.Chemscore.Hbond>
1.4633

> <Gold.PLP.Chemscore.CHOScore>
2.0000

> <Gold.PLP.Chemscore.Metal>
0.0000

> <Gold.Chemscore.Hbonds>
donor molecule, donor type, donor heavy atom, donor atom, acceptor molecule, acceptor atom, score
      L1  H     1    21       P1  7957  0.54
      L1  C     9    29       P1 10747  0.70
      L1  C    11    30       P1 10952  0.19

> <Gold.PLP.Chemscore.Internal.Correction>
0.6297

> <Gold.Rescore>
     Score         DG    S(hbond)    S(metal)    S(lipo)     H(rot)  DE(clash)    DE(int)     intcor
     10.13     -11.91       0.99        0.00      77.32       2.31       0.23       1.55       ----

> <Gold.Chemscore.Fitness>
10.1274

> <Gold.Chemscore.DG>
-11.9068

> <Gold.Chemscore.ZeroCoef>
-5.4800

> <Gold.Chemscore.Hbond>
0.9872

> <Gold.Chemscore.Metal>
0.0000

> <Gold.Chemscore.Lipo>
77.3150

> <Gold.Chemscore.Internal_Hbond>
0.0000

> <Gold.Chemscore.DEClash>
0.2339

> <Gold.Chemscore.DEInternal>
1.5455

> <Gold.Chemscore.Rot>
2.3111

> <Gold.Chemscore.Internal.Correction>
   9.000000E+99

> <Gold.Chemscore.Hbonds>
donor molecule, donor type, donor heavy atom, donor atom, acceptor molecule, acceptor atom, score
      L1  H     1    21       P1  7957  0.53

> <Gold.Chemscore.Hbond.Weighted>
-3.2973

> <Gold.Chemscore.Metal.Weighted>
-0.0000

> <Gold.Chemscore.Lipo.Weighted>
-9.0459

> <Gold.Chemscore.Internal_Hbond.Weighted>
0.0000

> <Gold.Chemscore.DEClash.Weighted>
0.2339

> <Gold.Chemscore.DEInternal.Weighted>
1.5455

> <Gold.Chemscore.Rot.Weighted>
5.9164

> <Gold.Chemscore.Internal.Correction.Weighted>
   9.000000E+99

> <Gold.Protein.RotatedTorsions>
[ 6907 6896 6895 6894 ] final  -61.92 input  -60.11 | X-H torsion
[ 7974 7965 7964 7962 ] final  -72.88 input  175.53 | X-H torsion
[ 8008 7997 7996 7995 ] final   23.63 input   59.86 | X-H torsion
[ 10167 10162 10161 10158 ] final  137.62 input  -65.29 | X-H torsion
[ 10718 10713 10712 10709 ] final   20.48 input   66.30 | X-H torsion
[ 10763 10752 10751 10750 ] final  114.93 input  -60.55 | X-H torsion
[ 11005 11000 10999 10996 ] final  -29.43 input  -57.11 | X-H torsion

> <Gold.Protein.ActiveResidues>
 VAL166  LYS551  ARG553  GLY616  TRP617  ASP618  TYR619  PRO620  LYS621  CYS622 
 ASP623  PHE694  ASN695  SER759  ASP760  ASP761  ALA762  ILE779  LEU786  VAL792 
 PHE793  MET794  SER795  GLU796  ALA797  LYS798  CYS799  TRP800  GLU811  SER814 

> <Gold.Protein.RotatedAtoms>
  150.7751  134.6640  159.6354 H   0  0  0  0  0  0  0  0  0  0  0  0  # atno 6907 bound_to 6896
  152.3818  134.6575  160.0149 H   0  0  0  0  0  0  0  0  0  0  0  0  # atno 6908 bound_to 6896
  151.6903  133.3274  159.3277 H   0  0  0  0  0  0  0  0  0  0  0  0  # atno 6909 bound_to 6896
  145.6594  140.9257  143.0942 H   0  0  0  0  0  0  0  0  0  0  0  0  # atno 7974 bound_to 7965
  154.9839  140.3105  155.4935 H   0  0  0  0  0  0  0  0  0  0  0  0  # atno 8008 bound_to 7997
  156.2949  140.2261  156.4879 H   0  0  0  0  0  0  0  0  0  0  0  0  # atno 8009 bound_to 7997
  154.7765  140.0449  157.1081 H   0  0  0  0  0  0  0  0  0  0  0  0  # atno 8010 bound_to 7997
  139.5138  144.6400  151.5595 H   0  0  0  0  0  0  0  0  0  0  0  0  # atno 10167 bound_to 10162
  157.1251  130.6566  149.5935 H   0  0  0  0  0  0  0  0  0  0  0  0  # atno 10718 bound_to 10713
  153.5146  135.3610  155.2603 H   0  0  0  0  0  0  0  0  0  0  0  0  # atno 10763 bound_to 10752
  154.8739  135.4031  154.3329 H   0  0  0  0  0  0  0  0  0  0  0  0  # atno 10764 bound_to 10752
  153.3988  135.7074  153.6508 H   0  0  0  0  0  0  0  0  0  0  0  0  # atno 10765 bound_to 10752
  140.9295  133.7347  156.0916 H   0  0  0  0  0  0  0  0  0  0  0  0  # atno 11005 bound_to 11000
  144.7094  139.8430  143.7419 LP  0  0  0  0  0  0  0  0  0  0  0  0  # atno 17320 bound_to 7965
  146.1137  139.4146  143.0271 LP  0  0  0  0  0  0  0  0  0  0  0  0  # atno 17321 bound_to 7965
  140.6163  143.9343  150.6491 LP  0  0  0  0  0  0  0  0  0  0  0  0  # atno 17342 bound_to 10162
  140.2602  143.3530  152.1330 LP  0  0  0  0  0  0  0  0  0  0  0  0  # atno 17343 bound_to 10162
  155.9820  130.4831  150.6858 LP  0  0  0  0  0  0  0  0  0  0  0  0  # atno 17370 bound_to 10713
  157.4442  131.0865  151.0912 LP  0  0  0  0  0  0  0  0  0  0  0  0  # atno 17371 bound_to 10713
  140.7881  134.3649  157.5471 LP  0  0  0  0  0  0  0  0  0  0  0  0  # atno 17394 bound_to 11000
  139.8793  134.9123  156.3057 LP  0  0  0  0  0  0  0  0  0  0  0  0  # atno 17395 bound_to 11000

$$$$
