AV-unprocessed.smi:239|AV-procd|sdf|1821|dock7
  -GOLD-   2262020413D 1   1.00000     0.00000
 Structure written by MMmdl.
 54 58  0  0  0  0  0  0  0  0  1 V2000
  154.3433  140.1648  161.3047 C   0  0  0  0  0  0  0  0  0  0  0  0
  153.9411  140.6477  159.9072 C   0  0  1  0  0  0  0  0  0  0  0  0
  153.4229  139.4973  159.0255 C   0  0  0  0  0  0  0  0  0  0  0  0
  152.9469  140.0167  157.7461 N   0  0  0  0  0  0  0  0  0  0  0  0
  152.6848  139.1277  156.7537 C   0  0  0  0  0  0  0  0  0  0  0  0
  153.4198  139.1526  155.6092 N   0  0  0  0  0  0  0  0  0  0  0  0
  153.1765  138.2776  154.6293 C   0  0  0  0  0  0  0  0  0  0  0  0
  152.2577  137.3118  154.5825 N   0  0  0  0  0  0  0  0  0  0  0  0
  151.5082  137.2871  155.7213 C   0  0  0  0  0  0  0  0  0  0  0  0
  151.6551  138.1480  156.8462 C   0  0  0  0  0  0  0  0  0  0  0  0
  150.7085  137.8253  157.8121 N   0  0  0  0  0  0  0  0  0  0  0  0
  150.0502  136.8248  157.2938 C   0  0  0  0  0  0  0  0  0  0  0  0
  150.4568  136.4434  156.0352 N   0  0  0  0  0  0  0  0  0  0  0  0
  149.8977  135.3713  155.2251 C   0  0  0  0  0  0  0  0  0  0  0  0
  150.0698  133.9591  155.8389 C   0  0  0  0  0  0  0  0  0  0  0  0
  149.4583  133.0280  154.9632 O   0  0  0  0  0  0  0  0  0  0  0  0
  151.5660  133.6044  155.9569 C   0  0  0  0  0  0  0  0  0  0  0  0
  151.7926  132.2853  156.7170 C   0  0  0  0  0  0  0  0  0  0  0  0
  151.1750  132.3501  157.9966 O   0  0  0  0  0  0  0  0  0  0  0  0
  149.7629  132.4997  157.9181 C   0  0  0  0  0  0  0  0  0  0  0  0
  149.4075  133.8288  157.2280 C   0  0  0  0  0  0  0  0  0  0  0  0
  151.9651  141.0861  157.8937 C   0  0  0  0  0  0  0  0  0  0  0  0
  152.5192  142.1973  158.8041 C   0  0  1  0  0  0  0  0  0  0  0  0
  151.4960  143.2992  159.0233 C   0  0  0  0  0  0  0  0  0  0  0  0
  151.4606  144.5268  158.1380 C   0  0  0  0  0  0  0  0  0  0  0  0
  151.9011  144.6498  159.5740 C   0  0  0  0  0  0  0  0  0  0  0  0
  152.9126  141.6229  160.0502 O   0  0  0  0  0  0  0  0  0  0  0  0
  155.1376  139.4203  161.2490 H   0  0  0  0  0  0  0  0  0  0  0  0
  153.4976  139.7136  161.8247 H   0  0  0  0  0  0  0  0  0  0  0  0
  154.7059  140.9931  161.9139 H   0  0  0  0  0  0  0  0  0  0  0  0
  154.8099  141.1101  159.4353 H   0  0  0  0  0  0  0  0  0  0  0  0
  154.2221  138.7730  158.8612 H   0  0  0  0  0  0  0  0  0  0  0  0
  152.6078  138.9763  159.5303 H   0  0  0  0  0  0  0  0  0  0  0  0
  153.8089  138.3636  153.7581 H   0  0  0  0  0  0  0  0  0  0  0  0
  149.2371  136.3405  157.8147 H   0  0  0  0  0  0  0  0  0  0  0  0
  148.8409  135.5844  155.0577 H   0  0  0  0  0  0  0  0  0  0  0  0
  150.3720  135.4116  154.2436 H   0  0  0  0  0  0  0  0  0  0  0  0
  148.6741  132.6983  155.3746 H   0  0  0  0  0  0  0  0  0  0  0  0
  152.0266  133.5510  154.9696 H   0  0  0  0  0  0  0  0  0  0  0  0
  152.0843  134.4016  156.4915 H   0  0  0  0  0  0  0  0  0  0  0  0
  151.4058  131.4337  156.1556 H   0  0  0  0  0  0  0  0  0  0  0  0
  152.8604  132.1132  156.8523 H   0  0  0  0  0  0  0  0  0  0  0  0
  149.3246  131.6523  157.3885 H   0  0  0  0  0  0  0  0  0  0  0  0
  149.3528  132.4842  158.9280 H   0  0  0  0  0  0  0  0  0  0  0  0
  149.7427  134.6494  157.8636 H   0  0  0  0  0  0  0  0  0  0  0  0
  148.3235  133.9205  157.1538 H   0  0  0  0  0  0  0  0  0  0  0  0
  151.6908  141.5118  156.9293 H   0  0  0  0  0  0  0  0  0  0  0  0
  151.0535  140.6694  158.3247 H   0  0  0  0  0  0  0  0  0  0  0  0
  153.3922  142.6534  158.3338 H   0  0  0  0  0  0  0  0  0  0  0  0
  150.5261  142.9287  159.3503 H   0  0  0  0  0  0  0  0  0  0  0  0
  152.2239  144.6282  157.3690 H   0  0  0  0  0  0  0  0  0  0  0  0
  150.4830  144.9264  157.8762 H   0  0  0  0  0  0  0  0  0  0  0  0
  151.2175  145.1307  160.2708 H   0  0  0  0  0  0  0  0  0  0  0  0
  152.9576  144.8300  159.7621 H   0  0  0  0  0  0  0  0  0  0  0  0
  1  2  1  0  0  0  0
  1 28  1  0  0  0  0
  1 29  1  0  0  0  0
  1 30  1  0  0  0  0
  2 27  1  0  0  0  0
  2  3  1  0  0  0  0
  2 31  1  0  0  0  0
  3  4  1  0  0  0  0
  3 32  1  0  0  0  0
  3 33  1  0  0  0  0
  4  5  1  0  0  0  0
  4 22  1  0  0  0  0
  5 10  1  0  0  0  0
  5  6  2  0  0  0  0
  6  7  1  0  0  0  0
  7  8  2  0  0  0  0
  7 34  1  0  0  0  0
  8  9  1  0  0  0  0
  9 13  1  0  0  0  0
  9 10  2  0  0  0  0
 10 11  1  0  0  0  0
 11 12  2  0  0  0  0
 12 13  1  0  0  0  0
 12 35  1  0  0  0  0
 13 14  1  0  0  0  0
 14 15  1  0  0  0  0
 14 36  1  0  0  0  0
 14 37  1  0  0  0  0
 15 21  1  0  0  0  0
 15 16  1  0  0  0  0
 15 17  1  0  0  0  0
 16 38  1  0  0  0  0
 17 18  1  0  0  0  0
 17 39  1  0  0  0  0
 17 40  1  0  0  0  0
 18 19  1  0  0  0  0
 18 41  1  0  0  0  0
 18 42  1  0  0  0  0
 19 20  1  0  0  0  0
 20 21  1  0  0  0  0
 20 43  1  0  0  0  0
 20 44  1  0  0  0  0
 21 45  1  0  0  0  0
 21 46  1  0  0  0  0
 22 23  1  0  0  0  0
 22 47  1  0  0  0  0
 22 48  1  0  0  0  0
 23 24  1  0  0  0  0
 23 27  1  0  0  0  0
 23 49  1  0  0  0  0
 24 26  1  0  0  0  0
 24 25  1  0  0  0  0
 24 50  1  0  0  0  0
 25 26  1  0  0  0  0
 25 51  1  0  0  0  0
 25 52  1  0  0  0  0
 26 53  1  0  0  0  0
 26 54  1  0  0  0  0
M  END
> <s_m_source_file>
AV-unprocessed.smi

> <i_m_source_file_index>
239

> <i_lp_mmshare_version>
43012

> <i_f3d_flags>
0

> <s_epik_input>
W0NIMl0xW0NIMl1bQ0hdMVtDQEBIXShPMilbQ0gyXU4oW0NIMl1bQ0BIXTJbQ0gzXSljKG5bY0hdbjMpYyhjMzQpbltjSF1uNFtDSDJdQzUoW09IXSlbQ0gyXVtDSDJdT1tDSDJdW0NIMl01

> <s_epik_cmdline>
J2VwaWtfcHl0aG9uJywgJy1waCcsICc3LjAnLCAnLXRuJywgJzgnLCAnLW1hJywgJzIwMCcsICctbWV0YWxfYmluZGluZycsICctaW1hZScsICc8aW5maWxlLm1hZT4nLCAnLW9tYWUnLCAnPG91dGZpbGUubWFlPic=

> <r_lp_tautomer_probability>
1

> <r_epik_Ionization_Penalty>
9.13091e-05

> <r_epik_Ionization_Penalty_Charging>
0

> <r_epik_Ionization_Penalty_Neutral>
9.13091e-05

> <r_epik_State_Penalty>
-0

> <r_epik_Charging_Adjusted_Penalty>
0

> <i_epik_Tot_Q>
0

> <i_epik_Tot_abs_Q>
0

> <r_epik_Metal_State_Penalty>
-0

> <b_epik_Metal_Only>
0

> <s_lp_Force_Field>
OPLS_2005

> <r_lp_Energy>
35.8814

> <b_lp_Chiralities_Consistent>
1

> <s_lp_Variant>
AV-unprocessed.smi:239-2

> <Gold.Version>
5.8.1

> <Gold.Id.Protein>
6NUR|6NUR_protein|mol2

> <Gold.PLP.Fitness>
49.8855

> <Gold.PLP.PLP>
-41.3817

> <Gold.PLP.part.hbond>
-4.0000

> <Gold.PLP.part.metal>
0.0000

> <Gold.PLP.part.buried>
-5.9237

> <Gold.PLP.part.nonpolar>
-31.4315

> <Gold.PLP.part.repulsive>
0.1308

> <Gold.PLP.ligand.clash>
0.0000

> <Gold.PLP.ligand.torsion>
0.7530

> <Gold.PLP.Chemscore.Hbond>
2.8746

> <Gold.PLP.Chemscore.CHOScore>
0.0000

> <Gold.PLP.Chemscore.Metal>
0.0000

> <Gold.Chemscore.Hbonds>
donor molecule, donor type, donor heavy atom, donor atom, acceptor molecule, acceptor atom, score
      P1  H  6896  6908       L1    19  0.70
      P1  H  7997  8010       L1     6  0.89
      P1  H 10752 10765       L1     8  0.77

> <Gold.PLP.Chemscore.Internal.Correction>
1.3858

> <Gold.Rescore>
     Score         DG    S(hbond)    S(metal)    S(lipo)     H(rot)  DE(clash)    DE(int)     intcor
     17.85     -18.69       2.05        0.00     103.48       2.24       0.01       0.83       ----

> <Gold.Chemscore.Fitness>
17.8533

> <Gold.Chemscore.DG>
-18.6916

> <Gold.Chemscore.ZeroCoef>
-5.4800

> <Gold.Chemscore.Hbond>
2.0464

> <Gold.Chemscore.Metal>
0.0000

> <Gold.Chemscore.Lipo>
103.4846

> <Gold.Chemscore.Internal_Hbond>
0.0000

> <Gold.Chemscore.DEClash>
0.0115

> <Gold.Chemscore.DEInternal>
0.8268

> <Gold.Chemscore.Rot>
2.2387

> <Gold.Chemscore.Internal.Correction>
   9.000000E+99

> <Gold.Chemscore.Hbonds>
donor molecule, donor type, donor heavy atom, donor atom, acceptor molecule, acceptor atom, score
      P1  H  6896  6908       L1    19  0.07
      P1  H  7997  8010       L1     6  0.32
      P1  H 10752 10765       L1     8  0.38

> <Gold.Chemscore.Hbond.Weighted>
-6.8350

> <Gold.Chemscore.Metal.Weighted>
-0.0000

> <Gold.Chemscore.Lipo.Weighted>
-12.1077

> <Gold.Chemscore.Internal_Hbond.Weighted>
0.0000

> <Gold.Chemscore.DEClash.Weighted>
0.0115

> <Gold.Chemscore.DEInternal.Weighted>
0.8268

> <Gold.Chemscore.Rot.Weighted>
5.7311

> <Gold.Chemscore.Internal.Correction.Weighted>
   9.000000E+99

> <Gold.Protein.RotatedTorsions>
[ 6907 6896 6895 6894 ] final   79.69 input  -60.11 | X-H torsion
[ 7974 7965 7964 7962 ] final  -85.80 input  175.53 | X-H torsion
[ 8008 7997 7996 7995 ] final  104.53 input   59.86 | X-H torsion
[ 10167 10162 10161 10158 ] final    0.77 input  -65.29 | X-H torsion
[ 10718 10713 10712 10709 ] final  106.77 input   66.30 | X-H torsion
[ 10763 10752 10751 10750 ] final  170.02 input  -60.55 | X-H torsion
[ 11005 11000 10999 10996 ] final  -99.11 input  -57.11 | X-H torsion

> <Gold.Protein.ActiveResidues>
 VAL166  LYS551  ARG553  GLY616  TRP617  ASP618  TYR619  PRO620  LYS621  CYS622 
 ASP623  PHE694  ASN695  SER759  ASP760  ASP761  ALA762  ILE779  LEU786  VAL792 
 PHE793  MET794  SER795  GLU796  ALA797  LYS798  CYS799  TRP800  GLU811  SER814 

> <Gold.Protein.RotatedAtoms>
  152.5208  134.3472  159.9237 H   0  0  0  0  0  0  0  0  0  0  0  0  # atno 6907 bound_to 6896
  151.3422  133.3951  159.2680 H   0  0  0  0  0  0  0  0  0  0  0  0  # atno 6908 bound_to 6896
  150.9794  134.9170  159.7893 H   0  0  0  0  0  0  0  0  0  0  0  0  # atno 6909 bound_to 6896
  145.4884  140.9554  143.1826 H   0  0  0  0  0  0  0  0  0  0  0  0  # atno 7974 bound_to 7965
  156.1581  140.3146  155.8760 H   0  0  0  0  0  0  0  0  0  0  0  0  # atno 8008 bound_to 7997
  155.3838  140.0489  157.3060 H   0  0  0  0  0  0  0  0  0  0  0  0  # atno 8009 bound_to 7997
  154.5120  140.2168  155.9149 H   0  0  0  0  0  0  0  0  0  0  0  0  # atno 8010 bound_to 7997
  140.6713  143.7040  150.7930 H   0  0  0  0  0  0  0  0  0  0  0  0  # atno 10167 bound_to 10162
  157.6655  131.0858  150.6057 H   0  0  0  0  0  0  0  0  0  0  0  0  # atno 10718 bound_to 10713
  154.3916  135.2754  155.2151 H   0  0  0  0  0  0  0  0  0  0  0  0  # atno 10763 bound_to 10752
  154.4215  135.5999  153.6016 H   0  0  0  0  0  0  0  0  0  0  0  0  # atno 10764 bound_to 10752
  152.9832  135.5973  154.4171 H   0  0  0  0  0  0  0  0  0  0  0  0  # atno 10765 bound_to 10752
  141.1320  133.8297  157.0929 H   0  0  0  0  0  0  0  0  0  0  0  0  # atno 11005 bound_to 11000
  144.7848  139.6449  143.7139 LP  0  0  0  0  0  0  0  0  0  0  0  0  # atno 17320 bound_to 7965
  146.2299  139.5794  142.9562 LP  0  0  0  0  0  0  0  0  0  0  0  0  # atno 17321 bound_to 7965
  140.0725  143.5047  152.2572 LP  0  0  0  0  0  0  0  0  0  0  0  0  # atno 17342 bound_to 10162
  139.5983  144.7574  151.3232 LP  0  0  0  0  0  0  0  0  0  0  0  0  # atno 17343 bound_to 10162
  156.6358  130.4444  149.5770 LP  0  0  0  0  0  0  0  0  0  0  0  0  # atno 17370 bound_to 10713
  156.2247  130.6758  151.1403 LP  0  0  0  0  0  0  0  0  0  0  0  0  # atno 17371 bound_to 10713
  140.0381  134.9868  157.0910 LP  0  0  0  0  0  0  0  0  0  0  0  0  # atno 17394 bound_to 11000
  140.4178  134.1912  155.7164 LP  0  0  0  0  0  0  0  0  0  0  0  0  # atno 17395 bound_to 11000

$$$$
