AV-unprocessed.smi:1695|AV-procd|sdf|6794|dock3
  -GOLD-   22720 7553D 1   1.00000     0.00000
 Structure written by MMmdl.
 52 54  0  0  0  0  0  0  0  0  3 V2000
  152.6867  143.5315  160.2723 C   0  0  0  0  0  0  0  0  0  0  0  0
  152.2510  142.6634  159.1040 C   0  0  0  0  0  0  0  0  0  0  0  0
  151.3019  143.1829  158.1948 C   0  0  0  0  0  0  0  0  0  0  0  0
  150.9221  142.3643  157.1378 C   0  0  0  0  0  0  0  0  0  0  0  0
  150.0246  142.5791  156.0893 N   0  3  0  0  0  0  0  0  0  0  0  0
  149.9842  141.4758  155.2918 C   0  0  0  0  0  0  0  0  0  0  0  0
  150.8385  140.5570  155.8199 N   0  0  0  0  0  0  0  0  0  0  0  0
  151.1755  139.2035  155.3587 C   0  0  0  0  0  0  0  0  0  0  0  0
  150.2309  138.6928  154.2523 C   0  0  1  0  0  0  0  0  0  0  0  0
  150.5655  137.3550  153.9371 O   0  0  0  0  0  0  0  0  0  0  0  0
  148.7551  138.7440  154.6943 C   0  0  0  0  0  0  0  0  0  0  0  0
  147.8431  138.0915  153.7196 N   0  3  1  0  0  0  0  0  0  0  0  0
  147.0622  136.9876  154.3334 C   0  0  0  0  0  0  0  0  0  0  0  0
  146.2379  136.2288  153.2755 C   0  0  0  0  0  0  0  0  0  0  0  0
  145.3194  137.1482  152.4435 C   0  0  1  0  0  0  0  0  0  0  0  0
  144.0570  137.5825  153.2116 C   0  0  0  0  0  0  0  0  0  0  0  0
  143.1799  138.3444  152.5533 N   0  0  0  0  0  0  0  0  0  0  0  0
  143.8691  137.2420  154.3775 O   0  0  0  0  0  0  0  0  0  0  0  0
  146.1373  138.3438  151.9107 C   0  0  0  0  0  0  0  0  0  0  0  0
  146.9642  139.0520  153.0013 C   0  0  0  0  0  0  0  0  0  0  0  0
  151.4511  141.0702  156.9681 C   0  0  0  0  0  0  0  0  0  0  0  0
  152.3894  140.5438  157.8527 C   0  0  0  0  0  0  0  0  0  0  0  0
  152.7881  141.3608  158.9347 C   0  0  0  0  0  0  0  0  0  0  0  0
  153.8080  140.8134  159.9186 C   0  0  0  0  0  0  0  0  0  0  0  0
  152.1929  144.5035  160.2536 H   0  0  0  0  0  0  0  0  0  0  0  0
  153.7629  143.7040  160.2417 H   0  0  0  0  0  0  0  0  0  0  0  0
  152.4394  143.0507  161.2191 H   0  0  0  0  0  0  0  0  0  0  0  0
  150.8897  144.1741  158.3172 H   0  0  0  0  0  0  0  0  0  0  0  0
  149.3816  141.3518  154.4032 H   0  0  0  0  0  0  0  0  0  0  0  0
  152.2050  139.2279  154.9982 H   0  0  0  0  0  0  0  0  0  0  0  0
  151.1653  138.5353  156.2210 H   0  0  0  0  0  0  0  0  0  0  0  0
  150.3811  139.2965  153.3586 H   0  0  0  0  0  0  0  0  0  0  0  0
  149.8993  137.0054  153.3646 H   0  0  0  0  0  0  0  0  0  0  0  0
  148.6710  138.2527  155.6654 H   0  0  0  0  0  0  0  0  0  0  0  0
  148.4356  139.7758  154.8498 H   0  0  0  0  0  0  0  0  0  0  0  0
  147.7431  136.2844  154.8141 H   0  0  0  0  0  0  0  0  0  0  0  0
  146.4211  137.3837  155.1213 H   0  0  0  0  0  0  0  0  0  0  0  0
  146.9216  135.7122  152.6006 H   0  0  0  0  0  0  0  0  0  0  0  0
  145.6519  135.4457  153.7586 H   0  0  0  0  0  0  0  0  0  0  0  0
  144.9809  136.5742  151.5792 H   0  0  0  0  0  0  0  0  0  0  0  0
  142.3354  138.6569  153.0104 H   0  0  0  0  0  0  0  0  0  0  0  0
  143.3649  138.6070  151.5957 H   0  0  0  0  0  0  0  0  0  0  0  0
  146.8140  137.9877  151.1327 H   0  0  0  0  0  0  0  0  0  0  0  0
  145.4793  139.0646  151.4232 H   0  0  0  0  0  0  0  0  0  0  0  0
  146.3143  139.5602  153.7139 H   0  0  0  0  0  0  0  0  0  0  0  0
  147.5625  139.8294  152.5287 H   0  0  0  0  0  0  0  0  0  0  0  0
  152.7989  139.5529  157.7234 H   0  0  0  0  0  0  0  0  0  0  0  0
  154.1169  139.8020  159.6526 H   0  0  0  0  0  0  0  0  0  0  0  0
  153.3900  140.7797  160.9248 H   0  0  0  0  0  0  0  0  0  0  0  0
  154.6999  141.4404  159.9342 H   0  0  0  0  0  0  0  0  0  0  0  0
  148.4379  137.6593  153.0269 H   0  0  0  0  0  0  0  0  0  0  0  0
  149.4810  143.4172  155.9260 H   0  0  0  0  0  0  0  0  0  0  0  0
  1  2  1  0  0  0  0
  1 25  1  0  0  0  0
  1 26  1  0  0  0  0
  1 27  1  0  0  0  0
  2 23  1  0  0  0  0
  2  3  2  0  0  0  0
  3  4  1  0  0  0  0
  3 28  1  0  0  0  0
  4 21  2  0  0  0  0
  4  5  1  0  0  0  0
  5  6  2  0  0  0  0
  5 52  1  0  0  0  0
  6  7  1  0  0  0  0
  6 29  1  0  0  0  0
  7  8  1  0  0  0  0
  7 21  1  0  0  0  0
  8  9  1  0  0  0  0
  8 30  1  0  0  0  0
  8 31  1  0  0  0  0
  9 10  1  0  0  0  0
  9 11  1  0  0  0  0
  9 32  1  0  0  0  0
 10 33  1  0  0  0  0
 11 12  1  0  0  0  0
 11 34  1  0  0  0  0
 11 35  1  0  0  0  0
 12 20  1  0  0  0  0
 12 13  1  0  0  0  0
 12 51  1  0  0  0  0
 13 14  1  0  0  0  0
 13 36  1  0  0  0  0
 13 37  1  0  0  0  0
 14 15  1  0  0  0  0
 14 38  1  0  0  0  0
 14 39  1  0  0  0  0
 15 16  1  0  0  0  0
 15 19  1  0  0  0  0
 15 40  1  0  0  0  0
 16 17  1  0  0  0  0
 16 18  2  0  0  0  0
 17 41  1  0  0  0  0
 17 42  1  0  0  0  0
 19 20  1  0  0  0  0
 19 43  1  0  0  0  0
 19 44  1  0  0  0  0
 20 45  1  0  0  0  0
 20 46  1  0  0  0  0
 21 22  1  0  0  0  0
 22 23  2  0  0  0  0
 22 47  1  0  0  0  0
 23 24  1  0  0  0  0
 24 48  1  0  0  0  0
 24 49  1  0  0  0  0
 24 50  1  0  0  0  0
M  CHG  1   5   1
M  CHG  1  12   1
M  END
> <s_m_source_file>
AV-unprocessed.smi

> <i_m_source_file_index>
1695

> <i_lp_mmshare_version>
43012

> <i_f3d_flags>
0

> <s_epik_input>
W0NIM11jKFtjSF0xKWMoW0NIM10pW2NIXWMoYzEyKW4oW2NIXW4yKVtDSDJdW0NASF0oW09IXSlbQ0gyXU4zW0NIMl1bQ0gyXVtDSF0oQyg9TylbTkgyXSlbQ0gyXVtDSDJdMw==

> <s_epik_cmdline>
J2VwaWtfcHl0aG9uJywgJy1waCcsICc3LjAnLCAnLXRuJywgJzgnLCAnLW1hJywgJzIwMCcsICctbWV0YWxfYmluZGluZycsICctaW1hZScsICc8aW5maWxlLm1hZT4nLCAnLW9tYWUnLCAnPG91dGZpbGUubWFlPic=

> <r_epik_Ionization_Penalty>
1.20173

> <r_epik_Ionization_Penalty_Charging>
1.20172

> <r_epik_Ionization_Penalty_Neutral>
1.7852e-06

> <r_epik_State_Penalty>
1.28089

> <r_epik_Charging_Adjusted_Penalty>
2.48261

> <i_epik_Tot_Q>
2

> <i_epik_Tot_abs_Q>
2

> <r_epik_Metal_State_Penalty>
1.35652

> <b_epik_Metal_Only>
0

> <s_lp_Force_Field>
OPLS_2005

> <r_lp_Energy>
25.0715

> <b_lp_Chiralities_Consistent>
1

> <s_lp_Variant>
AV-unprocessed.smi:1695-6

> <Gold.Version>
5.8.1

> <Gold.Id.Protein>
6NUR|6NUR_protein|mol2

> <Gold.PLP.Fitness>
62.6553

> <Gold.PLP.PLP>
-46.3877

> <Gold.PLP.part.hbond>
-5.4645

> <Gold.PLP.part.metal>
0.0000

> <Gold.PLP.part.buried>
-2.7735

> <Gold.PLP.part.nonpolar>
-38.5612

> <Gold.PLP.part.repulsive>
0.2387

> <Gold.PLP.ligand.clash>
0.0000

> <Gold.PLP.ligand.torsion>
0.8913

> <Gold.PLP.Chemscore.Hbond>
6.0000

> <Gold.PLP.Chemscore.CHOScore>
0.0000

> <Gold.PLP.Chemscore.Metal>
0.0000

> <Gold.Chemscore.Hbonds>
donor molecule, donor type, donor heavy atom, donor atom, acceptor molecule, acceptor atom, score
      L1  H     5    52       P1  8028  1.62
      L1  H    10    33       P1  7948  1.00
      L1  H    12    51       P1  7948  2.00
      L1  H    17    42       P1 10171  1.00

> <Gold.PLP.Chemscore.Internal.Correction>
0.0501

> <Gold.Rescore>
     Score         DG    S(hbond)    S(metal)    S(lipo)     H(rot)  DE(clash)    DE(int)     intcor
     20.48     -21.52       3.11        0.00     112.07       2.91       0.16       0.89       ----

> <Gold.Chemscore.Fitness>
20.4810

> <Gold.Chemscore.DG>
-21.5248

> <Gold.Chemscore.ZeroCoef>
-5.4800

> <Gold.Chemscore.Hbond>
3.1104

> <Gold.Chemscore.Metal>
0.0000

> <Gold.Chemscore.Lipo>
112.0726

> <Gold.Chemscore.Internal_Hbond>
0.0000

> <Gold.Chemscore.DEClash>
0.1586

> <Gold.Chemscore.DEInternal>
0.8852

> <Gold.Chemscore.Rot>
2.9127

> <Gold.Chemscore.Internal.Correction>
   9.000000E+99

> <Gold.Chemscore.Hbonds>
donor molecule, donor type, donor heavy atom, donor atom, acceptor molecule, acceptor atom, score
      L1  H     5    52       P1  8028  0.80
      L1  H    10    33       P1  7948  0.35
      L1  H    12    51       P1  7948  0.98
      L1  H    17    42       P1 10171  0.35

> <Gold.Chemscore.Hbond.Weighted>
-10.3888

> <Gold.Chemscore.Metal.Weighted>
-0.0000

> <Gold.Chemscore.Lipo.Weighted>
-13.1125

> <Gold.Chemscore.Internal_Hbond.Weighted>
0.0000

> <Gold.Chemscore.DEClash.Weighted>
0.1586

> <Gold.Chemscore.DEInternal.Weighted>
0.8852

> <Gold.Chemscore.Rot.Weighted>
7.4565

> <Gold.Chemscore.Internal.Correction.Weighted>
   9.000000E+99

> <Gold.Protein.RotatedTorsions>
[ 6907 6896 6895 6894 ] final -154.21 input  -60.11 | X-H torsion
[ 7974 7965 7964 7962 ] final   12.68 input  175.53 | X-H torsion
[ 8008 7997 7996 7995 ] final  -49.71 input   59.86 | X-H torsion
[ 10167 10162 10161 10158 ] final  -89.54 input  -65.29 | X-H torsion
[ 10718 10713 10712 10709 ] final  111.05 input   66.30 | X-H torsion
[ 10763 10752 10751 10750 ] final -177.35 input  -60.55 | X-H torsion
[ 11005 11000 10999 10996 ] final  124.58 input  -57.11 | X-H torsion

> <Gold.Protein.ActiveResidues>
 VAL166  LYS551  ARG553  GLY616  TRP617  ASP618  TYR619  PRO620  LYS621  CYS622 
 ASP623  PHE694  ASN695  SER759  ASP760  ASP761  ALA762  ILE779  LEU786  VAL792 
 PHE793  MET794  SER795  GLU796  ALA797  LYS798  CYS799  TRP800  GLU811  SER814 

> <Gold.Protein.RotatedAtoms>
  151.2541  133.4335  159.2612 H   0  0  0  0  0  0  0  0  0  0  0  0  # atno 6907 bound_to 6896
  151.0591  134.9724  159.8261 H   0  0  0  0  0  0  0  0  0  0  0  0  # atno 6908 bound_to 6896
  152.5395  134.2492  159.8945 H   0  0  0  0  0  0  0  0  0  0  0  0  # atno 6909 bound_to 6896
  146.2346  139.9301  142.8497 H   0  0  0  0  0  0  0  0  0  0  0  0  # atno 7974 bound_to 7965
  154.4049  140.1290  156.4547 H   0  0  0  0  0  0  0  0  0  0  0  0  # atno 8008 bound_to 7997
  155.7331  140.3491  155.5049 H   0  0  0  0  0  0  0  0  0  0  0  0  # atno 8009 bound_to 7997
  155.9108  140.1035  157.1271 H   0  0  0  0  0  0  0  0  0  0  0  0  # atno 8010 bound_to 7997
  140.3638  143.2828  151.9582 H   0  0  0  0  0  0  0  0  0  0  0  0  # atno 10167 bound_to 10162
  157.6464  131.0944  150.6691 H   0  0  0  0  0  0  0  0  0  0  0  0  # atno 10718 bound_to 10713
  154.5612  135.2820  155.0917 H   0  0  0  0  0  0  0  0  0  0  0  0  # atno 10763 bound_to 10752
  154.2325  135.6371  153.5184 H   0  0  0  0  0  0  0  0  0  0  0  0  # atno 10764 bound_to 10752
  153.0030  135.5540  154.6207 H   0  0  0  0  0  0  0  0  0  0  0  0  # atno 10765 bound_to 10752
  139.9365  134.9639  156.8431 H   0  0  0  0  0  0  0  0  0  0  0  0  # atno 11005 bound_to 11000
  145.2053  140.9872  143.4132 LP  0  0  0  0  0  0  0  0  0  0  0  0  # atno 17320 bound_to 7965
  144.9738  139.3853  143.6296 LP  0  0  0  0  0  0  0  0  0  0  0  0  # atno 17321 bound_to 7965
  139.4811  144.5969  151.7675 LP  0  0  0  0  0  0  0  0  0  0  0  0  # atno 17342 bound_to 10162
  140.5101  144.1039  150.5993 LP  0  0  0  0  0  0  0  0  0  0  0  0  # atno 17343 bound_to 10162
  156.7008  130.4622  149.5573 LP  0  0  0  0  0  0  0  0  0  0  0  0  # atno 17370 bound_to 10713
  156.1797  130.6490  151.0936 LP  0  0  0  0  0  0  0  0  0  0  0  0  # atno 17371 bound_to 10713
  140.6061  134.0126  155.7557 LP  0  0  0  0  0  0  0  0  0  0  0  0  # atno 17394 bound_to 11000
  141.0982  133.9811  157.3125 LP  0  0  0  0  0  0  0  0  0  0  0  0  # atno 17395 bound_to 11000

$$$$
