#       Name:                AV-unprocessed.smi:1128
#       Creating user name   scv26
#       Creation time:       Fri Mar 27 03:41:19 2020


#       File generated by GOLD software.
#

@<TRIPOS>MOLECULE
AV-unprocessed.smi:1128
    42    43     1
SMALL
NO_CHARGES


@<TRIPOS>ATOM
      1 ****         0.2066   1.1535  -0.9258 O.2            1 S1                 0.0000
      2 ****        -0.3328   0.0597  -1.0903 C.2            1 S1                 0.0000
      3 ****         0.3540  -1.0863  -1.1991 N.am           1 S1                 0.0000
      4 ****         1.8070  -1.2051  -1.1359 C.3            1 S1                 0.0000
      5 ****         2.3404  -1.1881   0.3120 C.3            1 S1                 0.0000
      6 ****         1.7272  -2.3135   1.1790 C.3            1 S1                 0.0000
      7 ****         2.4488  -2.4940   2.5027 C.2            1 S1                 0.0000
      8 ****         3.6549  -1.9647   2.7674 C.2            1 S1                 0.0000
      9 ****         4.4369  -1.1327   1.7685 C.3            1 S1                 0.0000
     10 ****         3.8787  -1.2626   0.3391 C.3            1 S1                 0.0000
     11 ****        -1.6546  -0.1667  -1.1986 N.am           1 S1                 0.0000
     12 ****        -2.7320   0.7351  -1.1442 C.2            1 S1                 0.0000
     13 ****        -2.6453   2.0384  -0.7570 C.2            1 S1                 0.0000
     14 ****        -3.8053   2.9205  -0.7201 C.2            1 S1                 0.0000
     15 ****        -3.7598   4.3526  -0.2174 C.3            1 S1                 0.0000
     16 ****        -4.8855   4.6729   0.4213 F              1 S1                 0.0000
     17 ****        -2.7366   4.5341   0.6177 F              1 S1                 0.0000
     18 ****        -3.6124   5.1892  -1.2436 F              1 S1                 0.0000
     19 ****        -4.9679   2.2739  -1.0920 C.2            1 S1                 0.0000
     20 ****        -5.1386   0.9965  -1.4965 N.pl3          1 S1                -1.0000
     21 ****        -4.0467   0.1816  -1.5310 C.2            1 S1                 0.0000
     22 ****        -4.1345  -0.9973  -1.8765 O.2            1 S1                 0.0000
     23 ****        -0.1667  -1.9397  -1.3391 H              1 S1                 0.0000
     24 ****         2.0889  -2.1380  -1.6248 H              1 S1                 0.0000
     25 ****         2.2649  -0.4046  -1.7194 H              1 S1                 0.0000
     26 ****         2.0605  -0.2332   0.7603 H              1 S1                 0.0000
     27 ****         0.6773  -2.0998   1.3821 H              1 S1                 0.0000
     28 ****         1.7600  -3.2656   0.6484 H              1 S1                 0.0000
     29 ****         1.9491  -3.0908   3.2515 H              1 S1                 0.0000
     30 ****         4.1080  -2.1162   3.7363 H              1 S1                 0.0000
     31 ****         4.4017  -0.0928   2.0944 H              1 S1                 0.0000
     32 ****         5.4838  -1.4366   1.7871 H              1 S1                 0.0000
     33 ****         4.1981  -2.2139  -0.0887 H              1 S1                 0.0000
     34 ****         4.3101  -0.4836  -0.2904 H              1 S1                 0.0000
     35 ****        -1.9294  -1.1224  -1.3728 H              1 S1                 0.0000
     36 ****        -1.7057   2.4675  -0.4528 H              1 S1                 0.0000
     37 ****        -5.9033   2.8723  -1.0535 H              1 S1                 0.0000
     38 ****         1.2029   1.2159  -0.8674 LP             1 S1                 0.0000
     39 ****        -0.3514   1.9799  -0.8505 LP             1 S1                 0.0000
     40 ****        -6.0410   0.6581  -1.7632 LP             1 S1                 0.0000
     41 ****        -3.3186  -1.5752  -1.8943 LP             1 S1                 0.0000
     42 ****        -5.0217  -1.3766  -2.1391 LP             1 S1                 0.0000
@<TRIPOS>BOND
    1    1    2 2     
    2    2    3 am    
    3    2   11 am    
    4    3    4 1     
    5    3   23 1     
    6    4    5 1     
    7    4   24 1     
    8    4   25 1     
    9    5   10 1     
   10    5    6 1     
   11    5   26 1     
   12    6    7 1     
   13    6   27 1     
   14    6   28 1     
   15    7    8 2     
   16    7   29 1     
   17    8    9 1     
   18    8   30 1     
   19    9   10 1     
   20    9   31 1     
   21    9   32 1     
   22   10   33 1     
   23   10   34 1     
   24   11   12 1     
   25   11   35 1     
   26   12   21 1     
   27   12   13 2     
   28   13   14 1     
   29   13   36 1     
   30   14   15 1     
   31   14   19 2     
   32   15   16 1     
   33   15   17 1     
   34   15   18 1     
   35   19   20 1     
   36   19   37 1     
   37   20   21 1     
   38   21   22 2     
   39    1   38 1     
   40    1   39 1     
   41   20   40 1     
   42   22   41 1     
   43   22   42 1     
@<TRIPOS>SUBSTRUCTURE
      1 S1             1
@<TRIPOS>SET
LONE_PAIRS      STATIC     ATOMS    <user>   **** ""
5 38 39 40 41 42
DONOR_HYDROGENS      STATIC     ATOMS    <user>   **** ""
2 23 35
ATOM$BLUE        STATIC     ATOMS    COLORGROUP SYSTEM
5 38 39 40 41 42
ATOM$RED        STATIC     ATOMS    COLORGROUP SYSTEM
2 23 35
