AV-unprocessed.smi:2820|AV-procd|sdf|10854|dock8
  -GOLD-   2272015293D 1   1.00000     0.00000
 Structure written by MMmdl.
 29 30  0  0  0  0  0  0  0  0  1 V2000
  151.6657  145.0823  160.6861 C   0  0  0  0  0  0  0  0  0  0  0  0
  151.0259  144.5006  159.5178 N   0  0  0  0  0  0  0  0  0  0  0  0
  151.5564  143.3596  158.8993 C   0  0  0  0  0  0  0  0  0  0  0  0
  152.3046  142.3783  159.5902 C   0  0  0  0  0  0  0  0  0  0  0  0
  152.7948  141.2664  158.8786 C   0  0  0  0  0  0  0  0  0  0  0  0
  152.5230  141.1690  157.4983 C   0  0  0  0  0  0  0  0  0  0  0  0
  153.0069  140.0626  156.7857 N   0  0  0  0  0  0  0  0  0  0  0  0
  152.6423  138.7842  157.3836 C   0  0  0  0  0  0  0  0  0  0  0  0
  153.3156  137.6333  156.6161 C   0  0  0  0  0  0  0  0  0  0  0  0
  152.9626  137.7065  155.2375 O   0  0  0  0  0  0  0  0  0  0  0  0
  153.3845  138.9300  154.6412 C   0  0  0  0  0  0  0  0  0  0  0  0
  152.7114  140.1127  155.3590 C   0  0  0  0  0  0  0  0  0  0  0  0
  151.8078  142.1037  156.8293 N   0  0  0  0  0  0  0  0  0  0  0  0
  151.3412  143.1663  157.5185 C   0  0  0  0  0  0  0  0  0  0  0  0
  151.1078  145.9587  161.0159 H   0  0  0  0  0  0  0  0  0  0  0  0
  152.6843  145.3956  160.4552 H   0  0  0  0  0  0  0  0  0  0  0  0
  151.6934  144.3680  161.5095 H   0  0  0  0  0  0  0  0  0  0  0  0
  150.1903  144.9327  159.1498 H   0  0  0  0  0  0  0  0  0  0  0  0
  152.5084  142.4606  160.6475 H   0  0  0  0  0  0  0  0  0  0  0  0
  153.3684  140.5039  159.3850 H   0  0  0  0  0  0  0  0  0  0  0  0
  152.9455  138.7651  158.4311 H   0  0  0  0  0  0  0  0  0  0  0  0
  151.5587  138.6605  157.3582 H   0  0  0  0  0  0  0  0  0  0  0  0
  154.4003  137.6737  156.7271 H   0  0  0  0  0  0  0  0  0  0  0  0
  152.9898  136.6730  157.0159 H   0  0  0  0  0  0  0  0  0  0  0  0
  154.4713  139.0138  154.6881 H   0  0  0  0  0  0  0  0  0  0  0  0
  153.1101  138.9245  153.5863 H   0  0  0  0  0  0  0  0  0  0  0  0
  151.6325  140.0727  155.2030 H   0  0  0  0  0  0  0  0  0  0  0  0
  153.0643  141.0561  154.9408 H   0  0  0  0  0  0  0  0  0  0  0  0
  150.7759  143.8866  156.9452 H   0  0  0  0  0  0  0  0  0  0  0  0
  1  2  1  0  0  0  0
  1 15  1  0  0  0  0
  1 16  1  0  0  0  0
  1 17  1  0  0  0  0
  2  3  1  0  0  0  0
  2 18  1  0  0  0  0
  3 14  1  0  0  0  0
  3  4  2  0  0  0  0
  4  5  1  0  0  0  0
  4 19  1  0  0  0  0
  5  6  2  0  0  0  0
  5 20  1  0  0  0  0
  6  7  1  0  0  0  0
  6 13  1  0  0  0  0
  7 12  1  0  0  0  0
  7  8  1  0  0  0  0
  8  9  1  0  0  0  0
  8 21  1  0  0  0  0
  8 22  1  0  0  0  0
  9 10  1  0  0  0  0
  9 23  1  0  0  0  0
  9 24  1  0  0  0  0
 10 11  1  0  0  0  0
 11 12  1  0  0  0  0
 11 25  1  0  0  0  0
 11 26  1  0  0  0  0
 12 27  1  0  0  0  0
 12 28  1  0  0  0  0
 13 14  2  0  0  0  0
 14 29  1  0  0  0  0
M  END
> <s_m_source_file>
AV-unprocessed.smi

> <i_m_source_file_index>
2820

> <i_lp_mmshare_version>
43012

> <i_f3d_flags>
0

> <s_epik_input>
W0NIM11bTkhdYzFbY0hdW2NIXWMobltjSF0xKU4yW0NIMl1bQ0gyXU9bQ0gyXVtDSDJdMg==

> <s_epik_cmdline>
J2VwaWtfcHl0aG9uJywgJy1waCcsICc3LjAnLCAnLXRuJywgJzgnLCAnLW1hJywgJzIwMCcsICctbWV0YWxfYmluZGluZycsICctaW1hZScsICc8aW5maWxlLm1hZT4nLCAnLW9tYWUnLCAnPG91dGZpbGUubWFlPic=

> <r_lp_tautomer_probability>
1

> <r_epik_Ionization_Penalty>
0.0411205

> <r_epik_Ionization_Penalty_Charging>
0

> <r_epik_Ionization_Penalty_Neutral>
0.0411205

> <r_epik_State_Penalty>
0.0346301

> <r_epik_Charging_Adjusted_Penalty>
0.0346301

> <i_epik_Tot_Q>
0

> <i_epik_Tot_abs_Q>
0

> <r_epik_Metal_State_Penalty>
3.56611e-05

> <b_epik_Metal_Only>
0

> <s_lp_Force_Field>
OPLS_2005

> <r_lp_Energy>
22.0638

> <b_lp_Chiralities_Consistent>
1

> <s_lp_Variant>
AV-unprocessed.smi:2820-1

> <Gold.Version>
5.8.1

> <Gold.Id.Protein>
6NUR|6NUR_protein|mol2

> <Gold.PLP.Fitness>
34.2783

> <Gold.PLP.PLP>
-26.2100

> <Gold.PLP.part.hbond>
-2.0000

> <Gold.PLP.part.metal>
0.0000

> <Gold.PLP.part.buried>
-4.4768

> <Gold.PLP.part.nonpolar>
-20.0035

> <Gold.PLP.part.repulsive>
0.1904

> <Gold.PLP.ligand.clash>
0.0000

> <Gold.PLP.ligand.torsion>
0.2288

> <Gold.PLP.Chemscore.Hbond>
1.8089

> <Gold.PLP.Chemscore.CHOScore>
1.0000

> <Gold.PLP.Chemscore.Metal>
0.0000

> <Gold.Chemscore.Hbonds>
donor molecule, donor type, donor heavy atom, donor atom, acceptor molecule, acceptor atom, score
      P1  H  7997  8008       L1     7  0.69
      P1  H 10752 10764       L1    10  0.12
      L1  C    14    29       P1  8028  1.00

> <Gold.PLP.Chemscore.Internal.Correction>
0.0992

> <Gold.Rescore>
     Score         DG    S(hbond)    S(metal)    S(lipo)     H(rot)  DE(clash)    DE(int)     intcor
     13.50     -13.64       0.69        0.00      71.93       1.00       0.02       0.11       ----

> <Gold.Chemscore.Fitness>
13.5037

> <Gold.Chemscore.DG>
-13.6415

> <Gold.Chemscore.ZeroCoef>
-5.4800

> <Gold.Chemscore.Hbond>
0.6905

> <Gold.Chemscore.Metal>
0.0000

> <Gold.Chemscore.Lipo>
71.9261

> <Gold.Chemscore.Internal_Hbond>
0.0000

> <Gold.Chemscore.DEClash>
0.0247

> <Gold.Chemscore.DEInternal>
0.1131

> <Gold.Chemscore.Rot>
1.0000

> <Gold.Chemscore.Internal.Correction>
   9.000000E+99

> <Gold.Chemscore.Hbonds>
donor molecule, donor type, donor heavy atom, donor atom, acceptor molecule, acceptor atom, score
      P1  H  7997  8008       L1     7  0.08
      P1  H 10752 10764       L1    10  0.01

> <Gold.Chemscore.Hbond.Weighted>
-2.3061

> <Gold.Chemscore.Metal.Weighted>
-0.0000

> <Gold.Chemscore.Lipo.Weighted>
-8.4154

> <Gold.Chemscore.Internal_Hbond.Weighted>
0.0000

> <Gold.Chemscore.DEClash.Weighted>
0.0247

> <Gold.Chemscore.DEInternal.Weighted>
0.1131

> <Gold.Chemscore.Rot.Weighted>
2.5600

> <Gold.Chemscore.Internal.Correction.Weighted>
   9.000000E+99

> <Gold.Protein.RotatedTorsions>
[ 6907 6896 6895 6894 ] final   57.88 input  -60.11 | X-H torsion
[ 7974 7965 7964 7962 ] final  125.55 input  175.53 | X-H torsion
[ 8008 7997 7996 7995 ] final  -69.02 input   59.86 | X-H torsion
[ 10167 10162 10161 10158 ] final  152.60 input  -65.29 | X-H torsion
[ 10718 10713 10712 10709 ] final  -67.53 input   66.30 | X-H torsion
[ 10763 10752 10751 10750 ] final  -33.75 input  -60.55 | X-H torsion
[ 11005 11000 10999 10996 ] final   -7.41 input  -57.11 | X-H torsion

> <Gold.Protein.ActiveResidues>
 VAL166  LYS551  ARG553  GLY616  TRP617  ASP618  TYR619  PRO620  LYS621  CYS622 
 ASP623  PHE694  ASN695  SER759  ASP760  ASP761  ALA762  ILE779  LEU786  VAL792 
 PHE793  MET794  SER795  GLU796  ALA797  LYS798  CYS799  TRP800  GLU811  SER814 

> <Gold.Protein.RotatedAtoms>
  152.3773  134.6644  160.0155 H   0  0  0  0  0  0  0  0  0  0  0  0  # atno 6907 bound_to 6896
  151.6918  133.3305  159.3253 H   0  0  0  0  0  0  0  0  0  0  0  0  # atno 6908 bound_to 6896
  150.7719  134.6627  159.6393 H   0  0  0  0  0  0  0  0  0  0  0  0  # atno 6909 bound_to 6896
  145.0718  139.3724  143.4954 H   0  0  0  0  0  0  0  0  0  0  0  0  # atno 7974 bound_to 7965
  154.4908  140.0861  156.7591 H   0  0  0  0  0  0  0  0  0  0  0  0  # atno 8008 bound_to 7997
  155.4234  140.3446  155.4255 H   0  0  0  0  0  0  0  0  0  0  0  0  # atno 8009 bound_to 7997
  156.1327  140.1506  156.9028 H   0  0  0  0  0  0  0  0  0  0  0  0  # atno 8010 bound_to 7997
  139.4832  144.5344  151.7670 H   0  0  0  0  0  0  0  0  0  0  0  0  # atno 10167 bound_to 10162
  156.0553  130.4279  150.1868 H   0  0  0  0  0  0  0  0  0  0  0  0  # atno 10718 bound_to 10713
  153.8353  135.6862  153.4809 H   0  0  0  0  0  0  0  0  0  0  0  0  # atno 10763 bound_to 10752
  153.1486  135.4627  154.9601 H   0  0  0  0  0  0  0  0  0  0  0  0  # atno 10764 bound_to 10752
  154.7869  135.3288  154.7812 H   0  0  0  0  0  0  0  0  0  0  0  0  # atno 10765 bound_to 10752
  140.7125  133.8896  155.8761 H   0  0  0  0  0  0  0  0  0  0  0  0  # atno 11005 bound_to 11000
  146.3529  140.0466  142.8639 LP  0  0  0  0  0  0  0  0  0  0  0  0  # atno 17320 bound_to 7965
  145.1284  140.9503  143.4559 LP  0  0  0  0  0  0  0  0  0  0  0  0  # atno 17321 bound_to 7965
  140.4874  144.1360  150.5943 LP  0  0  0  0  0  0  0  0  0  0  0  0  # atno 17342 bound_to 10162
  140.4209  143.2612  151.9716 LP  0  0  0  0  0  0  0  0  0  0  0  0  # atno 17343 bound_to 10162
  156.9945  130.9903  151.3406 LP  0  0  0  0  0  0  0  0  0  0  0  0  # atno 17370 bound_to 10713
  157.5516  130.8186  149.8153 LP  0  0  0  0  0  0  0  0  0  0  0  0  # atno 17371 bound_to 10713
  141.0072  134.1070  157.4258 LP  0  0  0  0  0  0  0  0  0  0  0  0  # atno 17394 bound_to 11000
  139.8868  135.0084  156.6521 LP  0  0  0  0  0  0  0  0  0  0  0  0  # atno 17395 bound_to 11000

$$$$
