AV-unprocessed.smi:2655|AV-procd|sdf|10303|dock4
  -GOLD-   2272014313D 1   1.00000     0.00000
 Structure written by MMmdl.
 33 34  0  0  0  0  0  0  0  0  2 V2000
  149.0911  140.2650  154.3702 C   0  0  0  0  0  0  0  0  0  0  0  0
  150.2721  139.3187  154.3717 C   0  0  0  0  0  0  0  0  0  0  0  0
  150.4127  138.3522  153.4183 N   0  0  0  0  0  0  0  0  0  0  0  0
  151.5312  137.6130  153.7095 N   0  0  0  0  0  0  0  0  0  0  0  0
  152.1274  138.1023  154.8091 C   0  0  0  0  0  0  0  0  0  0  0  0
  153.1572  137.6702  155.3223 O   0  0  0  0  0  0  0  0  0  0  0  0
  151.2933  139.2216  155.2334 C   0  0  0  0  0  0  0  0  0  0  0  0
  151.5530  140.0482  156.4787 C   0  0  0  0  0  0  0  0  0  0  0  0
  151.5733  139.1864  157.7516 C   0  0  0  0  0  0  0  0  0  0  0  0
  150.3040  138.4959  157.9509 N   0  0  0  0  0  0  0  0  0  0  0  0
  150.1190  137.3917  158.6888 C   0  0  0  0  0  0  0  0  0  0  0  0
  151.0743  136.8759  159.2740 O   0  0  0  0  0  0  0  0  0  0  0  0
  148.8392  136.9519  158.7002 N   0  5  0  0  0  0  0  0  0  0  0  0
  148.4004  136.1787  159.7052 C   0  0  0  0  0  0  0  0  0  0  0  0
  148.6342  134.7838  159.8510 C   0  0  0  0  0  0  0  0  0  0  0  0
  147.9779  134.4764  161.0089 C   0  0  0  0  0  0  0  0  0  0  0  0
  147.8050  133.2046  161.7669 C   0  0  0  0  0  0  0  0  0  0  0  0
  147.3824  135.5862  161.5228 O   0  0  0  0  0  0  0  0  0  0  0  0
  147.6527  136.6703  160.6792 N   0  0  0  0  0  0  0  0  0  0  0  0
  149.4370  141.2979  154.3254 H   0  0  0  0  0  0  0  0  0  0  0  0
  148.5038  140.1373  155.2796 H   0  0  0  0  0  0  0  0  0  0  0  0
  148.4423  140.0820  153.5131 H   0  0  0  0  0  0  0  0  0  0  0  0
  151.7968  136.8424  153.1136 H   0  0  0  0  0  0  0  0  0  0  0  0
  150.7883  140.8226  156.5508 H   0  0  0  0  0  0  0  0  0  0  0  0
  152.5067  140.5656  156.3708 H   0  0  0  0  0  0  0  0  0  0  0  0
  152.3912  138.4644  157.7182 H   0  0  0  0  0  0  0  0  0  0  0  0
  151.7526  139.8174  158.6225 H   0  0  0  0  0  0  0  0  0  0  0  0
  149.4947  138.8862  157.4909 H   0  0  0  0  0  0  0  0  0  0  0  0
  149.1966  134.1198  159.2119 H   0  0  0  0  0  0  0  0  0  0  0  0
  147.2333  132.4834  161.1831 H   0  0  0  0  0  0  0  0  0  0  0  0
  147.2768  133.3742  162.7054 H   0  0  0  0  0  0  0  0  0  0  0  0
  148.7729  132.7609  162.0002 H   0  0  0  0  0  0  0  0  0  0  0  0
  149.7355  138.0680  152.7249 H   0  0  0  0  0  0  0  0  0  0  0  0
  1 20  1  0  0  0  0
  1 21  1  0  0  0  0
  1 22  1  0  0  0  0
  1  2  1  0  0  0  0
  2  7  2  0  0  0  0
  2  3  1  0  0  0  0
  3  4  1  0  0  0  0
  3 33  1  0  0  0  0
  4 23  1  0  0  0  0
  4  5  1  0  0  0  0
  5  7  1  0  0  0  0
  5  6  2  0  0  0  0
  7  8  1  0  0  0  0
  8  9  1  0  0  0  0
  8 24  1  0  0  0  0
  8 25  1  0  0  0  0
  9 10  1  0  0  0  0
  9 26  1  0  0  0  0
  9 27  1  0  0  0  0
 10 11  1  0  0  0  0
 10 28  1  0  0  0  0
 11 12  2  0  0  0  0
 11 13  1  0  0  0  0
 13 14  1  0  0  0  0
 14 19  2  0  0  0  0
 14 15  1  0  0  0  0
 15 16  2  0  0  0  0
 15 29  1  0  0  0  0
 16 17  1  0  0  0  0
 16 18  1  0  0  0  0
 17 30  1  0  0  0  0
 17 31  1  0  0  0  0
 17 32  1  0  0  0  0
 18 19  1  0  0  0  0
M  CHG  1  13  -1
M  END
> <s_m_source_file>
AV-unprocessed.smi

> <i_m_source_file_index>
2655

> <i_lp_mmshare_version>
43012

> <i_f3d_flags>
0

> <s_epik_input>
W0NIM11DMT1OW05IXUMoPU8pW0NASF0xW0NIMl1bQ0gyXVtOSF1DKD1PKVtOSF1jMltjSF1jKFtDSDNdKW9uMg==

> <s_epik_cmdline>
J2VwaWtfcHl0aG9uJywgJy1waCcsICc3LjAnLCAnLXRuJywgJzgnLCAnLW1hJywgJzIwMCcsICctbWV0YWxfYmluZGluZycsICctaW1hZScsICc8aW5maWxlLm1hZT4nLCAnLW9tYWUnLCAnPG91dGZpbGUubWFlPic=

> <r_lp_tautomer_probability>
0.00220696

> <r_epik_Ionization_Penalty>
6.47655

> <r_epik_Ionization_Penalty_Charging>
6.44485

> <r_epik_Ionization_Penalty_Neutral>
0.0316949

> <r_epik_State_Penalty>
7.07162

> <r_epik_Charging_Adjusted_Penalty>
13.5165

> <i_epik_Tot_Q>
-1

> <i_epik_Tot_abs_Q>
1

> <r_epik_Metal_State_Penalty>
4.39363

> <b_epik_Metal_Only>
1

> <s_lp_Force_Field>
OPLS_2005

> <r_lp_Energy>
11.561

> <b_lp_Chiralities_Consistent>
1

> <s_lp_Variant>
AV-unprocessed.smi:2655-6

> <Gold.Version>
5.8.1

> <Gold.Id.Protein>
6NUR|6NUR_protein|mol2

> <Gold.PLP.Fitness>
47.8977

> <Gold.PLP.PLP>
-36.0188

> <Gold.PLP.part.hbond>
-7.9938

> <Gold.PLP.part.metal>
0.0000

> <Gold.PLP.part.buried>
-5.1429

> <Gold.PLP.part.nonpolar>
-23.8137

> <Gold.PLP.part.repulsive>
0.3211

> <Gold.PLP.ligand.clash>
0.0000

> <Gold.PLP.ligand.torsion>
0.9895

> <Gold.PLP.Chemscore.Hbond>
4.5833

> <Gold.PLP.Chemscore.CHOScore>
0.0000

> <Gold.PLP.Chemscore.Metal>
0.0000

> <Gold.Chemscore.Hbonds>
donor molecule, donor type, donor heavy atom, donor atom, acceptor molecule, acceptor atom, score
      L1  H     3    33       P1  7948  0.59
      L1  H     4    23       P1  7949  0.77
      P1  H  6896  6907       L1    12  1.00
      P1  H  6934  6947       L1    19  0.05
      P1  H 10752 10764       L1     6  0.19

> <Gold.PLP.Chemscore.Internal.Correction>
0.1080

> <Gold.Rescore>
     Score         DG    S(hbond)    S(metal)    S(lipo)     H(rot)  DE(clash)    DE(int)     intcor
     19.02     -20.05       3.94        0.00      52.87       1.86       0.03       1.00       ----

> <Gold.Chemscore.Fitness>
19.0227

> <Gold.Chemscore.DG>
-20.0499

> <Gold.Chemscore.ZeroCoef>
-5.4800

> <Gold.Chemscore.Hbond>
3.9390

> <Gold.Chemscore.Metal>
0.0000

> <Gold.Chemscore.Lipo>
52.8678

> <Gold.Chemscore.Internal_Hbond>
0.0000

> <Gold.Chemscore.DEClash>
0.0285

> <Gold.Chemscore.DEInternal>
0.9987

> <Gold.Chemscore.Rot>
1.8640

> <Gold.Chemscore.Internal.Correction>
   9.000000E+99

> <Gold.Chemscore.Hbonds>
donor molecule, donor type, donor heavy atom, donor atom, acceptor molecule, acceptor atom, score
      L1  H     3    33       P1  7948  0.29
      L1  H     4    23       P1  7949  0.77
      P1  H  6896  6907       L1    12  0.98
      P1  H  6931  6943       L1    19  0.03
      P1  H  6934  6947       L1    19  0.09
      P1  H 10752 10764       L1     6  0.05

> <Gold.Chemscore.Hbond.Weighted>
-13.1562

> <Gold.Chemscore.Metal.Weighted>
-0.0000

> <Gold.Chemscore.Lipo.Weighted>
-6.1855

> <Gold.Chemscore.Internal_Hbond.Weighted>
0.0000

> <Gold.Chemscore.DEClash.Weighted>
0.0285

> <Gold.Chemscore.DEInternal.Weighted>
0.9987

> <Gold.Chemscore.Rot.Weighted>
4.7719

> <Gold.Chemscore.Internal.Correction.Weighted>
   9.000000E+99

> <Gold.Protein.RotatedTorsions>
[ 6907 6896 6895 6894 ] final  -28.61 input  -60.11 | X-H torsion
[ 7974 7965 7964 7962 ] final  -21.44 input  175.53 | X-H torsion
[ 8008 7997 7996 7995 ] final  -40.29 input   59.86 | X-H torsion
[ 10167 10162 10161 10158 ] final   30.39 input  -65.29 | X-H torsion
[ 10718 10713 10712 10709 ] final  131.58 input   66.30 | X-H torsion
[ 10763 10752 10751 10750 ] final  -46.66 input  -60.55 | X-H torsion
[ 11005 11000 10999 10996 ] final  107.12 input  -57.11 | X-H torsion

> <Gold.Protein.ActiveResidues>
 VAL166  LYS551  ARG553  GLY616  TRP617  ASP618  TYR619  PRO620  LYS621  CYS622 
 ASP623  PHE694  ASN695  SER759  ASP760  ASP761  ALA762  ILE779  LEU786  VAL792 
 PHE793  MET794  SER795  GLU796  ALA797  LYS798  CYS799  TRP800  GLU811  SER814 

> <Gold.Protein.RotatedAtoms>
  151.1306  135.0128  159.8580 H   0  0  0  0  0  0  0  0  0  0  0  0  # atno 6907 bound_to 6896
  152.5451  134.1615  159.8570 H   0  0  0  0  0  0  0  0  0  0  0  0  # atno 6908 bound_to 6896
  151.1681  133.4756  159.2627 H   0  0  0  0  0  0  0  0  0  0  0  0  # atno 6909 bound_to 6896
  146.1732  140.4342  142.8524 H   0  0  0  0  0  0  0  0  0  0  0  0  # atno 7974 bound_to 7965
  154.4014  140.1529  156.3002 H   0  0  0  0  0  0  0  0  0  0  0  0  # atno 8008 bound_to 7997
  155.8707  140.3449  155.5798 H   0  0  0  0  0  0  0  0  0  0  0  0  # atno 8009 bound_to 7997
  155.7777  140.0839  157.2066 H   0  0  0  0  0  0  0  0  0  0  0  0  # atno 8010 bound_to 7997
  140.4682  144.0803  150.6230 H   0  0  0  0  0  0  0  0  0  0  0  0  # atno 10167 bound_to 10162
  157.4953  131.1092  150.9501 H   0  0  0  0  0  0  0  0  0  0  0  0  # atno 10718 bound_to 10713
  154.0487  135.6634  153.4798 H   0  0  0  0  0  0  0  0  0  0  0  0  # atno 10763 bound_to 10752
  153.0472  135.5107  154.7772 H   0  0  0  0  0  0  0  0  0  0  0  0  # atno 10764 bound_to 10752
  154.6771  135.3039  154.9630 H   0  0  0  0  0  0  0  0  0  0  0  0  # atno 10765 bound_to 10752
  139.8823  134.9391  156.5770 H   0  0  0  0  0  0  0  0  0  0  0  0  # atno 11005 bound_to 11000
  144.8196  140.6527  143.6362 LP  0  0  0  0  0  0  0  0  0  0  0  0  # atno 17320 bound_to 7965
  145.4282  139.1553  143.4037 LP  0  0  0  0  0  0  0  0  0  0  0  0  # atno 17321 bound_to 7965
  140.4010  143.2704  151.9948 LP  0  0  0  0  0  0  0  0  0  0  0  0  # atno 17342 bound_to 10162
  139.4815  144.5997  151.7627 LP  0  0  0  0  0  0  0  0  0  0  0  0  # atno 17343 bound_to 10162
  157.0189  130.5666  149.5329 LP  0  0  0  0  0  0  0  0  0  0  0  0  # atno 17370 bound_to 10713
  156.0197  130.5292  150.8240 LP  0  0  0  0  0  0  0  0  0  0  0  0  # atno 17371 bound_to 10713
  140.8055  133.8471  155.8764 LP  0  0  0  0  0  0  0  0  0  0  0  0  # atno 17394 bound_to 11000
  140.9553  134.1725  157.4696 LP  0  0  0  0  0  0  0  0  0  0  0  0  # atno 17395 bound_to 11000

$$$$
