#       Name:                AV-unprocessed.smi:2134
#       Creating user name   scv26
#       Creation time:       Fri Mar 27 11:45:26 2020


#       File generated by GOLD software.
#

@<TRIPOS>MOLECULE
AV-unprocessed.smi:2134
    41    42     1
SMALL
NO_CHARGES


@<TRIPOS>ATOM
      1 ****        -3.2271  -2.5274  -1.3059 C.3            1 S1                 0.0000
      2 ****        -2.9110  -1.1008  -1.3390 N.am           1 S1                 0.0000
      3 ****        -1.5644  -0.8045  -1.2879 N.2            1 S1                 0.0000
      4 ****        -1.1322   0.4003  -1.0832 C.2            1 S1                 0.0000
      5 ****         0.3294   0.6639  -1.0137 C.2            1 S1                 0.0000
      6 ****         0.7595   1.7666  -0.6735 O.2            1 S1                 0.0000
      7 ****         1.1306  -0.3727  -1.3243 N.am           1 S1                 0.0000
      8 ****         2.5910  -0.3647  -1.2828 C.3            1 S1                 0.0000
      9 ****         3.1419  -0.9455   0.0341 C.3            1 S1                 0.0000
     10 ****         2.6502  -0.2173   1.2734 C.ar           1 S1                 0.0000
     11 ****         1.6634  -0.7923   2.1052 C.ar           1 S1                 0.0000
     12 ****         1.2052  -0.0768   3.2308 C.ar           1 S1                 0.0000
     13 ****         1.7447   1.1975   3.5002 C.ar           1 S1                 0.0000
     14 ****         2.6893   1.7141   2.6840 N.pl3          1 S1                 1.0000
     15 ****         3.1556   1.0603   1.5976 C.ar           1 S1                 0.0000
     16 ****        -2.1050   1.5439  -0.8756 C.3            1 S1                 0.0000
     17 ****        -3.4609   1.2836  -1.5613 C.3            1 S1                 0.0000
     18 ****        -3.9003  -0.1786  -1.4422 C.2            1 S1                 0.0000
     19 ****        -5.0982  -0.4605  -1.4682 O.2            1 S1                 0.0000
     20 ****        -3.7500  -2.8262  -2.2154 H              1 S1                 0.0000
     21 ****        -3.8660  -2.7602  -0.4529 H              1 S1                 0.0000
     22 ****        -2.3307  -3.1442  -1.2243 H              1 S1                 0.0000
     23 ****         0.6892  -1.2389  -1.5990 H              1 S1                 0.0000
     24 ****         2.9560  -0.9570  -2.1221 H              1 S1                 0.0000
     25 ****         2.9737   0.6454  -1.4381 H              1 S1                 0.0000
     26 ****         2.8739  -2.0003   0.1087 H              1 S1                 0.0000
     27 ****         4.2319  -0.9116   0.0205 H              1 S1                 0.0000
     28 ****         1.2529  -1.7656   1.8793 H              1 S1                 0.0000
     29 ****         0.4482  -0.4982   3.8759 H              1 S1                 0.0000
     30 ****         1.4507   1.8147   4.3365 H              1 S1                 0.0000
     31 ****         3.9034   1.5811   1.0173 H              1 S1                 0.0000
     32 ****        -2.2526   1.7003   0.1935 H              1 S1                 0.0000
     33 ****        -1.6931   2.4746  -1.2683 H              1 S1                 0.0000
     34 ****        -4.2273   1.9409  -1.1490 H              1 S1                 0.0000
     35 ****        -3.3853   1.5172  -2.6239 H              1 S1                 0.0000
     36 ****         3.0648   2.6392   2.8949 H              1 S1                 0.0000
     37 ****        -0.9011  -1.5423  -1.4127 LP             1 S1                 0.0000
     38 ****         0.1226   2.5010  -0.4389 LP             1 S1                 0.0000
     39 ****         1.7455   1.9276  -0.6319 LP             1 S1                 0.0000
     40 ****        -5.3884  -1.4158  -1.4118 LP             1 S1                 0.0000
     41 ****        -5.7812   0.2658  -1.5458 LP             1 S1                 0.0000
@<TRIPOS>BOND
    1    1    2 1     
    2    1   20 1     
    3    1   21 1     
    4    1   22 1     
    5    2   18 am    
    6    2    3 1     
    7    3    4 2     
    8    4    5 1     
    9    4   16 1     
   10    5    6 2     
   11    5    7 am    
   12    7    8 1     
   13    7   23 1     
   14    8    9 1     
   15    8   24 1     
   16    8   25 1     
   17    9   10 1     
   18    9   26 1     
   19    9   27 1     
   20   10   15 ar    
   21   10   11 ar    
   22   11   12 ar    
   23   11   28 1     
   24   12   13 ar    
   25   12   29 1     
   26   13   14 ar    
   27   13   30 1     
   28   14   15 ar    
   29   14   36 1     
   30   15   31 1     
   31   16   17 1     
   32   16   32 1     
   33   16   33 1     
   34   17   18 1     
   35   17   34 1     
   36   17   35 1     
   37   18   19 2     
   38    3   37 1     
   39    6   38 1     
   40    6   39 1     
   41   19   40 1     
   42   19   41 1     
@<TRIPOS>SUBSTRUCTURE
      1 S1             1
@<TRIPOS>SET
LONE_PAIRS      STATIC     ATOMS    <user>   **** ""
5 37 38 39 40 41
DONOR_HYDROGENS      STATIC     ATOMS    <user>   **** ""
2 23 36
ATOM$BLUE        STATIC     ATOMS    COLORGROUP SYSTEM
5 37 38 39 40 41
ATOM$RED        STATIC     ATOMS    COLORGROUP SYSTEM
2 23 36
