AV-unprocessed.smi:784|AV-procd|sdf|3719|dock9
  -GOLD-   22720 1143D 1   1.00000     0.00000
 Structure written by MMmdl.
 37 38  0  0  0  0  0  0  0  0  2 V2000
  146.9828  141.0958  153.0845 C   0  0  0  0  0  0  0  0  0  0  0  0
  148.2285  140.5278  153.6977 C   0  0  0  0  0  0  0  0  0  0  0  0
  148.4807  139.1900  154.1057 C   0  0  0  0  0  0  0  0  0  0  0  0
  149.7542  139.2367  154.5984 C   0  0  0  0  0  0  0  0  0  0  0  0
  150.6542  138.2040  155.1942 C   0  0  0  0  0  0  0  0  0  0  0  0
  152.0641  139.0066  156.0744 S   0  0  0  0  0  0  0  0  0  0  0  0
  152.7971  137.9144  156.7347 O   0  0  0  0  0  0  0  0  0  0  0  0
  152.7948  139.7918  155.0654 O   0  0  0  0  0  0  0  0  0  0  0  0
  151.2666  139.9344  157.1413 N   0  5  0  0  0  0  0  0  0  0  0  0
  151.8935  141.1441  157.6559 C   0  0  0  0  0  0  0  0  0  0  0  0
  152.1579  140.9488  159.1686 C   0  0  0  0  0  0  0  0  0  0  0  0
  152.9651  142.0568  159.8814 C   0  0  0  0  0  0  0  0  0  0  0  0
  152.3373  143.4666  159.8744 C   0  0  0  0  0  0  0  0  0  0  0  0
  152.5349  144.1916  158.5330 C   0  0  0  0  0  0  0  0  0  0  0  0
  151.5990  143.7607  157.3788 C   0  0  0  0  0  0  0  0  0  0  0  0
  150.9548  142.3521  157.4109 C   0  0  0  0  0  0  0  0  0  0  0  0
  150.2491  140.4976  154.4954 O   0  0  0  0  0  0  0  0  0  0  0  0
  149.2687  141.3140  153.9199 N   0  0  0  0  0  0  0  0  0  0  0  0
  146.3434  140.3055  152.6910 H   0  0  0  0  0  0  0  0  0  0  0  0
  147.2180  141.7710  152.2613 H   0  0  0  0  0  0  0  0  0  0  0  0
  146.4054  141.6543  153.8214 H   0  0  0  0  0  0  0  0  0  0  0  0
  147.8288  138.3306  154.0558 H   0  0  0  0  0  0  0  0  0  0  0  0
  150.1189  137.5606  155.8916 H   0  0  0  0  0  0  0  0  0  0  0  0
  151.0696  137.5718  154.4096 H   0  0  0  0  0  0  0  0  0  0  0  0
  152.8473  141.3320  157.1609 H   0  0  0  0  0  0  0  0  0  0  0  0
  151.2087  140.8157  159.6896 H   0  0  0  0  0  0  0  0  0  0  0  0
  152.7001  140.0125  159.3099 H   0  0  0  0  0  0  0  0  0  0  0  0
  153.0799  141.7518  160.9221 H   0  0  0  0  0  0  0  0  0  0  0  0
  153.9821  142.0999  159.4870 H   0  0  0  0  0  0  0  0  0  0  0  0
  151.2833  143.4318  160.1524 H   0  0  0  0  0  0  0  0  0  0  0  0
  152.8311  144.0551  160.6483 H   0  0  0  0  0  0  0  0  0  0  0  0
  152.4140  145.2644  158.6875 H   0  0  0  0  0  0  0  0  0  0  0  0
  153.5714  144.0671  158.2168 H   0  0  0  0  0  0  0  0  0  0  0  0
  150.7801  144.4792  157.3298 H   0  0  0  0  0  0  0  0  0  0  0  0
  152.1366  143.8895  156.4378 H   0  0  0  0  0  0  0  0  0  0  0  0
  150.4468  142.2286  156.4532 H   0  0  0  0  0  0  0  0  0  0  0  0
  150.1539  142.3399  158.1514 H   0  0  0  0  0  0  0  0  0  0  0  0
  1  2  1  0  0  0  0
  1 19  1  0  0  0  0
  1 20  1  0  0  0  0
  1 21  1  0  0  0  0
  2 18  2  0  0  0  0
  2  3  1  0  0  0  0
  3  4  2  0  0  0  0
  3 22  1  0  0  0  0
  4  5  1  0  0  0  0
  4 17  1  0  0  0  0
  5  6  1  0  0  0  0
  5 23  1  0  0  0  0
  5 24  1  0  0  0  0
  6  7  2  0  0  0  0
  6  8  2  0  0  0  0
  6  9  1  0  0  0  0
  9 10  1  0  0  0  0
 10 16  1  0  0  0  0
 10 11  1  0  0  0  0
 10 25  1  0  0  0  0
 11 12  1  0  0  0  0
 11 26  1  0  0  0  0
 11 27  1  0  0  0  0
 12 13  1  0  0  0  0
 12 28  1  0  0  0  0
 12 29  1  0  0  0  0
 13 14  1  0  0  0  0
 13 30  1  0  0  0  0
 13 31  1  0  0  0  0
 14 15  1  0  0  0  0
 14 32  1  0  0  0  0
 14 33  1  0  0  0  0
 15 16  1  0  0  0  0
 15 34  1  0  0  0  0
 15 35  1  0  0  0  0
 16 36  1  0  0  0  0
 16 37  1  0  0  0  0
 17 18  1  0  0  0  0
M  CHG  1   9  -1
M  END
> <s_m_source_file>
AV-unprocessed.smi

> <i_m_source_file_index>
784

> <i_lp_mmshare_version>
43012

> <i_f3d_flags>
0

> <s_epik_input>
W0NIM11jMVtjSF1jKG9uMSlbQ0gyXVMoPU8pKD1PKVtOSF1bQ0hdMltDSDJdW0NIMl1bQ0gyXVtDSDJdW0NIMl1bQ0gyXTI=

> <s_epik_cmdline>
J2VwaWtfcHl0aG9uJywgJy1waCcsICc3LjAnLCAnLXRuJywgJzgnLCAnLW1hJywgJzIwMCcsICctbWV0YWxfYmluZGluZycsICctaW1hZScsICc8aW5maWxlLm1hZT4nLCAnLW9tYWUnLCAnPG91dGZpbGUubWFlPic=

> <r_lp_tautomer_probability>
1

> <r_epik_Ionization_Penalty>
5.56674

> <r_epik_Ionization_Penalty_Charging>
5.56674

> <r_epik_Ionization_Penalty_Neutral>
9.19761e-10

> <r_epik_State_Penalty>
5.56669

> <r_epik_Charging_Adjusted_Penalty>
11.1334

> <i_epik_Tot_Q>
-1

> <i_epik_Tot_abs_Q>
1

> <r_epik_Metal_State_Penalty>
1.56499

> <b_epik_Metal_Only>
1

> <s_lp_Force_Field>
OPLS_2005

> <r_lp_Energy>
11.8728

> <b_lp_Chiralities_Consistent>
1

> <s_lp_Variant>
AV-unprocessed.smi:784-2

> <Gold.Version>
5.8.1

> <Gold.Id.Protein>
6NUR|6NUR_protein|mol2

> <Gold.PLP.Fitness>
46.8513

> <Gold.PLP.PLP>
-39.6369

> <Gold.PLP.part.hbond>
-5.0000

> <Gold.PLP.part.metal>
0.0000

> <Gold.PLP.part.buried>
-2.3424

> <Gold.PLP.part.nonpolar>
-31.9282

> <Gold.PLP.part.repulsive>
0.3216

> <Gold.PLP.ligand.clash>
0.0000

> <Gold.PLP.ligand.torsion>
0.8607

> <Gold.PLP.Chemscore.Hbond>
2.6480

> <Gold.PLP.Chemscore.CHOScore>
0.0000

> <Gold.PLP.Chemscore.Metal>
0.0000

> <Gold.Chemscore.Hbonds>
donor molecule, donor type, donor heavy atom, donor atom, acceptor molecule, acceptor atom, score
      P1  H  7989  7998       L1    17  0.93
      P1  H  7997  8008       L1     8  1.00
      P1  H  8011  8017       L1    18  0.80

> <Gold.PLP.Chemscore.Internal.Correction>
0.9918

> <Gold.Rescore>
     Score         DG    S(hbond)    S(metal)    S(lipo)     H(rot)  DE(clash)    DE(int)     intcor
     16.40     -19.06       1.45        0.00     103.87       1.34       0.10       2.56       ----

> <Gold.Chemscore.Fitness>
16.3995

> <Gold.Chemscore.DG>
-19.0587

> <Gold.Chemscore.ZeroCoef>
-5.4800

> <Gold.Chemscore.Hbond>
1.4544

> <Gold.Chemscore.Metal>
0.0000

> <Gold.Chemscore.Lipo>
103.8699

> <Gold.Chemscore.Internal_Hbond>
0.0000

> <Gold.Chemscore.DEClash>
0.1018

> <Gold.Chemscore.DEInternal>
2.5574

> <Gold.Chemscore.Rot>
1.3405

> <Gold.Chemscore.Internal.Correction>
   9.000000E+99

> <Gold.Chemscore.Hbonds>
donor molecule, donor type, donor heavy atom, donor atom, acceptor molecule, acceptor atom, score
      P1  H  7989  7998       L1     8  0.29
      P1  H  7997  8008       L1     8  0.60
      P1  H  8011  8017       L1    18  0.65

> <Gold.Chemscore.Hbond.Weighted>
-4.8577

> <Gold.Chemscore.Metal.Weighted>
-0.0000

> <Gold.Chemscore.Lipo.Weighted>
-12.1528

> <Gold.Chemscore.Internal_Hbond.Weighted>
0.0000

> <Gold.Chemscore.DEClash.Weighted>
0.1018

> <Gold.Chemscore.DEInternal.Weighted>
2.5574

> <Gold.Chemscore.Rot.Weighted>
3.4318

> <Gold.Chemscore.Internal.Correction.Weighted>
   9.000000E+99

> <Gold.Protein.RotatedTorsions>
[ 6907 6896 6895 6894 ] final  -97.63 input  -60.11 | X-H torsion
[ 7974 7965 7964 7962 ] final -143.25 input  175.53 | X-H torsion
[ 8008 7997 7996 7995 ] final  -10.70 input   59.86 | X-H torsion
[ 10167 10162 10161 10158 ] final  107.53 input  -65.29 | X-H torsion
[ 10718 10713 10712 10709 ] final  -94.45 input   66.30 | X-H torsion
[ 10763 10752 10751 10750 ] final    0.47 input  -60.55 | X-H torsion
[ 11005 11000 10999 10996 ] final -140.14 input  -57.11 | X-H torsion

> <Gold.Protein.ActiveResidues>
 VAL166  LYS551  ARG553  GLY616  TRP617  ASP618  TYR619  PRO620  LYS621  CYS622 
 ASP623  PHE694  ASN695  SER759  ASP760  ASP761  ALA762  ILE779  LEU786  VAL792 
 PHE793  MET794  SER795  GLU796  ALA797  LYS798  CYS799  TRP800  GLU811  SER814 

> <Gold.Protein.RotatedAtoms>
  150.7022  134.1319  159.4072 H   0  0  0  0  0  0  0  0  0  0  0  0  # atno 6907 bound_to 6896
  151.9305  135.0256  160.0538 H   0  0  0  0  0  0  0  0  0  0  0  0  # atno 6908 bound_to 6896
  152.2180  133.4926  159.5183 H   0  0  0  0  0  0  0  0  0  0  0  0  # atno 6909 bound_to 6896
  144.8383  140.5858  143.5469 H   0  0  0  0  0  0  0  0  0  0  0  0  # atno 7974 bound_to 7965
  154.5530  140.2322  155.8454 H   0  0  0  0  0  0  0  0  0  0  0  0  # atno 8008 bound_to 7997
  156.1964  140.3064  155.9396 H   0  0  0  0  0  0  0  0  0  0  0  0  # atno 8009 bound_to 7997
  155.3033  140.0432  157.3021 H   0  0  0  0  0  0  0  0  0  0  0  0  # atno 8010 bound_to 7997
  139.6920  144.7106  151.1332 H   0  0  0  0  0  0  0  0  0  0  0  0  # atno 10167 bound_to 10162
  156.0027  130.5068  150.5928 H   0  0  0  0  0  0  0  0  0  0  0  0  # atno 10718 bound_to 10713
  153.3203  135.6968  153.7037 H   0  0  0  0  0  0  0  0  0  0  0  0  # atno 10763 bound_to 10752
  153.5879  135.3485  155.2900 H   0  0  0  0  0  0  0  0  0  0  0  0  # atno 10764 bound_to 10752
  154.8596  135.4311  154.2365 H   0  0  0  0  0  0  0  0  0  0  0  0  # atno 10765 bound_to 10752
  140.8452  134.2354  157.4790 H   0  0  0  0  0  0  0  0  0  0  0  0  # atno 11005 bound_to 11000
  145.4747  139.1500  143.3794 LP  0  0  0  0  0  0  0  0  0  0  0  0  # atno 17320 bound_to 7965
  146.2679  140.4882  142.8826 LP  0  0  0  0  0  0  0  0  0  0  0  0  # atno 17321 bound_to 7965
  140.7685  143.5546  150.9167 LP  0  0  0  0  0  0  0  0  0  0  0  0  # atno 17342 bound_to 10162
  139.9224  143.6591  152.3094 LP  0  0  0  0  0  0  0  0  0  0  0  0  # atno 17343 bound_to 10162
  157.3790  131.0778  151.1493 LP  0  0  0  0  0  0  0  0  0  0  0  0  # atno 17370 bound_to 10713
  157.2222  130.6486  149.5816 LP  0  0  0  0  0  0  0  0  0  0  0  0  # atno 17371 bound_to 10713
  139.8703  134.9655  156.4532 LP  0  0  0  0  0  0  0  0  0  0  0  0  # atno 17394 bound_to 11000
  140.8852  133.7889  155.9510 LP  0  0  0  0  0  0  0  0  0  0  0  0  # atno 17395 bound_to 11000

$$$$
