#       Name:                AV-unprocessed.smi:2795
#       Creating user name   scv26
#       Creation time:       Fri Mar 27 15:21:34 2020


#       File generated by GOLD software.
#

@<TRIPOS>MOLECULE
AV-unprocessed.smi:2795
    41    42     1
SMALL
NO_CHARGES


@<TRIPOS>ATOM
      1 ****        -4.0375   2.6325   0.1405 C.3            1 S1                 0.0000
      2 ****        -2.9615   3.5559  -0.1588 N.pl3          1 S1                 0.0000
      3 ****        -3.0454   4.8911  -0.2344 C.2            1 S1                 0.0000
      4 ****        -1.9030   5.4976  -0.5266 N.2            1 S1                 0.0000
      5 ****        -0.9951   4.4495  -0.6514 C.2            1 S1                 0.0000
      6 ****        -1.6315   3.2463  -0.4294 C.2            1 S1                 0.0000
      7 ****        -1.1100   1.8420  -0.4455 C.3            1 S1                 0.0000
      8 ****         0.3854   1.7245  -0.7907 C.3            1 S1                 0.0000
      9 ****         0.8194   0.3327  -0.8241 N.am           1 S1                 0.0000
     10 ****         1.0960  -0.4151   0.2554 C.2            1 S1                 0.0000
     11 ****         1.0306   0.0145   1.4075 O.2            1 S1                 0.0000
     12 ****         1.5124  -1.8660  -0.0074 C.3            1 S1                 0.0000
     13 ****         0.6950  -2.8610   0.8448 C.3            1 S1                 0.0000
     14 ****         1.1986  -4.2917   0.6263 C.3            1 S1                 0.0000
     15 ****         2.7100  -4.3474   0.8719 C.3            1 S1                 0.0000
     16 ****         3.4289  -3.2823   0.0285 C.3            1 S1                 0.0000
     17 ****         2.8966  -1.9916   0.3125 O.3            1 S1                 0.0000
     18 ****        -4.9478   3.1798   0.3879 H              1 S1                 0.0000
     19 ****        -3.7609   2.0059   0.9888 H              1 S1                 0.0000
     20 ****        -4.2288   1.9989  -0.7259 H              1 S1                 0.0000
     21 ****        -3.9658   5.4327  -0.0716 H              1 S1                 0.0000
     22 ****         0.0405   4.6419  -0.8903 H              1 S1                 0.0000
     23 ****        -1.2929   1.3900   0.5299 H              1 S1                 0.0000
     24 ****        -1.6884   1.2580  -1.1624 H              1 S1                 0.0000
     25 ****         0.5759   2.1584  -1.7727 H              1 S1                 0.0000
     26 ****         0.9913   2.2861  -0.0775 H              1 S1                 0.0000
     27 ****         0.9079  -0.0969  -1.7336 H              1 S1                 0.0000
     28 ****         1.3712  -2.0905  -1.0669 H              1 S1                 0.0000
     29 ****         0.7787  -2.6111   1.9038 H              1 S1                 0.0000
     30 ****        -0.3639  -2.7979   0.5915 H              1 S1                 0.0000
     31 ****         0.6787  -4.9836   1.2895 H              1 S1                 0.0000
     32 ****         0.9788  -4.6079  -0.3943 H              1 S1                 0.0000
     33 ****         2.9160  -4.1741   1.9288 H              1 S1                 0.0000
     34 ****         3.0946  -5.3400   0.6363 H              1 S1                 0.0000
     35 ****         4.4947  -3.2807   0.2574 H              1 S1                 0.0000
     36 ****         3.3327  -3.4997  -1.0363 H              1 S1                 0.0000
     37 ****        -1.7335   6.4774  -0.6325 LP             1 S1                 0.0000
     38 ****         0.7607   0.9631   1.5728 LP             1 S1                 0.0000
     39 ****         1.2473  -0.5852   2.1778 LP             1 S1                 0.0000
     40 ****         3.0141  -1.8081   1.2884 LP             1 S1                 0.0000
     41 ****         3.4070  -1.3147  -0.2178 LP             1 S1                 0.0000
@<TRIPOS>BOND
    1    1    2 1     
    2    1   18 1     
    3    1   19 1     
    4    1   20 1     
    5    2    6 1     
    6    2    3 1     
    7    3    4 2     
    8    3   21 1     
    9    4    5 1     
   10    5    6 2     
   11    5   22 1     
   12    6    7 1     
   13    7    8 1     
   14    7   23 1     
   15    7   24 1     
   16    8    9 1     
   17    8   25 1     
   18    8   26 1     
   19    9   10 am    
   20    9   27 1     
   21   10   11 2     
   22   10   12 1     
   23   12   17 1     
   24   12   13 1     
   25   12   28 1     
   26   13   14 1     
   27   13   29 1     
   28   13   30 1     
   29   14   15 1     
   30   14   31 1     
   31   14   32 1     
   32   15   16 1     
   33   15   33 1     
   34   15   34 1     
   35   16   17 1     
   36   16   35 1     
   37   16   36 1     
   38    4   37 1     
   39   11   38 1     
   40   11   39 1     
   41   17   40 1     
   42   17   41 1     
@<TRIPOS>SUBSTRUCTURE
      1 S1             1
@<TRIPOS>SET
LONE_PAIRS      STATIC     ATOMS    <user>   **** ""
5 37 38 39 40 41
DONOR_HYDROGENS      STATIC     ATOMS    <user>   **** ""
1 27
ATOM$BLUE        STATIC     ATOMS    COLORGROUP SYSTEM
5 37 38 39 40 41
ATOM$RED        STATIC     ATOMS    COLORGROUP SYSTEM
1 27
