#       Name:                AV-unprocessed.smi:3277
#       Creating user name   scv26
#       Creation time:       Fri Mar 27 18:45:30 2020


#       File generated by GOLD software.
#

@<TRIPOS>MOLECULE
AV-unprocessed.smi:3277
    38    40     1
SMALL
NO_CHARGES


@<TRIPOS>ATOM
      1 ****        -2.2231  -1.6275   4.4733 C.3            1 S1                 0.0000
      2 ****        -0.9954  -0.9373   4.1101 N.am           1 S1                 0.0000
      3 ****        -0.9455   0.1527   3.3304 C.2            1 S1                 0.0000
      4 ****        -1.9450   0.6860   2.8492 O.2            1 S1                 0.0000
      5 ****         0.4418   0.7333   3.0507 C.3            1 S1                 0.0000
      6 ****         1.0175   0.0055   1.8789 C.2            1 S1                 0.0000
      7 ****         0.8100   0.3681   0.6107 N.2            1 S1                 0.0000
      8 ****         1.4419  -0.4745  -0.3116 C.2            1 S1                 0.0000
      9 ****         1.3115  -0.2565  -1.7991 C.3            1 S1                 0.0000
     10 ****         1.5616   1.1906  -2.2782 C.3            1 S1                 0.0000
     11 ****         0.3492   1.4510  -3.1939 C.3            1 S1                 0.0000
     12 ****        -0.9137   1.6338  -2.3291 C.3            1 S1                 0.0000
     13 ****        -1.2226   0.1970  -1.8674 C.3            1 S1                 0.0000
     14 ****        -0.0467  -0.6090  -2.4563 C.3            1 S1                 0.0000
     15 ****         0.1089   0.0769  -3.8114 C.3            1 S1                 0.0000
     16 ****         2.1494  -1.4847   0.2925 C.2            1 S1                 0.0000
     17 ****         2.0432  -1.4156   2.0300 S.3            1 S1                 0.0000
     18 ****        -1.9926  -2.4972   5.0887 H              1 S1                 0.0000
     19 ****        -2.7541  -1.9700   3.5840 H              1 S1                 0.0000
     20 ****        -2.8831  -0.9714   5.0425 H              1 S1                 0.0000
     21 ****        -0.1295  -1.3147   4.4664 H              1 S1                 0.0000
     22 ****         0.3711   1.7987   2.8277 H              1 S1                 0.0000
     23 ****         1.0939   0.6168   3.9171 H              1 S1                 0.0000
     24 ****         2.0614  -0.8821  -2.2869 H              1 S1                 0.0000
     25 ****         1.6100   1.9175  -1.4667 H              1 S1                 0.0000
     26 ****         2.4992   1.2554  -2.8315 H              1 S1                 0.0000
     27 ****         0.5085   2.2584  -3.9091 H              1 S1                 0.0000
     28 ****        -0.7451   2.3113  -1.4911 H              1 S1                 0.0000
     29 ****        -1.7397   2.0318  -2.9197 H              1 S1                 0.0000
     30 ****        -1.3296   0.1036  -0.7884 H              1 S1                 0.0000
     31 ****        -2.1629  -0.1408  -2.3052 H              1 S1                 0.0000
     32 ****        -0.2401  -1.6809  -2.5060 H              1 S1                 0.0000
     33 ****        -0.7904   0.0311  -4.4285 H              1 S1                 0.0000
     34 ****         0.9570  -0.2906  -4.3919 H              1 S1                 0.0000
     35 ****         2.7235  -2.2677  -0.1804 H              1 S1                 0.0000
     36 ****        -2.8518   0.3070   3.0337 LP             1 S1                 0.0000
     37 ****        -1.8503   1.4983   2.2737 LP             1 S1                 0.0000
     38 ****         0.2597   1.1603   0.3468 LP             1 S1                 0.0000
@<TRIPOS>BOND
    1    1    2 1     
    2    1   18 1     
    3    1   19 1     
    4    1   20 1     
    5    2    3 am    
    6    2   21 1     
    7    3    4 2     
    8    3    5 1     
    9    5    6 1     
   10    5   22 1     
   11    5   23 1     
   12    6   17 1     
   13    6    7 2     
   14    7    8 1     
   15    8    9 1     
   16    8   16 2     
   17    9   14 1     
   18    9   10 1     
   19    9   24 1     
   20   10   11 1     
   21   10   25 1     
   22   10   26 1     
   23   11   15 1     
   24   11   12 1     
   25   11   27 1     
   26   12   13 1     
   27   12   28 1     
   28   12   29 1     
   29   13   14 1     
   30   13   30 1     
   31   13   31 1     
   32   14   15 1     
   33   14   32 1     
   34   15   33 1     
   35   15   34 1     
   36   16   17 1     
   37   16   35 1     
   38    4   36 1     
   39    4   37 1     
   40    7   38 1     
@<TRIPOS>SUBSTRUCTURE
      1 S1             1
@<TRIPOS>SET
LONE_PAIRS      STATIC     ATOMS    <user>   **** ""
3 36 37 38
DONOR_HYDROGENS      STATIC     ATOMS    <user>   **** ""
1 21
ATOM$BLUE        STATIC     ATOMS    COLORGROUP SYSTEM
3 36 37 38
ATOM$RED        STATIC     ATOMS    COLORGROUP SYSTEM
1 21
