#       Name:                AV-unprocessed.smi:1824
#       Creating user name   scv26
#       Creation time:       Fri Mar 27 09:08:06 2020


#       File generated by GOLD software.
#

@<TRIPOS>MOLECULE
AV-unprocessed.smi:1824
    50    52     1
SMALL
NO_CHARGES


@<TRIPOS>ATOM
      1 ****        -1.2663   3.7471  -1.0173 C.3            1 S1                 0.0000
      2 ****        -2.1298   2.7663  -1.8306 C.3            1 S1                 0.0000
      3 ****        -1.5560   1.3370  -1.8800 C.3            1 S1                 0.0000
      4 ****        -1.7331   0.6483  -0.5781 N.4            1 S1                 1.0000
      5 ****        -1.1328  -0.7096  -0.5345 C.3            1 S1                 0.0000
      6 ****         0.3972  -0.6677  -0.3506 C.3            1 S1                 0.0000
      7 ****         0.6885  -0.1009   0.9132 O.3            1 S1                 0.0000
      8 ****         1.0272  -2.0710  -0.4429 C.3            1 S1                 0.0000
      9 ****         2.4724  -2.0401  -0.3013 N.pl3          1 S1                 0.0000
     10 ****         3.3751  -1.7966  -1.2711 C.2            1 S1                 0.0000
     11 ****         4.6591  -1.8100  -0.9259 N.2            1 S1                 0.0000
     12 ****         4.5826  -2.0952   0.4264 C.ar           1 S1                 0.0000
     13 ****         5.6042  -2.2462   1.3911 C.ar           1 S1                 0.0000
     14 ****         5.2827  -2.5369   2.7333 C.ar           1 S1                 0.0000
     15 ****         6.2739  -2.6753   3.6456 F              1 S1                 0.0000
     16 ****         3.9368  -2.6828   3.1300 C.ar           1 S1                 0.0000
     17 ****         3.6367  -2.9607   4.4208 F              1 S1                 0.0000
     18 ****         2.9019  -2.5390   2.1861 C.ar           1 S1                 0.0000
     19 ****         3.2273  -2.2468   0.8487 C.ar           1 S1                 0.0000
     20 ****        -3.1602   0.6582  -0.1836 C.3            1 S1                 0.0000
     21 ****        -3.6881   2.1032  -0.1220 C.3            1 S1                 0.0000
     22 ****        -5.1863   2.1557   0.1975 C.3            1 S1                 0.0000
     23 ****        -3.4852   2.7368  -1.3828 O.3            1 S1                 0.0000
     24 ****        -0.2754   3.8484  -1.4605 H              1 S1                 0.0000
     25 ****        -1.1267   3.4223   0.0135 H              1 S1                 0.0000
     26 ****        -1.7192   4.7387  -0.9976 H              1 S1                 0.0000
     27 ****        -2.1579   3.1466  -2.8522 H              1 S1                 0.0000
     28 ****        -2.0675   0.7656  -2.6566 H              1 S1                 0.0000
     29 ****        -0.5046   1.3752  -2.1629 H              1 S1                 0.0000
     30 ****        -1.5658  -1.2792   0.2896 H              1 S1                 0.0000
     31 ****        -1.3963  -1.2481  -1.4461 H              1 S1                 0.0000
     32 ****         0.8522  -0.0375  -1.1142 H              1 S1                 0.0000
     33 ****         0.3794  -0.6863   1.5880 H              1 S1                 0.0000
     34 ****         0.6140  -2.7312   0.3210 H              1 S1                 0.0000
     35 ****         0.7909  -2.5250  -1.4062 H              1 S1                 0.0000
     36 ****         3.0718  -1.5953  -2.2883 H              1 S1                 0.0000
     37 ****         6.6382  -2.1367   1.0992 H              1 S1                 0.0000
     38 ****         1.8715  -2.6498   2.4887 H              1 S1                 0.0000
     39 ****        -3.7402   0.0689  -0.8961 H              1 S1                 0.0000
     40 ****        -3.2772   0.1868   0.7931 H              1 S1                 0.0000
     41 ****        -3.1586   2.6533   0.6563 H              1 S1                 0.0000
     42 ****        -5.3994   1.6923   1.1611 H              1 S1                 0.0000
     43 ****        -5.7720   1.6354  -0.5609 H              1 S1                 0.0000
     44 ****        -5.5396   3.1864   0.2405 H              1 S1                 0.0000
     45 ****        -1.2440   1.1947   0.1170 H              1 S1                 0.0000
     46 ****         0.2292   0.7833   0.9990 LP             1 S1                 0.0000
     47 ****         1.6761   0.0262   1.0050 LP             1 S1                 0.0000
     48 ****         5.4674  -1.6548  -1.4938 LP             1 S1                 0.0000
     49 ****        -4.0275   2.2485  -2.0665 LP             1 S1                 0.0000
     50 ****        -3.8094   3.6802  -1.3119 LP             1 S1                 0.0000
@<TRIPOS>BOND
    1    1    2 1     
    2    1   24 1     
    3    1   25 1     
    4    1   26 1     
    5    2   23 1     
    6    2    3 1     
    7    2   27 1     
    8    3    4 1     
    9    3   28 1     
   10    3   29 1     
   11    4    5 1     
   12    4   20 1     
   13    4   45 1     
   14    5    6 1     
   15    5   30 1     
   16    5   31 1     
   17    6    7 1     
   18    6    8 1     
   19    6   32 1     
   20    7   33 1     
   21    8    9 1     
   22    8   34 1     
   23    8   35 1     
   24    9   19 1     
   25    9   10 1     
   26   10   11 2     
   27   10   36 1     
   28   11   12 1     
   29   12   19 ar    
   30   12   13 ar    
   31   13   14 ar    
   32   13   37 1     
   33   14   15 1     
   34   14   16 ar    
   35   16   17 1     
   36   16   18 ar    
   37   18   19 ar    
   38   18   38 1     
   39   20   21 1     
   40   20   39 1     
   41   20   40 1     
   42   21   22 1     
   43   21   23 1     
   44   21   41 1     
   45   22   42 1     
   46   22   43 1     
   47   22   44 1     
   48    7   46 1     
   49    7   47 1     
   50   11   48 1     
   51   23   49 1     
   52   23   50 1     
@<TRIPOS>SUBSTRUCTURE
      1 S1             1
@<TRIPOS>SET
LONE_PAIRS      STATIC     ATOMS    <user>   **** ""
5 46 47 48 49 50
DONOR_HYDROGENS      STATIC     ATOMS    <user>   **** ""
2 45 33
ATOM$BLUE        STATIC     ATOMS    COLORGROUP SYSTEM
5 46 47 48 49 50
ATOM$RED        STATIC     ATOMS    COLORGROUP SYSTEM
2 45 33
