AV-unprocessed.smi:800|AV-procd|sdf|3788|dock5
  -GOLD-   22720 1223D 1   1.00000     0.00000
 Structure written by MMmdl.
 35 36  0  0  0  0  0  0  0  0  2 V2000
  154.0391  137.3389  162.4431 C   0  0  0  0  0  0  0  0  0  0  0  0
  155.0350  138.4500  162.0758 C   0  0  0  0  0  0  0  0  0  0  0  0
  155.7244  139.0210  163.3227 C   0  0  0  0  0  0  0  0  0  0  0  0
  154.3285  139.5294  161.3874 N   0  5  0  0  0  0  0  0  0  0  0  0
  154.5638  139.9022  160.0971 C   0  0  0  0  0  0  0  0  0  0  0  0
  155.5507  139.7024  159.3802 O   0  0  0  0  0  0  0  0  0  0  0  0
  153.4435  140.7309  159.5359 C   0  0  0  0  0  0  0  0  0  0  0  0
  152.9648  140.3540  158.3273 N   0  0  0  0  0  0  0  0  0  0  0  0
  151.9695  141.0634  157.7832 C   0  0  0  0  0  0  0  0  0  0  0  0
  151.5013  140.6618  156.5251 N   0  0  0  0  0  0  0  0  0  0  0  0
  152.2176  139.6888  155.6972 C   0  0  0  0  0  0  0  0  0  0  0  0
  151.2310  138.8425  154.8746 C   0  0  0  0  0  0  0  0  0  0  0  0
  150.3880  139.6929  154.1069 O   0  0  0  0  0  0  0  0  0  0  0  0
  149.6100  140.5456  154.9383 C   0  0  0  0  0  0  0  0  0  0  0  0
  150.5356  141.4567  155.7619 C   0  0  0  0  0  0  0  0  0  0  0  0
  151.3894  142.1281  158.3509 N   0  0  0  0  0  0  0  0  0  0  0  0
  151.8370  142.5127  159.5643 C   0  0  0  0  0  0  0  0  0  0  0  0
  152.8790  141.8360  160.2253 C   0  0  0  0  0  0  0  0  0  0  0  0
  153.3740  142.3466  161.8040 Cl  0  0  0  0  0  0  0  0  0  0  0  0
  154.5399  136.5232  162.9650 H   0  0  0  0  0  0  0  0  0  0  0  0
  153.5697  136.9182  161.5531 H   0  0  0  0  0  0  0  0  0  0  0  0
  153.2465  137.7119  163.0929 H   0  0  0  0  0  0  0  0  0  0  0  0
  155.8116  138.0105  161.4479 H   0  0  0  0  0  0  0  0  0  0  0  0
  156.2668  138.2423  163.8592 H   0  0  0  0  0  0  0  0  0  0  0  0
  155.0032  139.4586  164.0137 H   0  0  0  0  0  0  0  0  0  0  0  0
  156.4436  139.7963  163.0554 H   0  0  0  0  0  0  0  0  0  0  0  0
  152.8934  140.2281  155.0327 H   0  0  0  0  0  0  0  0  0  0  0  0
  152.8317  139.0138  156.2924 H   0  0  0  0  0  0  0  0  0  0  0  0
  151.7758  138.1818  154.2005 H   0  0  0  0  0  0  0  0  0  0  0  0
  150.6286  138.2061  155.5250 H   0  0  0  0  0  0  0  0  0  0  0  0
  148.9534  141.1481  154.3106 H   0  0  0  0  0  0  0  0  0  0  0  0
  148.9682  139.9515  155.5912 H   0  0  0  0  0  0  0  0  0  0  0  0
  149.9164  142.0847  156.4018 H   0  0  0  0  0  0  0  0  0  0  0  0
  151.0846  142.1272  155.1001 H   0  0  0  0  0  0  0  0  0  0  0  0
  151.3484  143.3630  160.0164 H   0  0  0  0  0  0  0  0  0  0  0  0
  1  2  1  0  0  0  0
  1 20  1  0  0  0  0
  1 21  1  0  0  0  0
  1 22  1  0  0  0  0
  2  3  1  0  0  0  0
  2  4  1  0  0  0  0
  2 23  1  0  0  0  0
  3 24  1  0  0  0  0
  3 25  1  0  0  0  0
  3 26  1  0  0  0  0
  4  5  1  0  0  0  0
  5  6  2  0  0  0  0
  5  7  1  0  0  0  0
  7 18  1  0  0  0  0
  7  8  2  0  0  0  0
  8  9  1  0  0  0  0
  9 10  1  0  0  0  0
  9 16  2  0  0  0  0
 10 15  1  0  0  0  0
 10 11  1  0  0  0  0
 11 12  1  0  0  0  0
 11 27  1  0  0  0  0
 11 28  1  0  0  0  0
 12 13  1  0  0  0  0
 12 29  1  0  0  0  0
 12 30  1  0  0  0  0
 13 14  1  0  0  0  0
 14 15  1  0  0  0  0
 14 31  1  0  0  0  0
 14 32  1  0  0  0  0
 15 33  1  0  0  0  0
 15 34  1  0  0  0  0
 16 17  1  0  0  0  0
 17 18  2  0  0  0  0
 17 35  1  0  0  0  0
 18 19  1  0  0  0  0
M  CHG  1   4  -1
M  END
> <s_m_source_file>
AV-unprocessed.smi

> <i_m_source_file_index>
800

> <i_lp_mmshare_version>
43012

> <i_f3d_flags>
0

> <s_epik_input>
W0NIM11bQ0hdKFtDSDNdKVtOSF1DKD1PKWMxbmMobltjSF1jMUNsKU4yW0NIMl1bQ0gyXU9bQ0gyXVtDSDJdMg==

> <s_epik_cmdline>
J2VwaWtfcHl0aG9uJywgJy1waCcsICc3LjAnLCAnLXRuJywgJzgnLCAnLW1hJywgJzIwMCcsICctbWV0YWxfYmluZGluZycsICctaW1hZScsICc8aW5maWxlLm1hZT4nLCAnLW9tYWUnLCAnPG91dGZpbGUubWFlPic=

> <r_lp_tautomer_probability>
1

> <r_epik_Ionization_Penalty>
6.38192

> <r_epik_Ionization_Penalty_Charging>
6.38189

> <r_epik_Ionization_Penalty_Neutral>
2.33077e-05

> <r_epik_State_Penalty>
6.38188

> <r_epik_Charging_Adjusted_Penalty>
12.7638

> <i_epik_Tot_Q>
-1

> <i_epik_Tot_abs_Q>
1

> <r_epik_Metal_State_Penalty>
2.31349

> <b_epik_Metal_Only>
1

> <s_lp_Force_Field>
OPLS_2005

> <r_lp_Energy>
18.4653

> <b_lp_Chiralities_Consistent>
1

> <s_lp_Variant>
AV-unprocessed.smi:800-2

> <Gold.Version>
5.8.1

> <Gold.Id.Protein>
6NUR|6NUR_protein|mol2

> <Gold.PLP.Fitness>
42.9711

> <Gold.PLP.PLP>
-38.8958

> <Gold.PLP.part.hbond>
-3.0000

> <Gold.PLP.part.metal>
0.0000

> <Gold.PLP.part.buried>
-3.9566

> <Gold.PLP.part.nonpolar>
-31.6803

> <Gold.PLP.part.repulsive>
0.7434

> <Gold.PLP.ligand.clash>
0.0000

> <Gold.PLP.ligand.torsion>
1.0099

> <Gold.PLP.Chemscore.Hbond>
1.9913

> <Gold.PLP.Chemscore.CHOScore>
0.0000

> <Gold.PLP.Chemscore.Metal>
0.0000

> <Gold.Chemscore.Hbonds>
donor molecule, donor type, donor heavy atom, donor atom, acceptor molecule, acceptor atom, score
      P1  H  7989  7998       L1    13  1.00
      P1  H  7997  8009       L1     6  0.94

> <Gold.PLP.Chemscore.Internal.Correction>
0.1213

> <Gold.Rescore>
     Score         DG    S(hbond)    S(metal)    S(lipo)     H(rot)  DE(clash)    DE(int)     intcor
     15.26     -16.55       1.01        0.00      87.74       1.00       0.11       1.18       ----

> <Gold.Chemscore.Fitness>
15.2601

> <Gold.Chemscore.DG>
-16.5460

> <Gold.Chemscore.ZeroCoef>
-5.4800

> <Gold.Chemscore.Hbond>
1.0062

> <Gold.Chemscore.Metal>
0.0000

> <Gold.Chemscore.Lipo>
87.7388

> <Gold.Chemscore.Internal_Hbond>
0.0000

> <Gold.Chemscore.DEClash>
0.1102

> <Gold.Chemscore.DEInternal>
1.1758

> <Gold.Chemscore.Rot>
1.0000

> <Gold.Chemscore.Internal.Correction>
   9.000000E+99

> <Gold.Chemscore.Hbonds>
donor molecule, donor type, donor heavy atom, donor atom, acceptor molecule, acceptor atom, score
      P1  H  7989  7998       L1    13  0.08
      P1  H  7997  8009       L1     6  0.88

> <Gold.Chemscore.Hbond.Weighted>
-3.3606

> <Gold.Chemscore.Metal.Weighted>
-0.0000

> <Gold.Chemscore.Lipo.Weighted>
-10.2654

> <Gold.Chemscore.Internal_Hbond.Weighted>
0.0000

> <Gold.Chemscore.DEClash.Weighted>
0.1102

> <Gold.Chemscore.DEInternal.Weighted>
1.1758

> <Gold.Chemscore.Rot.Weighted>
2.5600

> <Gold.Chemscore.Internal.Correction.Weighted>
   9.000000E+99

> <Gold.Protein.RotatedTorsions>
[ 6907 6896 6895 6894 ] final  148.84 input  -60.11 | X-H torsion
[ 7974 7965 7964 7962 ] final -150.78 input  175.53 | X-H torsion
[ 8008 7997 7996 7995 ] final   95.65 input   59.86 | X-H torsion
[ 10167 10162 10161 10158 ] final   86.99 input  -65.29 | X-H torsion
[ 10718 10713 10712 10709 ] final   21.20 input   66.30 | X-H torsion
[ 10763 10752 10751 10750 ] final  -67.79 input  -60.55 | X-H torsion
[ 11005 11000 10999 10996 ] final  101.94 input  -57.11 | X-H torsion

> <Gold.Protein.ActiveResidues>
 VAL166  LYS551  ARG553  GLY616  TRP617  ASP618  TYR619  PRO620  LYS621  CYS622 
 ASP623  PHE694  ASN695  SER759  ASP760  ASP761  ALA762  ILE779  LEU786  VAL792 
 PHE793  MET794  SER795  GLU796  ALA797  LYS798  CYS799  TRP800  GLU811  SER814 

> <Gold.Protein.RotatedAtoms>
  152.1360  133.4435  159.4743 H   0  0  0  0  0  0  0  0  0  0  0  0  # atno 6907 bound_to 6896
  150.6882  134.2363  159.4463 H   0  0  0  0  0  0  0  0  0  0  0  0  # atno 6908 bound_to 6896
  152.0250  134.9800  160.0622 H   0  0  0  0  0  0  0  0  0  0  0  0  # atno 6909 bound_to 6896
  144.7888  140.4886  143.5787 H   0  0  0  0  0  0  0  0  0  0  0  0  # atno 7974 bound_to 7965
  156.0711  140.3283  155.7577 H   0  0  0  0  0  0  0  0  0  0  0  0  # atno 8008 bound_to 7997
  155.5303  140.0593  157.2907 H   0  0  0  0  0  0  0  0  0  0  0  0  # atno 8009 bound_to 7997
  154.4531  140.1928  156.0478 H   0  0  0  0  0  0  0  0  0  0  0  0  # atno 8010 bound_to 7997
  139.8819  144.6435  150.8833 H   0  0  0  0  0  0  0  0  0  0  0  0  # atno 10167 bound_to 10162
  157.1351  130.6608  149.5963 H   0  0  0  0  0  0  0  0  0  0  0  0  # atno 10718 bound_to 10713
  154.3797  135.6077  153.5784 H   0  0  0  0  0  0  0  0  0  0  0  0  # atno 10763 bound_to 10752
  152.9788  135.5858  154.4425 H   0  0  0  0  0  0  0  0  0  0  0  0  # atno 10764 bound_to 10752
  154.4192  135.2845  155.1964 H   0  0  0  0  0  0  0  0  0  0  0  0  # atno 10765 bound_to 10752
  139.8775  134.9204  156.4983 H   0  0  0  0  0  0  0  0  0  0  0  0  # atno 11005 bound_to 11000
  145.5850  139.1491  143.3214 LP  0  0  0  0  0  0  0  0  0  0  0  0  # atno 17320 bound_to 7965
  146.2131  140.5979  142.9050 LP  0  0  0  0  0  0  0  0  0  0  0  0  # atno 17321 bound_to 7965
  140.7743  143.3579  151.1886 LP  0  0  0  0  0  0  0  0  0  0  0  0  # atno 17342 bound_to 10162
  139.7188  143.9257  152.2977 LP  0  0  0  0  0  0  0  0  0  0  0  0  # atno 17343 bound_to 10162
  155.9800  130.4797  150.6746 LP  0  0  0  0  0  0  0  0  0  0  0  0  # atno 17370 bound_to 10713
  157.4357  131.0855  151.0994 LP  0  0  0  0  0  0  0  0  0  0  0  0  # atno 17371 bound_to 10713
  140.8608  133.8061  155.9263 LP  0  0  0  0  0  0  0  0  0  0  0  0  # atno 17394 bound_to 11000
  140.9051  134.2330  157.5019 LP  0  0  0  0  0  0  0  0  0  0  0  0  # atno 17395 bound_to 11000

$$$$
