#       Name:                AV-unprocessed.smi:753
#       Creating user name   scv26
#       Creation time:       Fri Mar 27 00:59:51 2020


#       File generated by GOLD software.
#

@<TRIPOS>MOLECULE
AV-unprocessed.smi:753
    46    48     1
SMALL
NO_CHARGES


@<TRIPOS>ATOM
      1 ****        -3.2166   6.8961   0.3467 C.3            1 S1                 0.0000
      2 ****        -2.6853   5.4827   0.4567 C.ar           1 S1                 0.0000
      3 ****        -2.3823   4.8841   1.6987 C.ar           1 S1                 0.0000
      4 ****        -1.8862   3.5638   1.7237 C.ar           1 S1                 0.0000
      5 ****        -1.7048   2.8690   0.5077 C.ar           1 S1                 0.0000
      6 ****        -1.1642   1.4528   0.5017 C.3            1 S1                 0.0000
      7 ****         0.3545   1.4170   0.2673 C.3            1 S1                 0.0000
      8 ****         0.8625   0.0511   0.2739 N.am           1 S1                 0.0000
      9 ****         1.1416  -0.6610   1.3788 C.2            1 S1                 0.0000
     10 ****         1.0002  -0.2234   2.5193 O.2            1 S1                 0.0000
     11 ****         1.5886  -1.9074   1.1453 N.am           1 S1                 0.0000
     12 ****         1.9753  -2.9229   2.1275 C.3            1 S1                 0.0000
     13 ****         3.3515  -2.6445   2.7781 C.3            1 S1                 0.0000
     14 ****         4.1533  -3.9154   2.4418 C.3            1 S1                 0.0000
     15 ****         3.5863  -5.1089   3.2351 C.3            1 S1                 0.0000
     16 ****         2.2445  -5.3834   2.5277 C.3            1 S1                 0.0000
     17 ****         2.2059  -4.2887   1.4449 C.3            1 S1                 0.0000
     18 ****         3.6727  -4.2189   1.0295 C.3            1 S1                 0.0000
     19 ****        -2.0258   3.5180  -0.7035 C.ar           1 S1                 0.0000
     20 ****        -2.4973   4.7839  -0.6854 N.pl3          1 S1                 1.0000
     21 ****        -3.3778   7.3337   1.3324 H              1 S1                 0.0000
     22 ****        -4.1661   6.9058  -0.1893 H              1 S1                 0.0000
     23 ****        -2.5095   7.5257  -0.1941 H              1 S1                 0.0000
     24 ****        -2.5253   5.4269   2.6217 H              1 S1                 0.0000
     25 ****        -1.6457   3.0929   2.6660 H              1 S1                 0.0000
     26 ****        -1.4128   0.9748   1.4504 H              1 S1                 0.0000
     27 ****        -1.6763   0.8807  -0.2734 H              1 S1                 0.0000
     28 ****         0.5941   1.8630  -0.6983 H              1 S1                 0.0000
     29 ****         0.8735   2.0113   1.0216 H              1 S1                 0.0000
     30 ****         1.0086  -0.3888  -0.6233 H              1 S1                 0.0000
     31 ****         1.6733  -2.1812   0.1769 H              1 S1                 0.0000
     32 ****         1.1896  -3.0101   2.8803 H              1 S1                 0.0000
     33 ****         3.8325  -1.7676   2.3417 H              1 S1                 0.0000
     34 ****         3.2740  -2.4773   3.8529 H              1 S1                 0.0000
     35 ****         5.2317  -3.7923   2.5455 H              1 S1                 0.0000
     36 ****         4.2441  -5.9757   3.1590 H              1 S1                 0.0000
     37 ****         3.4594  -4.8768   4.2933 H              1 S1                 0.0000
     38 ****         2.2468  -6.3760   2.0749 H              1 S1                 0.0000
     39 ****         1.3940  -5.3301   3.2084 H              1 S1                 0.0000
     40 ****         1.5061  -4.5068   0.6372 H              1 S1                 0.0000
     41 ****         3.8863  -3.4194   0.3180 H              1 S1                 0.0000
     42 ****         4.0564  -5.1611   0.6340 H              1 S1                 0.0000
     43 ****        -1.9170   3.0681  -1.6797 H              1 S1                 0.0000
     44 ****        -2.7203   5.2334  -1.5737 H              1 S1                 0.0000
     45 ****         0.6618   0.7071   2.6594 LP             1 S1                 0.0000
     46 ****         1.2237  -0.7980   3.3066 LP             1 S1                 0.0000
@<TRIPOS>BOND
    1    1    2 1     
    2    1   21 1     
    3    1   22 1     
    4    1   23 1     
    5    2   20 ar    
    6    2    3 ar    
    7    3    4 ar    
    8    3   24 1     
    9    4    5 ar    
   10    4   25 1     
   11    5    6 1     
   12    5   19 ar    
   13    6    7 1     
   14    6   26 1     
   15    6   27 1     
   16    7    8 1     
   17    7   28 1     
   18    7   29 1     
   19    8    9 am    
   20    8   30 1     
   21    9   10 2     
   22    9   11 am    
   23   11   12 1     
   24   11   31 1     
   25   12   17 1     
   26   12   13 1     
   27   12   32 1     
   28   13   14 1     
   29   13   33 1     
   30   13   34 1     
   31   14   18 1     
   32   14   15 1     
   33   14   35 1     
   34   15   16 1     
   35   15   36 1     
   36   15   37 1     
   37   16   17 1     
   38   16   38 1     
   39   16   39 1     
   40   17   18 1     
   41   17   40 1     
   42   18   41 1     
   43   18   42 1     
   44   19   20 ar    
   45   19   43 1     
   46   20   44 1     
   47   10   45 1     
   48   10   46 1     
@<TRIPOS>SUBSTRUCTURE
      1 S1             1
@<TRIPOS>SET
LONE_PAIRS      STATIC     ATOMS    <user>   **** ""
2 45 46
DONOR_HYDROGENS      STATIC     ATOMS    <user>   **** ""
3 30 31 44
ATOM$BLUE        STATIC     ATOMS    COLORGROUP SYSTEM
2 45 46
ATOM$RED        STATIC     ATOMS    COLORGROUP SYSTEM
3 30 31 44
