AV-unprocessed.smi:2761|AV-procd|sdf|10634|dock9
  -GOLD-   2272015 83D 1   1.00000     0.00000
 Structure written by MMmdl.
 26 27  0  0  0  0  0  0  0  0  2 V2000
  151.2587  140.1362  155.2452 O   0  0  0  0  0  0  0  0  0  0  0  0
  150.6074  140.9397  155.9161 C   0  0  0  0  0  0  0  0  0  0  0  0
  150.9233  141.3399  157.1671 N   0  0  0  0  0  0  0  0  0  0  0  0
  152.0197  140.9606  157.9479 C   0  0  0  0  0  0  0  0  0  0  0  0
  152.2681  141.8804  159.0283 C   0  0  0  0  0  0  0  0  0  0  0  0
  153.3069  141.6119  159.8502 C   0  0  0  0  0  0  0  0  0  0  0  0
  154.1488  140.4296  159.6508 C   0  0  0  0  0  0  0  0  0  0  0  0
  155.0829  140.2247  160.4227 O   0  0  0  0  0  0  0  0  0  0  0  0
  153.8526  139.5980  158.6016 N   0  5  0  0  0  0  0  0  0  0  0  0
  152.7357  139.8999  157.7288 N   0  0  0  0  0  0  0  0  0  0  0  0
  149.3173  141.5390  155.3337 C   0  0  2  0  0  0  0  0  0  0  0  0
  148.1247  141.4601  156.3151 C   0  0  0  0  0  0  0  0  0  0  0  0
  146.9642  141.9971  155.6930 O   0  0  0  0  0  0  0  0  0  0  0  0
  146.6320  141.2834  154.5108 C   0  0  0  0  0  0  0  0  0  0  0  0
  147.8089  141.3761  153.5271 C   0  0  0  0  0  0  0  0  0  0  0  0
  148.9688  140.8337  154.1432 O   0  0  0  0  0  0  0  0  0  0  0  0
  150.2829  142.0025  157.5788 H   0  0  0  0  0  0  0  0  0  0  0  0
  151.6693  142.7615  159.2064 H   0  0  0  0  0  0  0  0  0  0  0  0
  153.5213  142.2811  160.6703 H   0  0  0  0  0  0  0  0  0  0  0  0
  149.5223  142.5821  155.0864 H   0  0  0  0  0  0  0  0  0  0  0  0
  147.9375  140.4313  156.6278 H   0  0  0  0  0  0  0  0  0  0  0  0
  148.3264  142.0386  157.2171 H   0  0  0  0  0  0  0  0  0  0  0  0
  146.4026  140.2435  154.7482 H   0  0  0  0  0  0  0  0  0  0  0  0
  145.7344  141.7191  154.0712 H   0  0  0  0  0  0  0  0  0  0  0  0
  147.5907  140.8123  152.6202 H   0  0  0  0  0  0  0  0  0  0  0  0
  147.9871  142.4103  153.2294 H   0  0  0  0  0  0  0  0  0  0  0  0
  1  2  2  0  0  0  0
  2  3  1  0  0  0  0
  2 11  1  0  0  0  0
  3 17  1  0  0  0  0
  3  4  1  0  0  0  0
  4  5  1  0  0  0  0
  4 10  2  0  0  0  0
  5  6  2  0  0  0  0
  5 18  1  0  0  0  0
  6  7  1  0  0  0  0
  6 19  1  0  0  0  0
  7  8  2  0  0  0  0
  7  9  1  0  0  0  0
  9 10  1  0  0  0  0
 11 16  1  0  0  0  0
 11 12  1  0  0  0  0
 11 20  1  0  0  0  0
 12 13  1  0  0  0  0
 12 21  1  0  0  0  0
 12 22  1  0  0  0  0
 13 14  1  0  0  0  0
 14 15  1  0  0  0  0
 14 23  1  0  0  0  0
 14 24  1  0  0  0  0
 15 16  1  0  0  0  0
 15 25  1  0  0  0  0
 15 26  1  0  0  0  0
M  CHG  1   9  -1
M  END
> <s_m_source_file>
AV-unprocessed.smi

> <i_m_source_file_index>
2761

> <i_lp_mmshare_version>
43012

> <i_f3d_flags>
0

> <s_epik_input>
TzFbQ0gyXVtDSDJdT1tDSDJdW0NASF0xQyg9TylbTkhdYzJbY0hdW2NIXWMoW09IXSlubjI=

> <s_epik_cmdline>
J2VwaWtfcHl0aG9uJywgJy1waCcsICc3LjAnLCAnLXRuJywgJzgnLCAnLW1hJywgJzIwMCcsICctbWV0YWxfYmluZGluZycsICctaW1hZScsICc8aW5maWxlLm1hZT4nLCAnLW9tYWUnLCAnPG91dGZpbGUubWFlPic=

> <r_lp_tautomer_probability>
1

> <r_epik_Ionization_Penalty>
4.21844

> <r_epik_Ionization_Penalty_Charging>
0.119247

> <r_epik_Ionization_Penalty_Neutral>
4.0992

> <r_epik_State_Penalty>
4.09486

> <r_epik_Charging_Adjusted_Penalty>
4.2141

> <i_epik_Tot_Q>
-1

> <i_epik_Tot_abs_Q>
1

> <r_epik_Metal_State_Penalty>
0.651223

> <b_epik_Metal_Only>
1

> <s_lp_Force_Field>
OPLS_2005

> <r_lp_Energy>
28.3559

> <b_lp_Chiralities_Consistent>
1

> <s_lp_Variant>
AV-unprocessed.smi:2761-3

> <Gold.Version>
5.8.1

> <Gold.Id.Protein>
6NUR|6NUR_protein|mol2

> <Gold.PLP.Fitness>
31.5343

> <Gold.PLP.PLP>
-25.3972

> <Gold.PLP.part.hbond>
-3.0000

> <Gold.PLP.part.metal>
0.0000

> <Gold.PLP.part.buried>
-4.0286

> <Gold.PLP.part.nonpolar>
-18.2039

> <Gold.PLP.part.repulsive>
0.3479

> <Gold.PLP.ligand.clash>
0.0000

> <Gold.PLP.ligand.torsion>
0.3138

> <Gold.PLP.Chemscore.Hbond>
2.2544

> <Gold.PLP.Chemscore.CHOScore>
0.0000

> <Gold.PLP.Chemscore.Metal>
0.0000

> <Gold.Chemscore.Hbonds>
donor molecule, donor type, donor heavy atom, donor atom, acceptor molecule, acceptor atom, score
      P1  H  7989  7998       L1     1  1.00
      P1  H  7997  8009       L1     9  1.20

> <Gold.PLP.Chemscore.Internal.Correction>
0.0016

> <Gold.Rescore>
     Score         DG    S(hbond)    S(metal)    S(lipo)     H(rot)  DE(clash)    DE(int)     intcor
      9.79     -11.35       1.13        0.00      39.82       1.00       0.08       1.48       ----

> <Gold.Chemscore.Fitness>
9.7867

> <Gold.Chemscore.DG>
-11.3463

> <Gold.Chemscore.ZeroCoef>
-5.4800

> <Gold.Chemscore.Hbond>
1.1281

> <Gold.Chemscore.Metal>
0.0000

> <Gold.Chemscore.Lipo>
39.8166

> <Gold.Chemscore.Internal_Hbond>
0.0000

> <Gold.Chemscore.DEClash>
0.0829

> <Gold.Chemscore.DEInternal>
1.4767

> <Gold.Chemscore.Rot>
1.0000

> <Gold.Chemscore.Internal.Correction>
   9.000000E+99

> <Gold.Chemscore.Hbonds>
donor molecule, donor type, donor heavy atom, donor atom, acceptor molecule, acceptor atom, score
      P1  H  7989  7998       L1     1  0.73
      P1  H  7997  8009       L1     9  0.03

> <Gold.Chemscore.Hbond.Weighted>
-3.7678

> <Gold.Chemscore.Metal.Weighted>
-0.0000

> <Gold.Chemscore.Lipo.Weighted>
-4.6585

> <Gold.Chemscore.Internal_Hbond.Weighted>
0.0000

> <Gold.Chemscore.DEClash.Weighted>
0.0829

> <Gold.Chemscore.DEInternal.Weighted>
1.4767

> <Gold.Chemscore.Rot.Weighted>
2.5600

> <Gold.Chemscore.Internal.Correction.Weighted>
   9.000000E+99

> <Gold.Protein.RotatedTorsions>
[ 6907 6896 6895 6894 ] final  106.14 input  -60.11 | X-H torsion
[ 7974 7965 7964 7962 ] final  -10.46 input  175.53 | X-H torsion
[ 8008 7997 7996 7995 ] final  112.20 input   59.86 | X-H torsion
[ 10167 10162 10161 10158 ] final -104.20 input  -65.29 | X-H torsion
[ 10718 10713 10712 10709 ] final    7.33 input   66.30 | X-H torsion
[ 10763 10752 10751 10750 ] final  -62.61 input  -60.55 | X-H torsion
[ 11005 11000 10999 10996 ] final -171.78 input  -57.11 | X-H torsion

> <Gold.Protein.ActiveResidues>
 VAL166  LYS551  ARG553  GLY616  TRP617  ASP618  TYR619  PRO620  LYS621  CYS622 
 ASP623  PHE694  ASN695  SER759  ASP760  ASP761  ALA762  ILE779  LEU786  VAL792 
 PHE793  MET794  SER795  GLU796  ALA797  LYS798  CYS799  TRP800  GLU811  SER814 

> <Gold.Protein.RotatedAtoms>
  152.5205  133.9424  159.7632 H   0  0  0  0  0  0  0  0  0  0  0  0  # atno 6907 bound_to 6896
  150.9751  133.6295  159.2738 H   0  0  0  0  0  0  0  0  0  0  0  0  # atno 6908 bound_to 6896
  151.3492  135.0886  159.9450 H   0  0  0  0  0  0  0  0  0  0  0  0  # atno 6909 bound_to 6896
  146.2220  140.2766  142.8360 H   0  0  0  0  0  0  0  0  0  0  0  0  # atno 7974 bound_to 7965
  156.2176  140.3004  155.9876 H   0  0  0  0  0  0  0  0  0  0  0  0  # atno 8008 bound_to 7997
  155.2566  140.0428  157.3010 H   0  0  0  0  0  0  0  0  0  0  0  0  # atno 8009 bound_to 7997
  154.5791  140.2370  155.8088 H   0  0  0  0  0  0  0  0  0  0  0  0  # atno 8010 bound_to 7997
  140.2118  143.3740  152.1044 H   0  0  0  0  0  0  0  0  0  0  0  0  # atno 10167 bound_to 10162
  156.9353  130.5841  149.5650 H   0  0  0  0  0  0  0  0  0  0  0  0  # atno 10718 bound_to 10713
  154.3025  135.6232  153.5431 H   0  0  0  0  0  0  0  0  0  0  0  0  # atno 10763 bound_to 10752
  152.9839  135.5682  154.5268 H   0  0  0  0  0  0  0  0  0  0  0  0  # atno 10764 bound_to 10752
  154.4901  135.2867  155.1479 H   0  0  0  0  0  0  0  0  0  0  0  0  # atno 10765 bound_to 10752
  140.5043  134.5863  157.4998 H   0  0  0  0  0  0  0  0  0  0  0  0  # atno 11005 bound_to 11000
  144.9228  140.7887  143.5738 LP  0  0  0  0  0  0  0  0  0  0  0  0  # atno 17320 bound_to 7965
  145.2704  139.1957  143.4844 LP  0  0  0  0  0  0  0  0  0  0  0  0  # atno 17321 bound_to 7965
  139.5177  144.6995  151.5534 LP  0  0  0  0  0  0  0  0  0  0  0  0  # atno 17342 bound_to 10162
  140.6318  143.9062  150.6612 LP  0  0  0  0  0  0  0  0  0  0  0  0  # atno 17343 bound_to 10162
  156.0428  130.5509  150.8812 LP  0  0  0  0  0  0  0  0  0  0  0  0  # atno 17370 bound_to 10713
  157.5820  131.0946  150.9256 LP  0  0  0  0  0  0  0  0  0  0  0  0  # atno 17371 bound_to 10713
  139.9695  134.7317  156.0070 LP  0  0  0  0  0  0  0  0  0  0  0  0  # atno 17394 bound_to 11000
  141.1419  133.6563  156.3754 LP  0  0  0  0  0  0  0  0  0  0  0  0  # atno 17395 bound_to 11000

$$$$
