AV-unprocessed.smi:1171|AV-procd|sdf|4942|dock1
  -GOLD-   22720 3523D 1   1.00000     0.00000
 Structure written by MMmdl.
 32 33  0  0  0  0  0  0  0  0  1 V2000
  144.9134  133.5825  150.3956 C   0  0  0  0  0  0  0  0  0  0  0  0
  144.6628  134.7650  151.2838 C   0  0  0  0  0  0  0  0  0  0  0  0
  145.3598  136.0082  151.3085 C   0  0  0  0  0  0  0  0  0  0  0  0
  144.7129  136.6956  152.2986 C   0  0  0  0  0  0  0  0  0  0  0  0
  144.9377  137.9577  152.7500 N   0  0  0  0  0  0  0  0  0  0  0  0
  145.9776  138.4287  153.4663 C   0  0  0  0  0  0  0  0  0  0  0  0
  146.8947  137.7379  153.9059 O   0  0  0  0  0  0  0  0  0  0  0  0
  145.9221  139.7493  153.7188 N   0  0  0  0  0  0  0  0  0  0  0  0
  146.8612  140.5503  154.4468 C   0  0  0  0  0  0  0  0  0  0  0  0
  146.9584  142.0131  154.0704 C   0  0  0  0  0  0  0  0  0  0  0  0
  148.0732  141.0721  153.7053 C   0  0  0  0  0  0  0  0  0  0  0  0
  143.7100  135.9021  152.8101 N   0  0  0  0  0  0  0  0  0  0  0  0
  142.7456  136.1887  153.8554 C   0  0  0  0  0  0  0  0  0  0  0  0
  141.4164  136.6720  153.2665 C   0  0  0  0  0  0  0  0  0  0  0  0
  140.3098  136.5880  154.2303 C   0  0  0  0  0  0  0  0  0  0  0  0
  139.4387  136.5228  154.9888 N   0  0  0  0  0  0  0  0  0  0  0  0
  143.6810  134.7098  152.1768 N   0  0  0  0  0  0  0  0  0  0  0  0
  145.7073  133.7898  149.6778 H   0  0  0  0  0  0  0  0  0  0  0  0
  144.0183  133.3174  149.8323 H   0  0  0  0  0  0  0  0  0  0  0  0
  145.2126  132.7111  150.9785 H   0  0  0  0  0  0  0  0  0  0  0  0
  146.1874  136.3238  150.6911 H   0  0  0  0  0  0  0  0  0  0  0  0
  144.2301  138.6346  152.5058 H   0  0  0  0  0  0  0  0  0  0  0  0
  145.0846  140.2263  153.4173 H   0  0  0  0  0  0  0  0  0  0  0  0
  146.9931  140.3433  155.5080 H   0  0  0  0  0  0  0  0  0  0  0  0
  146.3244  142.3766  153.2636 H   0  0  0  0  0  0  0  0  0  0  0  0
  147.1462  142.7256  154.8712 H   0  0  0  0  0  0  0  0  0  0  0  0
  149.0041  141.1554  154.2627 H   0  0  0  0  0  0  0  0  0  0  0  0
  148.1821  140.8055  152.6555 H   0  0  0  0  0  0  0  0  0  0  0  0
  142.5909  135.2899  154.4542 H   0  0  0  0  0  0  0  0  0  0  0  0
  143.1648  136.9429  154.5224 H   0  0  0  0  0  0  0  0  0  0  0  0
  141.4967  137.7097  152.9414 H   0  0  0  0  0  0  0  0  0  0  0  0
  141.1477  136.0777  152.3929 H   0  0  0  0  0  0  0  0  0  0  0  0
  1  2  1  0  0  0  0
  1 18  1  0  0  0  0
  1 19  1  0  0  0  0
  1 20  1  0  0  0  0
  2 17  2  0  0  0  0
  2  3  1  0  0  0  0
  3  4  2  0  0  0  0
  3 21  1  0  0  0  0
  4  5  1  0  0  0  0
  4 12  1  0  0  0  0
  5  6  1  0  0  0  0
  5 22  1  0  0  0  0
  6  7  2  0  0  0  0
  6  8  1  0  0  0  0
  8  9  1  0  0  0  0
  8 23  1  0  0  0  0
  9 11  1  0  0  0  0
  9 10  1  0  0  0  0
  9 24  1  0  0  0  0
 10 11  1  0  0  0  0
 10 25  1  0  0  0  0
 10 26  1  0  0  0  0
 11 27  1  0  0  0  0
 11 28  1  0  0  0  0
 12 13  1  0  0  0  0
 12 17  1  0  0  0  0
 13 14  1  0  0  0  0
 13 29  1  0  0  0  0
 13 30  1  0  0  0  0
 14 15  1  0  0  0  0
 14 31  1  0  0  0  0
 14 32  1  0  0  0  0
 15 16  3  0  0  0  0
M  END
> <s_m_source_file>
AV-unprocessed.smi

> <i_m_source_file_index>
1171

> <i_lp_mmshare_version>
43012

> <i_f3d_flags>
0

> <s_epik_input>
TiNDW0NIMl1bQ0gyXW4objEpYyhbY0hdYzFbQ0gzXSlbTkhdQyg9TylbTkhdW0NIXTJbQ0gyXVtDSDJdMg==

> <s_epik_cmdline>
J2VwaWtfcHl0aG9uJywgJy1waCcsICc3LjAnLCAnLXRuJywgJzgnLCAnLW1hJywgJzIwMCcsICctbWV0YWxfYmluZGluZycsICctaW1hZScsICc8aW5maWxlLm1hZT4nLCAnLW9tYWUnLCAnPG91dGZpbGUubWFlPic=

> <r_lp_tautomer_probability>
1

> <r_epik_Ionization_Penalty>
3.70036e-05

> <r_epik_Ionization_Penalty_Charging>
0

> <r_epik_Ionization_Penalty_Neutral>
3.70036e-05

> <r_epik_State_Penalty>
-0

> <r_epik_Charging_Adjusted_Penalty>
0

> <i_epik_Tot_Q>
0

> <i_epik_Tot_abs_Q>
0

> <r_epik_Metal_State_Penalty>
-0

> <b_epik_Metal_Only>
0

> <s_lp_Force_Field>
OPLS_2005

> <r_lp_Energy>
27.1595

> <b_lp_Chiralities_Consistent>
1

> <s_lp_Variant>
AV-unprocessed.smi:1171-1

> <Gold.Version>
5.8.1

> <Gold.Id.Protein>
6NUR|6NUR_protein|mol2

> <Gold.PLP.Fitness>
34.3286

> <Gold.PLP.PLP>
-28.1140

> <Gold.PLP.part.hbond>
-3.4650

> <Gold.PLP.part.metal>
0.0000

> <Gold.PLP.part.buried>
-4.4578

> <Gold.PLP.part.nonpolar>
-21.2921

> <Gold.PLP.part.repulsive>
0.3665

> <Gold.PLP.ligand.clash>
0.0000

> <Gold.PLP.ligand.torsion>
1.4193

> <Gold.PLP.Chemscore.Hbond>
2.9920

> <Gold.PLP.Chemscore.CHOScore>
0.0000

> <Gold.PLP.Chemscore.Metal>
0.0000

> <Gold.Chemscore.Hbonds>
donor molecule, donor type, donor heavy atom, donor atom, acceptor molecule, acceptor atom, score
      L1  H     5    22       P1 10175  0.99
      L1  H     8    23       P1 10175  1.00
      P1  H 11000 11005       L1    16  0.84

> <Gold.PLP.Chemscore.Internal.Correction>
0.0773

> <Gold.Rescore>
     Score         DG    S(hbond)    S(metal)    S(lipo)     H(rot)  DE(clash)    DE(int)     intcor
     14.76     -16.27       2.82        0.00      46.88       1.61       0.04       1.47       ----

> <Gold.Chemscore.Fitness>
14.7624

> <Gold.Chemscore.DG>
-16.2701

> <Gold.Chemscore.ZeroCoef>
-5.4800

> <Gold.Chemscore.Hbond>
2.8189

> <Gold.Chemscore.Metal>
0.0000

> <Gold.Chemscore.Lipo>
46.8836

> <Gold.Chemscore.Internal_Hbond>
0.0000

> <Gold.Chemscore.DEClash>
0.0387

> <Gold.Chemscore.DEInternal>
1.4690

> <Gold.Chemscore.Rot>
1.6056

> <Gold.Chemscore.Internal.Correction>
   9.000000E+99

> <Gold.Chemscore.Hbonds>
donor molecule, donor type, donor heavy atom, donor atom, acceptor molecule, acceptor atom, score
      L1  H     5    22       P1 10175  0.94
      L1  H     8    23       P1 10175  0.99
      P1  H 11000 11005       L1    16  0.38

> <Gold.Chemscore.Hbond.Weighted>
-9.4150

> <Gold.Chemscore.Metal.Weighted>
-0.0000

> <Gold.Chemscore.Lipo.Weighted>
-5.4854

> <Gold.Chemscore.Internal_Hbond.Weighted>
0.0000

> <Gold.Chemscore.DEClash.Weighted>
0.0387

> <Gold.Chemscore.DEInternal.Weighted>
1.4690

> <Gold.Chemscore.Rot.Weighted>
4.1102

> <Gold.Chemscore.Internal.Correction.Weighted>
   9.000000E+99

> <Gold.Protein.RotatedTorsions>
[ 6907 6896 6895 6894 ] final  145.90 input  -60.11 | X-H torsion
[ 7974 7965 7964 7962 ] final -168.76 input  175.53 | X-H torsion
[ 8008 7997 7996 7995 ] final   64.62 input   59.86 | X-H torsion
[ 10167 10162 10161 10158 ] final   41.43 input  -65.29 | X-H torsion
[ 10718 10713 10712 10709 ] final   92.59 input   66.30 | X-H torsion
[ 10763 10752 10751 10750 ] final -162.21 input  -60.55 | X-H torsion
[ 11005 11000 10999 10996 ] final   79.66 input  -57.11 | X-H torsion

> <Gold.Protein.ActiveResidues>
 VAL166  LYS551  ARG553  GLY616  TRP617  ASP618  TYR619  PRO620  LYS621  CYS622 
 ASP623  PHE694  ASN695  SER759  ASP760  ASP761  ALA762  ILE779  LEU786  VAL792 
 PHE793  MET794  SER795  GLU796  ALA797  LYS798  CYS799  TRP800  GLU811  SER814 

> <Gold.Protein.RotatedAtoms>
  152.1749  133.4668  159.4928 H   0  0  0  0  0  0  0  0  0  0  0  0  # atno 6907 bound_to 6896
  150.6925  134.1906  159.4293 H   0  0  0  0  0  0  0  0  0  0  0  0  # atno 6908 bound_to 6896
  151.9815  135.0026  160.0608 H   0  0  0  0  0  0  0  0  0  0  0  0  # atno 6909 bound_to 6896
  144.7197  140.2322  143.6302 H   0  0  0  0  0  0  0  0  0  0  0  0  # atno 7974 bound_to 7965
  155.6489  140.3497  155.4741 H   0  0  0  0  0  0  0  0  0  0  0  0  # atno 8008 bound_to 7997
  155.9864  140.1185  157.0702 H   0  0  0  0  0  0  0  0  0  0  0  0  # atno 8009 bound_to 7997
  154.4206  140.1128  156.5492 H   0  0  0  0  0  0  0  0  0  0  0  0  # atno 8010 bound_to 7997
  140.3644  144.2186  150.6136 H   0  0  0  0  0  0  0  0  0  0  0  0  # atno 10167 bound_to 10162
  157.6958  131.0449  150.3905 H   0  0  0  0  0  0  0  0  0  0  0  0  # atno 10718 bound_to 10713
  154.7235  135.3030  154.9009 H   0  0  0  0  0  0  0  0  0  0  0  0  # atno 10763 bound_to 10752
  153.9874  135.6723  153.4756 H   0  0  0  0  0  0  0  0  0  0  0  0  # atno 10764 bound_to 10752
  153.0854  135.4987  154.8505 H   0  0  0  0  0  0  0  0  0  0  0  0  # atno 10765 bound_to 10752
  139.9164  134.7860  156.1807 H   0  0  0  0  0  0  0  0  0  0  0  0  # atno 11005 bound_to 11000
  145.8400  139.2125  143.1833 LP  0  0  0  0  0  0  0  0  0  0  0  0  # atno 17320 bound_to 7965
  146.0355  140.8216  142.9854 LP  0  0  0  0  0  0  0  0  0  0  0  0  # atno 17321 bound_to 7965
  140.5095  143.2294  151.8557 LP  0  0  0  0  0  0  0  0  0  0  0  0  # atno 17342 bound_to 10162
  139.4810  144.4966  151.9115 LP  0  0  0  0  0  0  0  0  0  0  0  0  # atno 17343 bound_to 10162
  156.4309  130.3972  149.6761 LP  0  0  0  0  0  0  0  0  0  0  0  0  # atno 17370 bound_to 10713
  156.3978  130.7659  151.2665 LP  0  0  0  0  0  0  0  0  0  0  0  0  # atno 17371 bound_to 10713
  141.0644  133.6826  156.2015 LP  0  0  0  0  0  0  0  0  0  0  0  0  # atno 17394 bound_to 11000
  140.6609  134.4968  157.5583 LP  0  0  0  0  0  0  0  0  0  0  0  0  # atno 17395 bound_to 11000

$$$$
