AV-unprocessed.smi:137|AV-procd|sdf|1176|dock6
  -GOLD-   2262018323D 1   1.00000     0.00000
 Structure written by MMmdl.
 51 54  0  0  0  0  0  0  0  0  1 V2000
  143.9485  133.8054  159.7176 C   0  0  0  0  0  0  0  0  0  0  0  0
  145.0812  134.6650  159.1360 C   0  0  1  0  0  0  0  0  0  0  0  0
  144.5415  135.5105  157.9598 C   0  0  0  0  0  0  0  0  0  0  0  0
  145.6023  135.9624  157.0596 N   0  0  0  0  0  0  0  0  0  0  0  0
  145.7157  135.3656  155.8371 C   0  0  0  0  0  0  0  0  0  0  0  0
  146.9236  134.8575  155.4687 N   0  0  0  0  0  0  0  0  0  0  0  0
  147.0897  134.2731  154.2799 C   0  0  0  0  0  0  0  0  0  0  0  0
  146.1922  134.0819  153.3141 N   0  0  0  0  0  0  0  0  0  0  0  0
  144.9723  134.5738  153.6711 C   0  0  0  0  0  0  0  0  0  0  0  0
  144.6488  135.2295  154.8957 C   0  0  0  0  0  0  0  0  0  0  0  0
  143.3056  135.5921  154.8807 N   0  0  0  0  0  0  0  0  0  0  0  0
  142.8691  135.1911  153.7192 C   0  0  0  0  0  0  0  0  0  0  0  0
  143.7974  134.5409  152.9401 N   0  0  0  0  0  0  0  0  0  0  0  0
  143.6009  134.0312  151.6145 C   0  0  0  0  0  0  0  0  0  0  0  0
  143.8539  132.5586  151.2823 C   0  0  0  0  0  0  0  0  0  0  0  0
  144.2974  132.9653  149.8581 C   0  0  0  0  0  0  0  0  0  0  0  0
  145.5255  132.2219  149.3075 C   0  0  0  0  0  0  0  0  0  0  0  0
  146.6434  132.3781  150.1581 O   0  0  0  0  0  0  0  0  0  0  0  0
  143.1822  132.9584  148.7929 C   0  0  0  0  0  0  0  0  0  0  0  0
  143.4506  133.8836  147.7591 O   0  0  0  0  0  0  0  0  0  0  0  0
  144.5921  134.3431  150.4906 C   0  0  0  0  0  0  0  0  0  0  0  0
  146.2120  137.2834  157.2471 C   0  0  0  0  0  0  0  0  0  0  0  0
  146.3916  137.7139  158.7119 C   0  0  0  0  0  0  0  0  0  0  0  0
  147.2507  136.3676  159.6574 S   0  0  1  0  0  0  0  0  0  0  0  0
  147.9066  137.0244  160.8732 O   0  0  0  0  0  0  0  0  0  0  0  0
  145.7256  135.4968  160.2644 C   0  0  0  0  0  0  0  0  0  0  0  0
  143.1490  134.4259  160.1238 H   0  0  0  0  0  0  0  0  0  0  0  0
  144.3123  133.1626  160.5197 H   0  0  0  0  0  0  0  0  0  0  0  0
  143.5133  133.1582  158.9555 H   0  0  0  0  0  0  0  0  0  0  0  0
  145.8362  133.9763  158.7554 H   0  0  0  0  0  0  0  0  0  0  0  0
  143.8023  134.9432  157.3939 H   0  0  0  0  0  0  0  0  0  0  0  0
  143.9916  136.3711  158.3409 H   0  0  0  0  0  0  0  0  0  0  0  0
  148.0840  133.9051  154.0738 H   0  0  0  0  0  0  0  0  0  0  0  0
  141.8491  135.3535  153.4025 H   0  0  0  0  0  0  0  0  0  0  0  0
  142.5888  134.3225  151.3286 H   0  0  0  0  0  0  0  0  0  0  0  0
  144.6656  132.1311  151.8743 H   0  0  0  0  0  0  0  0  0  0  0  0
  142.9656  131.9281  151.3296 H   0  0  0  0  0  0  0  0  0  0  0  0
  145.3234  131.1542  149.2187 H   0  0  0  0  0  0  0  0  0  0  0  0
  145.7891  132.5661  148.3072 H   0  0  0  0  0  0  0  0  0  0  0  0
  147.2059  131.6255  150.0562 H   0  0  0  0  0  0  0  0  0  0  0  0
  143.0760  131.9735  148.3382 H   0  0  0  0  0  0  0  0  0  0  0  0
  142.2112  133.1933  149.2296 H   0  0  0  0  0  0  0  0  0  0  0  0
  144.2679  134.3176  147.9504 H   0  0  0  0  0  0  0  0  0  0  0  0
  144.3203  135.1988  149.8721 H   0  0  0  0  0  0  0  0  0  0  0  0
  145.6178  134.4348  150.8533 H   0  0  0  0  0  0  0  0  0  0  0  0
  147.1983  137.2820  156.7807 H   0  0  0  0  0  0  0  0  0  0  0  0
  145.6165  138.0297  156.7198 H   0  0  0  0  0  0  0  0  0  0  0  0
  147.0116  138.6098  158.7438 H   0  0  0  0  0  0  0  0  0  0  0  0
  145.4453  137.9726  159.1864 H   0  0  0  0  0  0  0  0  0  0  0  0
  145.0251  136.2134  160.6939 H   0  0  0  0  0  0  0  0  0  0  0  0
  146.0341  134.8335  161.0729 H   0  0  0  0  0  0  0  0  0  0  0  0
  1  2  1  0  0  0  0
  1 27  1  0  0  0  0
  1 28  1  0  0  0  0
  1 29  1  0  0  0  0
  2 26  1  0  0  0  0
  2  3  1  0  0  0  0
  2 30  1  0  0  0  0
  3  4  1  0  0  0  0
  3 31  1  0  0  0  0
  3 32  1  0  0  0  0
  4  5  1  0  0  0  0
  4 22  1  0  0  0  0
  5 10  1  0  0  0  0
  5  6  2  0  0  0  0
  6  7  1  0  0  0  0
  7  8  2  0  0  0  0
  7 33  1  0  0  0  0
  8  9  1  0  0  0  0
  9 13  1  0  0  0  0
  9 10  2  0  0  0  0
 10 11  1  0  0  0  0
 11 12  2  0  0  0  0
 12 13  1  0  0  0  0
 12 34  1  0  0  0  0
 13 14  1  0  0  0  0
 14 21  1  0  0  0  0
 14 15  1  0  0  0  0
 14 35  1  0  0  0  0
 15 16  1  0  0  0  0
 15 36  1  0  0  0  0
 15 37  1  0  0  0  0
 16 17  1  0  0  0  0
 16 19  1  0  0  0  0
 16 21  1  0  0  0  0
 17 18  1  0  0  0  0
 17 38  1  0  0  0  0
 17 39  1  0  0  0  0
 18 40  1  0  0  0  0
 19 20  1  0  0  0  0
 19 41  1  0  0  0  0
 19 42  1  0  0  0  0
 20 43  1  0  0  0  0
 21 44  1  0  0  0  0
 21 45  1  0  0  0  0
 22 23  1  0  0  0  0
 22 46  1  0  0  0  0
 22 47  1  0  0  0  0
 23 24  1  0  0  0  0
 23 48  1  0  0  0  0
 23 49  1  0  0  0  0
 24 25  2  0  0  0  0
 24 26  1  0  0  0  0
 26 50  1  0  0  0  0
 26 51  1  0  0  0  0
M  END
> <s_m_source_file>
AV-unprocessed.smi

> <i_m_source_file_index>
137

> <i_lp_mmshare_version>
43012

> <i_f3d_flags>
0

> <s_epik_input>
Tz1bU0BAXShbQ0gyXTEpW0NIMl1bQ0gyXU4oW0NIMl1bQ0BIXTFbQ0gzXSljKG5bY0hdbjIpYyhjMjMpbltjSF1uM1tDSF0oW0NIMl00KVtDSDJdQzQoW0NIMl1bT0hdKVtDSDJdW09IXQ==

> <s_epik_cmdline>
J2VwaWtfcHl0aG9uJywgJy1waCcsICc3LjAnLCAnLXRuJywgJzgnLCAnLW1hJywgJzIwMCcsICctbWV0YWxfYmluZGluZycsICctaW1hZScsICc8aW5maWxlLm1hZT4nLCAnLW9tYWUnLCAnPG91dGZpbGUubWFlPic=

> <r_lp_tautomer_probability>
1

> <r_epik_Ionization_Penalty>
0.000811024

> <r_epik_Ionization_Penalty_Charging>
0

> <r_epik_Ionization_Penalty_Neutral>
0.000811024

> <r_epik_State_Penalty>
0.000429598

> <r_epik_Charging_Adjusted_Penalty>
0.000429598

> <i_epik_Tot_Q>
0

> <i_epik_Tot_abs_Q>
0

> <r_epik_Metal_State_Penalty>
-0

> <b_epik_Metal_Only>
0

> <s_lp_Force_Field>
OPLS_2005

> <r_lp_Energy>
40.014

> <b_lp_Chiralities_Consistent>
1

> <s_lp_Variant>
AV-unprocessed.smi:137-2

> <Gold.Version>
5.8.1

> <Gold.Id.Protein>
6NUR|6NUR_protein|mol2

> <Gold.PLP.Fitness>
43.4794

> <Gold.PLP.PLP>
-32.1107

> <Gold.PLP.part.hbond>
-6.6542

> <Gold.PLP.part.metal>
0.0000

> <Gold.PLP.part.buried>
-2.7584

> <Gold.PLP.part.nonpolar>
-22.1925

> <Gold.PLP.part.repulsive>
0.1789

> <Gold.PLP.ligand.clash>
0.0000

> <Gold.PLP.ligand.torsion>
1.6771

> <Gold.PLP.Chemscore.Hbond>
4.7103

> <Gold.PLP.Chemscore.CHOScore>
0.0000

> <Gold.PLP.Chemscore.Metal>
0.0000

> <Gold.Chemscore.Hbonds>
donor molecule, donor type, donor heavy atom, donor atom, acceptor molecule, acceptor atom, score
      L1  H    18    40       P1 10747  0.96
      L1  H    20    43       P1  7921  1.00
      P1  H  6931  6943       L1    25  0.96
      P1  H  6934  6947       L1    25  0.65
      P1  H 10192 10197       L1    20  1.00

> <Gold.PLP.Chemscore.Internal.Correction>
0.5923

> <Gold.Rescore>
     Score         DG    S(hbond)    S(metal)    S(lipo)     H(rot)  DE(clash)    DE(int)     intcor
     16.63     -20.01       4.40        0.00      61.32       2.87       1.43       1.95       ----

> <Gold.Chemscore.Fitness>
16.6275

> <Gold.Chemscore.DG>
-20.0051

> <Gold.Chemscore.ZeroCoef>
-5.4800

> <Gold.Chemscore.Hbond>
4.4025

> <Gold.Chemscore.Metal>
0.0000

> <Gold.Chemscore.Lipo>
61.3193

> <Gold.Chemscore.Internal_Hbond>
0.0000

> <Gold.Chemscore.DEClash>
1.4279

> <Gold.Chemscore.DEInternal>
1.9496

> <Gold.Chemscore.Rot>
2.8725

> <Gold.Chemscore.Internal.Correction>
   9.000000E+99

> <Gold.Chemscore.Hbonds>
donor molecule, donor type, donor heavy atom, donor atom, acceptor molecule, acceptor atom, score
      L1  H    18    40       P1 10747  0.92
      L1  H    20    43       P1  7921  0.97
      P1  H  6931  6943       L1    25  0.91
      P1  H  6934  6947       L1    25  0.38
      P1  H 10192 10197       L1    20  0.80

> <Gold.Chemscore.Hbond.Weighted>
-14.7042

> <Gold.Chemscore.Metal.Weighted>
-0.0000

> <Gold.Chemscore.Lipo.Weighted>
-7.1744

> <Gold.Chemscore.Internal_Hbond.Weighted>
0.0000

> <Gold.Chemscore.DEClash.Weighted>
1.4279

> <Gold.Chemscore.DEInternal.Weighted>
1.9496

> <Gold.Chemscore.Rot.Weighted>
7.3535

> <Gold.Chemscore.Internal.Correction.Weighted>
   9.000000E+99

> <Gold.Protein.RotatedTorsions>
[ 6907 6896 6895 6894 ] final  -53.15 input  -60.11 | X-H torsion
[ 7974 7965 7964 7962 ] final  137.24 input  175.53 | X-H torsion
[ 8008 7997 7996 7995 ] final   97.98 input   59.86 | X-H torsion
[ 10167 10162 10161 10158 ] final  -83.04 input  -65.29 | X-H torsion
[ 10718 10713 10712 10709 ] final  -35.80 input   66.30 | X-H torsion
[ 10763 10752 10751 10750 ] final   15.35 input  -60.55 | X-H torsion
[ 11005 11000 10999 10996 ] final    6.80 input  -57.11 | X-H torsion

> <Gold.Protein.ActiveResidues>
 VAL166  LYS551  ARG553  GLY616  TRP617  ASP618  TYR619  PRO620  LYS621  CYS622 
 ASP623  PHE694  ASN695  SER759  ASP760  ASP761  ALA762  ILE779  LEU786  VAL792 
 PHE793  MET794  SER795  GLU796  ALA797  LYS798  CYS799  TRP800  GLU811  SER814 

> <Gold.Protein.RotatedAtoms>
  150.8453  134.7760  159.6965 H   0  0  0  0  0  0  0  0  0  0  0  0  # atno 6907 bound_to 6896
  152.4531  134.5347  159.9831 H   0  0  0  0  0  0  0  0  0  0  0  0  # atno 6908 bound_to 6896
  151.5478  133.3384  159.2983 H   0  0  0  0  0  0  0  0  0  0  0  0  # atno 6909 bound_to 6896
  144.9486  139.4845  143.5536 H   0  0  0  0  0  0  0  0  0  0  0  0  # atno 7974 bound_to 7965
  156.0958  140.3250  155.7876 H   0  0  0  0  0  0  0  0  0  0  0  0  # atno 8008 bound_to 7997
  155.4920  140.0562  157.2969 H   0  0  0  0  0  0  0  0  0  0  0  0  # atno 8009 bound_to 7997
  154.4665  140.1992  156.0119 H   0  0  0  0  0  0  0  0  0  0  0  0  # atno 8010 bound_to 7997
  140.4264  143.2565  151.8820 H   0  0  0  0  0  0  0  0  0  0  0  0  # atno 10167 bound_to 10162
  156.3344  130.4284  149.7843 H   0  0  0  0  0  0  0  0  0  0  0  0  # atno 10718 bound_to 10713
  153.1534  135.6782  153.8848 H   0  0  0  0  0  0  0  0  0  0  0  0  # atno 10763 bound_to 10752
  153.8267  135.3123  155.3416 H   0  0  0  0  0  0  0  0  0  0  0  0  # atno 10764 bound_to 10752
  154.7879  135.4851  154.0074 H   0  0  0  0  0  0  0  0  0  0  0  0  # atno 10765 bound_to 10752
  140.5554  134.0243  155.7952 H   0  0  0  0  0  0  0  0  0  0  0  0  # atno 11005 bound_to 11000
  146.3313  139.8556  142.8865 LP  0  0  0  0  0  0  0  0  0  0  0  0  # atno 17320 bound_to 7965
  145.2878  141.0158  143.3680 LP  0  0  0  0  0  0  0  0  0  0  0  0  # atno 17321 bound_to 7965
  139.4783  144.5382  151.8567 LP  0  0  0  0  0  0  0  0  0  0  0  0  # atno 17342 bound_to 10162
  140.4477  144.1899  150.5895 LP  0  0  0  0  0  0  0  0  0  0  0  0  # atno 17343 bound_to 10162
  156.5103  130.8169  151.3166 LP  0  0  0  0  0  0  0  0  0  0  0  0  # atno 17370 bound_to 10713
  157.7436  130.9916  150.2606 LP  0  0  0  0  0  0  0  0  0  0  0  0  # atno 17371 bound_to 10713
  141.1146  133.9560  157.2846 LP  0  0  0  0  0  0  0  0  0  0  0  0  # atno 17394 bound_to 11000
  139.9434  135.0188  156.8778 LP  0  0  0  0  0  0  0  0  0  0  0  0  # atno 17395 bound_to 11000

$$$$
