AV-unprocessed.smi:3244|AV-procd|sdf|12399|dock2
  -GOLD-   2272018273D 1   1.00000     0.00000
 Structure written by MMmdl.
 41 42  0  0  0  0  0  0  0  0  2 V2000
  144.6694  135.5695  149.9112 C   0  0  0  0  0  0  0  0  0  0  0  0
  144.3422  134.9635  151.2858 C   0  0  0  0  0  0  0  0  0  0  0  0
  145.3176  133.9373  151.6857 N   0  0  0  0  0  0  0  0  0  0  0  0
  146.1846  134.0913  152.7185 C   0  0  0  0  0  0  0  0  0  0  0  0
  147.1348  133.3273  152.8984 O   0  0  0  0  0  0  0  0  0  0  0  0
  145.9792  135.2527  153.7083 C   0  0  0  0  0  0  0  0  0  0  0  0
  147.1970  136.0735  153.9038 N   0  3  0  0  0  0  0  0  0  0  0  0
  146.9817  137.4666  154.3665 C   0  0  1  0  0  0  0  0  0  0  0  0
  146.6865  137.5264  155.8749 C   0  0  0  0  0  0  0  0  0  0  0  0
  148.2099  138.3343  154.0199 C   0  0  0  0  0  0  0  0  0  0  0  0
  147.9593  139.7619  154.1388 N   0  0  0  0  0  0  0  0  0  0  0  0
  146.9936  140.5151  153.5037 C   0  0  0  0  0  0  0  0  0  0  0  0
  147.1584  141.8101  153.9035 C   0  0  0  0  0  0  0  0  0  0  0  0
  148.2750  141.7536  154.7830 C   0  0  0  0  0  0  0  0  0  0  0  0
  148.7551  140.5278  154.9172 N   0  0  0  0  0  0  0  0  0  0  0  0
  145.4159  132.8565  150.7396 C   0  0  0  0  0  0  0  0  0  0  0  0
  144.1715  132.0647  150.3971 C   0  0  0  0  0  0  0  0  0  0  0  0
  145.2772  131.4107  151.1849 C   0  0  0  0  0  0  0  0  0  0  0  0
  143.9224  136.3129  149.6321 H   0  0  0  0  0  0  0  0  0  0  0  0
  144.6743  134.8029  149.1360 H   0  0  0  0  0  0  0  0  0  0  0  0
  145.6412  136.0608  149.8960 H   0  0  0  0  0  0  0  0  0  0  0  0
  144.2635  135.7505  152.0348 H   0  0  0  0  0  0  0  0  0  0  0  0
  143.3429  134.5279  151.2416 H   0  0  0  0  0  0  0  0  0  0  0  0
  145.2126  135.9157  153.3105 H   0  0  0  0  0  0  0  0  0  0  0  0
  145.6197  134.8857  154.6698 H   0  0  0  0  0  0  0  0  0  0  0  0
  147.8194  135.5941  154.5391 H   0  0  0  0  0  0  0  0  0  0  0  0
  146.1187  137.8740  153.8379 H   0  0  0  0  0  0  0  0  0  0  0  0
  146.5657  138.5575  156.2082 H   0  0  0  0  0  0  0  0  0  0  0  0
  147.4954  137.0831  156.4569 H   0  0  0  0  0  0  0  0  0  0  0  0
  145.7651  137.0010  156.1261 H   0  0  0  0  0  0  0  0  0  0  0  0
  149.0436  138.0869  154.6785 H   0  0  0  0  0  0  0  0  0  0  0  0
  148.5441  138.1251  153.0025 H   0  0  0  0  0  0  0  0  0  0  0  0
  146.2758  140.0732  152.8284 H   0  0  0  0  0  0  0  0  0  0  0  0
  146.5749  142.6691  153.6066 H   0  0  0  0  0  0  0  0  0  0  0  0
  148.7486  142.5609  155.3219 H   0  0  0  0  0  0  0  0  0  0  0  0
  146.1108  133.0252  149.9188 H   0  0  0  0  0  0  0  0  0  0  0  0
  143.2526  132.3021  150.9300 H   0  0  0  0  0  0  0  0  0  0  0  0
  144.0424  131.7580  149.3611 H   0  0  0  0  0  0  0  0  0  0  0  0
  145.8868  130.6689  150.6733 H   0  0  0  0  0  0  0  0  0  0  0  0
  145.0690  131.1976  152.2316 H   0  0  0  0  0  0  0  0  0  0  0  0
  147.6500  136.1394  153.0034 H   0  0  0  0  0  0  0  0  0  0  0  0
  1  2  1  0  0  0  0
  1 19  1  0  0  0  0
  1 20  1  0  0  0  0
  1 21  1  0  0  0  0
  2  3  1  0  0  0  0
  2 22  1  0  0  0  0
  2 23  1  0  0  0  0
  3  4  1  0  0  0  0
  3 16  1  0  0  0  0
  4  5  2  0  0  0  0
  4  6  1  0  0  0  0
  6  7  1  0  0  0  0
  6 24  1  0  0  0  0
  6 25  1  0  0  0  0
  7  8  1  0  0  0  0
  7 26  1  0  0  0  0
  7 41  1  0  0  0  0
  8  9  1  0  0  0  0
  8 10  1  0  0  0  0
  8 27  1  0  0  0  0
  9 28  1  0  0  0  0
  9 29  1  0  0  0  0
  9 30  1  0  0  0  0
 10 11  1  0  0  0  0
 10 31  1  0  0  0  0
 10 32  1  0  0  0  0
 11 15  1  0  0  0  0
 11 12  1  0  0  0  0
 12 13  2  0  0  0  0
 12 33  1  0  0  0  0
 13 14  1  0  0  0  0
 13 34  1  0  0  0  0
 14 15  2  0  0  0  0
 14 35  1  0  0  0  0
 16 18  1  0  0  0  0
 16 17  1  0  0  0  0
 16 36  1  0  0  0  0
 17 18  1  0  0  0  0
 17 37  1  0  0  0  0
 17 38  1  0  0  0  0
 18 39  1  0  0  0  0
 18 40  1  0  0  0  0
M  CHG  1   7   1
M  END
> <s_m_source_file>
AV-unprocessed.smi

> <i_m_source_file_index>
3244

> <i_lp_mmshare_version>
43012

> <i_f3d_flags>
0

> <s_epik_input>
W0NIMl0xW0NIMl1bQ0hdMU4oW0NIMl1bQ0gzXSlDKD1PKVtDSDJdW05IXVtDQEhdKFtDSDNdKVtDSDJdbjJbY0hdW2NIXVtjSF1uMg==

> <s_epik_cmdline>
J2VwaWtfcHl0aG9uJywgJy1waCcsICc3LjAnLCAnLXRuJywgJzgnLCAnLW1hJywgJzIwMCcsICctbWV0YWxfYmluZGluZycsICctaW1hZScsICc8aW5maWxlLm1hZT4nLCAnLW9tYWUnLCAnPG91dGZpbGUubWFlPic=

> <r_lp_tautomer_probability>
1

> <r_epik_Ionization_Penalty>
0.115625

> <r_epik_Ionization_Penalty_Charging>
0.115622

> <r_epik_Ionization_Penalty_Neutral>
3.43793e-06

> <r_epik_State_Penalty>
0.105255

> <r_epik_Charging_Adjusted_Penalty>
0.220877

> <i_epik_Tot_Q>
1

> <i_epik_Tot_abs_Q>
1

> <r_epik_Metal_State_Penalty>
0.105264

> <b_epik_Metal_Only>
0

> <s_lp_Force_Field>
OPLS_2005

> <r_lp_Energy>
36.1392

> <b_lp_Chiralities_Consistent>
1

> <s_lp_Variant>
AV-unprocessed.smi:3244-2

> <Gold.Version>
5.8.1

> <Gold.Id.Protein>
6NUR|6NUR_protein|mol2

> <Gold.PLP.Fitness>
38.3923

> <Gold.PLP.PLP>
-27.2510

> <Gold.PLP.part.hbond>
-1.0000

> <Gold.PLP.part.metal>
0.0000

> <Gold.PLP.part.buried>
-2.3479

> <Gold.PLP.part.nonpolar>
-24.6950

> <Gold.PLP.part.repulsive>
0.2513

> <Gold.PLP.ligand.clash>
0.0000

> <Gold.PLP.ligand.torsion>
0.6364

> <Gold.PLP.Chemscore.Hbond>
2.0000

> <Gold.PLP.Chemscore.CHOScore>
1.9986

> <Gold.PLP.Chemscore.Metal>
0.0000

> <Gold.Chemscore.Hbonds>
donor molecule, donor type, donor heavy atom, donor atom, acceptor molecule, acceptor atom, score
      L1  H     7    41       P1  7948  2.00
      L1  C    12    33       P1 10175  0.72
      L1  C    14    35       P1  8028  1.00

> <Gold.PLP.Chemscore.Internal.Correction>
0.4184

> <Gold.Rescore>
     Score         DG    S(hbond)    S(metal)    S(lipo)     H(rot)  DE(clash)    DE(int)     intcor
     10.51     -11.45       0.98        0.00      67.70       2.04       0.16       0.78       ----

> <Gold.Chemscore.Fitness>
10.5115

> <Gold.Chemscore.DG>
-11.4524

> <Gold.Chemscore.ZeroCoef>
-5.4800

> <Gold.Chemscore.Hbond>
0.9833

> <Gold.Chemscore.Metal>
0.0000

> <Gold.Chemscore.Lipo>
67.6971

> <Gold.Chemscore.Internal_Hbond>
0.0000

> <Gold.Chemscore.DEClash>
0.1577

> <Gold.Chemscore.DEInternal>
0.7832

> <Gold.Chemscore.Rot>
2.0440

> <Gold.Chemscore.Internal.Correction>
   9.000000E+99

> <Gold.Chemscore.Hbonds>
donor molecule, donor type, donor heavy atom, donor atom, acceptor molecule, acceptor atom, score
      L1  H     7    41       P1  7948  0.99

> <Gold.Chemscore.Hbond.Weighted>
-3.2844

> <Gold.Chemscore.Metal.Weighted>
-0.0000

> <Gold.Chemscore.Lipo.Weighted>
-7.9206

> <Gold.Chemscore.Internal_Hbond.Weighted>
0.0000

> <Gold.Chemscore.DEClash.Weighted>
0.1577

> <Gold.Chemscore.DEInternal.Weighted>
0.7832

> <Gold.Chemscore.Rot.Weighted>
5.2325

> <Gold.Chemscore.Internal.Correction.Weighted>
   9.000000E+99

> <Gold.Protein.RotatedTorsions>
[ 6907 6896 6895 6894 ] final -150.39 input  -60.11 | X-H torsion
[ 7974 7965 7964 7962 ] final  121.65 input  175.53 | X-H torsion
[ 8008 7997 7996 7995 ] final   26.54 input   59.86 | X-H torsion
[ 10167 10162 10161 10158 ] final  140.32 input  -65.29 | X-H torsion
[ 10718 10713 10712 10709 ] final  110.98 input   66.30 | X-H torsion
[ 10763 10752 10751 10750 ] final  -19.69 input  -60.55 | X-H torsion
[ 11005 11000 10999 10996 ] final   71.97 input  -57.11 | X-H torsion

> <Gold.Protein.ActiveResidues>
 VAL166  LYS551  ARG553  GLY616  TRP617  ASP618  TYR619  PRO620  LYS621  CYS622 
 ASP623  PHE694  ASN695  SER759  ASP760  ASP761  ALA762  ILE779  LEU786  VAL792 
 PHE793  MET794  SER795  GLU796  ALA797  LYS798  CYS799  TRP800  GLU811  SER814 

> <Gold.Protein.RotatedAtoms>
  151.1978  133.4629  159.2595 H   0  0  0  0  0  0  0  0  0  0  0  0  # atno 6907 bound_to 6896
  151.1099  135.0021  159.8499 H   0  0  0  0  0  0  0  0  0  0  0  0  # atno 6908 bound_to 6896
  152.5449  134.1898  159.8722 H   0  0  0  0  0  0  0  0  0  0  0  0  # atno 6909 bound_to 6896
  145.1168  139.3416  143.4735 H   0  0  0  0  0  0  0  0  0  0  0  0  # atno 7974 bound_to 7965
  155.0289  140.3156  155.4765 H   0  0  0  0  0  0  0  0  0  0  0  0  # atno 8008 bound_to 7997
  156.2878  140.2184  156.5352 H   0  0  0  0  0  0  0  0  0  0  0  0  # atno 8009 bound_to 7997
  154.7387  140.0475  157.0780 H   0  0  0  0  0  0  0  0  0  0  0  0  # atno 8010 bound_to 7997
  139.5052  144.6241  151.5980 H   0  0  0  0  0  0  0  0  0  0  0  0  # atno 10167 bound_to 10162
  157.6467  131.0942  150.6682 H   0  0  0  0  0  0  0  0  0  0  0  0  # atno 10718 bound_to 10713
  153.6088  135.6997  153.5355 H   0  0  0  0  0  0  0  0  0  0  0  0  # atno 10763 bound_to 10752
  153.3034  135.4122  155.1272 H   0  0  0  0  0  0  0  0  0  0  0  0  # atno 10764 bound_to 10752
  154.8568  135.3654  154.5626 H   0  0  0  0  0  0  0  0  0  0  0  0  # atno 10765 bound_to 10752
  139.9515  134.7218  156.0851 H   0  0  0  0  0  0  0  0  0  0  0  0  # atno 11005 bound_to 11000
  146.3523  140.1110  142.8604 LP  0  0  0  0  0  0  0  0  0  0  0  0  # atno 17320 bound_to 7965
  145.0785  140.9205  143.4839 LP  0  0  0  0  0  0  0  0  0  0  0  0  # atno 17321 bound_to 7965
  140.5952  143.9708  150.6350 LP  0  0  0  0  0  0  0  0  0  0  0  0  # atno 17342 bound_to 10162
  140.2902  143.3330  152.1070 LP  0  0  0  0  0  0  0  0  0  0  0  0  # atno 17343 bound_to 10162
  156.6998  130.4620  149.5576 LP  0  0  0  0  0  0  0  0  0  0  0  0  # atno 17370 bound_to 10713
  156.1803  130.6495  151.0944 LP  0  0  0  0  0  0  0  0  0  0  0  0  # atno 17371 bound_to 10713
  141.1179  133.6622  156.3140 LP  0  0  0  0  0  0  0  0  0  0  0  0  # atno 17394 bound_to 11000
  140.5707  134.5843  157.5457 LP  0  0  0  0  0  0  0  0  0  0  0  0  # atno 17395 bound_to 11000

$$$$
