AV-unprocessed.smi:2165|AV-procd|sdf|8812|dock7
  -GOLD-   2272012 03D 1   1.00000     0.00000
 Structure written by MMmdl.
 36 37  0  0  0  0  0  0  0  0  1 V2000
  151.1062  141.4879  156.6473 C   0  0  0  0  0  0  0  0  0  0  0  0
  150.7771  140.4476  155.6953 N   0  0  0  0  0  0  0  0  0  0  0  0
  151.7410  139.4547  155.3945 C   0  0  0  0  0  0  0  0  0  0  0  0
  152.8594  139.4357  155.9096 O   0  0  0  0  0  0  0  0  0  0  0  0
  151.2998  138.4623  154.4213 C   0  0  0  0  0  0  0  0  0  0  0  0
  150.0659  138.5258  153.8744 C   0  0  0  0  0  0  0  0  0  0  0  0
  149.1451  139.5105  154.1827 N   0  0  0  0  0  0  0  0  0  0  0  0
  147.8215  139.4986  153.5469 C   0  0  0  0  0  0  0  0  0  0  0  0
  146.9601  138.3139  154.0028 C   0  0  0  0  0  0  0  0  0  0  0  0
  146.3090  138.3799  155.0464 O   0  0  0  0  0  0  0  0  0  0  0  0
  146.9777  137.2301  153.2129 N   0  0  0  0  0  0  0  0  0  0  0  0
  146.1998  136.0173  153.4357 C   0  0  0  0  0  0  0  0  0  0  0  0
  145.8368  135.3313  152.1079 C   0  0  2  0  0  0  0  0  0  0  0  0
  145.4162  136.2975  151.0025 C   0  0  0  0  0  0  0  0  0  0  0  0
  144.5250  135.4490  150.1069 C   0  0  0  0  0  0  0  0  0  0  0  0
  144.2258  134.2035  150.9467 C   0  0  0  0  0  0  0  0  0  0  0  0
  144.6808  134.5221  152.2537 O   0  0  0  0  0  0  0  0  0  0  0  0
  149.4913  140.5116  155.1158 C   0  0  0  0  0  0  0  0  0  0  0  0
  148.6924  141.4061  155.4063 O   0  0  0  0  0  0  0  0  0  0  0  0
  152.0787  141.3134  157.1063 H   0  0  0  0  0  0  0  0  0  0  0  0
  150.3354  141.4795  157.4201 H   0  0  0  0  0  0  0  0  0  0  0  0
  151.1111  142.4323  156.1002 H   0  0  0  0  0  0  0  0  0  0  0  0
  151.9704  137.6653  154.1353 H   0  0  0  0  0  0  0  0  0  0  0  0
  149.7867  137.7643  153.1606 H   0  0  0  0  0  0  0  0  0  0  0  0
  147.3056  140.4395  153.7484 H   0  0  0  0  0  0  0  0  0  0  0  0
  147.9256  139.4454  152.4625 H   0  0  0  0  0  0  0  0  0  0  0  0
  147.5422  137.2612  152.3763 H   0  0  0  0  0  0  0  0  0  0  0  0
  146.7866  135.3428  154.0601 H   0  0  0  0  0  0  0  0  0  0  0  0
  145.2959  136.2559  153.9984 H   0  0  0  0  0  0  0  0  0  0  0  0
  146.6624  134.7105  151.7539 H   0  0  0  0  0  0  0  0  0  0  0  0
  144.8342  137.1203  151.4201 H   0  0  0  0  0  0  0  0  0  0  0  0
  146.2683  136.7243  150.4730 H   0  0  0  0  0  0  0  0  0  0  0  0
  143.6130  135.9871  149.8460 H   0  0  0  0  0  0  0  0  0  0  0  0
  145.0308  135.1757  149.1801 H   0  0  0  0  0  0  0  0  0  0  0  0
  143.1676  133.9422  150.9499 H   0  0  0  0  0  0  0  0  0  0  0  0
  144.7868  133.3457  150.5727 H   0  0  0  0  0  0  0  0  0  0  0  0
  1  2  1  0  0  0  0
  1 20  1  0  0  0  0
  1 21  1  0  0  0  0
  1 22  1  0  0  0  0
  2 18  1  0  0  0  0
  2  3  1  0  0  0  0
  3  4  2  0  0  0  0
  3  5  1  0  0  0  0
  5  6  2  0  0  0  0
  5 23  1  0  0  0  0
  6  7  1  0  0  0  0
  6 24  1  0  0  0  0
  7  8  1  0  0  0  0
  7 18  1  0  0  0  0
  8  9  1  0  0  0  0
  8 25  1  0  0  0  0
  8 26  1  0  0  0  0
  9 10  2  0  0  0  0
  9 11  1  0  0  0  0
 11 12  1  0  0  0  0
 11 27  1  0  0  0  0
 12 13  1  0  0  0  0
 12 28  1  0  0  0  0
 12 29  1  0  0  0  0
 13 17  1  0  0  0  0
 13 14  1  0  0  0  0
 13 30  1  0  0  0  0
 14 15  1  0  0  0  0
 14 31  1  0  0  0  0
 14 32  1  0  0  0  0
 15 16  1  0  0  0  0
 15 33  1  0  0  0  0
 15 34  1  0  0  0  0
 16 17  1  0  0  0  0
 16 35  1  0  0  0  0
 16 36  1  0  0  0  0
 18 19  2  0  0  0  0
M  END
> <s_m_source_file>
AV-unprocessed.smi

> <i_m_source_file_index>
2165

> <i_lp_mmshare_version>
43012

> <i_f3d_flags>
0

> <s_epik_input>
W0NIM11uMWMoPU8pW2NIXVtjSF1uKGMxPU8pW0NIMl1DKD1PKVtOSF1bQ0gyXVtDQEBIXTJbQ0gyXVtDSDJdW0NIMl1PMg==

> <s_epik_cmdline>
J2VwaWtfcHl0aG9uJywgJy1waCcsICc3LjAnLCAnLXRuJywgJzgnLCAnLW1hJywgJzIwMCcsICctbWV0YWxfYmluZGluZycsICctaW1hZScsICc8aW5maWxlLm1hZT4nLCAnLW9tYWUnLCAnPG91dGZpbGUubWFlPic=

> <r_lp_tautomer_probability>
1

> <r_epik_Ionization_Penalty>
3.89869e-08

> <r_epik_Ionization_Penalty_Charging>
1.21279e-08

> <r_epik_Ionization_Penalty_Neutral>
2.6859e-08

> <r_epik_State_Penalty>
-0

> <r_epik_Charging_Adjusted_Penalty>
1.21279e-08

> <i_epik_Tot_Q>
0

> <i_epik_Tot_abs_Q>
0

> <r_epik_Metal_State_Penalty>
-0

> <b_epik_Metal_Only>
0

> <s_lp_Force_Field>
OPLS_2005

> <r_lp_Energy>
24.9398

> <b_lp_Chiralities_Consistent>
1

> <s_lp_Variant>
AV-unprocessed.smi:2165-1

> <Gold.Version>
5.8.1

> <Gold.Id.Protein>
6NUR|6NUR_protein|mol2

> <Gold.PLP.Fitness>
39.8853

> <Gold.PLP.PLP>
-32.5529

> <Gold.PLP.part.hbond>
-2.0000

> <Gold.PLP.part.metal>
0.0000

> <Gold.PLP.part.buried>
-2.5384

> <Gold.PLP.part.nonpolar>
-28.9991

> <Gold.PLP.part.repulsive>
0.2640

> <Gold.PLP.ligand.clash>
0.0000

> <Gold.PLP.ligand.torsion>
0.8042

> <Gold.PLP.Chemscore.Hbond>
1.9760

> <Gold.PLP.Chemscore.CHOScore>
1.0000

> <Gold.PLP.Chemscore.Metal>
0.0000

> <Gold.Chemscore.Hbonds>
donor molecule, donor type, donor heavy atom, donor atom, acceptor molecule, acceptor atom, score
      L1  H    11    27       P1  7948  0.64
      P1  H  7997  8010       L1     4  0.98
      L1  C     6    24       P1  7948  1.00

> <Gold.PLP.Chemscore.Internal.Correction>
0.0128

> <Gold.Rescore>
     Score         DG    S(hbond)    S(metal)    S(lipo)     H(rot)  DE(clash)    DE(int)     intcor
     12.30     -13.07       1.95        0.00      50.08       1.87       0.05       0.72       ----

> <Gold.Chemscore.Fitness>
12.3030

> <Gold.Chemscore.DG>
-13.0728

> <Gold.Chemscore.ZeroCoef>
-5.4800

> <Gold.Chemscore.Hbond>
1.9510

> <Gold.Chemscore.Metal>
0.0000

> <Gold.Chemscore.Lipo>
50.0758

> <Gold.Chemscore.Internal_Hbond>
0.0000

> <Gold.Chemscore.DEClash>
0.0491

> <Gold.Chemscore.DEInternal>
0.7208

> <Gold.Chemscore.Rot>
1.8681

> <Gold.Chemscore.Internal.Correction>
   9.000000E+99

> <Gold.Chemscore.Hbonds>
donor molecule, donor type, donor heavy atom, donor atom, acceptor molecule, acceptor atom, score
      L1  H    11    27       P1  7948  0.64
      P1  H  7997  8010       L1     4  0.93

> <Gold.Chemscore.Hbond.Weighted>
-6.5162

> <Gold.Chemscore.Metal.Weighted>
-0.0000

> <Gold.Chemscore.Lipo.Weighted>
-5.8589

> <Gold.Chemscore.Internal_Hbond.Weighted>
0.0000

> <Gold.Chemscore.DEClash.Weighted>
0.0491

> <Gold.Chemscore.DEInternal.Weighted>
0.7208

> <Gold.Chemscore.Rot.Weighted>
4.7822

> <Gold.Chemscore.Internal.Correction.Weighted>
   9.000000E+99

> <Gold.Protein.RotatedTorsions>
[ 6907 6896 6895 6894 ] final   80.83 input  -60.11 | X-H torsion
[ 7974 7965 7964 7962 ] final   11.94 input  175.53 | X-H torsion
[ 8008 7997 7996 7995 ] final   62.25 input   59.86 | X-H torsion
[ 10167 10162 10161 10158 ] final  119.19 input  -65.29 | X-H torsion
[ 10718 10713 10712 10709 ] final   69.04 input   66.30 | X-H torsion
[ 10763 10752 10751 10750 ] final   53.08 input  -60.55 | X-H torsion
[ 11005 11000 10999 10996 ] final  154.04 input  -57.11 | X-H torsion

> <Gold.Protein.ActiveResidues>
 VAL166  LYS551  ARG553  GLY616  TRP617  ASP618  TYR619  PRO620  LYS621  CYS622 
 ASP623  PHE694  ASN695  SER759  ASP760  ASP761  ALA762  ILE779  LEU786  VAL792 
 PHE793  MET794  SER795  GLU796  ALA797  LYS798  CYS799  TRP800  GLU811  SER814 

> <Gold.Protein.RotatedAtoms>
  152.5248  134.3298  159.9178 H   0  0  0  0  0  0  0  0  0  0  0  0  # atno 6907 bound_to 6896
  151.3247  133.4019  159.2665 H   0  0  0  0  0  0  0  0  0  0  0  0  # atno 6908 bound_to 6896
  150.9930  134.9278  159.7968 H   0  0  0  0  0  0  0  0  0  0  0  0  # atno 6909 bound_to 6896
  146.2361  139.9410  142.8483 H   0  0  0  0  0  0  0  0  0  0  0  0  # atno 7974 bound_to 7965
  155.6113  140.3495  155.4623 H   0  0  0  0  0  0  0  0  0  0  0  0  # atno 8008 bound_to 7997
  156.0152  140.1242  157.0438 H   0  0  0  0  0  0  0  0  0  0  0  0  # atno 8009 bound_to 7997
  154.4295  140.1073  156.5872 H   0  0  0  0  0  0  0  0  0  0  0  0  # atno 8010 bound_to 7997
  139.6062  144.7070  151.2948 H   0  0  0  0  0  0  0  0  0  0  0  0  # atno 10167 bound_to 10162
  157.6323  130.9405  150.0459 H   0  0  0  0  0  0  0  0  0  0  0  0  # atno 10718 bound_to 10713
  152.9793  135.5791  154.4684 H   0  0  0  0  0  0  0  0  0  0  0  0  # atno 10763 bound_to 10752
  154.4250  135.2772  155.1952 H   0  0  0  0  0  0  0  0  0  0  0  0  # atno 10764 bound_to 10752
  154.3685  135.6173  153.5781 H   0  0  0  0  0  0  0  0  0  0  0  0  # atno 10765 bound_to 10752
  140.1453  134.8712  157.2384 H   0  0  0  0  0  0  0  0  0  0  0  0  # atno 11005 bound_to 11000
  145.1952  140.9830  143.4187 LP  0  0  0  0  0  0  0  0  0  0  0  0  # atno 17320 bound_to 7965
  144.9822  139.3772  143.6256 LP  0  0  0  0  0  0  0  0  0  0  0  0  # atno 17321 bound_to 7965
  140.7286  143.6930  150.7906 LP  0  0  0  0  0  0  0  0  0  0  0  0  # atno 17342 bound_to 10162
  140.0516  143.5244  152.2671 LP  0  0  0  0  0  0  0  0  0  0  0  0  # atno 17343 bound_to 10162
  156.1536  130.3643  149.9402 LP  0  0  0  0  0  0  0  0  0  0  0  0  # atno 17370 bound_to 10713
  156.7416  130.9081  151.3632 LP  0  0  0  0  0  0  0  0  0  0  0  0  # atno 17371 bound_to 10713
  140.2672  134.3502  155.7386 LP  0  0  0  0  0  0  0  0  0  0  0  0  # atno 17394 bound_to 11000
  141.2192  133.7402  156.9168 LP  0  0  0  0  0  0  0  0  0  0  0  0  # atno 17395 bound_to 11000

$$$$
