AV-unprocessed.smi:3039|AV-procd|sdf|11593|dock8
  -GOLD-   2272016573D 1   1.00000     0.00000
 Structure written by MMmdl.
 38 39  0  0  0  0  0  0  0  0  1 V2000
  153.5197  139.0079  157.7731 O   0  0  0  0  0  0  0  0  0  0  0  0
  152.5651  139.1291  158.5407 C   0  0  0  0  0  0  0  0  0  0  0  0
  151.9762  137.8997  159.2329 C   0  0  0  0  0  0  0  0  0  0  0  0
  153.0225  137.2312  160.0852 C   0  0  0  0  0  0  0  0  0  0  0  0
  153.6869  137.7419  161.2363 C   0  0  0  0  0  0  0  0  0  0  0  0
  154.5210  136.7249  161.6013 C   0  0  0  0  0  0  0  0  0  0  0  0
  154.3843  135.6718  160.7567 O   0  0  0  0  0  0  0  0  0  0  0  0
  153.4246  136.0034  159.7936 N   0  0  0  0  0  0  0  0  0  0  0  0
  151.9843  140.3057  158.8235 N   0  0  0  0  0  0  0  0  0  0  0  0
  152.3777  141.6098  158.2934 C   0  0  2  0  0  0  0  0  0  0  0  0
  152.9666  142.4565  159.4466 C   0  0  0  0  0  0  0  0  0  0  0  0
  153.0804  143.9667  159.1842 C   0  0  0  0  0  0  0  0  0  0  0  0
  151.7963  144.7273  159.5586 C   0  0  0  0  0  0  0  0  0  0  0  0
  150.6188  144.5262  158.5931 C   0  0  0  0  0  0  0  0  0  0  0  0
  150.2066  143.0609  158.3579 C   0  0  0  0  0  0  0  0  0  0  0  0
  151.2203  142.2758  157.4933 C   0  0  2  0  0  0  0  0  0  0  0  0
  150.5239  141.3281  156.4850 C   0  0  0  0  0  0  0  0  0  0  0  0
  149.6772  142.0095  155.5790 O   0  0  0  0  0  0  0  0  0  0  0  0
  151.1241  138.2007  159.8437 H   0  0  0  0  0  0  0  0  0  0  0  0
  151.5877  137.2131  158.4789 H   0  0  0  0  0  0  0  0  0  0  0  0
  153.5732  138.7038  161.7143 H   0  0  0  0  0  0  0  0  0  0  0  0
  155.2376  136.6032  162.4002 H   0  0  0  0  0  0  0  0  0  0  0  0
  151.1965  140.3001  159.4557 H   0  0  0  0  0  0  0  0  0  0  0  0
  153.1781  141.4417  157.5698 H   0  0  0  0  0  0  0  0  0  0  0  0
  152.3918  142.2980  160.3605 H   0  0  0  0  0  0  0  0  0  0  0  0
  153.9624  142.0710  159.6702 H   0  0  0  0  0  0  0  0  0  0  0  0
  153.8852  144.3549  159.8093 H   0  0  0  0  0  0  0  0  0  0  0  0
  153.3800  144.1700  158.1556 H   0  0  0  0  0  0  0  0  0  0  0  0
  151.4899  144.4553  160.5693 H   0  0  0  0  0  0  0  0  0  0  0  0
  152.0228  145.7934  159.5994 H   0  0  0  0  0  0  0  0  0  0  0  0
  149.7601  145.0676  158.9916 H   0  0  0  0  0  0  0  0  0  0  0  0
  150.8437  145.0026  157.6381 H   0  0  0  0  0  0  0  0  0  0  0  0
  150.0198  142.5488  159.3025 H   0  0  0  0  0  0  0  0  0  0  0  0
  149.2456  143.0845  157.8430 H   0  0  0  0  0  0  0  0  0  0  0  0
  151.7066  143.0115  156.8513 H   0  0  0  0  0  0  0  0  0  0  0  0
  151.2751  140.7968  155.8997 H   0  0  0  0  0  0  0  0  0  0  0  0
  149.9463  140.5677  157.0118 H   0  0  0  0  0  0  0  0  0  0  0  0
  149.7100  142.9336  155.7749 H   0  0  0  0  0  0  0  0  0  0  0  0
  1  2  2  0  0  0  0
  2  3  1  0  0  0  0
  2  9  1  0  0  0  0
  3  4  1  0  0  0  0
  3 19  1  0  0  0  0
  3 20  1  0  0  0  0
  4  8  2  0  0  0  0
  4  5  1  0  0  0  0
  5  6  2  0  0  0  0
  5 21  1  0  0  0  0
  6  7  1  0  0  0  0
  6 22  1  0  0  0  0
  7  8  1  0  0  0  0
  9 10  1  0  0  0  0
  9 23  1  0  0  0  0
 10 16  1  0  0  0  0
 10 11  1  0  0  0  0
 10 24  1  0  0  0  0
 11 12  1  0  0  0  0
 11 25  1  0  0  0  0
 11 26  1  0  0  0  0
 12 13  1  0  0  0  0
 12 27  1  0  0  0  0
 12 28  1  0  0  0  0
 13 14  1  0  0  0  0
 13 29  1  0  0  0  0
 13 30  1  0  0  0  0
 14 15  1  0  0  0  0
 14 31  1  0  0  0  0
 14 32  1  0  0  0  0
 15 16  1  0  0  0  0
 15 33  1  0  0  0  0
 15 34  1  0  0  0  0
 16 17  1  0  0  0  0
 16 35  1  0  0  0  0
 17 18  1  0  0  0  0
 17 36  1  0  0  0  0
 17 37  1  0  0  0  0
 18 38  1  0  0  0  0
M  END
> <s_m_source_file>
AV-unprocessed.smi

> <i_m_source_file_index>
3039

> <i_lp_mmshare_version>
43012

> <i_f3d_flags>
0

> <s_epik_input>
bjFvW2NIXVtjSF1jMVtDSDJdQyg9TylbTkhdW0NAQEhdMltDSDJdW0NIMl1bQ0gyXVtDSDJdW0NIMl1bQ0BIXTJbQ0gyXVtPSF0=

> <s_epik_cmdline>
J2VwaWtfcHl0aG9uJywgJy1waCcsICc3LjAnLCAnLXRuJywgJzgnLCAnLW1hJywgJzIwMCcsICctbWV0YWxfYmluZGluZycsICctaW1hZScsICc8aW5maWxlLm1hZT4nLCAnLW9tYWUnLCAnPG91dGZpbGUubWFlPic=

> <r_lp_tautomer_probability>
1

> <r_epik_Ionization_Penalty>
3.05817e-07

> <r_epik_Ionization_Penalty_Charging>
0

> <r_epik_Ionization_Penalty_Neutral>
3.05817e-07

> <r_epik_State_Penalty>
-0

> <r_epik_Charging_Adjusted_Penalty>
0

> <i_epik_Tot_Q>
0

> <i_epik_Tot_abs_Q>
0

> <r_epik_Metal_State_Penalty>
-0

> <b_epik_Metal_Only>
0

> <s_lp_Force_Field>
OPLS_2005

> <r_lp_Energy>
21.1275

> <b_lp_Chiralities_Consistent>
1

> <s_lp_Variant>
AV-unprocessed.smi:3039-3

> <Gold.Version>
5.8.1

> <Gold.Id.Protein>
6NUR|6NUR_protein|mol2

> <Gold.PLP.Fitness>
43.3509

> <Gold.PLP.PLP>
-34.4731

> <Gold.PLP.part.hbond>
-3.1889

> <Gold.PLP.part.metal>
0.0000

> <Gold.PLP.part.buried>
-5.4819

> <Gold.PLP.part.nonpolar>
-25.3343

> <Gold.PLP.part.repulsive>
0.1298

> <Gold.PLP.ligand.clash>
0.0000

> <Gold.PLP.ligand.torsion>
0.0897

> <Gold.PLP.Chemscore.Hbond>
2.9920

> <Gold.PLP.Chemscore.CHOScore>
0.0000

> <Gold.PLP.Chemscore.Metal>
0.0000

> <Gold.Chemscore.Hbonds>
donor molecule, donor type, donor heavy atom, donor atom, acceptor molecule, acceptor atom, score
      L1  H    18    38       P1  8028  0.99
      P1  H  6896  6909       L1     8  1.00
      P1  H  7997  8010       L1     1  1.00

> <Gold.PLP.Chemscore.Internal.Correction>
0.0811

> <Gold.Rescore>
     Score         DG    S(hbond)    S(metal)    S(lipo)     H(rot)  DE(clash)    DE(int)     intcor
     19.77     -20.09       2.65        0.00      98.72       2.26       0.18       0.15       ----

> <Gold.Chemscore.Fitness>
19.7679

> <Gold.Chemscore.DG>
-20.0911

> <Gold.Chemscore.ZeroCoef>
-5.4800

> <Gold.Chemscore.Hbond>
2.6498

> <Gold.Chemscore.Metal>
0.0000

> <Gold.Chemscore.Lipo>
98.7202

> <Gold.Chemscore.Internal_Hbond>
0.0000

> <Gold.Chemscore.DEClash>
0.1760

> <Gold.Chemscore.DEInternal>
0.1472

> <Gold.Chemscore.Rot>
2.2616

> <Gold.Chemscore.Internal.Correction>
   9.000000E+99

> <Gold.Chemscore.Hbonds>
donor molecule, donor type, donor heavy atom, donor atom, acceptor molecule, acceptor atom, score
      L1  H    18    38       P1  8028  0.92
      P1  H  6896  6909       L1     8  0.33
      P1  H  7997  8010       L1     1  1.00

> <Gold.Chemscore.Hbond.Weighted>
-8.8504

> <Gold.Chemscore.Metal.Weighted>
-0.0000

> <Gold.Chemscore.Lipo.Weighted>
-11.5503

> <Gold.Chemscore.Internal_Hbond.Weighted>
0.0000

> <Gold.Chemscore.DEClash.Weighted>
0.1760

> <Gold.Chemscore.DEInternal.Weighted>
0.1472

> <Gold.Chemscore.Rot.Weighted>
5.7896

> <Gold.Chemscore.Internal.Correction.Weighted>
   9.000000E+99

> <Gold.Protein.RotatedTorsions>
[ 6907 6896 6895 6894 ] final  152.77 input  -60.11 | X-H torsion
[ 7974 7965 7964 7962 ] final  -14.68 input  175.53 | X-H torsion
[ 8008 7997 7996 7995 ] final   36.59 input   59.86 | X-H torsion
[ 10167 10162 10161 10158 ] final   80.44 input  -65.29 | X-H torsion
[ 10718 10713 10712 10709 ] final   49.96 input   66.30 | X-H torsion
[ 10763 10752 10751 10750 ] final   44.80 input  -60.55 | X-H torsion
[ 11005 11000 10999 10996 ] final   31.17 input  -57.11 | X-H torsion

> <Gold.Protein.ActiveResidues>
 VAL166  LYS551  ARG553  GLY616  TRP617  ASP618  TYR619  PRO620  LYS621  CYS622 
 ASP623  PHE694  ASN695  SER759  ASP760  ASP761  ALA762  ILE779  LEU786  VAL792 
 PHE793  MET794  SER795  GLU796  ALA797  LYS798  CYS799  TRP800  GLU811  SER814 

> <Gold.Protein.RotatedAtoms>
  152.0821  133.4158  159.4505 H   0  0  0  0  0  0  0  0  0  0  0  0  # atno 6907 bound_to 6896
  150.6862  134.2970  159.4700 H   0  0  0  0  0  0  0  0  0  0  0  0  # atno 6908 bound_to 6896
  152.0813  134.9468  160.0624 H   0  0  0  0  0  0  0  0  0  0  0  0  # atno 6909 bound_to 6896
  146.2064  140.3383  142.8405 H   0  0  0  0  0  0  0  0  0  0  0  0  # atno 7974 bound_to 7965
  155.1899  140.3307  155.4360 H   0  0  0  0  0  0  0  0  0  0  0  0  # atno 8008 bound_to 7997
  156.2446  140.1912  156.6942 H   0  0  0  0  0  0  0  0  0  0  0  0  # atno 8009 bound_to 7997
  154.6213  140.0595  156.9604 H   0  0  0  0  0  0  0  0  0  0  0  0  # atno 8010 bound_to 7997
  139.9498  144.6034  150.8172 H   0  0  0  0  0  0  0  0  0  0  0  0  # atno 10167 bound_to 10162
  157.4838  130.8332  149.8123 H   0  0  0  0  0  0  0  0  0  0  0  0  # atno 10718 bound_to 10713
  152.9835  135.6059  154.3333 H   0  0  0  0  0  0  0  0  0  0  0  0  # atno 10763 bound_to 10752
  154.3035  135.2772  155.2601 H   0  0  0  0  0  0  0  0  0  0  0  0  # atno 10764 bound_to 10752
  154.4843  135.5909  153.6468 H   0  0  0  0  0  0  0  0  0  0  0  0  # atno 10765 bound_to 10752
  140.2867  134.2911  155.7786 H   0  0  0  0  0  0  0  0  0  0  0  0  # atno 11005 bound_to 11000
  144.8803  140.7392  143.5990 LP  0  0  0  0  0  0  0  0  0  0  0  0  # atno 17320 bound_to 7965
  145.3303  139.1761  143.4540 LP  0  0  0  0  0  0  0  0  0  0  0  0  # atno 17321 bound_to 7965
  140.7586  143.3111  151.2842 LP  0  0  0  0  0  0  0  0  0  0  0  0  # atno 17342 bound_to 10162
  139.6638  144.0142  152.2709 LP  0  0  0  0  0  0  0  0  0  0  0  0  # atno 17343 bound_to 10162
  156.0135  130.3823  150.2185 LP  0  0  0  0  0  0  0  0  0  0  0  0  # atno 17370 bound_to 10713
  157.0372  131.0024  151.3294 LP  0  0  0  0  0  0  0  0  0  0  0  0  # atno 17371 bound_to 10713
  141.2153  133.7559  156.9563 LP  0  0  0  0  0  0  0  0  0  0  0  0  # atno 17394 bound_to 11000
  140.1233  134.9403  157.2234 LP  0  0  0  0  0  0  0  0  0  0  0  0  # atno 17395 bound_to 11000

$$$$
