AV-unprocessed.smi:468|AV-procd|sdf|2651|dock2
  -GOLD-   2262023 63D 1   1.00000     0.00000
 Structure written by MMmdl.
 50 51  0  0  0  0  0  0  0  0  1 V2000
  149.6439  135.1717  155.7746 C   0  0  0  0  0  0  0  0  0  0  0  0
  148.4654  135.9018  156.0773 O   0  0  0  0  0  0  0  0  0  0  0  0
  147.6112  135.2780  157.0270 C   0  0  0  0  0  0  0  0  0  0  0  0
  148.2717  135.0877  158.4085 C   0  0  0  0  0  0  0  0  0  0  0  0
  148.2661  136.3155  159.2218 N   0  0  0  0  0  0  0  0  0  0  0  0
  147.5845  136.3700  160.3970 C   0  0  0  0  0  0  0  0  0  0  0  0
  147.5115  137.4073  161.0580 O   0  0  0  0  0  0  0  0  0  0  0  0
  146.8544  135.1056  160.9034 C   0  0  0  0  0  0  0  0  0  0  0  0
  146.4071  135.1229  162.3795 C   0  0  0  0  0  0  0  0  0  0  0  0
  146.9120  133.6827  162.5005 C   0  0  0  0  0  0  0  0  0  0  0  0
  147.7924  133.9453  161.2760 C   0  0  0  0  0  0  0  0  0  0  0  0
  148.8446  137.4613  158.6449 C   0  0  0  0  0  0  0  0  0  0  0  0
  148.1172  138.3530  157.9068 C   0  0  0  0  0  0  0  0  0  0  0  0
  146.7590  138.1532  157.7113 N   0  0  0  0  0  0  0  0  0  0  0  0
  148.7108  139.4756  157.3189 N   0  0  0  0  0  0  0  0  0  0  0  0
  147.9963  140.4472  156.5094 C   0  0  0  0  0  0  0  0  0  0  0  0
  148.5804  140.6510  155.0913 C   0  0  0  0  0  0  0  0  0  0  0  0
  147.8415  141.7845  154.3657 C   0  0  0  0  0  0  0  0  0  0  0  0
  148.5673  139.3660  154.2459 C   0  0  0  0  0  0  0  0  0  0  0  0
  150.0994  139.7049  157.4718 C   0  0  0  0  0  0  0  0  0  0  0  0
  150.6889  140.6626  156.9699 O   0  0  0  0  0  0  0  0  0  0  0  0
  150.8161  138.7862  158.2298 N   0  0  0  0  0  0  0  0  0  0  0  0
  150.2863  137.6560  158.8453 C   0  0  0  0  0  0  0  0  0  0  0  0
  151.0279  136.9130  159.4867 O   0  0  0  0  0  0  0  0  0  0  0  0
  151.8062  138.9505  158.3390 H   0  0  0  0  0  0  0  0  0  0  0  0
  150.2753  135.7660  155.1143 H   0  0  0  0  0  0  0  0  0  0  0  0
  149.4202  134.2388  155.2579 H   0  0  0  0  0  0  0  0  0  0  0  0
  150.2174  134.9488  156.6748 H   0  0  0  0  0  0  0  0  0  0  0  0
  146.6890  135.8522  157.1263 H   0  0  0  0  0  0  0  0  0  0  0  0
  147.3176  134.3101  156.6211 H   0  0  0  0  0  0  0  0  0  0  0  0
  147.7855  134.2724  158.9448 H   0  0  0  0  0  0  0  0  0  0  0  0
  149.3001  134.7490  158.2715 H   0  0  0  0  0  0  0  0  0  0  0  0
  146.0332  134.7855  160.2620 H   0  0  0  0  0  0  0  0  0  0  0  0
  146.9611  135.8056  163.0259 H   0  0  0  0  0  0  0  0  0  0  0  0
  145.3314  135.2277  162.5226 H   0  0  0  0  0  0  0  0  0  0  0  0
  147.4597  133.4660  163.4179 H   0  0  0  0  0  0  0  0  0  0  0  0
  146.1318  132.9447  162.3085 H   0  0  0  0  0  0  0  0  0  0  0  0
  147.8054  133.1267  160.5557 H   0  0  0  0  0  0  0  0  0  0  0  0
  148.8034  134.2642  161.5373 H   0  0  0  0  0  0  0  0  0  0  0  0
  146.2869  137.3523  158.1073 H   0  0  0  0  0  0  0  0  0  0  0  0
  146.1622  138.8974  157.3802 H   0  0  0  0  0  0  0  0  0  0  0  0
  146.9541  140.1345  156.4646 H   0  0  0  0  0  0  0  0  0  0  0  0
  147.9787  141.3807  157.0755 H   0  0  0  0  0  0  0  0  0  0  0  0
  149.6208  140.9624  155.1901 H   0  0  0  0  0  0  0  0  0  0  0  0
  146.7868  141.5448  154.2268 H   0  0  0  0  0  0  0  0  0  0  0  0
  148.2736  141.9701  153.3819 H   0  0  0  0  0  0  0  0  0  0  0  0
  147.8999  142.7157  154.9301 H   0  0  0  0  0  0  0  0  0  0  0  0
  147.5554  138.9763  154.1327 H   0  0  0  0  0  0  0  0  0  0  0  0
  149.1796  138.5849  154.6969 H   0  0  0  0  0  0  0  0  0  0  0  0
  148.9654  139.5493  153.2476 H   0  0  0  0  0  0  0  0  0  0  0  0
  1  2  1  0  0  0  0
  1 26  1  0  0  0  0
  1 27  1  0  0  0  0
  1 28  1  0  0  0  0
  2  3  1  0  0  0  0
  3  4  1  0  0  0  0
  3 29  1  0  0  0  0
  3 30  1  0  0  0  0
  4  5  1  0  0  0  0
  4 31  1  0  0  0  0
  4 32  1  0  0  0  0
  5  6  1  0  0  0  0
  5 12  1  0  0  0  0
  6  7  2  0  0  0  0
  6  8  1  0  0  0  0
  8 11  1  0  0  0  0
  8  9  1  0  0  0  0
  8 33  1  0  0  0  0
  9 10  1  0  0  0  0
  9 34  1  0  0  0  0
  9 35  1  0  0  0  0
 10 11  1  0  0  0  0
 10 36  1  0  0  0  0
 10 37  1  0  0  0  0
 11 38  1  0  0  0  0
 11 39  1  0  0  0  0
 12 23  1  0  0  0  0
 12 13  2  0  0  0  0
 13 14  1  0  0  0  0
 13 15  1  0  0  0  0
 14 40  1  0  0  0  0
 14 41  1  0  0  0  0
 15 16  1  0  0  0  0
 15 20  1  0  0  0  0
 16 17  1  0  0  0  0
 16 42  1  0  0  0  0
 16 43  1  0  0  0  0
 17 18  1  0  0  0  0
 17 19  1  0  0  0  0
 17 44  1  0  0  0  0
 18 45  1  0  0  0  0
 18 46  1  0  0  0  0
 18 47  1  0  0  0  0
 19 48  1  0  0  0  0
 19 49  1  0  0  0  0
 19 50  1  0  0  0  0
 20 21  2  0  0  0  0
 20 22  1  0  0  0  0
 22 25  1  0  0  0  0
 22 23  1  0  0  0  0
 23 24  2  0  0  0  0
M  END
> <s_m_source_file>
AV-unprocessed.smi

> <i_m_source_file_index>
468

> <i_lp_mmshare_version>
43012

> <i_f3d_flags>
0

> <s_epik_input>
W0NIMl0xW0NIMl1bQ0gyXVtDSF0xQyg9TylOKFtDSDJdW0NIMl1PW0NIM10pYzJjKFtOSDJdKW4oW0NIMl1bQ0hdKFtDSDNdKVtDSDNdKWMoPU8pW25IXWMyPU8=

> <s_epik_cmdline>
J2VwaWtfcHl0aG9uJywgJy1waCcsICc3LjAnLCAnLXRuJywgJzgnLCAnLW1hJywgJzIwMCcsICctbWV0YWxfYmluZGluZycsICctaW1hZScsICc8aW5maWxlLm1hZT4nLCAnLW9tYWUnLCAnPG91dGZpbGUubWFlPic=

> <r_lp_tautomer_probability>
1

> <r_epik_Ionization_Penalty>
5.59455e-05

> <r_epik_Ionization_Penalty_Charging>
2.72738e-05

> <r_epik_Ionization_Penalty_Neutral>
2.86717e-05

> <r_epik_State_Penalty>
-0

> <r_epik_Charging_Adjusted_Penalty>
2.72738e-05

> <i_epik_Tot_Q>
0

> <i_epik_Tot_abs_Q>
0

> <r_epik_Metal_State_Penalty>
0.0266192

> <b_epik_Metal_Only>
0

> <s_lp_Force_Field>
OPLS_2005

> <r_lp_Energy>
37.1478

> <b_lp_Chiralities_Consistent>
1

> <s_lp_Variant>
AV-unprocessed.smi:468-1

> <Gold.Version>
5.8.1

> <Gold.Id.Protein>
6NUR|6NUR_protein|mol2

> <Gold.PLP.Fitness>
38.4606

> <Gold.PLP.PLP>
-31.3677

> <Gold.PLP.part.hbond>
-2.9980

> <Gold.PLP.part.metal>
0.0000

> <Gold.PLP.part.buried>
-3.8122

> <Gold.PLP.part.nonpolar>
-25.1930

> <Gold.PLP.part.repulsive>
0.1836

> <Gold.PLP.ligand.clash>
0.0000

> <Gold.PLP.ligand.torsion>
1.8521

> <Gold.PLP.Chemscore.Hbond>
2.6800

> <Gold.PLP.Chemscore.CHOScore>
0.0000

> <Gold.PLP.Chemscore.Metal>
0.0000

> <Gold.Chemscore.Hbonds>
donor molecule, donor type, donor heavy atom, donor atom, acceptor molecule, acceptor atom, score
      P1  H  6896  6909       L1    24  1.00
      P1  H  6931  6943       L1     7  0.77
      P1  H  6934  6947       L1     7  0.96

> <Gold.PLP.Chemscore.Internal.Correction>
2.7570

> <Gold.Rescore>
     Score         DG    S(hbond)    S(metal)    S(lipo)     H(rot)  DE(clash)    DE(int)     intcor
     13.29     -16.56       2.79        0.00      60.58       2.08       0.08       3.19       ----

> <Gold.Chemscore.Fitness>
13.2903

> <Gold.Chemscore.DG>
-16.5597

> <Gold.Chemscore.ZeroCoef>
-5.4800

> <Gold.Chemscore.Hbond>
2.7871

> <Gold.Chemscore.Metal>
0.0000

> <Gold.Chemscore.Lipo>
60.5770

> <Gold.Chemscore.Internal_Hbond>
0.0000

> <Gold.Chemscore.DEClash>
0.0827

> <Gold.Chemscore.DEInternal>
3.1866

> <Gold.Chemscore.Rot>
2.0768

> <Gold.Chemscore.Internal.Correction>
   9.000000E+99

> <Gold.Chemscore.Hbonds>
donor molecule, donor type, donor heavy atom, donor atom, acceptor molecule, acceptor atom, score
      P1  H  6896  6909       L1    24  1.00
      P1  H  6931  6943       L1     7  0.75
      P1  H  6934  6947       L1     7  0.92

> <Gold.Chemscore.Hbond.Weighted>
-9.3088

> <Gold.Chemscore.Metal.Weighted>
-0.0000

> <Gold.Chemscore.Lipo.Weighted>
-7.0875

> <Gold.Chemscore.Internal_Hbond.Weighted>
0.0000

> <Gold.Chemscore.DEClash.Weighted>
0.0827

> <Gold.Chemscore.DEInternal.Weighted>
3.1866

> <Gold.Chemscore.Rot.Weighted>
5.3166

> <Gold.Chemscore.Internal.Correction.Weighted>
   9.000000E+99

> <Gold.Protein.RotatedTorsions>
[ 6907 6896 6895 6894 ] final   96.78 input  -60.11 | X-H torsion
[ 7974 7965 7964 7962 ] final  165.59 input  175.53 | X-H torsion
[ 8008 7997 7996 7995 ] final  -85.04 input   59.86 | X-H torsion
[ 10167 10162 10161 10158 ] final  -80.94 input  -65.29 | X-H torsion
[ 10718 10713 10712 10709 ] final  113.79 input   66.30 | X-H torsion
[ 10763 10752 10751 10750 ] final  -55.65 input  -60.55 | X-H torsion
[ 11005 11000 10999 10996 ] final  -94.59 input  -57.11 | X-H torsion

> <Gold.Protein.ActiveResidues>
 VAL166  LYS551  ARG553  GLY616  TRP617  ASP618  TYR619  PRO620  LYS621  CYS622 
 ASP623  PHE694  ASN695  SER759  ASP760  ASP761  ALA762  ILE779  LEU786  VAL792 
 PHE793  MET794  SER795  GLU796  ALA797  LYS798  CYS799  TRP800  GLU811  SER814 

> <Gold.Protein.RotatedAtoms>
  152.5431  134.0833  159.8244 H   0  0  0  0  0  0  0  0  0  0  0  0  # atno 6907 bound_to 6896
  151.0932  133.5292  159.2621 H   0  0  0  0  0  0  0  0  0  0  0  0  # atno 6908 bound_to 6896
  151.2075  135.0477  159.8952 H   0  0  0  0  0  0  0  0  0  0  0  0  # atno 6909 bound_to 6896
  144.7496  139.8492  143.6370 H   0  0  0  0  0  0  0  0  0  0  0  0  # atno 7974 bound_to 7965
  154.6364  140.0597  156.9794 H   0  0  0  0  0  0  0  0  0  0  0  0  # atno 8008 bound_to 7997
  155.1585  140.3280  155.4398 H   0  0  0  0  0  0  0  0  0  0  0  0  # atno 8009 bound_to 7997
  156.2509  140.1935  156.6693 H   0  0  0  0  0  0  0  0  0  0  0  0  # atno 8010 bound_to 7997
  140.4457  143.2499  151.8561 H   0  0  0  0  0  0  0  0  0  0  0  0  # atno 10167 bound_to 10162
  157.6318  131.0989  150.7092 H   0  0  0  0  0  0  0  0  0  0  0  0  # atno 10718 bound_to 10713
  154.1942  135.6422  153.5068 H   0  0  0  0  0  0  0  0  0  0  0  0  # atno 10763 bound_to 10752
  153.0027  135.5436  154.6384 H   0  0  0  0  0  0  0  0  0  0  0  0  # atno 10764 bound_to 10752
  154.5780  135.2922  155.0734 H   0  0  0  0  0  0  0  0  0  0  0  0  # atno 10765 bound_to 10752
  141.1466  133.7967  157.0319 H   0  0  0  0  0  0  0  0  0  0  0  0  # atno 11005 bound_to 11000
  146.1428  139.4489  143.0098 LP  0  0  0  0  0  0  0  0  0  0  0  0  # atno 17320 bound_to 7965
  145.6991  141.0141  143.1514 LP  0  0  0  0  0  0  0  0  0  0  0  0  # atno 17321 bound_to 7965
  139.4792  144.5178  151.8844 LP  0  0  0  0  0  0  0  0  0  0  0  0  # atno 17342 bound_to 10162
  140.4266  144.2172  150.5887 LP  0  0  0  0  0  0  0  0  0  0  0  0  # atno 17343 bound_to 10162
  156.7430  130.4745  149.5473 LP  0  0  0  0  0  0  0  0  0  0  0  0  # atno 17370 bound_to 10713
  156.1527  130.6321  151.0617 LP  0  0  0  0  0  0  0  0  0  0  0  0  # atno 17371 bound_to 10713
  140.0748  134.9682  157.1528 LP  0  0  0  0  0  0  0  0  0  0  0  0  # atno 17394 bound_to 11000
  140.3659  134.2443  155.7182 LP  0  0  0  0  0  0  0  0  0  0  0  0  # atno 17395 bound_to 11000

$$$$
