AV-unprocessed.smi:2742|AV-procd|sdf|10563|dock2
  -GOLD-   2272015 13D 1   1.00000     0.00000
 Structure written by MMmdl.
 37 38  0  0  0  0  0  0  0  0  1 V2000
  146.3939  137.6677  155.9904 C   0  0  0  0  0  0  0  0  0  0  0  0
  147.6383  137.1680  154.7701 S   0  0  0  0  0  0  0  0  0  0  0  0
  148.0348  138.7720  154.0141 C   0  0  1  0  0  0  0  0  0  0  0  0
  146.8009  139.3910  153.3298 C   0  0  0  0  0  0  0  0  0  0  0  0
  147.1263  140.7650  152.7231 C   0  0  0  0  0  0  0  0  0  0  0  0
  147.7029  141.7199  153.7796 C   0  0  0  0  0  0  0  0  0  0  0  0
  148.9413  141.1129  154.4633 C   0  0  1  0  0  0  0  0  0  0  0  0
  149.4307  142.0245  155.4933 N   0  0  0  0  0  0  0  0  0  0  0  0
  150.2723  141.6943  156.4838 C   0  0  0  0  0  0  0  0  0  0  0  0
  150.7310  140.5621  156.6324 O   0  0  0  0  0  0  0  0  0  0  0  0
  150.5436  142.7567  157.2617 N   0  0  0  0  0  0  0  0  0  0  0  0
  151.3926  142.8458  158.3998 C   0  0  0  0  0  0  0  0  0  0  0  0
  152.0237  141.7389  159.0189 C   0  0  0  0  0  0  0  0  0  0  0  0
  152.8315  141.9682  160.1509 C   0  0  0  0  0  0  0  0  0  0  0  0
  153.0342  143.1905  160.6861 N   0  0  0  0  0  0  0  0  0  0  0  0
  152.4224  144.2416  160.1010 C   0  0  0  0  0  0  0  0  0  0  0  0
  151.5945  144.1222  158.9667 C   0  0  0  0  0  0  0  0  0  0  0  0
  151.0070  145.2200  158.4318 F   0  0  0  0  0  0  0  0  0  0  0  0
  148.6086  139.7342  155.0701 C   0  0  0  0  0  0  0  0  0  0  0  0
  146.0190  136.7921  156.5206 H   0  0  0  0  0  0  0  0  0  0  0  0
  145.5536  138.1590  155.4996 H   0  0  0  0  0  0  0  0  0  0  0  0
  146.8205  138.3528  156.7224 H   0  0  0  0  0  0  0  0  0  0  0  0
  148.8062  138.5958  153.2631 H   0  0  0  0  0  0  0  0  0  0  0  0
  146.4288  138.7313  152.5464 H   0  0  0  0  0  0  0  0  0  0  0  0
  145.9923  139.4958  154.0543 H   0  0  0  0  0  0  0  0  0  0  0  0
  147.8429  140.6446  151.9096 H   0  0  0  0  0  0  0  0  0  0  0  0
  146.2283  141.1982  152.2819 H   0  0  0  0  0  0  0  0  0  0  0  0
  147.9613  142.6710  153.3124 H   0  0  0  0  0  0  0  0  0  0  0  0
  146.9368  141.9392  154.5250 H   0  0  0  0  0  0  0  0  0  0  0  0
  149.7157  140.9853  153.7042 H   0  0  0  0  0  0  0  0  0  0  0  0
  149.1058  142.9792  155.4445 H   0  0  0  0  0  0  0  0  0  0  0  0
  150.1294  143.6304  156.9717 H   0  0  0  0  0  0  0  0  0  0  0  0
  151.9016  140.7279  158.6638 H   0  0  0  0  0  0  0  0  0  0  0  0
  153.3251  141.1435  160.6436 H   0  0  0  0  0  0  0  0  0  0  0  0
  152.5961  145.2074  160.5518 H   0  0  0  0  0  0  0  0  0  0  0  0
  147.8905  139.8540  155.8829 H   0  0  0  0  0  0  0  0  0  0  0  0
  149.5047  139.2972  155.5128 H   0  0  0  0  0  0  0  0  0  0  0  0
  1  2  1  0  0  0  0
  1 20  1  0  0  0  0
  1 21  1  0  0  0  0
  1 22  1  0  0  0  0
  2  3  1  0  0  0  0
  3 19  1  0  0  0  0
  3  4  1  0  0  0  0
  3 23  1  0  0  0  0
  4  5  1  0  0  0  0
  4 24  1  0  0  0  0
  4 25  1  0  0  0  0
  5  6  1  0  0  0  0
  5 26  1  0  0  0  0
  5 27  1  0  0  0  0
  6  7  1  0  0  0  0
  6 28  1  0  0  0  0
  6 29  1  0  0  0  0
  7  8  1  0  0  0  0
  7 19  1  0  0  0  0
  7 30  1  0  0  0  0
  8  9  1  0  0  0  0
  8 31  1  0  0  0  0
  9 10  2  0  0  0  0
  9 11  1  0  0  0  0
 11 12  1  0  0  0  0
 11 32  1  0  0  0  0
 12 17  1  0  0  0  0
 12 13  2  0  0  0  0
 13 14  1  0  0  0  0
 13 33  1  0  0  0  0
 14 15  2  0  0  0  0
 14 34  1  0  0  0  0
 15 16  1  0  0  0  0
 16 17  2  0  0  0  0
 16 35  1  0  0  0  0
 17 18  1  0  0  0  0
 19 36  1  0  0  0  0
 19 37  1  0  0  0  0
M  END
> <s_m_source_file>
AV-unprocessed.smi

> <i_m_source_file_index>
2742

> <i_lp_mmshare_version>
43012

> <i_f3d_flags>
0

> <s_epik_input>
W0NIM11TW0NAQEhdMVtDSDJdW0NIMl1bQ0gyXVtDQEhdKFtDSDJdMSlbTkhdQyg9TylbTkhdYzJbY0hdW2NIXW5bY0hdYzJG

> <s_epik_cmdline>
J2VwaWtfcHl0aG9uJywgJy1waCcsICc3LjAnLCAnLXRuJywgJzgnLCAnLW1hJywgJzIwMCcsICctbWV0YWxfYmluZGluZycsICctaW1hZScsICc8aW5maWxlLm1hZT4nLCAnLW9tYWUnLCAnPG91dGZpbGUubWFlPic=

> <r_epik_Ionization_Penalty>
0.00344009

> <r_epik_Ionization_Penalty_Charging>
0

> <r_epik_Ionization_Penalty_Neutral>
0.00344009

> <r_epik_State_Penalty>
0.0024078

> <r_epik_Charging_Adjusted_Penalty>
0.0024078

> <i_epik_Tot_Q>
0

> <i_epik_Tot_abs_Q>
0

> <r_epik_Metal_State_Penalty>
-0

> <b_epik_Metal_Only>
0

> <s_lp_Force_Field>
OPLS_2005

> <r_lp_Energy>
14.4942

> <b_lp_Chiralities_Consistent>
1

> <s_lp_Variant>
AV-unprocessed.smi:2742-2

> <Gold.Version>
5.8.1

> <Gold.Id.Protein>
6NUR|6NUR_protein|mol2

> <Gold.PLP.Fitness>
40.5343

> <Gold.PLP.PLP>
-35.5075

> <Gold.PLP.part.hbond>
-2.0000

> <Gold.PLP.part.metal>
0.0000

> <Gold.PLP.part.buried>
-4.5603

> <Gold.PLP.part.nonpolar>
-28.0877

> <Gold.PLP.part.repulsive>
0.2018

> <Gold.PLP.ligand.clash>
0.0000

> <Gold.PLP.ligand.torsion>
0.2577

> <Gold.PLP.Chemscore.Hbond>
1.8450

> <Gold.PLP.Chemscore.CHOScore>
0.0000

> <Gold.PLP.Chemscore.Metal>
0.0000

> <Gold.Chemscore.Hbonds>
donor molecule, donor type, donor heavy atom, donor atom, acceptor molecule, acceptor atom, score
      L1  H     8    31       P1  8028  1.00
      L1  H    11    32       P1  8028  0.83

> <Gold.PLP.Chemscore.Internal.Correction>
0.0072

> <Gold.Rescore>
     Score         DG    S(hbond)    S(metal)    S(lipo)     H(rot)  DE(clash)    DE(int)     intcor
     16.90     -19.87       1.96        0.00      93.03       1.19       0.15       2.82       ----

> <Gold.Chemscore.Fitness>
16.9049

> <Gold.Chemscore.DG>
-19.8667

> <Gold.Chemscore.ZeroCoef>
-5.4800

> <Gold.Chemscore.Hbond>
1.9587

> <Gold.Chemscore.Metal>
0.0000

> <Gold.Chemscore.Lipo>
93.0318

> <Gold.Chemscore.Internal_Hbond>
0.0000

> <Gold.Chemscore.DEClash>
0.1457

> <Gold.Chemscore.DEInternal>
2.8161

> <Gold.Chemscore.Rot>
1.1875

> <Gold.Chemscore.Internal.Correction>
   9.000000E+99

> <Gold.Chemscore.Hbonds>
donor molecule, donor type, donor heavy atom, donor atom, acceptor molecule, acceptor atom, score
      L1  H     8    31       P1  8028  1.00
      L1  H    11    32       P1  8028  0.78

> <Gold.Chemscore.Hbond.Weighted>
-6.5420

> <Gold.Chemscore.Metal.Weighted>
-0.0000

> <Gold.Chemscore.Lipo.Weighted>
-10.8847

> <Gold.Chemscore.Internal_Hbond.Weighted>
0.0000

> <Gold.Chemscore.DEClash.Weighted>
0.1457

> <Gold.Chemscore.DEInternal.Weighted>
2.8161

> <Gold.Chemscore.Rot.Weighted>
3.0400

> <Gold.Chemscore.Internal.Correction.Weighted>
   9.000000E+99

> <Gold.Protein.RotatedTorsions>
[ 6907 6896 6895 6894 ] final  174.56 input  -60.11 | X-H torsion
[ 7974 7965 7964 7962 ] final  109.85 input  175.53 | X-H torsion
[ 8008 7997 7996 7995 ] final  -73.17 input   59.86 | X-H torsion
[ 10167 10162 10161 10158 ] final  -49.42 input  -65.29 | X-H torsion
[ 10718 10713 10712 10709 ] final   43.02 input   66.30 | X-H torsion
[ 10763 10752 10751 10750 ] final  -54.11 input  -60.55 | X-H torsion
[ 11005 11000 10999 10996 ] final  -82.89 input  -57.11 | X-H torsion

> <Gold.Protein.ActiveResidues>
 VAL166  LYS551  ARG553  GLY616  TRP617  ASP618  TYR619  PRO620  LYS621  CYS622 
 ASP623  PHE694  ASN695  SER759  ASP760  ASP761  ALA762  ILE779  LEU786  VAL792 
 PHE793  MET794  SER795  GLU796  ALA797  LYS798  CYS799  TRP800  GLU811  SER814 

> <Gold.Protein.RotatedAtoms>
  151.7504  133.3327  159.3389 H   0  0  0  0  0  0  0  0  0  0  0  0  # atno 6907 bound_to 6896
  150.7537  134.6198  159.6139 H   0  0  0  0  0  0  0  0  0  0  0  0  # atno 6908 bound_to 6896
  152.3472  134.7057  160.0298 H   0  0  0  0  0  0  0  0  0  0  0  0  # atno 6909 bound_to 6896
  145.2625  139.2697  143.4009 H   0  0  0  0  0  0  0  0  0  0  0  0  # atno 7974 bound_to 7965
  154.5226  140.0784  156.8199 H   0  0  0  0  0  0  0  0  0  0  0  0  # atno 8008 bound_to 7997
  155.3544  140.3414  155.4221 H   0  0  0  0  0  0  0  0  0  0  0  0  # atno 8009 bound_to 7997
  156.1697  140.1615  156.8456 H   0  0  0  0  0  0  0  0  0  0  0  0  # atno 8010 bound_to 7997
  140.6686  143.2699  151.4212 H   0  0  0  0  0  0  0  0  0  0  0  0  # atno 10167 bound_to 10162
  157.4113  130.7916  149.7433 H   0  0  0  0  0  0  0  0  0  0  0  0  # atno 10718 bound_to 10713
  154.1696  135.6461  153.5006 H   0  0  0  0  0  0  0  0  0  0  0  0  # atno 10763 bound_to 10752
  153.0088  135.5380  154.6626 H   0  0  0  0  0  0  0  0  0  0  0  0  # atno 10764 bound_to 10752
  154.5962  135.2939  155.0556 H   0  0  0  0  0  0  0  0  0  0  0  0  # atno 10765 bound_to 10752
  141.1661  133.7267  156.8638 H   0  0  0  0  0  0  0  0  0  0  0  0  # atno 11005 bound_to 11000
  146.3271  140.3046  142.8623 LP  0  0  0  0  0  0  0  0  0  0  0  0  # atno 17320 bound_to 7965
  144.9405  140.8073  143.5633 LP  0  0  0  0  0  0  0  0  0  0  0  0  # atno 17321 bound_to 7965
  139.5945  144.1428  152.2127 LP  0  0  0  0  0  0  0  0  0  0  0  0  # atno 17342 bound_to 10162
  140.0793  144.5714  150.7134 LP  0  0  0  0  0  0  0  0  0  0  0  0  # atno 17343 bound_to 10162
  155.9851  130.3985  150.3276 LP  0  0  0  0  0  0  0  0  0  0  0  0  # atno 17370 bound_to 10713
  157.1415  131.0297  151.2926 LP  0  0  0  0  0  0  0  0  0  0  0  0  # atno 17371 bound_to 10713
  140.1830  134.9020  157.2970 LP  0  0  0  0  0  0  0  0  0  0  0  0  # atno 17394 bound_to 11000
  140.2374  134.3836  155.7495 LP  0  0  0  0  0  0  0  0  0  0  0  0  # atno 17395 bound_to 11000

$$$$
