AV-unprocessed.smi:1610|AV-procd|sdf|6471|dock8
  -GOLD-   22720 7133D 1   1.00000     0.00000
 Structure written by MMmdl.
 45 46  0  0  0  0  0  0  0  0  2 V2000
  154.9407  129.7594  154.7626 C   0  0  0  0  0  0  0  0  0  0  0  0
  153.9480  128.4414  155.5750 S   0  0  0  0  0  0  0  0  0  0  0  0
  154.5422  127.1350  155.2528 O   0  0  0  0  0  0  0  0  0  0  0  0
  153.7226  128.8303  156.9751 O   0  0  0  0  0  0  0  0  0  0  0  0
  152.4277  128.5457  154.7651 N   0  0  0  0  0  0  0  0  0  0  0  0
  151.2771  129.2043  155.3870 C   0  0  0  0  0  0  0  0  0  0  0  0
  150.0535  129.1357  154.4490 C   0  0  0  0  0  0  0  0  0  0  0  0
  148.8930  129.9829  154.9998 C   0  0  0  0  0  0  0  0  0  0  0  0
  149.3652  131.3654  155.1881 N   0  0  0  0  0  0  0  0  0  0  0  0
  149.0447  132.4378  154.4198 C   0  0  0  0  0  0  0  0  0  0  0  0
  149.5744  133.5427  154.5455 O   0  0  0  0  0  0  0  0  0  0  0  0
  148.0962  132.2065  153.4975 N   0  0  0  0  0  0  0  0  0  0  0  0
  147.5909  133.2003  152.5611 C   0  0  0  0  0  0  0  0  0  0  0  0
  146.0766  133.3800  152.7305 C   0  0  0  0  0  0  0  0  0  0  0  0
  145.3167  133.0324  151.4653 C   0  0  0  0  0  0  0  0  0  0  0  0
  145.9228  132.2562  150.4527 C   0  0  0  0  0  0  0  0  0  0  0  0
  145.1933  131.9533  149.2841 C   0  0  0  0  0  0  0  0  0  0  0  0
  143.8742  132.4339  149.1541 C   0  0  0  0  0  0  0  0  0  0  0  0
  143.3279  133.1743  150.1436 N   0  3  0  0  0  0  0  0  0  0  0  0
  143.9932  133.4863  151.2775 C   0  0  0  0  0  0  0  0  0  0  0  0
  150.3978  131.4348  156.2301 C   0  0  0  0  0  0  0  0  0  0  0  0
  151.6389  130.6592  155.7507 C   0  0  0  0  0  0  0  0  0  0  0  0
  155.9178  129.8205  155.2410 H   0  0  0  0  0  0  0  0  0  0  0  0
  154.4295  130.7166  154.8614 H   0  0  0  0  0  0  0  0  0  0  0  0
  155.0732  129.5221  153.7075 H   0  0  0  0  0  0  0  0  0  0  0  0
  152.2103  127.7510  154.1642 H   0  0  0  0  0  0  0  0  0  0  0  0
  151.0303  128.6812  156.3120 H   0  0  0  0  0  0  0  0  0  0  0  0
  150.3238  129.4997  153.4565 H   0  0  0  0  0  0  0  0  0  0  0  0
  149.7301  128.1026  154.3220 H   0  0  0  0  0  0  0  0  0  0  0  0
  148.0251  129.8949  154.3461 H   0  0  0  0  0  0  0  0  0  0  0  0
  148.5671  129.5827  155.9612 H   0  0  0  0  0  0  0  0  0  0  0  0
  147.7019  131.2785  153.4440 H   0  0  0  0  0  0  0  0  0  0  0  0
  148.1062  134.1461  152.7348 H   0  0  0  0  0  0  0  0  0  0  0  0
  147.8172  132.8913  151.5390 H   0  0  0  0  0  0  0  0  0  0  0  0
  145.7139  132.7522  153.5458 H   0  0  0  0  0  0  0  0  0  0  0  0
  145.8501  134.4097  153.0109 H   0  0  0  0  0  0  0  0  0  0  0  0
  146.9358  131.8982  150.5678 H   0  0  0  0  0  0  0  0  0  0  0  0
  145.6400  131.3615  148.4985 H   0  0  0  0  0  0  0  0  0  0  0  0
  143.2446  132.2509  148.2953 H   0  0  0  0  0  0  0  0  0  0  0  0
  143.4502  134.0864  151.9934 H   0  0  0  0  0  0  0  0  0  0  0  0
  150.6756  132.4587  156.4840 H   0  0  0  0  0  0  0  0  0  0  0  0
  150.0141  130.9965  157.1526 H   0  0  0  0  0  0  0  0  0  0  0  0
  152.4087  130.6715  156.5234 H   0  0  0  0  0  0  0  0  0  0  0  0
  152.0637  131.1657  154.8825 H   0  0  0  0  0  0  0  0  0  0  0  0
  142.3721  133.5130  150.0293 H   0  0  0  0  0  0  0  0  0  0  0  0
  1  2  1  0  0  0  0
  1 23  1  0  0  0  0
  1 24  1  0  0  0  0
  1 25  1  0  0  0  0
  2  3  2  0  0  0  0
  2  4  2  0  0  0  0
  2  5  1  0  0  0  0
  5  6  1  0  0  0  0
  5 26  1  0  0  0  0
  6 22  1  0  0  0  0
  6  7  1  0  0  0  0
  6 27  1  0  0  0  0
  7  8  1  0  0  0  0
  7 28  1  0  0  0  0
  7 29  1  0  0  0  0
  8  9  1  0  0  0  0
  8 30  1  0  0  0  0
  8 31  1  0  0  0  0
  9 10  1  0  0  0  0
  9 21  1  0  0  0  0
 10 11  2  0  0  0  0
 10 12  1  0  0  0  0
 12 13  1  0  0  0  0
 12 32  1  0  0  0  0
 13 14  1  0  0  0  0
 13 33  1  0  0  0  0
 13 34  1  0  0  0  0
 14 15  1  0  0  0  0
 14 35  1  0  0  0  0
 14 36  1  0  0  0  0
 15 20  1  0  0  0  0
 15 16  2  0  0  0  0
 16 17  1  0  0  0  0
 16 37  1  0  0  0  0
 17 18  2  0  0  0  0
 17 38  1  0  0  0  0
 18 19  1  0  0  0  0
 18 39  1  0  0  0  0
 19 20  2  0  0  0  0
 19 45  1  0  0  0  0
 20 40  1  0  0  0  0
 21 22  1  0  0  0  0
 21 41  1  0  0  0  0
 21 42  1  0  0  0  0
 22 43  1  0  0  0  0
 22 44  1  0  0  0  0
M  CHG  1  19   1
M  END
> <s_m_source_file>
AV-unprocessed.smi

> <i_m_source_file_index>
1610

> <i_lp_mmshare_version>
43012

> <i_f3d_flags>
0

> <s_epik_input>
W0NIM11TKD1PKSg9TylbTkhdW0NIXTFbQ0gyXVtDSDJdTihbQ0gyXVtDSDJdMSlDKD1PKVtOSF1bQ0gyXVtDSDJdYzJbY0hdW2NIXVtjSF1uW2NIXTI=

> <s_epik_cmdline>
J2VwaWtfcHl0aG9uJywgJy1waCcsICc3LjAnLCAnLXRuJywgJzgnLCAnLW1hJywgJzIwMCcsICctbWV0YWxfYmluZGluZycsICctaW1hZScsICc8aW5maWxlLm1hZT4nLCAnLW9tYWUnLCAnPG91dGZpbGUubWFlPic=

> <r_epik_Ionization_Penalty>
2.20747

> <r_epik_Ionization_Penalty_Charging>
2.20741

> <r_epik_Ionization_Penalty_Neutral>
6.06433e-05

> <r_epik_State_Penalty>
2.35137

> <r_epik_Charging_Adjusted_Penalty>
4.55877

> <i_epik_Tot_Q>
1

> <i_epik_Tot_abs_Q>
1

> <r_epik_Metal_State_Penalty>
2.37242

> <b_epik_Metal_Only>
0

> <s_lp_Force_Field>
OPLS_2005

> <r_lp_Energy>
29.2562

> <b_lp_Chiralities_Consistent>
1

> <s_lp_Variant>
AV-unprocessed.smi:1610-2

> <Gold.Version>
5.8.1

> <Gold.Id.Protein>
6NUR|6NUR_protein|mol2

> <Gold.PLP.Fitness>
47.7803

> <Gold.PLP.PLP>
-40.6807

> <Gold.PLP.part.hbond>
-2.0000

> <Gold.PLP.part.metal>
0.0000

> <Gold.PLP.part.buried>
-6.5394

> <Gold.PLP.part.nonpolar>
-33.6239

> <Gold.PLP.part.repulsive>
0.2729

> <Gold.PLP.ligand.clash>
0.0000

> <Gold.PLP.ligand.torsion>
1.1536

> <Gold.PLP.Chemscore.Hbond>
2.7840

> <Gold.PLP.Chemscore.CHOScore>
0.0000

> <Gold.PLP.Chemscore.Metal>
0.0000

> <Gold.Chemscore.Hbonds>
donor molecule, donor type, donor heavy atom, donor atom, acceptor molecule, acceptor atom, score
      L1  H     5    26       P1 10737  0.01
      L1  H    19    45       P1 10186  2.00

> <Gold.PLP.Chemscore.Internal.Correction>
1.0548

> <Gold.Rescore>
     Score         DG    S(hbond)    S(metal)    S(lipo)     H(rot)  DE(clash)    DE(int)     intcor
     16.19     -17.48       1.78        0.00      91.36       1.81       0.01       1.28       ----

> <Gold.Chemscore.Fitness>
16.1908

> <Gold.Chemscore.DG>
-17.4809

> <Gold.Chemscore.ZeroCoef>
-5.4800

> <Gold.Chemscore.Hbond>
1.7820

> <Gold.Chemscore.Metal>
0.0000

> <Gold.Chemscore.Lipo>
91.3556

> <Gold.Chemscore.Internal_Hbond>
0.0000

> <Gold.Chemscore.DEClash>
0.0086

> <Gold.Chemscore.DEInternal>
1.2816

> <Gold.Chemscore.Rot>
1.8123

> <Gold.Chemscore.Internal.Correction>
   9.000000E+99

> <Gold.Chemscore.Hbonds>
donor molecule, donor type, donor heavy atom, donor atom, acceptor molecule, acceptor atom, score
      L1  H     5    26       P1 10737  0.04
      L1  H    19    45       P1 10186  1.00

> <Gold.Chemscore.Hbond.Weighted>
-5.9518

> <Gold.Chemscore.Metal.Weighted>
-0.0000

> <Gold.Chemscore.Lipo.Weighted>
-10.6886

> <Gold.Chemscore.Internal_Hbond.Weighted>
0.0000

> <Gold.Chemscore.DEClash.Weighted>
0.0086

> <Gold.Chemscore.DEInternal.Weighted>
1.2816

> <Gold.Chemscore.Rot.Weighted>
4.6395

> <Gold.Chemscore.Internal.Correction.Weighted>
   9.000000E+99

> <Gold.Protein.RotatedTorsions>
[ 6907 6896 6895 6894 ] final   78.45 input  -60.11 | X-H torsion
[ 7974 7965 7964 7962 ] final   24.73 input  175.53 | X-H torsion
[ 8008 7997 7996 7995 ] final  163.80 input   59.86 | X-H torsion
[ 10167 10162 10161 10158 ] final   82.97 input  -65.29 | X-H torsion
[ 10718 10713 10712 10709 ] final  -21.82 input   66.30 | X-H torsion
[ 10763 10752 10751 10750 ] final -119.59 input  -60.55 | X-H torsion
[ 11005 11000 10999 10996 ] final -116.37 input  -57.11 | X-H torsion

> <Gold.Protein.ActiveResidues>
 VAL166  LYS551  ARG553  GLY616  TRP617  ASP618  TYR619  PRO620  LYS621  CYS622 
 ASP623  PHE694  ASN695  SER759  ASP760  ASP761  ALA762  ILE779  LEU786  VAL792 
 PHE793  MET794  SER795  GLU796  ALA797  LYS798  CYS799  TRP800  GLU811  SER814 

> <Gold.Protein.RotatedAtoms>
  152.5160  134.3661  159.9301 H   0  0  0  0  0  0  0  0  0  0  0  0  # atno 6907 bound_to 6896
  151.3615  133.3881  159.2698 H   0  0  0  0  0  0  0  0  0  0  0  0  # atno 6908 bound_to 6896
  150.9648  134.9050  159.7811 H   0  0  0  0  0  0  0  0  0  0  0  0  # atno 6909 bound_to 6896
  146.1923  139.7564  142.8822 H   0  0  0  0  0  0  0  0  0  0  0  0  # atno 7974 bound_to 7965
  156.1929  140.1714  156.8056 H   0  0  0  0  0  0  0  0  0  0  0  0  # atno 8008 bound_to 7997
  154.5494  140.0721  156.8674 H   0  0  0  0  0  0  0  0  0  0  0  0  # atno 8009 bound_to 7997
  155.3059  140.3364  155.4248 H   0  0  0  0  0  0  0  0  0  0  0  0  # atno 8010 bound_to 7997
  139.9232  144.6199  150.8419 H   0  0  0  0  0  0  0  0  0  0  0  0  # atno 10167 bound_to 10162
  156.5130  130.4614  149.6638 H   0  0  0  0  0  0  0  0  0  0  0  0  # atno 10718 bound_to 10713
  154.8621  135.4233  154.2323 H   0  0  0  0  0  0  0  0  0  0  0  0  # atno 10763 bound_to 10752
  153.3305  135.6988  153.6957 H   0  0  0  0  0  0  0  0  0  0  0  0  # atno 10764 bound_to 10752
  153.5976  135.3543  155.2907 H   0  0  0  0  0  0  0  0  0  0  0  0  # atno 10765 bound_to 10752
  141.0426  133.9811  157.2969 H   0  0  0  0  0  0  0  0  0  0  0  0  # atno 11005 bound_to 11000
  145.3753  141.0349  143.3208 LP  0  0  0  0  0  0  0  0  0  0  0  0  # atno 17320 bound_to 7965
  144.8511  139.5320  143.6856 LP  0  0  0  0  0  0  0  0  0  0  0  0  # atno 17321 bound_to 7965
  140.7657  143.3282  151.2469 LP  0  0  0  0  0  0  0  0  0  0  0  0  # atno 17342 bound_to 10162
  139.6844  143.9799  152.2826 LP  0  0  0  0  0  0  0  0  0  0  0  0  # atno 17343 bound_to 10162
  156.3222  130.7287  151.2201 LP  0  0  0  0  0  0  0  0  0  0  0  0  # atno 17370 bound_to 10713
  157.7448  131.0452  150.4833 LP  0  0  0  0  0  0  0  0  0  0  0  0  # atno 17371 bound_to 10713
  139.9287  135.0201  156.8327 LP  0  0  0  0  0  0  0  0  0  0  0  0  # atno 17394 bound_to 11000
  140.6205  133.9998  155.7616 LP  0  0  0  0  0  0  0  0  0  0  0  0  # atno 17395 bound_to 11000

$$$$
