AV-unprocessed.smi:1819|AV-procd|sdf|7383|dock6
  -GOLD-   22720 9 53D 1   1.00000     0.00000
 Structure written by MMmdl.
 28 28  0  0  0  0  0  0  0  0  2 V2000
  150.6256  140.0004  154.6990 O   0  0  0  0  0  0  0  0  0  0  0  0
  151.3001  139.8945  155.7240 C   0  0  0  0  0  0  0  0  0  0  0  0
  151.8290  138.5244  156.1642 C   0  0  0  0  0  0  0  0  0  0  0  0
  150.8849  137.8253  157.0502 N   0  0  0  0  0  0  0  0  0  0  0  0
  149.9827  138.6050  157.7952 C   0  0  0  0  0  0  0  0  0  0  0  0
  149.0895  138.0490  158.6357 C   0  0  0  0  0  0  0  0  0  0  0  0
  149.0725  136.5969  158.7634 C   0  0  0  0  0  0  0  0  0  0  0  0
  148.2605  136.0717  159.5226 O   0  0  0  0  0  0  0  0  0  0  0  0
  149.9711  135.8841  158.0229 N   0  5  0  0  0  0  0  0  0  0  0  0
  150.8755  136.4632  157.1736 C   0  0  0  0  0  0  0  0  0  0  0  0
  151.6799  135.8010  156.5163 O   0  0  0  0  0  0  0  0  0  0  0  0
  151.6257  140.9346  156.5065 N   0  0  0  0  0  0  0  0  0  0  0  0
  151.1746  142.3099  156.3212 C   0  0  0  0  0  0  0  0  0  0  0  0
  150.9272  143.0074  157.6688 C   0  0  0  0  0  0  0  0  0  0  0  0
  152.2984  144.0959  158.1571 S   0  0  0  0  0  0  0  0  0  0  0  0
  151.7014  144.6675  159.7705 C   0  0  0  0  0  0  0  0  0  0  0  0
  152.2513  145.8444  160.0638 F   0  0  0  0  0  0  0  0  0  0  0  0
  150.3766  144.8079  159.7497 F   0  0  0  0  0  0  0  0  0  0  0  0
  152.0325  143.7937  160.7206 F   0  0  0  0  0  0  0  0  0  0  0  0
  152.0287  137.9336  155.2694 H   0  0  0  0  0  0  0  0  0  0  0  0
  152.7958  138.6321  156.6602 H   0  0  0  0  0  0  0  0  0  0  0  0
  150.0653  139.6718  157.6482 H   0  0  0  0  0  0  0  0  0  0  0  0
  148.4052  138.6620  159.2035 H   0  0  0  0  0  0  0  0  0  0  0  0
  152.1873  140.7470  157.3243 H   0  0  0  0  0  0  0  0  0  0  0  0
  151.9597  142.8399  155.7818 H   0  0  0  0  0  0  0  0  0  0  0  0
  150.2845  142.3631  155.6921 H   0  0  0  0  0  0  0  0  0  0  0  0
  150.0042  143.5868  157.6298 H   0  0  0  0  0  0  0  0  0  0  0  0
  150.7962  142.2573  158.4487 H   0  0  0  0  0  0  0  0  0  0  0  0
  1  2  2  0  0  0  0
  2  3  1  0  0  0  0
  2 12  1  0  0  0  0
  3  4  1  0  0  0  0
  3 20  1  0  0  0  0
  3 21  1  0  0  0  0
  4 10  1  0  0  0  0
  4  5  1  0  0  0  0
  5  6  2  0  0  0  0
  5 22  1  0  0  0  0
  6  7  1  0  0  0  0
  6 23  1  0  0  0  0
  7  8  2  0  0  0  0
  7  9  1  0  0  0  0
  9 10  1  0  0  0  0
 10 11  2  0  0  0  0
 12 13  1  0  0  0  0
 12 24  1  0  0  0  0
 13 14  1  0  0  0  0
 13 25  1  0  0  0  0
 13 26  1  0  0  0  0
 14 15  1  0  0  0  0
 14 27  1  0  0  0  0
 14 28  1  0  0  0  0
 15 16  1  0  0  0  0
 16 17  1  0  0  0  0
 16 18  1  0  0  0  0
 16 19  1  0  0  0  0
M  CHG  1   9  -1
M  END
> <s_m_source_file>
AV-unprocessed.smi

> <i_m_source_file_index>
1819

> <i_lp_mmshare_version>
43012

> <i_f3d_flags>
0

> <s_epik_input>
RkMoRikoRilTW0NIMl1bQ0gyXVtOSF1DKD1PKVtDSDJdbjFbY0hdW2NIXWMoPU8pW25IXWMxPU8=

> <s_epik_cmdline>
J2VwaWtfcHl0aG9uJywgJy1waCcsICc3LjAnLCAnLXRuJywgJzgnLCAnLW1hJywgJzIwMCcsICctbWV0YWxfYmluZGluZycsICctaW1hZScsICc8aW5maWxlLm1hZT4nLCAnLW9tYWUnLCAnPG91dGZpbGUubWFlPic=

> <r_lp_tautomer_probability>
0.999537

> <r_epik_Ionization_Penalty>
3.04617

> <r_epik_Ionization_Penalty_Charging>
2.49125e-08

> <r_epik_Ionization_Penalty_Neutral>
3.04617

> <r_epik_State_Penalty>
3.04516

> <r_epik_Charging_Adjusted_Penalty>
3.04516

> <i_epik_Tot_Q>
-1

> <i_epik_Tot_abs_Q>
1

> <r_epik_Metal_State_Penalty>
0.457105

> <b_epik_Metal_Only>
1

> <s_lp_Force_Field>
OPLS_2005

> <r_lp_Energy>
9.91428

> <b_lp_Chiralities_Consistent>
1

> <s_lp_Variant>
AV-unprocessed.smi:1819-2

> <Gold.Version>
5.8.1

> <Gold.Id.Protein>
6NUR|6NUR_protein|mol2

> <Gold.PLP.Fitness>
42.0655

> <Gold.PLP.PLP>
-34.3058

> <Gold.PLP.part.hbond>
-2.8787

> <Gold.PLP.part.metal>
0.0000

> <Gold.PLP.part.buried>
-5.0758

> <Gold.PLP.part.nonpolar>
-26.5276

> <Gold.PLP.part.repulsive>
0.2004

> <Gold.PLP.ligand.clash>
0.0000

> <Gold.PLP.ligand.torsion>
1.5934

> <Gold.PLP.Chemscore.Hbond>
3.6223

> <Gold.PLP.Chemscore.CHOScore>
0.0000

> <Gold.PLP.Chemscore.Metal>
0.0000

> <Gold.Chemscore.Hbonds>
donor molecule, donor type, donor heavy atom, donor atom, acceptor molecule, acceptor atom, score
      P1  H  6896  6907       L1     9  1.37
      P1  H  7989  7998       L1     1  1.00
      P1  H 10752 10763       L1    11  0.84

> <Gold.PLP.Chemscore.Internal.Correction>
0.0798

> <Gold.Rescore>
     Score         DG    S(hbond)    S(metal)    S(lipo)     H(rot)  DE(clash)    DE(int)     intcor
      9.25     -11.05       1.98        0.00      53.97       2.88       0.25       1.55       ----

> <Gold.Chemscore.Fitness>
9.2513

> <Gold.Chemscore.DG>
-11.0477

> <Gold.Chemscore.ZeroCoef>
-5.4800

> <Gold.Chemscore.Hbond>
1.9801

> <Gold.Chemscore.Metal>
0.0000

> <Gold.Chemscore.Lipo>
53.9705

> <Gold.Chemscore.Internal_Hbond>
0.0000

> <Gold.Chemscore.DEClash>
0.2492

> <Gold.Chemscore.DEInternal>
1.5473

> <Gold.Chemscore.Rot>
2.8751

> <Gold.Chemscore.Internal.Correction>
   9.000000E+99

> <Gold.Chemscore.Hbonds>
donor molecule, donor type, donor heavy atom, donor atom, acceptor molecule, acceptor atom, score
      P1  H  6896  6907       L1     9  0.16
      P1  H  7989  7998       L1     1  0.60
      P1  H 10752 10763       L1    11  0.82

> <Gold.Chemscore.Hbond.Weighted>
-6.6135

> <Gold.Chemscore.Metal.Weighted>
-0.0000

> <Gold.Chemscore.Lipo.Weighted>
-6.3145

> <Gold.Chemscore.Internal_Hbond.Weighted>
0.0000

> <Gold.Chemscore.DEClash.Weighted>
0.2492

> <Gold.Chemscore.DEInternal.Weighted>
1.5473

> <Gold.Chemscore.Rot.Weighted>
7.3603

> <Gold.Chemscore.Internal.Correction.Weighted>
   9.000000E+99

> <Gold.Protein.RotatedTorsions>
[ 6907 6896 6895 6894 ] final  -73.47 input  -60.11 | X-H torsion
[ 7974 7965 7964 7962 ] final -171.30 input  175.53 | X-H torsion
[ 8008 7997 7996 7995 ] final  -41.23 input   59.86 | X-H torsion
[ 10167 10162 10161 10158 ] final   59.98 input  -65.29 | X-H torsion
[ 10718 10713 10712 10709 ] final -160.93 input   66.30 | X-H torsion
[ 10763 10752 10751 10750 ] final   94.29 input  -60.55 | X-H torsion
[ 11005 11000 10999 10996 ] final  -64.90 input  -57.11 | X-H torsion

> <Gold.Protein.ActiveResidues>
 VAL166  LYS551  ARG553  GLY616  TRP617  ASP618  TYR619  PRO620  LYS621  CYS622 
 ASP623  PHE694  ASN695  SER759  ASP760  ASP761  ALA762  ILE779  LEU786  VAL792 
 PHE793  MET794  SER795  GLU796  ALA797  LYS798  CYS799  TRP800  GLU811  SER814 

> <Gold.Protein.RotatedAtoms>
  150.7129  134.5011  159.5561 H   0  0  0  0  0  0  0  0  0  0  0  0  # atno 6907 bound_to 6896
  152.2608  134.8033  160.0440 H   0  0  0  0  0  0  0  0  0  0  0  0  # atno 6908 bound_to 6896
  151.8747  133.3447  159.3783 H   0  0  0  0  0  0  0  0  0  0  0  0  # atno 6909 bound_to 6896
  144.7159  140.1943  143.6345 H   0  0  0  0  0  0  0  0  0  0  0  0  # atno 7974 bound_to 7965
  154.4005  140.1504  156.3157 H   0  0  0  0  0  0  0  0  0  0  0  0  # atno 8008 bound_to 7997
  155.8575  140.3455  155.5712 H   0  0  0  0  0  0  0  0  0  0  0  0  # atno 8009 bound_to 7997
  155.7917  140.0857  157.1996 H   0  0  0  0  0  0  0  0  0  0  0  0  # atno 8010 bound_to 7997
  140.1706  144.4281  150.6663 H   0  0  0  0  0  0  0  0  0  0  0  0  # atno 10167 bound_to 10162
  156.5891  130.8762  151.2885 H   0  0  0  0  0  0  0  0  0  0  0  0  # atno 10718 bound_to 10713
  153.2399  135.4295  155.0687 H   0  0  0  0  0  0  0  0  0  0  0  0  # atno 10763 bound_to 10752
  154.8336  135.3400  154.6664 H   0  0  0  0  0  0  0  0  0  0  0  0  # atno 10764 bound_to 10752
  153.7088  135.7024  153.5099 H   0  0  0  0  0  0  0  0  0  0  0  0  # atno 10765 bound_to 10752
  141.1438  133.6673  156.5904 H   0  0  0  0  0  0  0  0  0  0  0  0  # atno 11005 bound_to 11000
  145.8739  139.2286  143.1645 LP  0  0  0  0  0  0  0  0  0  0  0  0  # atno 17320 bound_to 7965
  146.0059  140.8479  142.9995 LP  0  0  0  0  0  0  0  0  0  0  0  0  # atno 17321 bound_to 7965
  140.6585  143.2244  151.5913 LP  0  0  0  0  0  0  0  0  0  0  0  0  # atno 17342 bound_to 10162
  139.5340  144.2835  152.1210 LP  0  0  0  0  0  0  0  0  0  0  0  0  # atno 17343 bound_to 10162
  157.7308  130.9691  150.1850 LP  0  0  0  0  0  0  0  0  0  0  0  0  # atno 17370 bound_to 10713
  156.2565  130.3706  149.8176 LP  0  0  0  0  0  0  0  0  0  0  0  0  # atno 17371 bound_to 10713
  140.3767  134.7558  157.4635 LP  0  0  0  0  0  0  0  0  0  0  0  0  # atno 17394 bound_to 11000
  140.0669  134.5917  155.8686 LP  0  0  0  0  0  0  0  0  0  0  0  0  # atno 17395 bound_to 11000

$$$$
