#       Name:                AV-unprocessed.smi:1762
#       Creating user name   scv26
#       Creation time:       Fri Mar 27 08:32:36 2020


#       File generated by GOLD software.
#

@<TRIPOS>MOLECULE
AV-unprocessed.smi:1762
    58    59     1
SMALL
NO_CHARGES


@<TRIPOS>ATOM
      1 ****        -1.4370  -1.6927   3.9357 C.3            1 S1                 0.0000
      2 ****        -1.9304  -0.2891   3.5423 C.3            1 S1                 0.0000
      3 ****        -1.3321   0.2175   2.2152 C.3            1 S1                 0.0000
      4 ****        -1.9037  -0.4399   1.0263 N.3            1 S1                 0.0000
      5 ****        -1.3243   0.0227  -0.2662 C.3            1 S1                 0.0000
      6 ****         0.2229   0.0451  -0.2665 C.2            1 S1                 0.0000
      7 ****         0.8616  -0.9726   0.0049 O.2            1 S1                 0.0000
      8 ****         0.8075   1.2180  -0.5579 N.am           1 S1                 0.0000
      9 ****         2.2462   1.4450  -0.6158 C.3            1 S1                 0.0000
     10 ****         2.8439   0.9448  -1.9416 C.3            1 S1                 0.0000
     11 ****         4.3357   1.2043  -2.0329 C.ar           1 S1                 0.0000
     12 ****         5.2636   0.1816  -1.7418 C.ar           1 S1                 0.0000
     13 ****         6.6376   0.4763  -1.8332 C.ar           1 S1                 0.0000
     14 ****         7.0288   1.7759  -2.2091 C.ar           1 S1                 0.0000
     15 ****         6.0243   2.7270  -2.4777 C.ar           1 S1                 0.0000
     16 ****         4.7040   2.4550  -2.3923 N.ar           1 S1                 0.0000
     17 ****        -1.8621  -0.7179  -1.5372 C.3            1 S1                 0.0000
     18 ****        -1.6895  -2.2488  -1.4860 C.3            1 S1                 0.0000
     19 ****        -1.2996  -0.1599  -2.8606 C.3            1 S1                 0.0000
     20 ****        -3.3637  -0.3096   1.0838 C.3            1 S1                 0.0000
     21 ****        -3.9580  -0.8621   2.3925 C.3            1 S1                 0.0000
     22 ****        -5.4717  -0.6388   2.4817 C.3            1 S1                 0.0000
     23 ****        -3.3534  -0.2135   3.5061 O.3            1 S1                 0.0000
     24 ****        -0.3564  -1.6961   4.0805 H              1 S1                 0.0000
     25 ****        -1.6625  -2.4369   3.1721 H              1 S1                 0.0000
     26 ****        -1.8957  -2.0195   4.8689 H              1 S1                 0.0000
     27 ****        -1.6114   0.3901   4.3334 H              1 S1                 0.0000
     28 ****        -1.4954   1.2943   2.1437 H              1 S1                 0.0000
     29 ****        -0.2537   0.0772   2.2790 H              1 S1                 0.0000
     30 ****        -1.6297   1.0646  -0.3847 H              1 S1                 0.0000
     31 ****         0.2114   2.0071  -0.7617 H              1 S1                 0.0000
     32 ****         2.4223   2.5153  -0.5073 H              1 S1                 0.0000
     33 ****         2.7363   0.9617   0.2311 H              1 S1                 0.0000
     34 ****         2.6624  -0.1245  -2.0580 H              1 S1                 0.0000
     35 ****         2.3472   1.4315  -2.7823 H              1 S1                 0.0000
     36 ****         4.9323  -0.8052  -1.4531 H              1 S1                 0.0000
     37 ****         7.3775  -0.2805  -1.6184 H              1 S1                 0.0000
     38 ****         8.0734   2.0376  -2.2897 H              1 S1                 0.0000
     39 ****         6.2881   3.7330  -2.7687 H              1 S1                 0.0000
     40 ****        -2.9305  -0.5216  -1.6081 H              1 S1                 0.0000
     41 ****        -0.6402  -2.5415  -1.5100 H              1 S1                 0.0000
     42 ****        -2.1777  -2.7220  -2.3383 H              1 S1                 0.0000
     43 ****        -2.1330  -2.6728  -0.5851 H              1 S1                 0.0000
     44 ****        -0.2413  -0.3893  -2.9882 H              1 S1                 0.0000
     45 ****        -1.4174   0.9228  -2.9134 H              1 S1                 0.0000
     46 ****        -1.8258  -0.5865  -3.7150 H              1 S1                 0.0000
     47 ****        -3.6485   0.7368   0.9605 H              1 S1                 0.0000
     48 ****        -3.8347  -0.8607   0.2728 H              1 S1                 0.0000
     49 ****        -3.7694  -1.9345   2.4509 H              1 S1                 0.0000
     50 ****        -5.9904  -1.1285   1.6572 H              1 S1                 0.0000
     51 ****        -5.7171   0.4231   2.4490 H              1 S1                 0.0000
     52 ****        -5.8699  -1.0442   3.4122 H              1 S1                 0.0000
     53 ****        -1.6534  -1.4077   1.0510 LP             1 S1                 0.0000
     54 ****         0.3803  -1.8205   0.2274 LP             1 S1                 0.0000
     55 ****         1.8613  -0.9509   0.0028 LP             1 S1                 0.0000
     56 ****         4.0196   3.1571  -2.5888 LP             1 S1                 0.0000
     57 ****        -3.6131   0.7519   3.4823 LP             1 S1                 0.0000
     58 ****        -3.7085  -0.6337   4.3412 LP             1 S1                 0.0000
@<TRIPOS>BOND
    1    1    2 1     
    2    1   24 1     
    3    1   25 1     
    4    1   26 1     
    5    2   23 1     
    6    2    3 1     
    7    2   27 1     
    8    3    4 1     
    9    3   28 1     
   10    3   29 1     
   11    4    5 1     
   12    4   20 1     
   13    5    6 1     
   14    5   17 1     
   15    5   30 1     
   16    6    7 2     
   17    6    8 am    
   18    8    9 1     
   19    8   31 1     
   20    9   10 1     
   21    9   32 1     
   22    9   33 1     
   23   10   11 1     
   24   10   34 1     
   25   10   35 1     
   26   11   16 ar    
   27   11   12 ar    
   28   12   13 ar    
   29   12   36 1     
   30   13   14 ar    
   31   13   37 1     
   32   14   15 ar    
   33   14   38 1     
   34   15   16 ar    
   35   15   39 1     
   36   17   18 1     
   37   17   19 1     
   38   17   40 1     
   39   18   41 1     
   40   18   42 1     
   41   18   43 1     
   42   19   44 1     
   43   19   45 1     
   44   19   46 1     
   45   20   21 1     
   46   20   47 1     
   47   20   48 1     
   48   21   22 1     
   49   21   23 1     
   50   21   49 1     
   51   22   50 1     
   52   22   51 1     
   53   22   52 1     
   54    4   53 1     
   55    7   54 1     
   56    7   55 1     
   57   16   56 1     
   58   23   57 1     
   59   23   58 1     
@<TRIPOS>SUBSTRUCTURE
      1 S1             1
@<TRIPOS>SET
LONE_PAIRS      STATIC     ATOMS    <user>   **** ""
6 53 54 55 56 57 58
DONOR_HYDROGENS      STATIC     ATOMS    <user>   **** ""
1 31
ATOM$BLUE        STATIC     ATOMS    COLORGROUP SYSTEM
6 53 54 55 56 57 58
ATOM$RED        STATIC     ATOMS    COLORGROUP SYSTEM
1 31
