#       Name:                AV-unprocessed.smi:1723
#       Creating user name   scv26
#       Creation time:       Fri Mar 27 08:15:56 2020


#       File generated by GOLD software.
#

@<TRIPOS>MOLECULE
AV-unprocessed.smi:1723
    44    44     1
SMALL
NO_CHARGES


@<TRIPOS>ATOM
      1 ****        -4.9994   3.4848   0.2575 C.3            1 S1                 0.0000
      2 ****        -3.4801   3.6703   0.1830 C.3            1 S1                 0.0000
      3 ****        -2.7133   2.3779   0.4968 C.3            1 S1                 0.0000
      4 ****        -1.1930   2.5579   0.4175 C.3            1 S1                 0.0000
      5 ****        -0.5770   1.3133   0.7132 O.3            1 S1                 0.0000
      6 ****         0.8408   1.3035   0.5962 C.3            1 S1                 0.0000
      7 ****         1.5057   2.0621   1.7627 C.3            1 S1                 0.0000
      8 ****         1.2841  -0.1640   0.5508 C.2            1 S1                 0.0000
      9 ****         1.4660  -0.7784   1.6023 O.2            1 S1                 0.0000
     10 ****         1.4537  -0.6733  -0.6855 N.am           1 S1                 0.0000
     11 ****         1.8388  -1.9675  -1.0756 C.2            1 S1                 0.0000
     12 ****         1.7921  -3.0677  -0.2741 C.2            1 S1                 0.0000
     13 ****         2.1982  -4.3886  -0.7375 C.2            1 S1                 0.0000
     14 ****         2.2623  -5.6131   0.1580 C.3            1 S1                 0.0000
     15 ****         3.2958  -6.3903  -0.1660 F              1 S1                 0.0000
     16 ****         2.3843  -5.2632   1.4386 F              1 S1                 0.0000
     17 ****         1.1470  -6.3299   0.0275 F              1 S1                 0.0000
     18 ****         2.6251  -4.3746  -2.0511 C.2            1 S1                 0.0000
     19 ****         2.6718  -3.3407  -2.9196 N.pl3          1 S1                -1.0000
     20 ****         2.2921  -2.1096  -2.4748 C.2            1 S1                 0.0000
     21 ****         2.3186  -1.1224  -3.2107 O.2            1 S1                 0.0000
     22 ****        -5.5162   4.4172   0.0304 H              1 S1                 0.0000
     23 ****        -5.3091   3.1667   1.2534 H              1 S1                 0.0000
     24 ****        -5.3395   2.7335  -0.4555 H              1 S1                 0.0000
     25 ****        -3.2106   4.0241  -0.8127 H              1 S1                 0.0000
     26 ****        -3.1793   4.4528   0.8802 H              1 S1                 0.0000
     27 ****        -2.9820   2.0273   1.4939 H              1 S1                 0.0000
     28 ****        -3.0192   1.5951  -0.1982 H              1 S1                 0.0000
     29 ****        -0.9086   2.8888  -0.5824 H              1 S1                 0.0000
     30 ****        -0.8749   3.3245   1.1240 H              1 S1                 0.0000
     31 ****         1.1343   1.7734  -0.3448 H              1 S1                 0.0000
     32 ****         2.5872   1.9211   1.7589 H              1 S1                 0.0000
     33 ****         1.1283   1.7208   2.7273 H              1 S1                 0.0000
     34 ****         1.3265   3.1347   1.6970 H              1 S1                 0.0000
     35 ****         1.3287  -0.0293  -1.4531 H              1 S1                 0.0000
     36 ****         1.4296  -3.0000   0.7382 H              1 S1                 0.0000
     37 ****         2.9909  -5.3386  -2.4646 H              1 S1                 0.0000
     38 ****        -0.9452   0.6276   0.0853 LP             1 S1                 0.0000
     39 ****        -0.8128   1.0656   1.6529 LP             1 S1                 0.0000
     40 ****         1.3247  -0.3203   2.4799 LP             1 S1                 0.0000
     41 ****         1.7551  -1.7354   1.5786 LP             1 S1                 0.0000
     42 ****         2.9765  -3.4750  -3.8626 LP             1 S1                 0.0000
     43 ****         2.0342  -0.2299  -2.8606 LP             1 S1                 0.0000
     44 ****         2.6246  -1.2132  -4.1584 LP             1 S1                 0.0000
@<TRIPOS>BOND
    1    1    2 1     
    2    1   22 1     
    3    1   23 1     
    4    1   24 1     
    5    2    3 1     
    6    2   25 1     
    7    2   26 1     
    8    3    4 1     
    9    3   27 1     
   10    3   28 1     
   11    4    5 1     
   12    4   29 1     
   13    4   30 1     
   14    5    6 1     
   15    6    7 1     
   16    6    8 1     
   17    6   31 1     
   18    7   32 1     
   19    7   33 1     
   20    7   34 1     
   21    8    9 2     
   22    8   10 am    
   23   10   11 1     
   24   10   35 1     
   25   11   20 1     
   26   11   12 2     
   27   12   13 1     
   28   12   36 1     
   29   13   14 1     
   30   13   18 2     
   31   14   15 1     
   32   14   16 1     
   33   14   17 1     
   34   18   19 1     
   35   18   37 1     
   36   19   20 1     
   37   20   21 2     
   38    5   38 1     
   39    5   39 1     
   40    9   40 1     
   41    9   41 1     
   42   19   42 1     
   43   21   43 1     
   44   21   44 1     
@<TRIPOS>SUBSTRUCTURE
      1 S1             1
@<TRIPOS>SET
LONE_PAIRS      STATIC     ATOMS    <user>   **** ""
7 38 39 40 41 42 43 44
DONOR_HYDROGENS      STATIC     ATOMS    <user>   **** ""
1 35
ATOM$BLUE        STATIC     ATOMS    COLORGROUP SYSTEM
7 38 39 40 41 42 43 44
ATOM$RED        STATIC     ATOMS    COLORGROUP SYSTEM
1 35
