AV-unprocessed.smi:1144|AV-procd|sdf|4879|dock8
  -GOLD-   22720 3453D 1   1.00000     0.00000
 Structure written by MMmdl.
 35 36  0  0  0  0  0  0  0  0  2 V2000
  144.5262  133.8244  150.3754 C   0  0  0  0  0  0  0  0  0  0  0  0
  144.7834  134.7927  151.4625 N   0  3  2  0  0  0  0  0  0  0  0  0
  143.5554  135.1546  152.2062 C   0  0  0  0  0  0  0  0  0  0  0  0
  143.8893  136.1382  153.3394 C   0  0  0  0  0  0  0  0  0  0  0  0
  144.5382  137.2819  152.7973 O   0  0  0  0  0  0  0  0  0  0  0  0
  145.7758  136.9588  152.1693 C   0  0  2  0  0  0  0  0  0  0  0  0
  146.4295  138.2638  151.6949 C   0  0  0  0  0  0  0  0  0  0  0  0
  146.1884  139.3552  152.6266 N   0  0  0  0  0  0  0  0  0  0  0  0
  147.1861  140.0067  153.3261 C   0  0  0  0  0  0  0  0  0  0  0  0
  147.0285  141.3254  153.4561 N   0  0  0  0  0  0  0  0  0  0  0  0
  147.9897  141.9947  154.1290 C   0  0  0  0  0  0  0  0  0  0  0  0
  149.1100  141.3370  154.6740 C   0  0  0  0  0  0  0  0  0  0  0  0
  149.1724  139.9392  154.4779 C   0  0  0  0  0  0  0  0  0  0  0  0
  150.3206  139.0966  155.0128 C   0  0  0  0  0  0  0  0  0  0  0  0
  151.2654  139.8540  155.5716 F   0  0  0  0  0  0  0  0  0  0  0  0
  149.8623  138.2456  155.9308 F   0  0  0  0  0  0  0  0  0  0  0  0
  150.8694  138.4006  154.0169 F   0  0  0  0  0  0  0  0  0  0  0  0
  148.2039  139.2799  153.8003 N   0  0  0  0  0  0  0  0  0  0  0  0
  145.4927  136.0049  150.9917 C   0  0  0  0  0  0  0  0  0  0  0  0
  143.8618  134.2486  149.6212 H   0  0  0  0  0  0  0  0  0  0  0  0
  144.0631  132.9190  150.7690 H   0  0  0  0  0  0  0  0  0  0  0  0
  145.4584  133.5374  149.8877 H   0  0  0  0  0  0  0  0  0  0  0  0
  142.8318  135.6041  151.5240 H   0  0  0  0  0  0  0  0  0  0  0  0
  143.0939  134.2560  152.6174 H   0  0  0  0  0  0  0  0  0  0  0  0
  142.9760  136.4550  153.8432 H   0  0  0  0  0  0  0  0  0  0  0  0
  144.5218  135.6670  154.0936 H   0  0  0  0  0  0  0  0  0  0  0  0
  146.4363  136.4660  152.8859 H   0  0  0  0  0  0  0  0  0  0  0  0
  147.5071  138.1231  151.6033 H   0  0  0  0  0  0  0  0  0  0  0  0
  146.0559  138.5367  150.7071 H   0  0  0  0  0  0  0  0  0  0  0  0
  145.2591  139.7465  152.6786 H   0  0  0  0  0  0  0  0  0  0  0  0
  147.8642  143.0623  154.2327 H   0  0  0  0  0  0  0  0  0  0  0  0
  149.8731  141.8812  155.2103 H   0  0  0  0  0  0  0  0  0  0  0  0
  146.4298  135.7158  150.5140 H   0  0  0  0  0  0  0  0  0  0  0  0
  144.8895  136.5096  150.2350 H   0  0  0  0  0  0  0  0  0  0  0  0
  145.3970  134.3339  152.1208 H   0  0  0  0  0  0  0  0  0  0  0  0
  1  2  1  0  0  0  0
  1 20  1  0  0  0  0
  1 21  1  0  0  0  0
  1 22  1  0  0  0  0
  2 19  1  0  0  0  0
  2  3  1  0  0  0  0
  2 35  1  0  0  0  0
  3  4  1  0  0  0  0
  3 23  1  0  0  0  0
  3 24  1  0  0  0  0
  4  5  1  0  0  0  0
  4 25  1  0  0  0  0
  4 26  1  0  0  0  0
  5  6  1  0  0  0  0
  6  7  1  0  0  0  0
  6 19  1  0  0  0  0
  6 27  1  0  0  0  0
  7  8  1  0  0  0  0
  7 28  1  0  0  0  0
  7 29  1  0  0  0  0
  8  9  1  0  0  0  0
  8 30  1  0  0  0  0
  9 18  1  0  0  0  0
  9 10  2  0  0  0  0
 10 11  1  0  0  0  0
 11 12  2  0  0  0  0
 11 31  1  0  0  0  0
 12 13  1  0  0  0  0
 12 32  1  0  0  0  0
 13 14  1  0  0  0  0
 13 18  2  0  0  0  0
 14 15  1  0  0  0  0
 14 16  1  0  0  0  0
 14 17  1  0  0  0  0
 19 33  1  0  0  0  0
 19 34  1  0  0  0  0
M  CHG  1   2   1
M  END
> <s_m_source_file>
AV-unprocessed.smi

> <i_m_source_file_index>
1144

> <i_lp_mmshare_version>
43012

> <i_f3d_flags>
0

> <s_epik_input>
W0NIM11OMVtDSDJdW0NIMl1PW0NASF0oW0NIMl0xKVtDSDJdW05IXWMybltjSF1bY0hdYyhuMilDKEYpKEYpRg==

> <s_epik_cmdline>
J2VwaWtfcHl0aG9uJywgJy1waCcsICc3LjAnLCAnLXRuJywgJzgnLCAnLW1hJywgJzIwMCcsICctbWV0YWxfYmluZGluZycsICctaW1hZScsICc8aW5maWxlLm1hZT4nLCAnLW9tYWUnLCAnPG91dGZpbGUubWFlPic=

> <r_lp_tautomer_probability>
1

> <r_epik_Ionization_Penalty>
0.178506

> <r_epik_Ionization_Penalty_Charging>
0.178504

> <r_epik_Ionization_Penalty_Neutral>
2.47225e-06

> <r_epik_State_Penalty>
0.167974

> <r_epik_Charging_Adjusted_Penalty>
0.346478

> <i_epik_Tot_Q>
1

> <i_epik_Tot_abs_Q>
1

> <r_epik_Metal_State_Penalty>
0.167974

> <b_epik_Metal_Only>
0

> <s_lp_Force_Field>
OPLS_2005

> <r_lp_Energy>
9.23753

> <b_lp_Chiralities_Consistent>
1

> <s_lp_Variant>
AV-unprocessed.smi:1144-4

> <Gold.Version>
5.8.1

> <Gold.Id.Protein>
6NUR|6NUR_protein|mol2

> <Gold.PLP.Fitness>
39.5067

> <Gold.PLP.PLP>
-34.7749

> <Gold.PLP.part.hbond>
-1.0000

> <Gold.PLP.part.metal>
0.0000

> <Gold.PLP.part.buried>
-2.4640

> <Gold.PLP.part.nonpolar>
-31.3848

> <Gold.PLP.part.repulsive>
0.8844

> <Gold.PLP.ligand.clash>
0.0000

> <Gold.PLP.ligand.torsion>
0.6348

> <Gold.PLP.Chemscore.Hbond>
1.0000

> <Gold.PLP.Chemscore.CHOScore>
1.0000

> <Gold.PLP.Chemscore.Metal>
0.0000

> <Gold.Chemscore.Hbonds>
donor molecule, donor type, donor heavy atom, donor atom, acceptor molecule, acceptor atom, score
      L1  H     8    30       P1 10175  1.00
      L1  C    11    31       P1  8028  1.00

> <Gold.PLP.Chemscore.Internal.Correction>
0.0013

> <Gold.Rescore>
     Score         DG    S(hbond)    S(metal)    S(lipo)     H(rot)  DE(clash)    DE(int)     intcor
     11.45     -12.25       1.00        0.00      58.63       1.34       0.10       0.71       ----

> <Gold.Chemscore.Fitness>
11.4501

> <Gold.Chemscore.DG>
-12.2542

> <Gold.Chemscore.ZeroCoef>
-5.4800

> <Gold.Chemscore.Hbond>
0.9997

> <Gold.Chemscore.Metal>
0.0000

> <Gold.Chemscore.Lipo>
58.6343

> <Gold.Chemscore.Internal_Hbond>
0.0000

> <Gold.Chemscore.DEClash>
0.0960

> <Gold.Chemscore.DEInternal>
0.7081

> <Gold.Chemscore.Rot>
1.3379

> <Gold.Chemscore.Internal.Correction>
   9.000000E+99

> <Gold.Chemscore.Hbonds>
donor molecule, donor type, donor heavy atom, donor atom, acceptor molecule, acceptor atom, score
      L1  H     8    30       P1 10175  1.00

> <Gold.Chemscore.Hbond.Weighted>
-3.3390

> <Gold.Chemscore.Metal.Weighted>
-0.0000

> <Gold.Chemscore.Lipo.Weighted>
-6.8602

> <Gold.Chemscore.Internal_Hbond.Weighted>
0.0000

> <Gold.Chemscore.DEClash.Weighted>
0.0960

> <Gold.Chemscore.DEInternal.Weighted>
0.7081

> <Gold.Chemscore.Rot.Weighted>
3.4250

> <Gold.Chemscore.Internal.Correction.Weighted>
   9.000000E+99

> <Gold.Protein.RotatedTorsions>
[ 6907 6896 6895 6894 ] final    0.27 input  -60.11 | X-H torsion
[ 7974 7965 7964 7962 ] final   18.50 input  175.53 | X-H torsion
[ 8008 7997 7996 7995 ] final  112.81 input   59.86 | X-H torsion
[ 10167 10162 10161 10158 ] final   69.56 input  -65.29 | X-H torsion
[ 10718 10713 10712 10709 ] final  -86.19 input   66.30 | X-H torsion
[ 10763 10752 10751 10750 ] final   49.08 input  -60.55 | X-H torsion
[ 11005 11000 10999 10996 ] final -146.95 input  -57.11 | X-H torsion

> <Gold.Protein.ActiveResidues>
 VAL166  LYS551  ARG553  GLY616  TRP617  ASP618  TYR619  PRO620  LYS621  CYS622 
 ASP623  PHE694  ASN695  SER759  ASP760  ASP761  ALA762  ILE779  LEU786  VAL792 
 PHE793  MET794  SER795  GLU796  ALA797  LYS798  CYS799  TRP800  GLU811  SER814 

> <Gold.Protein.RotatedAtoms>
  151.5736  135.1061  160.0000 H   0  0  0  0  0  0  0  0  0  0  0  0  # atno 6907 bound_to 6896
  152.4388  133.7406  159.6649 H   0  0  0  0  0  0  0  0  0  0  0  0  # atno 6908 bound_to 6896
  150.8290  133.8053  159.3129 H   0  0  0  0  0  0  0  0  0  0  0  0  # atno 6909 bound_to 6896
  146.2182  139.8448  142.8634 H   0  0  0  0  0  0  0  0  0  0  0  0  # atno 7974 bound_to 7965
  156.2217  140.2992  155.9968 H   0  0  0  0  0  0  0  0  0  0  0  0  # atno 8008 bound_to 7997
  155.2464  140.0424  157.2998 H   0  0  0  0  0  0  0  0  0  0  0  0  # atno 8009 bound_to 7997
  154.5851  140.2386  155.8007 H   0  0  0  0  0  0  0  0  0  0  0  0  # atno 8010 bound_to 7997
  140.0664  144.5189  150.7258 H   0  0  0  0  0  0  0  0  0  0  0  0  # atno 10167 bound_to 10162
  155.9991  130.4757  150.4678 H   0  0  0  0  0  0  0  0  0  0  0  0  # atno 10718 bound_to 10713
  152.9788  135.5923  154.4030 H   0  0  0  0  0  0  0  0  0  0  0  0  # atno 10763 bound_to 10752
  154.3673  135.2767  155.2288 H   0  0  0  0  0  0  0  0  0  0  0  0  # atno 10764 bound_to 10752
  154.4259  135.6048  153.6093 H   0  0  0  0  0  0  0  0  0  0  0  0  # atno 10765 bound_to 10752
  140.7767  134.3126  157.5058 H   0  0  0  0  0  0  0  0  0  0  0  0  # atno 11005 bound_to 11000
  145.2862  141.0153  143.3689 LP  0  0  0  0  0  0  0  0  0  0  0  0  # atno 17320 bound_to 7965
  144.9112  139.4526  143.6586 LP  0  0  0  0  0  0  0  0  0  0  0  0  # atno 17321 bound_to 7965
  140.7147  143.2534  151.4472 LP  0  0  0  0  0  0  0  0  0  0  0  0  # atno 17342 bound_to 10162
  139.5862  144.1599  152.2032 LP  0  0  0  0  0  0  0  0  0  0  0  0  # atno 17343 bound_to 10162
  157.2696  131.0584  151.2268 LP  0  0  0  0  0  0  0  0  0  0  0  0  # atno 17370 bound_to 10713
  157.3354  130.7006  149.6349 LP  0  0  0  0  0  0  0  0  0  0  0  0  # atno 17371 bound_to 10713
  139.8748  134.9294  156.3475 LP  0  0  0  0  0  0  0  0  0  0  0  0  # atno 17394 bound_to 11000
  140.9522  133.7443  156.0287 LP  0  0  0  0  0  0  0  0  0  0  0  0  # atno 17395 bound_to 11000

$$$$
