AV-unprocessed.smi:3056|AV-procd|sdf|11659|dock2
  -GOLD-   2272017 63D 1   1.00000     0.00000
 Structure written by MMmdl.
 47 48  0  0  0  0  0  0  0  0  1 V2000
  151.2715  141.7106  158.3752 C   0  0  0  0  0  0  0  0  0  0  0  0
  150.8317  141.2251  157.0241 C   0  0  0  0  0  0  0  0  0  0  0  0
  151.5809  140.4701  156.0777 C   0  0  0  0  0  0  0  0  0  0  0  0
  150.9014  140.2113  154.9732 N   0  0  0  0  0  0  0  0  0  0  0  0
  149.6928  140.7843  155.1743 N   0  0  0  0  0  0  0  0  0  0  0  0
  148.6685  140.7340  154.1371 C   0  0  2  0  0  0  0  0  0  0  0  0
  147.5425  141.7344  154.4651 C   0  0  0  0  0  0  0  0  0  0  0  0
  148.1522  139.2847  153.9038 C   0  0  1  0  0  0  0  0  0  0  0  0
  147.1941  139.1800  152.7040 C   0  0  0  0  0  0  0  0  0  0  0  0
  149.2725  138.3897  153.6028 N   0  0  0  0  0  0  0  0  0  0  0  0
  149.5200  137.3370  154.6064 C   0  0  0  0  0  0  0  0  0  0  0  0
  150.4454  136.1897  154.1533 C   0  0  0  0  0  0  0  0  0  0  0  0
  151.6089  136.4468  153.8385 O   0  0  0  0  0  0  0  0  0  0  0  0
  149.9586  134.9253  154.1295 N   0  0  0  0  0  0  0  0  0  0  0  0
  148.5725  134.5947  154.4723 C   0  0  0  0  0  0  0  0  0  0  0  0
  147.8770  134.0599  153.2085 C   0  0  0  0  0  0  0  0  0  0  0  0
  148.5861  132.9246  152.7174 O   0  0  0  0  0  0  0  0  0  0  0  0
  149.9491  133.2021  152.3993 C   0  0  2  0  0  0  0  0  0  0  0  0
  150.5880  131.9154  151.8654 C   0  0  0  0  0  0  0  0  0  0  0  0
  150.6669  133.7304  153.6578 C   0  0  0  0  0  0  0  0  0  0  0  0
  149.6263  141.4015  156.4061 C   0  0  0  0  0  0  0  0  0  0  0  0
  152.3281  141.5114  158.5542 H   0  0  0  0  0  0  0  0  0  0  0  0
  150.7133  141.2273  159.1771 H   0  0  0  0  0  0  0  0  0  0  0  0
  151.1253  142.7856  158.4826 H   0  0  0  0  0  0  0  0  0  0  0  0
  152.5957  140.1090  156.1582 H   0  0  0  0  0  0  0  0  0  0  0  0
  149.1385  141.0780  153.2141 H   0  0  0  0  0  0  0  0  0  0  0  0
  146.8674  141.8706  153.6206 H   0  0  0  0  0  0  0  0  0  0  0  0
  147.9507  142.7167  154.7054 H   0  0  0  0  0  0  0  0  0  0  0  0
  146.9479  141.4041  155.3174 H   0  0  0  0  0  0  0  0  0  0  0  0
  147.6097  138.9481  154.7883 H   0  0  0  0  0  0  0  0  0  0  0  0
  146.2660  139.7224  152.8833 H   0  0  0  0  0  0  0  0  0  0  0  0
  146.9176  138.1431  152.5088 H   0  0  0  0  0  0  0  0  0  0  0  0
  147.6457  139.5791  151.7950 H   0  0  0  0  0  0  0  0  0  0  0  0
  150.0996  138.9385  153.4183 H   0  0  0  0  0  0  0  0  0  0  0  0
  149.9762  137.8048  155.4792 H   0  0  0  0  0  0  0  0  0  0  0  0
  148.5646  136.9305  154.9316 H   0  0  0  0  0  0  0  0  0  0  0  0
  148.5635  133.8367  155.2568 H   0  0  0  0  0  0  0  0  0  0  0  0
  148.0153  135.4448  154.8682 H   0  0  0  0  0  0  0  0  0  0  0  0
  146.8525  133.7656  153.4357 H   0  0  0  0  0  0  0  0  0  0  0  0
  147.8252  134.8303  152.4373 H   0  0  0  0  0  0  0  0  0  0  0  0
  149.9827  133.9594  151.6140 H   0  0  0  0  0  0  0  0  0  0  0  0
  151.6322  132.0774  151.5973 H   0  0  0  0  0  0  0  0  0  0  0  0
  150.0676  131.5627  150.9748 H   0  0  0  0  0  0  0  0  0  0  0  0
  150.5527  131.1191  152.6095 H   0  0  0  0  0  0  0  0  0  0  0  0
  151.7165  133.9013  153.4268 H   0  0  0  0  0  0  0  0  0  0  0  0
  150.6553  132.9753  154.4456 H   0  0  0  0  0  0  0  0  0  0  0  0
  148.7370  141.9190  156.7349 H   0  0  0  0  0  0  0  0  0  0  0  0
  1  2  1  0  0  0  0
  1 22  1  0  0  0  0
  1 23  1  0  0  0  0
  1 24  1  0  0  0  0
  2 21  2  0  0  0  0
  2  3  1  0  0  0  0
  3  4  2  0  0  0  0
  3 25  1  0  0  0  0
  4  5  1  0  0  0  0
  5  6  1  0  0  0  0
  5 21  1  0  0  0  0
  6  7  1  0  0  0  0
  6  8  1  0  0  0  0
  6 26  1  0  0  0  0
  7 27  1  0  0  0  0
  7 28  1  0  0  0  0
  7 29  1  0  0  0  0
  8  9  1  0  0  0  0
  8 10  1  0  0  0  0
  8 30  1  0  0  0  0
  9 31  1  0  0  0  0
  9 32  1  0  0  0  0
  9 33  1  0  0  0  0
 10 11  1  0  0  0  0
 10 34  1  0  0  0  0
 11 12  1  0  0  0  0
 11 35  1  0  0  0  0
 11 36  1  0  0  0  0
 12 13  2  0  0  0  0
 12 14  1  0  0  0  0
 14 20  1  0  0  0  0
 14 15  1  0  0  0  0
 15 16  1  0  0  0  0
 15 37  1  0  0  0  0
 15 38  1  0  0  0  0
 16 17  1  0  0  0  0
 16 39  1  0  0  0  0
 16 40  1  0  0  0  0
 17 18  1  0  0  0  0
 18 19  1  0  0  0  0
 18 20  1  0  0  0  0
 18 41  1  0  0  0  0
 19 42  1  0  0  0  0
 19 43  1  0  0  0  0
 19 44  1  0  0  0  0
 20 45  1  0  0  0  0
 20 46  1  0  0  0  0
 21 47  1  0  0  0  0
M  END
> <s_m_source_file>
AV-unprocessed.smi

> <i_m_source_file_index>
3056

> <i_lp_mmshare_version>
43012

> <i_f3d_flags>
0

> <s_epik_input>
W0NIM11jMVtjSF1ubihbY0hdMSlbQ0BIXShbQ0gzXSlbQ0BIXShbQ0gzXSlbTkhdW0NIMl1DKD1PKU4yW0NIMl1bQ0gyXU9bQ0BASF0oW0NIM10pW0NIMl0y

> <s_epik_cmdline>
J2VwaWtfcHl0aG9uJywgJy1waCcsICc3LjAnLCAnLXRuJywgJzgnLCAnLW1hJywgJzIwMCcsICctbWV0YWxfYmluZGluZycsICctaW1hZScsICc8aW5maWxlLm1hZT4nLCAnLW9tYWUnLCAnPG91dGZpbGUubWFlPic=

> <r_lp_tautomer_probability>
1

> <r_epik_Ionization_Penalty>
0.667689

> <r_epik_Ionization_Penalty_Charging>
0

> <r_epik_Ionization_Penalty_Neutral>
0.667689

> <r_epik_State_Penalty>
0.684601

> <r_epik_Charging_Adjusted_Penalty>
0.684601

> <i_epik_Tot_Q>
0

> <i_epik_Tot_abs_Q>
0

> <r_epik_Metal_State_Penalty>
0.681448

> <b_epik_Metal_Only>
0

> <s_lp_Force_Field>
OPLS_2005

> <r_lp_Energy>
30.5855

> <b_lp_Chiralities_Consistent>
1

> <s_lp_Variant>
AV-unprocessed.smi:3056-15

> <Gold.Version>
5.8.1

> <Gold.Id.Protein>
6NUR|6NUR_protein|mol2

> <Gold.PLP.Fitness>
42.8208

> <Gold.PLP.PLP>
-36.2870

> <Gold.PLP.part.hbond>
-3.0000

> <Gold.PLP.part.metal>
0.0000

> <Gold.PLP.part.buried>
-2.1943

> <Gold.PLP.part.nonpolar>
-30.9031

> <Gold.PLP.part.repulsive>
0.2686

> <Gold.PLP.ligand.clash>
0.0000

> <Gold.PLP.ligand.torsion>
1.0068

> <Gold.PLP.Chemscore.Hbond>
1.8000

> <Gold.PLP.Chemscore.CHOScore>
0.9906

> <Gold.PLP.Chemscore.Metal>
0.0000

> <Gold.Chemscore.Hbonds>
donor molecule, donor type, donor heavy atom, donor atom, acceptor molecule, acceptor atom, score
      P1  H  7989  7998       L1     4  1.00
      P1  H 10752 10765       L1    13  1.00

> <Gold.PLP.Chemscore.Internal.Correction>
0.1755

> <Gold.Rescore>
     Score         DG    S(hbond)    S(metal)    S(lipo)     H(rot)  DE(clash)    DE(int)     intcor
     14.59     -16.11       1.94        0.00      72.24       1.68       0.00       1.51       ----

> <Gold.Chemscore.Fitness>
14.5947

> <Gold.Chemscore.DG>
-16.1063

> <Gold.Chemscore.ZeroCoef>
-5.4800

> <Gold.Chemscore.Hbond>
1.9383

> <Gold.Chemscore.Metal>
0.0000

> <Gold.Chemscore.Lipo>
72.2354

> <Gold.Chemscore.Internal_Hbond>
0.0000

> <Gold.Chemscore.DEClash>
0.0000

> <Gold.Chemscore.DEInternal>
1.5116

> <Gold.Chemscore.Rot>
1.6793

> <Gold.Chemscore.Internal.Correction>
   9.000000E+99

> <Gold.Chemscore.Hbonds>
donor molecule, donor type, donor heavy atom, donor atom, acceptor molecule, acceptor atom, score
      P1  H  7989  7998       L1     4  0.65
      P1  H 10752 10765       L1    13  0.95

> <Gold.Chemscore.Hbond.Weighted>
-6.4738

> <Gold.Chemscore.Metal.Weighted>
-0.0000

> <Gold.Chemscore.Lipo.Weighted>
-8.4515

> <Gold.Chemscore.Internal_Hbond.Weighted>
0.0000

> <Gold.Chemscore.DEClash.Weighted>
0.0000

> <Gold.Chemscore.DEInternal.Weighted>
1.5116

> <Gold.Chemscore.Rot.Weighted>
4.2990

> <Gold.Chemscore.Internal.Correction.Weighted>
   9.000000E+99

> <Gold.Protein.RotatedTorsions>
[ 6907 6896 6895 6894 ] final  -57.63 input  -60.11 | X-H torsion
[ 7974 7965 7964 7962 ] final  138.86 input  175.53 | X-H torsion
[ 8008 7997 7996 7995 ] final  150.40 input   59.86 | X-H torsion
[ 10167 10162 10161 10158 ] final   29.04 input  -65.29 | X-H torsion
[ 10718 10713 10712 10709 ] final  124.06 input   66.30 | X-H torsion
[ 10763 10752 10751 10750 ] final  172.89 input  -60.55 | X-H torsion
[ 11005 11000 10999 10996 ] final -118.29 input  -57.11 | X-H torsion

> <Gold.Protein.ActiveResidues>
 VAL166  LYS551  ARG553  GLY616  TRP617  ASP618  TYR619  PRO620  LYS621  CYS622 
 ASP623  PHE694  ASN695  SER759  ASP760  ASP761  ALA762  ILE779  LEU786  VAL792 
 PHE793  MET794  SER795  GLU796  ALA797  LYS798  CYS799  TRP800  GLU811  SER814 

> <Gold.Protein.RotatedAtoms>
  150.8071  134.7203  159.6653 H   0  0  0  0  0  0  0  0  0  0  0  0  # atno 6907 bound_to 6896
  152.4190  134.5985  160.0003 H   0  0  0  0  0  0  0  0  0  0  0  0  # atno 6908 bound_to 6896
  151.6206  133.3302  159.3123 H   0  0  0  0  0  0  0  0  0  0  0  0  # atno 6909 bound_to 6896
  144.9333  139.5020  143.5607 H   0  0  0  0  0  0  0  0  0  0  0  0  # atno 7974 bound_to 7965
  156.2717  140.2076  156.6010 H   0  0  0  0  0  0  0  0  0  0  0  0  # atno 8008 bound_to 7997
  154.6906  140.0530  157.0383 H   0  0  0  0  0  0  0  0  0  0  0  0  # atno 8009 bound_to 7997
  155.0871  140.3192  155.4587 H   0  0  0  0  0  0  0  0  0  0  0  0  # atno 8010 bound_to 7997
  140.4801  144.0630  150.6262 H   0  0  0  0  0  0  0  0  0  0  0  0  # atno 10167 bound_to 10162
  157.5615  131.1089  150.8529 H   0  0  0  0  0  0  0  0  0  0  0  0  # atno 10718 bound_to 10713
  154.4324  135.2760  155.1903 H   0  0  0  0  0  0  0  0  0  0  0  0  # atno 10763 bound_to 10752
  154.3804  135.6089  153.5791 H   0  0  0  0  0  0  0  0  0  0  0  0  # atno 10764 bound_to 10752
  152.9837  135.5879  154.4637 H   0  0  0  0  0  0  0  0  0  0  0  0  # atno 10765 bound_to 10752
  141.0296  134.0001  157.3163 H   0  0  0  0  0  0  0  0  0  0  0  0  # atno 11005 bound_to 11000
  146.3256  139.8299  142.8910 LP  0  0  0  0  0  0  0  0  0  0  0  0  # atno 17320 bound_to 7965
  145.3107  141.0219  143.3556 LP  0  0  0  0  0  0  0  0  0  0  0  0  # atno 17321 bound_to 7965
  140.3869  143.2773  152.0105 LP  0  0  0  0  0  0  0  0  0  0  0  0  # atno 17342 bound_to 10162
  139.4832  144.6109  151.7435 LP  0  0  0  0  0  0  0  0  0  0  0  0  # atno 17343 bound_to 10162
  156.9025  130.5252  149.5282 LP  0  0  0  0  0  0  0  0  0  0  0  0  # atno 17370 bound_to 10713
  156.0668  130.5709  150.9304 LP  0  0  0  0  0  0  0  0  0  0  0  0  # atno 17371 bound_to 10713
  139.9199  135.0200  156.8024 LP  0  0  0  0  0  0  0  0  0  0  0  0  # atno 17394 bound_to 11000
  140.6430  133.9801  155.7717 LP  0  0  0  0  0  0  0  0  0  0  0  0  # atno 17395 bound_to 11000

$$$$
