AV-unprocessed.smi:212|AV-procd|sdf|1620|dock1
  -GOLD-   2262019553D 1   1.00000     0.00000
 Structure written by MMmdl.
 65 68  0  0  0  0  0  0  0  0  2 V2000
  147.0731  132.0345  156.7371 C   0  0  0  0  0  0  0  0  0  0  0  0
  147.2225  132.0534  155.2035 C   0  0  1  0  0  0  0  0  0  0  0  0
  146.5449  133.2807  154.5604 C   0  0  0  0  0  0  0  0  0  0  0  0
  146.6523  133.2309  153.0787 N   0  3  1  0  0  0  0  0  0  0  0  0
  145.9161  134.3300  152.3989 C   0  0  0  0  0  0  0  0  0  0  0  0
  145.2705  133.8831  151.0659 C   0  0  0  0  0  0  0  0  0  0  0  0
  144.4460  132.6030  151.2813 C   0  0  0  0  0  0  0  0  0  0  0  0
  144.3911  134.9839  150.4440 C   0  0  0  0  0  0  0  0  0  0  0  0
  146.2894  133.5532  150.1427 O   0  0  0  0  0  0  0  0  0  0  0  0
  148.0591  133.1009  152.6203 C   0  0  0  0  0  0  0  0  0  0  0  0
  148.7638  131.9029  153.2893 C   0  0  0  0  0  0  0  0  0  0  0  0
  148.6073  131.9121  154.7414 N   0  0  0  0  0  0  0  0  0  0  0  0
  149.5729  132.5814  155.4145 C   0  0  0  0  0  0  0  0  0  0  0  0
  150.5191  131.9023  156.1131 N   0  0  0  0  0  0  0  0  0  0  0  0
  151.4728  132.5713  156.7679 C   0  0  0  0  0  0  0  0  0  0  0  0
  151.6601  133.8902  156.8488 N   0  0  0  0  0  0  0  0  0  0  0  0
  150.7145  134.5740  156.1430 C   0  0  0  0  0  0  0  0  0  0  0  0
  149.6403  133.9990  155.4087 C   0  0  0  0  0  0  0  0  0  0  0  0
  148.8697  134.9961  154.8277 N   0  0  0  0  0  0  0  0  0  0  0  0
  149.4556  136.1017  155.1987 C   0  0  0  0  0  0  0  0  0  0  0  0
  150.5831  135.9425  155.9754 N   0  0  0  0  0  0  0  0  0  0  0  0
  151.4248  137.0035  156.5139 C   0  0  0  0  0  0  0  0  0  0  0  0
  151.2089  138.3893  155.8489 C   0  0  2  0  0  0  0  0  0  0  0  0
  151.8791  138.4347  154.4545 C   0  0  0  0  0  0  0  0  0  0  0  0
  153.1770  137.8784  154.4733 O   0  0  0  0  0  0  0  0  0  0  0  0
  151.6623  139.5534  156.7731 C   0  0  2  0  0  0  0  0  0  0  0  0
  150.9397  139.6112  158.1098 C   0  0  0  0  0  0  0  0  0  0  0  0
  151.2454  141.0263  158.5899 C   0  0  0  0  0  0  0  0  0  0  0  0
  151.4026  141.8093  157.4119 O   0  0  0  0  0  0  0  0  0  0  0  0
  151.3653  140.9675  156.2650 C   0  0  0  0  0  0  0  0  0  0  0  0
  146.0213  132.0220  157.0231 H   0  0  0  0  0  0  0  0  0  0  0  0
  147.5258  132.9110  157.2021 H   0  0  0  0  0  0  0  0  0  0  0  0
  147.5389  131.1472  157.1673 H   0  0  0  0  0  0  0  0  0  0  0  0
  146.7017  131.1685  154.8348 H   0  0  0  0  0  0  0  0  0  0  0  0
  145.4944  133.3080  154.8498 H   0  0  0  0  0  0  0  0  0  0  0  0
  146.9929  134.2044  154.9293 H   0  0  0  0  0  0  0  0  0  0  0  0
  145.1641  134.7505  153.0690 H   0  0  0  0  0  0  0  0  0  0  0  0
  146.6012  135.1523  152.1850 H   0  0  0  0  0  0  0  0  0  0  0  0
  143.6271  132.7746  151.9805 H   0  0  0  0  0  0  0  0  0  0  0  0
  145.0588  131.7962  151.6858 H   0  0  0  0  0  0  0  0  0  0  0  0
  144.0093  132.2465  150.3474 H   0  0  0  0  0  0  0  0  0  0  0  0
  143.5940  135.2820  151.1262 H   0  0  0  0  0  0  0  0  0  0  0  0
  143.9215  134.6426  149.5206 H   0  0  0  0  0  0  0  0  0  0  0  0
  144.9685  135.8767  150.2019 H   0  0  0  0  0  0  0  0  0  0  0  0
  146.3082  134.2132  149.4659 H   0  0  0  0  0  0  0  0  0  0  0  0
  148.0798  132.9695  151.5377 H   0  0  0  0  0  0  0  0  0  0  0  0
  148.5935  134.0272  152.8324 H   0  0  0  0  0  0  0  0  0  0  0  0
  148.3395  130.9716  152.9124 H   0  0  0  0  0  0  0  0  0  0  0  0
  149.8215  131.8887  153.0209 H   0  0  0  0  0  0  0  0  0  0  0  0
  152.1889  131.9646  157.3022 H   0  0  0  0  0  0  0  0  0  0  0  0
  149.0804  137.0716  154.9067 H   0  0  0  0  0  0  0  0  0  0  0  0
  151.2213  137.0778  157.5830 H   0  0  0  0  0  0  0  0  0  0  0  0
  152.4670  136.6938  156.4378 H   0  0  0  0  0  0  0  0  0  0  0  0
  150.1329  138.4867  155.6945 H   0  0  0  0  0  0  0  0  0  0  0  0
  151.2716  137.9207  153.7088 H   0  0  0  0  0  0  0  0  0  0  0  0
  151.9893  139.4669  154.1216 H   0  0  0  0  0  0  0  0  0  0  0  0
  153.8068  138.5804  154.4098 H   0  0  0  0  0  0  0  0  0  0  0  0
  152.7359  139.4831  156.9532 H   0  0  0  0  0  0  0  0  0  0  0  0
  149.8648  139.4943  157.9642 H   0  0  0  0  0  0  0  0  0  0  0  0
  151.2636  138.8543  158.8224 H   0  0  0  0  0  0  0  0  0  0  0  0
  150.4594  141.4247  159.2317 H   0  0  0  0  0  0  0  0  0  0  0  0
  152.1822  141.0463  159.1477 H   0  0  0  0  0  0  0  0  0  0  0  0
  152.0798  141.3035  155.5132 H   0  0  0  0  0  0  0  0  0  0  0  0
  150.3646  141.0223  155.8339 H   0  0  0  0  0  0  0  0  0  0  0  0
  146.1937  132.3773  152.7942 H   0  0  0  0  0  0  0  0  0  0  0  0
  1  2  1  0  0  0  0
  1 31  1  0  0  0  0
  1 32  1  0  0  0  0
  1 33  1  0  0  0  0
  2 12  1  0  0  0  0
  2  3  1  0  0  0  0
  2 34  1  0  0  0  0
  3  4  1  0  0  0  0
  3 35  1  0  0  0  0
  3 36  1  0  0  0  0
  4  5  1  0  0  0  0
  4 10  1  0  0  0  0
  4 65  1  0  0  0  0
  5  6  1  0  0  0  0
  5 37  1  0  0  0  0
  5 38  1  0  0  0  0
  6  7  1  0  0  0  0
  6  8  1  0  0  0  0
  6  9  1  0  0  0  0
  7 39  1  0  0  0  0
  7 40  1  0  0  0  0
  7 41  1  0  0  0  0
  8 42  1  0  0  0  0
  8 43  1  0  0  0  0
  8 44  1  0  0  0  0
  9 45  1  0  0  0  0
 10 11  1  0  0  0  0
 10 46  1  0  0  0  0
 10 47  1  0  0  0  0
 11 12  1  0  0  0  0
 11 48  1  0  0  0  0
 11 49  1  0  0  0  0
 12 13  1  0  0  0  0
 13 18  1  0  0  0  0
 13 14  2  0  0  0  0
 14 15  1  0  0  0  0
 15 16  2  0  0  0  0
 15 50  1  0  0  0  0
 16 17  1  0  0  0  0
 17 21  1  0  0  0  0
 17 18  2  0  0  0  0
 18 19  1  0  0  0  0
 19 20  2  0  0  0  0
 20 21  1  0  0  0  0
 20 51  1  0  0  0  0
 21 22  1  0  0  0  0
 22 23  1  0  0  0  0
 22 52  1  0  0  0  0
 22 53  1  0  0  0  0
 23 24  1  0  0  0  0
 23 26  1  0  0  0  0
 23 54  1  0  0  0  0
 24 25  1  0  0  0  0
 24 55  1  0  0  0  0
 24 56  1  0  0  0  0
 25 57  1  0  0  0  0
 26 30  1  0  0  0  0
 26 27  1  0  0  0  0
 26 58  1  0  0  0  0
 27 28  1  0  0  0  0
 27 59  1  0  0  0  0
 27 60  1  0  0  0  0
 28 29  1  0  0  0  0
 28 61  1  0  0  0  0
 28 62  1  0  0  0  0
 29 30  1  0  0  0  0
 30 63  1  0  0  0  0
 30 64  1  0  0  0  0
M  CHG  1   4   1
M  END
> <s_m_source_file>
AV-unprocessed.smi

> <i_m_source_file_index>
212

> <i_lp_mmshare_version>
43012

> <i_f3d_flags>
0

> <s_epik_input>
W0NIM11bQ0BASF0xW0NIMl1OKFtDSDJdQyhbQ0gzXSkoW0NIM10pW09IXSlbQ0gyXVtDSDJdTjFjKG5bY0hdbjIpYyhjMjMpbltjSF1uM1tDSDJdW0NASF0oW0NIMl1bT0hdKVtDQEBIXTRbQ0gyXVtDSDJdT1tDSDJdNA==

> <s_epik_cmdline>
J2VwaWtfcHl0aG9uJywgJy1waCcsICc3LjAnLCAnLXRuJywgJzgnLCAnLW1hJywgJzIwMCcsICctbWV0YWxfYmluZGluZycsICctaW1hZScsICc8aW5maWxlLm1hZT4nLCAnLW9tYWUnLCAnPG91dGZpbGUubWFlPic=

> <r_lp_tautomer_probability>
1

> <r_epik_Ionization_Penalty>
0.00182193

> <r_epik_Ionization_Penalty_Charging>
0.00173996

> <r_epik_Ionization_Penalty_Neutral>
8.19718e-05

> <r_epik_State_Penalty>
-0

> <r_epik_Charging_Adjusted_Penalty>
0.00173996

> <i_epik_Tot_Q>
1

> <i_epik_Tot_abs_Q>
1

> <r_epik_Metal_State_Penalty>
-0

> <b_epik_Metal_Only>
0

> <s_lp_Force_Field>
OPLS_2005

> <r_lp_Energy>
59.7923

> <b_lp_Chiralities_Consistent>
1

> <s_lp_Variant>
AV-unprocessed.smi:212-4

> <Gold.Version>
5.8.1

> <Gold.Id.Protein>
6NUR|6NUR_protein|mol2

> <Gold.PLP.Fitness>
43.6176

> <Gold.PLP.PLP>
-41.2225

> <Gold.PLP.part.hbond>
-2.6735

> <Gold.PLP.part.metal>
0.0000

> <Gold.PLP.part.buried>
-7.6934

> <Gold.PLP.part.nonpolar>
-31.3151

> <Gold.PLP.part.repulsive>
0.1924

> <Gold.PLP.ligand.clash>
0.0000

> <Gold.PLP.ligand.torsion>
1.1891

> <Gold.PLP.Chemscore.Hbond>
1.1387

> <Gold.PLP.Chemscore.CHOScore>
0.0000

> <Gold.PLP.Chemscore.Metal>
0.0000

> <Gold.Chemscore.Hbonds>
donor molecule, donor type, donor heavy atom, donor atom, acceptor molecule, acceptor atom, score
      L1  H     9    45       P1  7921  0.65
      P1  H 10752 10765       L1    25  0.15

> <Gold.PLP.Chemscore.Internal.Correction>
1.3573

> <Gold.Rescore>
     Score         DG    S(hbond)    S(metal)    S(lipo)     H(rot)  DE(clash)    DE(int)     intcor
      5.44      -8.18       0.58        0.00      86.95       3.68       0.05       2.69       ----

> <Gold.Chemscore.Fitness>
5.4389

> <Gold.Chemscore.DG>
-8.1777

> <Gold.Chemscore.ZeroCoef>
-5.4800

> <Gold.Chemscore.Hbond>
0.5834

> <Gold.Chemscore.Metal>
0.0000

> <Gold.Chemscore.Lipo>
86.9498

> <Gold.Chemscore.Internal_Hbond>
0.0000

> <Gold.Chemscore.DEClash>
0.0491

> <Gold.Chemscore.DEInternal>
2.6897

> <Gold.Chemscore.Rot>
3.6812

> <Gold.Chemscore.Internal.Correction>
   9.000000E+99

> <Gold.Chemscore.Hbonds>
donor molecule, donor type, donor heavy atom, donor atom, acceptor molecule, acceptor atom, score
      L1  H     9    45       P1  7921  0.05
      P1  H 10752 10765       L1    25  0.11

> <Gold.Chemscore.Hbond.Weighted>
-1.9485

> <Gold.Chemscore.Metal.Weighted>
-0.0000

> <Gold.Chemscore.Lipo.Weighted>
-10.1731

> <Gold.Chemscore.Internal_Hbond.Weighted>
0.0000

> <Gold.Chemscore.DEClash.Weighted>
0.0491

> <Gold.Chemscore.DEInternal.Weighted>
2.6897

> <Gold.Chemscore.Rot.Weighted>
9.4239

> <Gold.Chemscore.Internal.Correction.Weighted>
   9.000000E+99

> <Gold.Protein.RotatedTorsions>
[ 6907 6896 6895 6894 ] final  -38.40 input  -60.11 | X-H torsion
[ 7974 7965 7964 7962 ] final  120.59 input  175.53 | X-H torsion
[ 8008 7997 7996 7995 ] final  -28.98 input   59.86 | X-H torsion
[ 10167 10162 10161 10158 ] final  163.34 input  -65.29 | X-H torsion
[ 10718 10713 10712 10709 ] final -106.12 input   66.30 | X-H torsion
[ 10763 10752 10751 10750 ] final  155.15 input  -60.55 | X-H torsion
[ 11005 11000 10999 10996 ] final   46.15 input  -57.11 | X-H torsion

> <Gold.Protein.ActiveResidues>
 VAL166  LYS551  ARG553  GLY616  TRP617  ASP618  TYR619  PRO620  LYS621  CYS622 
 ASP623  PHE694  ASN695  SER759  ASP760  ASP761  ALA762  ILE779  LEU786  VAL792 
 PHE793  MET794  SER795  GLU796  ALA797  LYS798  CYS799  TRP800  GLU811  SER814 

> <Gold.Protein.RotatedAtoms>
  151.0028  134.9336  159.7963 H   0  0  0  0  0  0  0  0  0  0  0  0  # atno 6907 bound_to 6896
  152.5282  134.3131  159.9131 H   0  0  0  0  0  0  0  0  0  0  0  0  # atno 6908 bound_to 6896
  151.3136  133.4028  159.2683 H   0  0  0  0  0  0  0  0  0  0  0  0  # atno 6909 bound_to 6896
  145.1293  139.3338  143.4673 H   0  0  0  0  0  0  0  0  0  0  0  0  # atno 7974 bound_to 7965
  154.4309  140.1830  156.1176 H   0  0  0  0  0  0  0  0  0  0  0  0  # atno 8008 bound_to 7997
  156.0169  140.3345  155.6972 H   0  0  0  0  0  0  0  0  0  0  0  0  # atno 8009 bound_to 7997
  155.6032  140.0642  157.2718 H   0  0  0  0  0  0  0  0  0  0  0  0  # atno 8010 bound_to 7997
  139.4872  144.4347  151.9027 H   0  0  0  0  0  0  0  0  0  0  0  0  # atno 10167 bound_to 10162
  156.0376  130.5597  150.7636 H   0  0  0  0  0  0  0  0  0  0  0  0  # atno 10718 bound_to 10713
  154.1637  135.2808  155.3101 H   0  0  0  0  0  0  0  0  0  0  0  0  # atno 10763 bound_to 10752
  154.6127  135.5493  153.7494 H   0  0  0  0  0  0  0  0  0  0  0  0  # atno 10764 bound_to 10752
  153.0185  135.6419  154.1778 H   0  0  0  0  0  0  0  0  0  0  0  0  # atno 10765 bound_to 10752
  140.1395  134.4602  155.8460 H   0  0  0  0  0  0  0  0  0  0  0  0  # atno 11005 bound_to 11000
  146.3515  140.1285  142.8598 LP  0  0  0  0  0  0  0  0  0  0  0  0  # atno 17320 bound_to 7965
  145.0653  140.9117  143.4914 LP  0  0  0  0  0  0  0  0  0  0  0  0  # atno 17321 bound_to 7965
  140.3796  144.2753  150.5910 LP  0  0  0  0  0  0  0  0  0  0  0  0  # atno 17342 bound_to 10162
  140.5245  143.2257  151.8336 LP  0  0  0  0  0  0  0  0  0  0  0  0  # atno 17343 bound_to 10162
  157.5149  131.0928  151.0152 LP  0  0  0  0  0  0  0  0  0  0  0  0  # atno 17370 bound_to 10713
  157.0498  130.5782  149.5368 LP  0  0  0  0  0  0  0  0  0  0  0  0  # atno 17371 bound_to 10713
  141.2183  133.6827  156.7220 LP  0  0  0  0  0  0  0  0  0  0  0  0  # atno 17394 bound_to 11000
  140.2740  134.8369  157.3873 LP  0  0  0  0  0  0  0  0  0  0  0  0  # atno 17395 bound_to 11000

$$$$
