#       Name:                AV-unprocessed.smi:290
#       Creating user name   scv26
#       Creation time:       Thu Mar 26 22:09:30 2020


#       File generated by GOLD software.
#

@<TRIPOS>MOLECULE
AV-unprocessed.smi:290
    69    72     1
SMALL
NO_CHARGES


@<TRIPOS>ATOM
      1 ****        -6.4214  -2.3724   2.5281 C.3            1 S1                 0.0000
      2 ****        -5.8861  -1.3361   1.5246 C.3            1 S1                 0.0000
      3 ****        -6.4843  -0.0859   1.8731 O.3            1 S1                 0.0000
      4 ****        -5.4889   0.9096   2.0667 C.3            1 S1                 0.0000
      5 ****        -4.2480   0.1203   2.4545 C.3            1 S1                 0.0000
      6 ****        -4.3544  -1.1045   1.5536 C.3            1 S1                 0.0000
      7 ****        -3.6455  -2.1769   2.1504 O.3            1 S1                 0.0000
      8 ****        -3.7960  -0.8893   0.1215 C.3            1 S1                 0.0000
      9 ****        -2.4000  -0.4810   0.0795 N.pl3          1 S1                 0.0000
     10 ****        -1.2956  -1.3019   0.1319 C.2            1 S1                 0.0000
     11 ****        -0.1434  -0.6908   0.0715 N.2            1 S1                 0.0000
     12 ****        -0.4804   0.6530  -0.0390 C.ar           1 S1                 0.0000
     13 ****         0.2660   1.8603  -0.1468 C.ar           1 S1                 0.0000
     14 ****         1.6149   1.9317  -0.1648 N.3            1 S1                 0.0000
     15 ****         2.2739   1.4312   1.0326 C.3            1 S1                 0.0000
     16 ****         3.3121   0.4211   0.5580 C.3            1 S1                 0.0000
     17 ****         3.6268   0.8429  -0.8840 C.3            1 S1                 0.0000
     18 ****         4.1955  -0.3025  -1.6590 N.4            1 S1                 1.0000
     19 ****         4.1002  -0.1777  -3.1333 C.3            1 S1                 0.0000
     20 ****         5.5781  -0.6529  -1.2331 C.3            1 S1                 0.0000
     21 ****         5.8365  -2.1665  -1.3120 C.3            1 S1                 0.0000
     22 ****         5.0915  -2.8377  -0.3178 O.3            1 S1                 0.0000
     23 ****         2.2490   1.3696  -1.3566 C.3            1 S1                 0.0000
     24 ****         2.3009   2.4488  -2.4579 C.3            1 S1                 0.0000
     25 ****        -0.4174   3.0261  -0.2455 N.ar           1 S1                 0.0000
     26 ****        -1.7541   3.0180  -0.2401 C.ar           1 S1                 0.0000
     27 ****        -2.5827   1.9754  -0.1457 N.ar           1 S1                 0.0000
     28 ****        -1.8952   0.8016  -0.0442 C.ar           1 S1                 0.0000
     29 ****         4.3386   1.6708  -0.8736 H              1 S1                 0.0000
     30 ****         1.6517   0.5280  -1.7105 H              1 S1                 0.0000
     31 ****        -6.0456  -3.3714   2.3065 H              1 S1                 0.0000
     32 ****        -7.5100  -2.4188   2.4924 H              1 S1                 0.0000
     33 ****        -6.1344  -2.1222   3.5500 H              1 S1                 0.0000
     34 ****        -6.2147  -1.6192   0.5237 H              1 S1                 0.0000
     35 ****        -5.3308   1.4505   1.1329 H              1 S1                 0.0000
     36 ****        -5.7859   1.6287   2.8302 H              1 S1                 0.0000
     37 ****        -3.3251   0.6884   2.3469 H              1 S1                 0.0000
     38 ****        -4.3290  -0.1713   3.5030 H              1 S1                 0.0000
     39 ****        -2.7389  -1.9252   2.2359 H              1 S1                 0.0000
     40 ****        -3.8968  -1.8073  -0.4592 H              1 S1                 0.0000
     41 ****        -4.3839  -0.1384  -0.4076 H              1 S1                 0.0000
     42 ****        -1.3730  -2.3762   0.2195 H              1 S1                 0.0000
     43 ****         2.7646   2.2733   1.5216 H              1 S1                 0.0000
     44 ****         1.5865   0.9895   1.7560 H              1 S1                 0.0000
     45 ****         4.1851   0.4019   1.2102 H              1 S1                 0.0000
     46 ****         2.8688  -0.5760   0.5666 H              1 S1                 0.0000
     47 ****         4.6044   0.7237  -3.4831 H              1 S1                 0.0000
     48 ****         3.0618  -0.1579  -3.4623 H              1 S1                 0.0000
     49 ****         4.5628  -1.0289  -3.6319 H              1 S1                 0.0000
     50 ****         6.2949  -0.1165  -1.8568 H              1 S1                 0.0000
     51 ****         5.7801  -0.3227  -0.2144 H              1 S1                 0.0000
     52 ****         5.5860  -2.5722  -2.2918 H              1 S1                 0.0000
     53 ****         6.8936  -2.3739  -1.1437 H              1 S1                 0.0000
     54 ****         5.4232  -2.5874   0.5315 H              1 S1                 0.0000
     55 ****         2.7385   2.0929  -3.3870 H              1 S1                 0.0000
     56 ****         2.8813   3.3129  -2.1330 H              1 S1                 0.0000
     57 ****         1.2991   2.8031  -2.7022 H              1 S1                 0.0000
     58 ****        -2.2278   3.9851  -0.3238 H              1 S1                 0.0000
     59 ****         3.6229  -1.0979  -1.4127 H              1 S1                 0.0000
     60 ****        -7.0072  -0.1963   2.7184 LP             1 S1                 0.0000
     61 ****        -7.0973   0.2014   1.1371 LP             1 S1                 0.0000
     62 ****        -3.7169  -2.9909   1.5740 LP             1 S1                 0.0000
     63 ****        -4.0279  -2.3732   3.0533 LP             1 S1                 0.0000
     64 ****         0.7704  -1.0960   0.0985 LP             1 S1                 0.0000
     65 ****         1.7570   2.9212  -0.1914 LP             1 S1                 0.0000
     66 ****         5.1850  -3.8261  -0.4374 LP             1 S1                 0.0000
     67 ****         4.1273  -2.5829  -0.3907 LP             1 S1                 0.0000
     68 ****         0.0776   3.8916  -0.3223 LP             1 S1                 0.0000
     69 ****        -3.5802   2.0460  -0.1490 LP             1 S1                 0.0000
@<TRIPOS>BOND
    1    1    2 1     
    2    1   31 1     
    3    1   32 1     
    4    1   33 1     
    5    2    6 1     
    6    2    3 1     
    7    2   34 1     
    8    3    4 1     
    9    4    5 1     
   10    4   35 1     
   11    4   36 1     
   12    5    6 1     
   13    5   37 1     
   14    5   38 1     
   15    6    7 1     
   16    6    8 1     
   17    7   39 1     
   18    8    9 1     
   19    8   40 1     
   20    8   41 1     
   21    9   28 1     
   22    9   10 1     
   23   10   11 2     
   24   10   42 1     
   25   11   12 1     
   26   12   28 ar    
   27   12   13 ar    
   28   13   14 1     
   29   13   25 ar    
   30   14   23 1     
   31   14   15 1     
   32   15   16 1     
   33   15   43 1     
   34   15   44 1     
   35   16   17 1     
   36   16   45 1     
   37   16   46 1     
   38   17   29 1     
   39   17   18 1     
   40   17   23 1     
   41   18   19 1     
   42   18   20 1     
   43   18   59 1     
   44   19   47 1     
   45   19   48 1     
   46   19   49 1     
   47   20   21 1     
   48   20   50 1     
   49   20   51 1     
   50   21   22 1     
   51   21   52 1     
   52   21   53 1     
   53   22   54 1     
   54   23   30 1     
   55   23   24 1     
   56   24   55 1     
   57   24   56 1     
   58   24   57 1     
   59   25   26 ar    
   60   26   27 ar    
   61   26   58 1     
   62   27   28 ar    
   63    3   60 1     
   64    3   61 1     
   65    7   62 1     
   66    7   63 1     
   67   11   64 1     
   68   14   65 1     
   69   22   66 1     
   70   22   67 1     
   71   25   68 1     
   72   27   69 1     
@<TRIPOS>SUBSTRUCTURE
      1 S1             1
@<TRIPOS>SET
LONE_PAIRS      STATIC     ATOMS    <user>   **** ""
10 60 61 62 63 64 65 66 67 68 69
DONOR_HYDROGENS      STATIC     ATOMS    <user>   **** ""
3 39 59 54
ATOM$BLUE        STATIC     ATOMS    COLORGROUP SYSTEM
10 60 61 62 63 64 65 66 67 68 69
ATOM$RED        STATIC     ATOMS    COLORGROUP SYSTEM
3 39 59 54
