#       Name:                AV-unprocessed.smi:311
#       Creating user name   scv26
#       Creation time:       Thu Mar 26 22:20:07 2020


#       File generated by GOLD software.
#

@<TRIPOS>MOLECULE
AV-unprocessed.smi:311
    49    51     1
SMALL
NO_CHARGES


@<TRIPOS>ATOM
      1 ****        -2.6225   4.5567  -1.1022 C.3            1 S1                 0.0000
      2 ****        -3.0531   3.1522  -1.4152 C.2            1 S1                 0.0000
      3 ****        -4.3359   2.8347  -1.3682 N.2            1 S1                 0.0000
      4 ****        -4.4076   1.4782  -1.6994 O.3            1 S1                 0.0000
      5 ****        -3.1502   1.0273  -1.9382 C.2            1 S1                 0.0000
      6 ****        -3.0148  -0.4132  -2.3007 C.3            1 S1                 0.0000
      7 ****        -2.2422   2.0378  -1.7753 C.2            1 S1                 0.0000
      8 ****        -0.7431   1.9964  -1.9302 C.3            1 S1                 0.0000
      9 ****        -0.0846   1.7210  -0.5782 C.2            1 S1                 0.0000
     10 ****         0.6113   2.5840  -0.0444 O.2            1 S1                 0.0000
     11 ****        -0.3026   0.5100  -0.0408 N.am           1 S1                 0.0000
     12 ****         0.2105   0.0491   1.2472 C.3            1 S1                 0.0000
     13 ****        -0.7265  -0.9599   1.9383 C.3            1 S1                 0.0000
     14 ****         0.2120  -2.0150   2.5331 C.3            1 S1                 0.0000
     15 ****         1.3135  -2.0569   1.5645 N.4            1 S1                 1.0000
     16 ****         2.5427  -2.7933   1.9231 C.3            1 S1                 0.0000
     17 ****         3.4626  -2.8412   0.6836 C.3            1 S1                 0.0000
     18 ****         3.7072  -1.4398   0.0788 C.3            1 S1                 0.0000
     19 ****         2.3854  -0.6756  -0.1527 C.3            1 S1                 0.0000
     20 ****         1.5792  -0.6660   1.1582 C.3            1 S1                 0.0000
     21 ****        -1.7824   4.5613  -0.4074 H              1 S1                 0.0000
     22 ****        -3.4284   5.1350  -0.6486 H              1 S1                 0.0000
     23 ****        -2.3081   5.0778  -2.0065 H              1 S1                 0.0000
     24 ****        -2.1775  -0.5670  -2.9814 H              1 S1                 0.0000
     25 ****        -3.9172  -0.7796  -2.7907 H              1 S1                 0.0000
     26 ****        -2.8426  -1.0186  -1.4108 H              1 S1                 0.0000
     27 ****        -0.4331   1.2246  -2.6355 H              1 S1                 0.0000
     28 ****        -0.3624   2.9380  -2.3283 H              1 S1                 0.0000
     29 ****        -0.8892  -0.1314  -0.5550 H              1 S1                 0.0000
     30 ****         0.3181   0.9089   1.9118 H              1 S1                 0.0000
     31 ****        -1.3615  -0.4947   2.6930 H              1 S1                 0.0000
     32 ****        -1.3813  -1.4338   1.2051 H              1 S1                 0.0000
     33 ****         0.5875  -1.6913   3.5053 H              1 S1                 0.0000
     34 ****        -0.2669  -2.9876   2.6513 H              1 S1                 0.0000
     35 ****         3.0427  -2.3066   2.7619 H              1 S1                 0.0000
     36 ****         2.2863  -3.8048   2.2404 H              1 S1                 0.0000
     37 ****         4.4137  -3.3082   0.9414 H              1 S1                 0.0000
     38 ****         3.0053  -3.4784  -0.0744 H              1 S1                 0.0000
     39 ****         4.3409  -0.8642   0.7547 H              1 S1                 0.0000
     40 ****         4.2588  -1.5273  -0.8578 H              1 S1                 0.0000
     41 ****         2.6010   0.3423  -0.4788 H              1 S1                 0.0000
     42 ****         1.8121  -1.1516  -0.9494 H              1 S1                 0.0000
     43 ****         2.2067  -0.2150   1.9302 H              1 S1                 0.0000
     44 ****         0.9340  -2.5164   0.7490 H              1 S1                 0.0000
     45 ****        -5.0985   3.4407  -1.1421 LP             1 S1                 0.0000
     46 ****        -4.9697   1.3599  -2.5180 LP             1 S1                 0.0000
     47 ****        -4.8113   0.9665  -0.9410 LP             1 S1                 0.0000
     48 ****         0.7466   3.4665  -0.4949 LP             1 S1                 0.0000
     49 ****         1.0416   2.4030   0.8399 LP             1 S1                 0.0000
@<TRIPOS>BOND
    1    1    2 1     
    2    1   21 1     
    3    1   22 1     
    4    1   23 1     
    5    2    7 1     
    6    2    3 2     
    7    3    4 1     
    8    4    5 1     
    9    5    6 1     
   10    5    7 2     
   11    6   24 1     
   12    6   25 1     
   13    6   26 1     
   14    7    8 1     
   15    8    9 1     
   16    8   27 1     
   17    8   28 1     
   18    9   10 2     
   19    9   11 am    
   20   11   12 1     
   21   11   29 1     
   22   12   20 1     
   23   12   13 1     
   24   12   30 1     
   25   13   14 1     
   26   13   31 1     
   27   13   32 1     
   28   14   15 1     
   29   14   33 1     
   30   14   34 1     
   31   15   20 1     
   32   15   16 1     
   33   15   44 1     
   34   16   17 1     
   35   16   35 1     
   36   16   36 1     
   37   17   18 1     
   38   17   37 1     
   39   17   38 1     
   40   18   19 1     
   41   18   39 1     
   42   18   40 1     
   43   19   20 1     
   44   19   41 1     
   45   19   42 1     
   46   20   43 1     
   47    3   45 1     
   48    4   46 1     
   49    4   47 1     
   50   10   48 1     
   51   10   49 1     
@<TRIPOS>SUBSTRUCTURE
      1 S1             1
@<TRIPOS>SET
LONE_PAIRS      STATIC     ATOMS    <user>   **** ""
5 45 46 47 48 49
DONOR_HYDROGENS      STATIC     ATOMS    <user>   **** ""
2 29 44
ATOM$BLUE        STATIC     ATOMS    COLORGROUP SYSTEM
5 45 46 47 48 49
ATOM$RED        STATIC     ATOMS    COLORGROUP SYSTEM
2 29 44
