AV-unprocessed.smi:2030|AV-procd|sdf|8225|dock2
  -GOLD-   2272010493D 1   1.00000     0.00000
 Structure written by MMmdl.
 36 37  0  0  0  0  0  0  0  0  2 V2000
  152.1652  138.0734  154.3669 C   0  0  0  0  0  0  0  0  0  0  0  0
  151.1661  139.0540  154.7869 N   0  0  0  0  0  0  0  0  0  0  0  0
  149.9713  138.9956  154.0987 N   0  0  0  0  0  0  0  0  0  0  0  0
  149.0761  139.9285  154.1933 C   0  0  0  0  0  0  0  0  0  0  0  0
  147.8093  139.8261  153.4193 C   0  0  0  0  0  0  0  0  0  0  0  0
  146.9595  140.7161  153.4674 O   0  0  0  0  0  0  0  0  0  0  0  0
  147.6585  138.7137  152.6771 N   0  0  0  0  0  0  0  0  0  0  0  0
  146.5016  138.4150  151.8420 C   0  0  0  0  0  0  0  0  0  0  0  0
  145.5197  137.4682  152.5520 C   0  0  0  0  0  0  0  0  0  0  0  0
  145.4049  136.1294  151.8501 C   0  0  0  0  0  0  0  0  0  0  0  0
  144.1703  135.6279  151.3838 C   0  0  0  0  0  0  0  0  0  0  0  0
  144.1352  134.3711  150.7441 C   0  0  0  0  0  0  0  0  0  0  0  0
  145.3332  133.6439  150.5845 C   0  0  0  0  0  0  0  0  0  0  0  0
  146.5379  134.1922  151.0700 C   0  0  0  0  0  0  0  0  0  0  0  0
  146.5304  135.3987  151.6781 N   0  3  0  0  0  0  0  0  0  0  0  0
  149.3211  141.1451  155.0642 C   0  0  0  0  0  0  0  0  0  0  0  0
  150.2870  140.8405  156.2264 C   0  0  0  0  0  0  0  0  0  0  0  0
  151.4298  139.9133  155.8028 C   0  0  0  0  0  0  0  0  0  0  0  0
  152.5066  139.9603  156.3974 O   0  0  0  0  0  0  0  0  0  0  0  0
  152.4188  137.4059  155.1917 H   0  0  0  0  0  0  0  0  0  0  0  0
  153.0781  138.5716  154.0376 H   0  0  0  0  0  0  0  0  0  0  0  0
  151.8111  137.4560  153.5397 H   0  0  0  0  0  0  0  0  0  0  0  0
  148.4044  138.0323  152.6901 H   0  0  0  0  0  0  0  0  0  0  0  0
  146.0033  139.3425  151.5549 H   0  0  0  0  0  0  0  0  0  0  0  0
  146.8590  137.9563  150.9197 H   0  0  0  0  0  0  0  0  0  0  0  0
  145.8371  137.3064  153.5830 H   0  0  0  0  0  0  0  0  0  0  0  0
  144.5276  137.9185  152.6040 H   0  0  0  0  0  0  0  0  0  0  0  0
  143.2607  136.1961  151.5148 H   0  0  0  0  0  0  0  0  0  0  0  0
  143.2004  133.9698  150.3809 H   0  0  0  0  0  0  0  0  0  0  0  0
  145.3278  132.6797  150.0976 H   0  0  0  0  0  0  0  0  0  0  0  0
  147.4994  133.7058  150.9916 H   0  0  0  0  0  0  0  0  0  0  0  0
  149.7219  141.9520  154.4497 H   0  0  0  0  0  0  0  0  0  0  0  0
  148.3845  141.5144  155.4836 H   0  0  0  0  0  0  0  0  0  0  0  0
  150.6883  141.7667  156.6390 H   0  0  0  0  0  0  0  0  0  0  0  0
  149.7455  140.3453  157.0332 H   0  0  0  0  0  0  0  0  0  0  0  0
  147.4137  135.7758  152.0233 H   0  0  0  0  0  0  0  0  0  0  0  0
  1  2  1  0  0  0  0
  1 20  1  0  0  0  0
  1 21  1  0  0  0  0
  1 22  1  0  0  0  0
  2 18  1  0  0  0  0
  2  3  1  0  0  0  0
  3  4  2  0  0  0  0
  4  5  1  0  0  0  0
  4 16  1  0  0  0  0
  5  6  2  0  0  0  0
  5  7  1  0  0  0  0
  7  8  1  0  0  0  0
  7 23  1  0  0  0  0
  8  9  1  0  0  0  0
  8 24  1  0  0  0  0
  8 25  1  0  0  0  0
  9 10  1  0  0  0  0
  9 26  1  0  0  0  0
  9 27  1  0  0  0  0
 10 15  1  0  0  0  0
 10 11  2  0  0  0  0
 11 12  1  0  0  0  0
 11 28  1  0  0  0  0
 12 13  2  0  0  0  0
 12 29  1  0  0  0  0
 13 14  1  0  0  0  0
 13 30  1  0  0  0  0
 14 15  2  0  0  0  0
 14 31  1  0  0  0  0
 15 36  1  0  0  0  0
 16 17  1  0  0  0  0
 16 32  1  0  0  0  0
 16 33  1  0  0  0  0
 17 18  1  0  0  0  0
 17 34  1  0  0  0  0
 17 35  1  0  0  0  0
 18 19  2  0  0  0  0
M  CHG  1  15   1
M  END
> <s_m_source_file>
AV-unprocessed.smi

> <i_m_source_file_index>
2030

> <i_lp_mmshare_version>
43012

> <i_f3d_flags>
0

> <s_epik_input>
Tz1DMVtDSDJdW0NIMl1DKD1OTjFbQ0gzXSlDKD1PKVtOSF1bQ0gyXVtDSDJdYzJbY0hdW2NIXVtjSF1bY0hdbjI=

> <s_epik_cmdline>
J2VwaWtfcHl0aG9uJywgJy1waCcsICc3LjAnLCAnLXRuJywgJzgnLCAnLW1hJywgJzIwMCcsICctbWV0YWxfYmluZGluZycsICctaW1hZScsICc8aW5maWxlLm1hZT4nLCAnLW9tYWUnLCAnPG91dGZpbGUubWFlPic=

> <r_epik_Ionization_Penalty>
2.09642

> <r_epik_Ionization_Penalty_Charging>
2.0963

> <r_epik_Ionization_Penalty_Neutral>
0.00011851

> <r_epik_State_Penalty>
2.23213

> <r_epik_Charging_Adjusted_Penalty>
4.32843

> <i_epik_Tot_Q>
1

> <i_epik_Tot_abs_Q>
1

> <r_epik_Metal_State_Penalty>
2.41268

> <b_epik_Metal_Only>
0

> <s_epik_Chemistry_Notes>
This compound has an imine and may undergo hydrolysis.

> <s_lp_Force_Field>
OPLS_2005

> <r_lp_Energy>
21.0672

> <b_lp_Chiralities_Consistent>
1

> <s_lp_Variant>
AV-unprocessed.smi:2030-2

> <Gold.Version>
5.8.1

> <Gold.Id.Protein>
6NUR|6NUR_protein|mol2

> <Gold.PLP.Fitness>
48.3149

> <Gold.PLP.PLP>
-37.8575

> <Gold.PLP.part.hbond>
-4.0000

> <Gold.PLP.part.metal>
0.0000

> <Gold.PLP.part.buried>
-1.5974

> <Gold.PLP.part.nonpolar>
-32.9762

> <Gold.PLP.part.repulsive>
0.5132

> <Gold.PLP.ligand.clash>
0.0000

> <Gold.PLP.ligand.torsion>
0.5278

> <Gold.PLP.Chemscore.Hbond>
3.8320

> <Gold.PLP.Chemscore.CHOScore>
0.0000

> <Gold.PLP.Chemscore.Metal>
0.0000

> <Gold.Chemscore.Hbonds>
donor molecule, donor type, donor heavy atom, donor atom, acceptor molecule, acceptor atom, score
      L1  H     7    23       P1  7948  0.82
      L1  H    15    36       P1  7948  2.00
      P1  H  7997  8009       L1    19  1.00

> <Gold.PLP.Chemscore.Internal.Correction>
0.0170

> <Gold.Rescore>
     Score         DG    S(hbond)    S(metal)    S(lipo)     H(rot)  DE(clash)    DE(int)     intcor
     18.03     -19.02       2.74        0.00      70.79       1.52       0.46       0.53       ----

> <Gold.Chemscore.Fitness>
18.0289

> <Gold.Chemscore.DG>
-19.0227

> <Gold.Chemscore.ZeroCoef>
-5.4800

> <Gold.Chemscore.Hbond>
2.7365

> <Gold.Chemscore.Metal>
0.0000

> <Gold.Chemscore.Lipo>
70.7940

> <Gold.Chemscore.Internal_Hbond>
0.0000

> <Gold.Chemscore.DEClash>
0.4632

> <Gold.Chemscore.DEInternal>
0.5306

> <Gold.Chemscore.Rot>
1.5157

> <Gold.Chemscore.Internal.Correction>
   9.000000E+99

> <Gold.Chemscore.Hbonds>
donor molecule, donor type, donor heavy atom, donor atom, acceptor molecule, acceptor atom, score
      L1  H     7    23       P1  7948  0.77
      L1  H    15    36       P1  7948  0.94
      P1  H  7997  8009       L1    19  1.00

> <Gold.Chemscore.Hbond.Weighted>
-9.1399

> <Gold.Chemscore.Metal.Weighted>
-0.0000

> <Gold.Chemscore.Lipo.Weighted>
-8.2829

> <Gold.Chemscore.Internal_Hbond.Weighted>
0.0000

> <Gold.Chemscore.DEClash.Weighted>
0.4632

> <Gold.Chemscore.DEInternal.Weighted>
0.5306

> <Gold.Chemscore.Rot.Weighted>
3.8801

> <Gold.Chemscore.Internal.Correction.Weighted>
   9.000000E+99

> <Gold.Protein.RotatedTorsions>
[ 6907 6896 6895 6894 ] final -143.73 input  -60.11 | X-H torsion
[ 7974 7965 7964 7962 ] final  101.63 input  175.53 | X-H torsion
[ 8008 7997 7996 7995 ] final -161.04 input   59.86 | X-H torsion
[ 10167 10162 10161 10158 ] final   82.67 input  -65.29 | X-H torsion
[ 10718 10713 10712 10709 ] final -102.24 input   66.30 | X-H torsion
[ 10763 10752 10751 10750 ] final  117.71 input  -60.55 | X-H torsion
[ 11005 11000 10999 10996 ] final  152.88 input  -57.11 | X-H torsion

> <Gold.Protein.ActiveResidues>
 VAL166  LYS551  ARG553  GLY616  TRP617  ASP618  TYR619  PRO620  LYS621  CYS622 
 ASP623  PHE694  ASN695  SER759  ASP760  ASP761  ALA762  ILE779  LEU786  VAL792 
 PHE793  MET794  SER795  GLU796  ALA797  LYS798  CYS799  TRP800  GLU811  SER814 

> <Gold.Protein.RotatedAtoms>
  151.1045  133.5219  159.2608 H   0  0  0  0  0  0  0  0  0  0  0  0  # atno 6907 bound_to 6896
  151.2037  135.0452  159.8892 H   0  0  0  0  0  0  0  0  0  0  0  0  # atno 6908 bound_to 6896
  152.5445  134.0870  159.8313 H   0  0  0  0  0  0  0  0  0  0  0  0  # atno 6909 bound_to 6896
  145.3698  139.2400  143.3461 H   0  0  0  0  0  0  0  0  0  0  0  0  # atno 7974 bound_to 7965
  155.7863  140.0872  157.2032 H   0  0  0  0  0  0  0  0  0  0  0  0  # atno 8008 bound_to 7997
  154.3987  140.1498  156.3169 H   0  0  0  0  0  0  0  0  0  0  0  0  # atno 8009 bound_to 7997
  155.8603  140.3430  155.5754 H   0  0  0  0  0  0  0  0  0  0  0  0  # atno 8010 bound_to 7997
  139.9264  144.6180  150.8388 H   0  0  0  0  0  0  0  0  0  0  0  0  # atno 10167 bound_to 10162
  156.0222  130.5411  150.7080 H   0  0  0  0  0  0  0  0  0  0  0  0  # atno 10718 bound_to 10713
  153.5565  135.3529  155.2781 H   0  0  0  0  0  0  0  0  0  0  0  0  # atno 10763 bound_to 10752
  154.8700  135.4126  154.2878 H   0  0  0  0  0  0  0  0  0  0  0  0  # atno 10764 bound_to 10752
  153.3615  135.7060  153.6777 H   0  0  0  0  0  0  0  0  0  0  0  0  # atno 10765 bound_to 10752
  140.1347  134.8778  157.2251 H   0  0  0  0  0  0  0  0  0  0  0  0  # atno 11005 bound_to 11000
  146.2890  140.4347  142.8746 LP  0  0  0  0  0  0  0  0  0  0  0  0  # atno 17320 bound_to 7965
  144.8585  140.7105  143.6123 LP  0  0  0  0  0  0  0  0  0  0  0  0  # atno 17321 bound_to 7965
  140.7649  143.3261  151.2514 LP  0  0  0  0  0  0  0  0  0  0  0  0  # atno 17342 bound_to 10162
  139.6818  143.9841  152.2813 LP  0  0  0  0  0  0  0  0  0  0  0  0  # atno 17343 bound_to 10162
  157.4725  131.0894  151.0626 LP  0  0  0  0  0  0  0  0  0  0  0  0  # atno 17370 bound_to 10713
  157.1083  130.6011  149.5476 LP  0  0  0  0  0  0  0  0  0  0  0  0  # atno 17371 bound_to 10713
  140.2797  134.3364  155.7347 LP  0  0  0  0  0  0  0  0  0  0  0  0  # atno 17394 bound_to 11000
  141.2176  133.7471  156.9345 LP  0  0  0  0  0  0  0  0  0  0  0  0  # atno 17395 bound_to 11000

$$$$
