AV-unprocessed.smi:800|AV-procd|sdf|3787|dock7
  -GOLD-   22720 1223D 1   1.00000     0.00000
 Structure written by MMmdl.
 36 37  0  0  0  0  0  0  0  0  1 V2000
  155.0075  138.2987  162.6660 C   0  0  0  0  0  0  0  0  0  0  0  0
  155.4992  139.7260  162.3926 C   0  0  0  0  0  0  0  0  0  0  0  0
  155.7332  140.5049  163.6963 C   0  0  0  0  0  0  0  0  0  0  0  0
  154.5282  140.4199  161.5529 N   0  0  0  0  0  0  0  0  0  0  0  0
  154.1112  140.0139  160.3427 C   0  0  0  0  0  0  0  0  0  0  0  0
  154.4804  138.9673  159.8087 O   0  0  0  0  0  0  0  0  0  0  0  0
  153.0818  140.8877  159.6856 C   0  0  0  0  0  0  0  0  0  0  0  0
  152.6654  140.5039  158.4571 N   0  0  0  0  0  0  0  0  0  0  0  0
  151.7523  141.2517  157.8252 C   0  0  0  0  0  0  0  0  0  0  0  0
  151.3354  140.8304  156.5558 N   0  0  0  0  0  0  0  0  0  0  0  0
  150.4175  141.6249  155.7353 C   0  0  0  0  0  0  0  0  0  0  0  0
  149.5350  140.7152  154.8640 C   0  0  0  0  0  0  0  0  0  0  0  0
  150.3536  139.8525  154.0840 O   0  0  0  0  0  0  0  0  0  0  0  0
  151.1436  139.0006  154.9039 C   0  0  0  0  0  0  0  0  0  0  0  0
  152.0883  139.8453  155.7754 C   0  0  0  0  0  0  0  0  0  0  0  0
  151.2117  142.3729  158.3176 N   0  0  0  0  0  0  0  0  0  0  0  0
  151.6200  142.7852  159.5355 C   0  0  0  0  0  0  0  0  0  0  0  0
  152.5765  142.0718  160.2833 C   0  0  0  0  0  0  0  0  0  0  0  0
  153.0916  142.6774  161.8212 Cl  0  0  0  0  0  0  0  0  0  0  0  0
  155.7252  137.7465  163.2733 H   0  0  0  0  0  0  0  0  0  0  0  0
  154.8705  137.7457  161.7361 H   0  0  0  0  0  0  0  0  0  0  0  0
  154.0547  138.3004  163.1968 H   0  0  0  0  0  0  0  0  0  0  0  0
  156.4465  139.6538  161.8554 H   0  0  0  0  0  0  0  0  0  0  0  0
  156.4639  139.9990  164.3277 H   0  0  0  0  0  0  0  0  0  0  0  0
  154.8111  140.6061  164.2696 H   0  0  0  0  0  0  0  0  0  0  0  0
  156.1123  141.5077  163.4969 H   0  0  0  0  0  0  0  0  0  0  0  0
  154.1489  141.2835  161.9136 H   0  0  0  0  0  0  0  0  0  0  0  0
  149.7646  142.2545  156.3390 H   0  0  0  0  0  0  0  0  0  0  0  0
  151.0043  142.2927  155.1041 H   0  0  0  0  0  0  0  0  0  0  0  0
  148.8525  140.1288  155.4817 H   0  0  0  0  0  0  0  0  0  0  0  0
  148.9201  141.3185  154.1963 H   0  0  0  0  0  0  0  0  0  0  0  0
  150.5007  138.3725  155.5229 H   0  0  0  0  0  0  0  0  0  0  0  0
  151.7207  138.3314  154.2660 H   0  0  0  0  0  0  0  0  0  0  0  0
  152.8048  140.3739  155.1459 H   0  0  0  0  0  0  0  0  0  0  0  0
  152.6623  139.1698  156.4087 H   0  0  0  0  0  0  0  0  0  0  0  0
  151.1844  143.6987  159.9124 H   0  0  0  0  0  0  0  0  0  0  0  0
  1  2  1  0  0  0  0
  1 20  1  0  0  0  0
  1 21  1  0  0  0  0
  1 22  1  0  0  0  0
  2  3  1  0  0  0  0
  2  4  1  0  0  0  0
  2 23  1  0  0  0  0
  3 24  1  0  0  0  0
  3 25  1  0  0  0  0
  3 26  1  0  0  0  0
  4  5  1  0  0  0  0
  4 27  1  0  0  0  0
  5  6  2  0  0  0  0
  5  7  1  0  0  0  0
  7 18  1  0  0  0  0
  7  8  2  0  0  0  0
  8  9  1  0  0  0  0
  9 10  1  0  0  0  0
  9 16  2  0  0  0  0
 10 15  1  0  0  0  0
 10 11  1  0  0  0  0
 11 12  1  0  0  0  0
 11 28  1  0  0  0  0
 11 29  1  0  0  0  0
 12 13  1  0  0  0  0
 12 30  1  0  0  0  0
 12 31  1  0  0  0  0
 13 14  1  0  0  0  0
 14 15  1  0  0  0  0
 14 32  1  0  0  0  0
 14 33  1  0  0  0  0
 15 34  1  0  0  0  0
 15 35  1  0  0  0  0
 16 17  1  0  0  0  0
 17 18  2  0  0  0  0
 17 36  1  0  0  0  0
 18 19  1  0  0  0  0
M  END
> <s_m_source_file>
AV-unprocessed.smi

> <i_m_source_file_index>
800

> <i_lp_mmshare_version>
43012

> <i_f3d_flags>
0

> <s_epik_input>
W0NIM11bQ0hdKFtDSDNdKVtOSF1DKD1PKWMxbmMobltjSF1jMUNsKU4yW0NIMl1bQ0gyXU9bQ0gyXVtDSDJdMg==

> <s_epik_cmdline>
J2VwaWtfcHl0aG9uJywgJy1waCcsICc3LjAnLCAnLXRuJywgJzgnLCAnLW1hJywgJzIwMCcsICctbWV0YWxfYmluZGluZycsICctaW1hZScsICc8aW5maWxlLm1hZT4nLCAnLW9tYWUnLCAnPG91dGZpbGUubWFlPic=

> <r_lp_tautomer_probability>
1

> <r_epik_Ionization_Penalty>
1.24434e-05

> <r_epik_Ionization_Penalty_Charging>
0

> <r_epik_Ionization_Penalty_Neutral>
1.24434e-05

> <r_epik_State_Penalty>
-0

> <r_epik_Charging_Adjusted_Penalty>
0

> <i_epik_Tot_Q>
0

> <i_epik_Tot_abs_Q>
0

> <r_epik_Metal_State_Penalty>
0.0120585

> <b_epik_Metal_Only>
0

> <s_lp_Force_Field>
OPLS_2005

> <r_lp_Energy>
14.0321

> <b_lp_Chiralities_Consistent>
1

> <s_lp_Variant>
AV-unprocessed.smi:800-1

> <Gold.Version>
5.8.1

> <Gold.Id.Protein>
6NUR|6NUR_protein|mol2

> <Gold.PLP.Fitness>
41.1751

> <Gold.PLP.PLP>
-38.2077

> <Gold.PLP.part.hbond>
-1.0786

> <Gold.PLP.part.metal>
0.0000

> <Gold.PLP.part.buried>
-4.4685

> <Gold.PLP.part.nonpolar>
-32.4024

> <Gold.PLP.part.repulsive>
0.7872

> <Gold.PLP.ligand.clash>
0.0000

> <Gold.PLP.ligand.torsion>
0.0710

> <Gold.PLP.Chemscore.Hbond>
1.0000

> <Gold.PLP.Chemscore.CHOScore>
0.0000

> <Gold.PLP.Chemscore.Metal>
0.0000

> <Gold.Chemscore.Hbonds>
donor molecule, donor type, donor heavy atom, donor atom, acceptor molecule, acceptor atom, score
      P1  H  7989  7998       L1    13  0.95

> <Gold.PLP.Chemscore.Internal.Correction>
0.1094

> <Gold.Rescore>
     Score         DG    S(hbond)    S(metal)    S(lipo)     H(rot)  DE(clash)    DE(int)     intcor
     14.18     -15.99       0.84        0.00      87.68       1.00       0.17       1.64       ----

> <Gold.Chemscore.Fitness>
14.1793

> <Gold.Chemscore.DG>
-15.9904

> <Gold.Chemscore.ZeroCoef>
-5.4800

> <Gold.Chemscore.Hbond>
0.8419

> <Gold.Chemscore.Metal>
0.0000

> <Gold.Chemscore.Lipo>
87.6791

> <Gold.Chemscore.Internal_Hbond>
0.0000

> <Gold.Chemscore.DEClash>
0.1671

> <Gold.Chemscore.DEInternal>
1.6440

> <Gold.Chemscore.Rot>
1.0000

> <Gold.Chemscore.Internal.Correction>
   9.000000E+99

> <Gold.Chemscore.Hbonds>
donor molecule, donor type, donor heavy atom, donor atom, acceptor molecule, acceptor atom, score
      P1  H  7989  7998       L1    13  0.11

> <Gold.Chemscore.Hbond.Weighted>
-2.8120

> <Gold.Chemscore.Metal.Weighted>
-0.0000

> <Gold.Chemscore.Lipo.Weighted>
-10.2585

> <Gold.Chemscore.Internal_Hbond.Weighted>
0.0000

> <Gold.Chemscore.DEClash.Weighted>
0.1671

> <Gold.Chemscore.DEInternal.Weighted>
1.6440

> <Gold.Chemscore.Rot.Weighted>
2.5600

> <Gold.Chemscore.Internal.Correction.Weighted>
   9.000000E+99

> <Gold.Protein.RotatedTorsions>
[ 6907 6896 6895 6894 ] final    7.63 input  -60.11 | X-H torsion
[ 7974 7965 7964 7962 ] final  110.79 input  175.53 | X-H torsion
[ 8008 7997 7996 7995 ] final   59.79 input   59.86 | X-H torsion
[ 10167 10162 10161 10158 ] final  -28.94 input  -65.29 | X-H torsion
[ 10718 10713 10712 10709 ] final -128.40 input   66.30 | X-H torsion
[ 10763 10752 10751 10750 ] final   40.97 input  -60.55 | X-H torsion
[ 11005 11000 10999 10996 ] final  105.49 input  -57.11 | X-H torsion

> <Gold.Protein.ActiveResidues>
 VAL166  LYS551  ARG553  GLY616  TRP617  ASP618  TYR619  PRO620  LYS621  CYS622 
 ASP623  PHE694  ASN695  SER759  ASP760  ASP761  ALA762  ILE779  LEU786  VAL792 
 PHE793  MET794  SER795  GLU796  ALA797  LYS798  CYS799  TRP800  GLU811  SER814 

> <Gold.Protein.RotatedAtoms>
  151.6929  135.0943  160.0236 H   0  0  0  0  0  0  0  0  0  0  0  0  # atno 6907 bound_to 6896
  152.3767  133.6487  159.6138 H   0  0  0  0  0  0  0  0  0  0  0  0  # atno 6908 bound_to 6896
  150.7715  133.9097  159.3407 H   0  0  0  0  0  0  0  0  0  0  0  0  # atno 6909 bound_to 6896
  145.2505  139.2742  143.4070 H   0  0  0  0  0  0  0  0  0  0  0  0  # atno 7974 bound_to 7965
  155.5719  140.3490  155.4517 H   0  0  0  0  0  0  0  0  0  0  0  0  # atno 8008 bound_to 7997
  156.0438  140.1302  157.0152 H   0  0  0  0  0  0  0  0  0  0  0  0  # atno 8009 bound_to 7997
  154.4403  140.1018  156.6261 H   0  0  0  0  0  0  0  0  0  0  0  0  # atno 8010 bound_to 7997
  140.7265  143.3969  151.1332 H   0  0  0  0  0  0  0  0  0  0  0  0  # atno 10167 bound_to 10162
  156.1947  130.6818  151.0467 H   0  0  0  0  0  0  0  0  0  0  0  0  # atno 10718 bound_to 10713
  152.9921  135.6175  154.2713 H   0  0  0  0  0  0  0  0  0  0  0  0  # atno 10763 bound_to 10752
  154.2445  135.2787  155.2842 H   0  0  0  0  0  0  0  0  0  0  0  0  # atno 10764 bound_to 10752
  154.5341  135.5780  153.6841 H   0  0  0  0  0  0  0  0  0  0  0  0  # atno 10765 bound_to 10752
  139.8803  134.9337  156.5522 H   0  0  0  0  0  0  0  0  0  0  0  0  # atno 11005 bound_to 11000
  146.3304  140.2894  142.8614 LP  0  0  0  0  0  0  0  0  0  0  0  0  # atno 17320 bound_to 7965
  144.9507  140.8175  143.5573 LP  0  0  0  0  0  0  0  0  0  0  0  0  # atno 17321 bound_to 7965
  139.7583  143.8674  152.3094 LP  0  0  0  0  0  0  0  0  0  0  0  0  # atno 17342 bound_to 10162
  139.8551  144.7145  150.9166 LP  0  0  0  0  0  0  0  0  0  0  0  0  # atno 17343 bound_to 10162
  157.6950  131.0797  150.6994 LP  0  0  0  0  0  0  0  0  0  0  0  0  # atno 17370 bound_to 10713
  156.7051  130.4635  149.5562 LP  0  0  0  0  0  0  0  0  0  0  0  0  # atno 17371 bound_to 10713
  140.8231  133.8338  155.8914 LP  0  0  0  0  0  0  0  0  0  0  0  0  # atno 17394 bound_to 11000
  140.9399  134.1914  157.4805 LP  0  0  0  0  0  0  0  0  0  0  0  0  # atno 17395 bound_to 11000

$$$$
