AV-unprocessed.smi:2212|AV-procd|sdf|8951|dock5
  -GOLD-   2272012163D 1   1.00000     0.00000
 Structure written by MMmdl.
 31 32  0  0  0  0  0  0  0  0  1 V2000
  153.5864  141.7408  160.8418 C   0  0  0  0  0  0  0  0  0  0  0  0
  153.8148  142.6731  159.7930 O   0  0  0  0  0  0  0  0  0  0  0  0
  152.6610  143.0828  159.0579 C   0  0  0  0  0  0  0  0  0  0  0  0
  151.9698  141.8974  158.3699 C   0  0  0  0  0  0  0  0  0  0  0  0
  150.9780  142.3637  157.4103 N   0  0  0  0  0  0  0  0  0  0  0  0
  150.1733  141.5600  156.7037 C   0  0  0  0  0  0  0  0  0  0  0  0
  150.1947  140.3316  156.7878 O   0  0  0  0  0  0  0  0  0  0  0  0
  149.3543  142.2627  155.9064 N   0  0  0  0  0  0  0  0  0  0  0  0
  148.3797  141.7317  155.0302 C   0  0  0  0  0  0  0  0  0  0  0  0
  148.6556  141.3756  153.7786 N   0  0  0  0  0  0  0  0  0  0  0  0
  147.4462  140.9144  153.2774 C   0  0  0  0  0  0  0  0  0  0  0  0
  146.5020  141.0203  154.2668 C   0  0  0  0  0  0  0  0  0  0  0  0
  147.0820  141.5404  155.3926 O   0  0  0  0  0  0  0  0  0  0  0  0
  151.8051  143.9769  159.9749 C   0  0  0  0  0  0  0  0  0  0  0  0
  151.6652  144.9660  158.8164 C   0  0  0  0  0  0  0  0  0  0  0  0
  152.9424  144.3568  158.2360 C   0  0  0  0  0  0  0  0  0  0  0  0
  154.5448  141.4249  161.2534 H   0  0  0  0  0  0  0  0  0  0  0  0
  153.0679  140.8489  160.4897 H   0  0  0  0  0  0  0  0  0  0  0  0
  153.0137  142.1812  161.6577 H   0  0  0  0  0  0  0  0  0  0  0  0
  152.7042  141.2865  157.8427 H   0  0  0  0  0  0  0  0  0  0  0  0
  151.4978  141.2369  159.0981 H   0  0  0  0  0  0  0  0  0  0  0  0
  150.8958  143.3625  157.2875 H   0  0  0  0  0  0  0  0  0  0  0  0
  149.4328  143.2686  155.9275 H   0  0  0  0  0  0  0  0  0  0  0  0
  147.3519  140.5500  152.2650 H   0  0  0  0  0  0  0  0  0  0  0  0
  145.4494  140.7865  154.3275 H   0  0  0  0  0  0  0  0  0  0  0  0
  150.8649  143.5335  160.3044 H   0  0  0  0  0  0  0  0  0  0  0  0
  152.3642  144.3946  160.8143 H   0  0  0  0  0  0  0  0  0  0  0  0
  150.7851  144.7767  158.1996 H   0  0  0  0  0  0  0  0  0  0  0  0
  151.7463  146.0160  159.0987 H   0  0  0  0  0  0  0  0  0  0  0  0
  153.8385  144.8909  158.5573 H   0  0  0  0  0  0  0  0  0  0  0  0
  152.9257  144.2170  157.1548 H   0  0  0  0  0  0  0  0  0  0  0  0
  1  2  1  0  0  0  0
  1 17  1  0  0  0  0
  1 18  1  0  0  0  0
  1 19  1  0  0  0  0
  2  3  1  0  0  0  0
  3 16  1  0  0  0  0
  3  4  1  0  0  0  0
  3 14  1  0  0  0  0
  4  5  1  0  0  0  0
  4 20  1  0  0  0  0
  4 21  1  0  0  0  0
  5  6  1  0  0  0  0
  5 22  1  0  0  0  0
  6  7  2  0  0  0  0
  6  8  1  0  0  0  0
  8  9  1  0  0  0  0
  8 23  1  0  0  0  0
  9 13  1  0  0  0  0
  9 10  2  0  0  0  0
 10 11  1  0  0  0  0
 11 12  2  0  0  0  0
 11 24  1  0  0  0  0
 12 13  1  0  0  0  0
 12 25  1  0  0  0  0
 14 15  1  0  0  0  0
 14 26  1  0  0  0  0
 14 27  1  0  0  0  0
 15 16  1  0  0  0  0
 15 28  1  0  0  0  0
 15 29  1  0  0  0  0
 16 30  1  0  0  0  0
 16 31  1  0  0  0  0
M  END
> <s_m_source_file>
AV-unprocessed.smi

> <i_m_source_file_index>
2212

> <i_lp_mmshare_version>
43012

> <i_f3d_flags>
0

> <s_epik_input>
W0NIMl0xW0NIMl1bQ0gyXUMxKE9bQ0gzXSlbQ0gyXVtOSF1DKD1PKVtOSF1jMm5bY0hdW2NIXW8y

> <s_epik_cmdline>
J2VwaWtfcHl0aG9uJywgJy1waCcsICc3LjAnLCAnLXRuJywgJzgnLCAnLW1hJywgJzIwMCcsICctbWV0YWxfYmluZGluZycsICctaW1hZScsICc8aW5maWxlLm1hZT4nLCAnLW9tYWUnLCAnPG91dGZpbGUubWFlPic=

> <r_lp_tautomer_probability>
0.785861

> <r_epik_Ionization_Penalty>
4.58897e-05

> <r_epik_Ionization_Penalty_Charging>
0

> <r_epik_Ionization_Penalty_Neutral>
4.58897e-05

> <r_epik_State_Penalty>
0.0380021

> <r_epik_Charging_Adjusted_Penalty>
0.0380021

> <i_epik_Tot_Q>
0

> <i_epik_Tot_abs_Q>
0

> <r_epik_Metal_State_Penalty>
0.0585611

> <b_epik_Metal_Only>
0

> <s_lp_Force_Field>
OPLS_2005

> <r_lp_Energy>
14.4029

> <b_lp_Chiralities_Consistent>
1

> <s_lp_Variant>
AV-unprocessed.smi:2212-1

> <Gold.Version>
5.8.1

> <Gold.Id.Protein>
6NUR|6NUR_protein|mol2

> <Gold.PLP.Fitness>
41.9610

> <Gold.PLP.PLP>
-33.5058

> <Gold.PLP.part.hbond>
-1.8286

> <Gold.PLP.part.metal>
0.0000

> <Gold.PLP.part.buried>
-3.8596

> <Gold.PLP.part.nonpolar>
-28.7797

> <Gold.PLP.part.repulsive>
0.8609

> <Gold.PLP.ligand.clash>
0.0000

> <Gold.PLP.ligand.torsion>
1.0188

> <Gold.PLP.Chemscore.Hbond>
1.6989

> <Gold.PLP.Chemscore.CHOScore>
1.7074

> <Gold.PLP.Chemscore.Metal>
0.0000

> <Gold.Chemscore.Hbonds>
donor molecule, donor type, donor heavy atom, donor atom, acceptor molecule, acceptor atom, score
      L1  H     8    23       P1  8028  1.00
      P1  H  8011  8017       L1    10  0.61
      L1  C    11    24       P1  7957  0.68
      L1  C    12    25       P1 10175  0.90

> <Gold.PLP.Chemscore.Internal.Correction>
0.2740

> <Gold.Rescore>
     Score         DG    S(hbond)    S(metal)    S(lipo)     H(rot)  DE(clash)    DE(int)     intcor
     14.57     -16.62       1.60        0.00      85.49       1.64       0.16       1.89       ----

> <Gold.Chemscore.Fitness>
14.5683

> <Gold.Chemscore.DG>
-16.6188

> <Gold.Chemscore.ZeroCoef>
-5.4800

> <Gold.Chemscore.Hbond>
1.5980

> <Gold.Chemscore.Metal>
0.0000

> <Gold.Chemscore.Lipo>
85.4930

> <Gold.Chemscore.Internal_Hbond>
0.0000

> <Gold.Chemscore.DEClash>
0.1557

> <Gold.Chemscore.DEInternal>
1.8948

> <Gold.Chemscore.Rot>
1.6411

> <Gold.Chemscore.Internal.Correction>
   9.000000E+99

> <Gold.Chemscore.Hbonds>
donor molecule, donor type, donor heavy atom, donor atom, acceptor molecule, acceptor atom, score
      L1  H     8    23       P1  8028  0.94
      P1  H  8011  8017       L1    10  0.49

> <Gold.Chemscore.Hbond.Weighted>
-5.3373

> <Gold.Chemscore.Metal.Weighted>
-0.0000

> <Gold.Chemscore.Lipo.Weighted>
-10.0027

> <Gold.Chemscore.Internal_Hbond.Weighted>
0.0000

> <Gold.Chemscore.DEClash.Weighted>
0.1557

> <Gold.Chemscore.DEInternal.Weighted>
1.8948

> <Gold.Chemscore.Rot.Weighted>
4.2011

> <Gold.Chemscore.Internal.Correction.Weighted>
   9.000000E+99

> <Gold.Protein.RotatedTorsions>
[ 6907 6896 6895 6894 ] final -118.18 input  -60.11 | X-H torsion
[ 7974 7965 7964 7962 ] final  -56.22 input  175.53 | X-H torsion
[ 8008 7997 7996 7995 ] final  -44.78 input   59.86 | X-H torsion
[ 10167 10162 10161 10158 ] final   35.71 input  -65.29 | X-H torsion
[ 10718 10713 10712 10709 ] final   86.86 input   66.30 | X-H torsion
[ 10763 10752 10751 10750 ] final  115.43 input  -60.55 | X-H torsion
[ 11005 11000 10999 10996 ] final -125.58 input  -57.11 | X-H torsion

> <Gold.Protein.ActiveResidues>
 VAL166  LYS551  ARG553  GLY616  TRP617  ASP618  TYR619  PRO620  LYS621  CYS622 
 ASP623  PHE694  ASN695  SER759  ASP760  ASP761  ALA762  ILE779  LEU786  VAL792 
 PHE793  MET794  SER795  GLU796  ALA797  LYS798  CYS799  TRP800  GLU811  SER814 

> <Gold.Protein.RotatedAtoms>
  150.8198  133.8272  159.3143 H   0  0  0  0  0  0  0  0  0  0  0  0  # atno 6907 bound_to 6896
  151.6033  135.1044  160.0074 H   0  0  0  0  0  0  0  0  0  0  0  0  # atno 6908 bound_to 6896
  152.4288  133.7201  159.6585 H   0  0  0  0  0  0  0  0  0  0  0  0  # atno 6909 bound_to 6896
  145.8652  140.8256  142.9916 H   0  0  0  0  0  0  0  0  0  0  0  0  # atno 7974 bound_to 7965
  154.3998  140.1413  156.3739 H   0  0  0  0  0  0  0  0  0  0  0  0  # atno 8008 bound_to 7997
  155.8067  140.3474  155.5413 H   0  0  0  0  0  0  0  0  0  0  0  0  # atno 8009 bound_to 7997
  155.8428  140.0929  157.1714 H   0  0  0  0  0  0  0  0  0  0  0  0  # atno 8010 bound_to 7997
  140.4196  144.1478  150.6146 H   0  0  0  0  0  0  0  0  0  0  0  0  # atno 10167 bound_to 10162
  157.6933  131.0232  150.3036 H   0  0  0  0  0  0  0  0  0  0  0  0  # atno 10718 bound_to 10713
  153.5221  135.3595  155.2637 H   0  0  0  0  0  0  0  0  0  0  0  0  # atno 10763 bound_to 10752
  154.8734  135.4048  154.3247 H   0  0  0  0  0  0  0  0  0  0  0  0  # atno 10764 bound_to 10752
  153.3920  135.7072  153.6555 H   0  0  0  0  0  0  0  0  0  0  0  0  # atno 10765 bound_to 10752
  140.9750  134.0752  157.3828 H   0  0  0  0  0  0  0  0  0  0  0  0  # atno 11005 bound_to 11000
  144.6726  140.1155  143.7453 LP  0  0  0  0  0  0  0  0  0  0  0  0  # atno 17320 bound_to 7965
  145.9202  139.2541  143.1386 LP  0  0  0  0  0  0  0  0  0  0  0  0  # atno 17321 bound_to 7965
  140.4548  143.2472  151.9299 LP  0  0  0  0  0  0  0  0  0  0  0  0  # atno 17342 bound_to 10162
  139.4782  144.5526  151.8362 LP  0  0  0  0  0  0  0  0  0  0  0  0  # atno 17343 bound_to 10162
  156.3548  130.3837  149.7299 LP  0  0  0  0  0  0  0  0  0  0  0  0  # atno 17370 bound_to 10713
  156.4765  130.8021  151.3037 LP  0  0  0  0  0  0  0  0  0  0  0  0  # atno 17371 bound_to 10713
  139.8927  135.0126  156.6860 LP  0  0  0  0  0  0  0  0  0  0  0  0  # atno 17394 bound_to 11000
  140.7272  133.9090  155.8186 LP  0  0  0  0  0  0  0  0  0  0  0  0  # atno 17395 bound_to 11000

$$$$
