AV-unprocessed.smi:351|AV-procd|sdf|2400|dock4
  -GOLD-   2262022333D 1   1.00000     0.00000
 Structure written by MMmdl.
 39 40  0  0  0  0  0  0  0  0  1 V2000
  148.2303  133.1943  159.5212 C   0  0  0  0  0  0  0  0  0  0  0  0
  147.7893  134.1887  160.5787 C   0  0  0  0  0  0  0  0  0  0  0  0
  146.9205  133.7704  161.6085 C   0  0  0  0  0  0  0  0  0  0  0  0
  146.5014  134.6803  162.5958 C   0  0  0  0  0  0  0  0  0  0  0  0
  146.9495  136.0124  162.5547 C   0  0  0  0  0  0  0  0  0  0  0  0
  147.8158  136.4352  161.5287 C   0  0  0  0  0  0  0  0  0  0  0  0
  148.2460  135.5267  160.5277 C   0  0  0  0  0  0  0  0  0  0  0  0
  149.0923  135.8702  159.4934 O   0  0  0  0  0  0  0  0  0  0  0  0
  149.3997  137.2426  159.2956 C   0  0  0  0  0  0  0  0  0  0  0  0
  150.7696  137.3352  158.5991 C   0  0  0  0  0  0  0  0  0  0  0  0
  151.2634  138.7299  158.5232 N   0  0  0  0  0  0  0  0  0  0  0  0
  152.5208  139.0799  159.1086 C   0  0  0  0  0  0  0  0  0  0  0  0
  153.3397  138.0066  159.8403 C   0  0  0  0  0  0  0  0  0  0  0  0
  154.4794  138.5109  160.3160 F   0  0  0  0  0  0  0  0  0  0  0  0
  152.6837  137.5023  160.8849 F   0  0  0  0  0  0  0  0  0  0  0  0
  153.6714  137.0171  159.0101 F   0  0  0  0  0  0  0  0  0  0  0  0
  152.9634  140.3485  159.0327 C   0  0  0  0  0  0  0  0  0  0  0  0
  152.1817  141.3483  158.3594 C   0  0  0  0  0  0  0  0  0  0  0  0
  150.9920  141.0332  157.7988 C   0  0  0  0  0  0  0  0  0  0  0  0
  150.1491  142.0297  157.0988 C   0  0  0  0  0  0  0  0  0  0  0  0
  150.6755  143.2601  157.0517 N   0  0  0  0  0  0  0  0  0  0  0  0
  149.0514  141.8363  156.5765 O   0  0  0  0  0  0  0  0  0  0  0  0
  150.4697  139.6438  157.8675 C   0  0  0  0  0  0  0  0  0  0  0  0
  149.3927  139.2897  157.3778 O   0  0  0  0  0  0  0  0  0  0  0  0
  147.8731  132.1885  159.7444 H   0  0  0  0  0  0  0  0  0  0  0  0
  149.3183  133.1603  159.4602 H   0  0  0  0  0  0  0  0  0  0  0  0
  147.8404  133.4849  158.5454 H   0  0  0  0  0  0  0  0  0  0  0  0
  146.5708  132.7493  161.6448 H   0  0  0  0  0  0  0  0  0  0  0  0
  145.8360  134.3570  163.3826 H   0  0  0  0  0  0  0  0  0  0  0  0
  146.6280  136.7130  163.3112 H   0  0  0  0  0  0  0  0  0  0  0  0
  148.1357  137.4658  161.5326 H   0  0  0  0  0  0  0  0  0  0  0  0
  148.6300  137.7094  158.6797 H   0  0  0  0  0  0  0  0  0  0  0  0
  149.4250  137.7633  160.2531 H   0  0  0  0  0  0  0  0  0  0  0  0
  151.4689  136.6657  159.0900 H   0  0  0  0  0  0  0  0  0  0  0  0
  150.6929  136.9042  157.5990 H   0  0  0  0  0  0  0  0  0  0  0  0
  153.9068  140.6368  159.4720 H   0  0  0  0  0  0  0  0  0  0  0  0
  152.5857  142.3493  158.3268 H   0  0  0  0  0  0  0  0  0  0  0  0
  150.1737  144.0082  156.5963 H   0  0  0  0  0  0  0  0  0  0  0  0
  151.5754  143.4347  157.4753 H   0  0  0  0  0  0  0  0  0  0  0  0
  1  2  1  0  0  0  0
  1 25  1  0  0  0  0
  1 26  1  0  0  0  0
  1 27  1  0  0  0  0
  2  7  1  0  0  0  0
  2  3  2  0  0  0  0
  3  4  1  0  0  0  0
  3 28  1  0  0  0  0
  4  5  2  0  0  0  0
  4 29  1  0  0  0  0
  5  6  1  0  0  0  0
  5 30  1  0  0  0  0
  6  7  2  0  0  0  0
  6 31  1  0  0  0  0
  7  8  1  0  0  0  0
  8  9  1  0  0  0  0
  9 10  1  0  0  0  0
  9 32  1  0  0  0  0
  9 33  1  0  0  0  0
 10 11  1  0  0  0  0
 10 34  1  0  0  0  0
 10 35  1  0  0  0  0
 11 23  1  0  0  0  0
 11 12  1  0  0  0  0
 12 13  1  0  0  0  0
 12 17  2  0  0  0  0
 13 14  1  0  0  0  0
 13 15  1  0  0  0  0
 13 16  1  0  0  0  0
 17 18  1  0  0  0  0
 17 36  1  0  0  0  0
 18 19  2  0  0  0  0
 18 37  1  0  0  0  0
 19 20  1  0  0  0  0
 19 23  1  0  0  0  0
 20 21  1  0  0  0  0
 20 22  2  0  0  0  0
 21 38  1  0  0  0  0
 21 39  1  0  0  0  0
 23 24  2  0  0  0  0
M  END
> <s_m_source_file>
AV-unprocessed.smi

> <i_m_source_file_index>
351

> <i_lp_mmshare_version>
43012

> <i_f3d_flags>
0

> <s_epik_input>
W0NIM11jMVtjSF1bY0hdW2NIXVtjSF1jMU9bQ0gyXVtDSDJdbjJjKEMoRikoRilGKVtjSF1bY0hdYyhjMj1PKUMoPU8pW05IMl0=

> <s_epik_cmdline>
J2VwaWtfcHl0aG9uJywgJy1waCcsICc3LjAnLCAnLXRuJywgJzgnLCAnLW1hJywgJzIwMCcsICctbWV0YWxfYmluZGluZycsICctaW1hZScsICc8aW5maWxlLm1hZT4nLCAnLW9tYWUnLCAnPG91dGZpbGUubWFlPic=

> <r_lp_tautomer_probability>
1

> <r_epik_Ionization_Penalty>
1.75286e-06

> <r_epik_Ionization_Penalty_Charging>
1.15608e-09

> <r_epik_Ionization_Penalty_Neutral>
1.7517e-06

> <r_epik_State_Penalty>
-0

> <r_epik_Charging_Adjusted_Penalty>
1.15608e-09

> <i_epik_Tot_Q>
0

> <i_epik_Tot_abs_Q>
0

> <r_epik_Metal_State_Penalty>
-0

> <b_epik_Metal_Only>
0

> <s_lp_Force_Field>
OPLS_2005

> <r_lp_Energy>
33.8975

> <b_lp_Chiralities_Consistent>
1

> <s_lp_Variant>
AV-unprocessed.smi:351-1

> <Gold.Version>
5.8.1

> <Gold.Id.Protein>
6NUR|6NUR_protein|mol2

> <Gold.PLP.Fitness>
44.2087

> <Gold.PLP.PLP>
-38.6647

> <Gold.PLP.part.hbond>
-2.0000

> <Gold.PLP.part.metal>
0.0000

> <Gold.PLP.part.buried>
-6.3402

> <Gold.PLP.part.nonpolar>
-30.9177

> <Gold.PLP.part.repulsive>
0.3127

> <Gold.PLP.ligand.clash>
3.7761

> <Gold.PLP.ligand.torsion>
0.2588

> <Gold.PLP.Chemscore.Hbond>
2.0000

> <Gold.PLP.Chemscore.CHOScore>
0.0000

> <Gold.PLP.Chemscore.Metal>
0.0000

> <Gold.Chemscore.Hbonds>
donor molecule, donor type, donor heavy atom, donor atom, acceptor molecule, acceptor atom, score
      L1  H    21    38       P1  8028  1.00
      P1  H  6896  6907       L1     8  0.94

> <Gold.PLP.Chemscore.Internal.Correction>
3.8376

> <Gold.Rescore>
     Score         DG    S(hbond)    S(metal)    S(lipo)     H(rot)  DE(clash)    DE(int)     intcor
     11.94     -17.48       1.85        0.00      90.13       1.84       0.08       5.46       ----

> <Gold.Chemscore.Fitness>
11.9366

> <Gold.Chemscore.DG>
-17.4766

> <Gold.Chemscore.ZeroCoef>
-5.4800

> <Gold.Chemscore.Hbond>
1.8456

> <Gold.Chemscore.Metal>
0.0000

> <Gold.Chemscore.Lipo>
90.1345

> <Gold.Chemscore.Internal_Hbond>
0.0000

> <Gold.Chemscore.DEClash>
0.0847

> <Gold.Chemscore.DEInternal>
5.4553

> <Gold.Chemscore.Rot>
1.8412

> <Gold.Chemscore.Internal.Correction>
   9.000000E+99

> <Gold.Chemscore.Hbonds>
donor molecule, donor type, donor heavy atom, donor atom, acceptor molecule, acceptor atom, score
      L1  H    21    38       P1  8028  0.99
      P1  H  6896  6907       L1     8  0.50

> <Gold.Chemscore.Hbond.Weighted>
-6.1642

> <Gold.Chemscore.Metal.Weighted>
-0.0000

> <Gold.Chemscore.Lipo.Weighted>
-10.5457

> <Gold.Chemscore.Internal_Hbond.Weighted>
0.0000

> <Gold.Chemscore.DEClash.Weighted>
0.0847

> <Gold.Chemscore.DEInternal.Weighted>
5.4553

> <Gold.Chemscore.Rot.Weighted>
4.7134

> <Gold.Chemscore.Internal.Correction.Weighted>
   9.000000E+99

> <Gold.Protein.RotatedTorsions>
[ 6907 6896 6895 6894 ] final  -73.84 input  -60.11 | X-H torsion
[ 7974 7965 7964 7962 ] final  -90.11 input  175.53 | X-H torsion
[ 8008 7997 7996 7995 ] final  -85.73 input   59.86 | X-H torsion
[ 10167 10162 10161 10158 ] final -164.29 input  -65.29 | X-H torsion
[ 10718 10713 10712 10709 ] final -107.86 input   66.30 | X-H torsion
[ 10763 10752 10751 10750 ] final  -90.50 input  -60.55 | X-H torsion
[ 11005 11000 10999 10996 ] final    2.07 input  -57.11 | X-H torsion

> <Gold.Protein.ActiveResidues>
 VAL166  LYS551  ARG553  GLY616  TRP617  ASP618  TYR619  PRO620  LYS621  CYS622 
 ASP623  PHE694  ASN695  SER759  ASP760  ASP761  ALA762  ILE779  LEU786  VAL792 
 PHE793  MET794  SER795  GLU796  ALA797  LYS798  CYS799  TRP800  GLU811  SER814 

> <Gold.Protein.RotatedAtoms>
  150.7115  134.4957  159.5536 H   0  0  0  0  0  0  0  0  0  0  0  0  # atno 6907 bound_to 6896
  152.2565  134.8076  160.0446 H   0  0  0  0  0  0  0  0  0  0  0  0  # atno 6908 bound_to 6896
  151.8804  133.3459  159.3801 H   0  0  0  0  0  0  0  0  0  0  0  0  # atno 6909 bound_to 6896
  145.4308  140.9555  143.2129 H   0  0  0  0  0  0  0  0  0  0  0  0  # atno 7974 bound_to 7965
  154.6440  140.0587  156.9879 H   0  0  0  0  0  0  0  0  0  0  0  0  # atno 8008 bound_to 7997
  155.1473  140.3271  155.4420 H   0  0  0  0  0  0  0  0  0  0  0  0  # atno 8009 bound_to 7997
  156.2545  140.1953  156.6586 H   0  0  0  0  0  0  0  0  0  0  0  0  # atno 8010 bound_to 7997
  139.6261  144.0530  152.1975 H   0  0  0  0  0  0  0  0  0  0  0  0  # atno 10167 bound_to 10162
  156.0457  130.5684  150.7881 H   0  0  0  0  0  0  0  0  0  0  0  0  # atno 10718 bound_to 10713
  154.6664  135.5302  153.8083 H   0  0  0  0  0  0  0  0  0  0  0  0  # atno 10763 bound_to 10752
  153.0474  135.6518  154.0792 H   0  0  0  0  0  0  0  0  0  0  0  0  # atno 10764 bound_to 10752
  154.0695  135.2955  155.3290 H   0  0  0  0  0  0  0  0  0  0  0  0  # atno 10765 bound_to 10752
  140.6083  133.9771  155.8165 H   0  0  0  0  0  0  0  0  0  0  0  0  # atno 11005 bound_to 11000
  144.8184  139.5835  143.6998 LP  0  0  0  0  0  0  0  0  0  0  0  0  # atno 17320 bound_to 7965
  146.2608  139.6406  142.9363 LP  0  0  0  0  0  0  0  0  0  0  0  0  # atno 17321 bound_to 7965
  140.0184  144.6172  150.7588 LP  0  0  0  0  0  0  0  0  0  0  0  0  # atno 17342 bound_to 10162
  140.7411  143.2814  151.3588 LP  0  0  0  0  0  0  0  0  0  0  0  0  # atno 17343 bound_to 10162
  157.5329  131.0937  150.9931 LP  0  0  0  0  0  0  0  0  0  0  0  0  # atno 17370 bound_to 10713
  157.0232  130.5682  149.5334 LP  0  0  0  0  0  0  0  0  0  0  0  0  # atno 17371 bound_to 10713
  141.0825  134.0040  157.3364 LP  0  0  0  0  0  0  0  0  0  0  0  0  # atno 17394 bound_to 11000
  139.9203  135.0200  156.8038 LP  0  0  0  0  0  0  0  0  0  0  0  0  # atno 17395 bound_to 11000

$$$$
