AV-unprocessed.smi:3287|AV-procd|sdf|12601|dock2
  -GOLD-   2272018523D 1   1.00000     0.00000
 Structure written by MMmdl.
 43 44  0  0  0  0  0  0  0  0  2 V2000
  152.7994  142.5117  161.3632 C   0  0  0  0  0  0  0  0  0  0  0  0
  152.4000  142.5547  159.8775 C   0  0  1  0  0  0  0  0  0  0  0  0
  151.6744  141.2493  159.4932 C   0  0  0  0  0  0  0  0  0  0  0  0
  151.2607  141.2290  158.0150 C   0  0  0  0  0  0  0  0  0  0  0  0
  150.3775  142.4422  157.6702 C   0  0  2  0  0  0  0  0  0  0  0  0
  150.0117  142.4581  156.2367 N   0  3  0  0  0  0  0  0  0  0  0  0
  149.0834  141.3887  155.8104 C   0  0  0  0  0  0  0  0  0  0  0  0
  149.5192  140.7648  154.4733 C   0  0  2  0  0  0  0  0  0  0  0  0
  148.3655  140.3793  153.7516 O   0  0  0  0  0  0  0  0  0  0  0  0
  150.4611  139.5922  154.6982 C   0  0  0  0  0  0  0  0  0  0  0  0
  150.1631  138.3216  154.1628 C   0  0  0  0  0  0  0  0  0  0  0  0
  151.0692  137.2658  154.3884 C   0  0  0  0  0  0  0  0  0  0  0  0
  152.2136  137.4081  155.0904 N   0  0  0  0  0  0  0  0  0  0  0  0
  152.4952  138.6262  155.5995 C   0  0  0  0  0  0  0  0  0  0  0  0
  151.6574  139.7468  155.4319 C   0  0  0  0  0  0  0  0  0  0  0  0
  151.1102  143.7447  158.0349 C   0  0  0  0  0  0  0  0  0  0  0  0
  151.5290  143.7879  159.5192 C   0  0  2  0  0  0  0  0  0  0  0  0
  152.2271  145.1250  159.8259 C   0  0  0  0  0  0  0  0  0  0  0  0
  151.9221  142.5241  162.0104 H   0  0  0  0  0  0  0  0  0  0  0  0
  153.4321  143.3551  161.6382 H   0  0  0  0  0  0  0  0  0  0  0  0
  153.3643  141.6070  161.5895 H   0  0  0  0  0  0  0  0  0  0  0  0
  153.3196  142.6069  159.2923 H   0  0  0  0  0  0  0  0  0  0  0  0
  152.3173  140.3925  159.6987 H   0  0  0  0  0  0  0  0  0  0  0  0
  150.7887  141.1235  160.1177 H   0  0  0  0  0  0  0  0  0  0  0  0
  152.1531  141.2270  157.3873 H   0  0  0  0  0  0  0  0  0  0  0  0
  150.7347  140.2971  157.8082 H   0  0  0  0  0  0  0  0  0  0  0  0
  149.4588  142.3969  158.2574 H   0  0  0  0  0  0  0  0  0  0  0  0
  149.5506  143.3371  156.0480 H   0  0  0  0  0  0  0  0  0  0  0  0
  149.0559  140.6142  156.5771 H   0  0  0  0  0  0  0  0  0  0  0  0
  148.0731  141.7925  155.7268 H   0  0  0  0  0  0  0  0  0  0  0  0
  150.0399  141.5163  153.8778 H   0  0  0  0  0  0  0  0  0  0  0  0
  148.5489  140.4604  152.8274 H   0  0  0  0  0  0  0  0  0  0  0  0
  149.2625  138.1530  153.5908 H   0  0  0  0  0  0  0  0  0  0  0  0
  150.8697  136.2812  153.9922 H   0  0  0  0  0  0  0  0  0  0  0  0
  153.4172  138.7118  156.1554 H   0  0  0  0  0  0  0  0  0  0  0  0
  151.9328  140.7007  155.8571 H   0  0  0  0  0  0  0  0  0  0  0  0
  151.9937  143.8585  157.4044 H   0  0  0  0  0  0  0  0  0  0  0  0
  150.4649  144.5962  157.8136 H   0  0  0  0  0  0  0  0  0  0  0  0
  150.6196  143.7481  160.1211 H   0  0  0  0  0  0  0  0  0  0  0  0
  153.1884  145.1971  159.3164 H   0  0  0  0  0  0  0  0  0  0  0  0
  152.4021  145.2549  160.8934 H   0  0  0  0  0  0  0  0  0  0  0  0
  151.6170  145.9688  159.5023 H   0  0  0  0  0  0  0  0  0  0  0  0
  150.8536  142.4141  155.6807 H   0  0  0  0  0  0  0  0  0  0  0  0
  1  2  1  0  0  0  0
  1 19  1  0  0  0  0
  1 20  1  0  0  0  0
  1 21  1  0  0  0  0
  2 17  1  0  0  0  0
  2  3  1  0  0  0  0
  2 22  1  0  0  0  0
  3  4  1  0  0  0  0
  3 23  1  0  0  0  0
  3 24  1  0  0  0  0
  4  5  1  0  0  0  0
  4 25  1  0  0  0  0
  4 26  1  0  0  0  0
  5  6  1  0  0  0  0
  5 16  1  0  0  0  0
  5 27  1  0  0  0  0
  6  7  1  0  0  0  0
  6 28  1  0  0  0  0
  6 43  1  0  0  0  0
  7  8  1  0  0  0  0
  7 29  1  0  0  0  0
  7 30  1  0  0  0  0
  8  9  1  0  0  0  0
  8 10  1  0  0  0  0
  8 31  1  0  0  0  0
  9 32  1  0  0  0  0
 10 15  1  0  0  0  0
 10 11  2  0  0  0  0
 11 12  1  0  0  0  0
 11 33  1  0  0  0  0
 12 13  2  0  0  0  0
 12 34  1  0  0  0  0
 13 14  1  0  0  0  0
 14 15  2  0  0  0  0
 14 35  1  0  0  0  0
 15 36  1  0  0  0  0
 16 17  1  0  0  0  0
 16 37  1  0  0  0  0
 16 38  1  0  0  0  0
 17 18  1  0  0  0  0
 17 39  1  0  0  0  0
 18 40  1  0  0  0  0
 18 41  1  0  0  0  0
 18 42  1  0  0  0  0
M  CHG  1   6   1
M  END
> <s_m_source_file>
AV-unprocessed.smi

> <i_m_source_file_index>
3287

> <i_lp_mmshare_version>
43012

> <i_f3d_flags>
0

> <s_epik_input>
W0NIM11bQ0BASF0xW0NIMl1bQ0gyXVtDQEhdKFtDSDJdW0NASF0xW0NIM10pW05IXVtDSDJdW0NASF0oW09IXSljMltjSF1bY0hdbltjSF1bY0hdMg==

> <s_epik_cmdline>
J2VwaWtfcHl0aG9uJywgJy1waCcsICc3LjAnLCAnLXRuJywgJzgnLCAnLW1hJywgJzIwMCcsICctbWV0YWxfYmluZGluZycsICctaW1hZScsICc8aW5maWxlLm1hZT4nLCAnLW9tYWUnLCAnPG91dGZpbGUubWFlPic=

> <r_lp_tautomer_probability>
1

> <r_epik_Ionization_Penalty>
0.00537262

> <r_epik_Ionization_Penalty_Charging>
0.00321624

> <r_epik_Ionization_Penalty_Neutral>
0.00215638

> <r_epik_State_Penalty>
-0

> <r_epik_Charging_Adjusted_Penalty>
0.00321624

> <i_epik_Tot_Q>
1

> <i_epik_Tot_abs_Q>
1

> <r_epik_Metal_State_Penalty>
-0

> <b_epik_Metal_Only>
0

> <s_lp_Force_Field>
OPLS_2005

> <r_lp_Energy>
15.7848

> <b_lp_Chiralities_Consistent>
1

> <s_lp_Variant>
AV-unprocessed.smi:3287-12

> <Gold.Version>
5.8.1

> <Gold.Id.Protein>
6NUR|6NUR_protein|mol2

> <Gold.PLP.Fitness>
54.8989

> <Gold.PLP.PLP>
-43.2690

> <Gold.PLP.part.hbond>
-3.0000

> <Gold.PLP.part.metal>
0.0000

> <Gold.PLP.part.buried>
-2.1892

> <Gold.PLP.part.nonpolar>
-39.3908

> <Gold.PLP.part.repulsive>
0.1653

> <Gold.PLP.ligand.clash>
0.0000

> <Gold.PLP.ligand.torsion>
0.7800

> <Gold.PLP.Chemscore.Hbond>
3.7200

> <Gold.PLP.Chemscore.CHOScore>
0.6704

> <Gold.PLP.Chemscore.Metal>
0.0000

> <Gold.Chemscore.Hbonds>
donor molecule, donor type, donor heavy atom, donor atom, acceptor molecule, acceptor atom, score
      L1  H     6    28       P1  8028  2.00
      L1  H     9    32       P1  7957  1.00
      P1  H 10752 10765       L1    13  0.72
      L1  C    12    34       P1  7948  0.04
      L1  C    12    34       P1  7949  0.63

> <Gold.PLP.Chemscore.Internal.Correction>
0.0187

> <Gold.Rescore>
     Score         DG    S(hbond)    S(metal)    S(lipo)     H(rot)  DE(clash)    DE(int)     intcor
     24.10     -24.95       2.87        0.00     125.99       1.90       0.03       0.82       ----

> <Gold.Chemscore.Fitness>
24.0974

> <Gold.Chemscore.DG>
-24.9479

> <Gold.Chemscore.ZeroCoef>
-5.4800

> <Gold.Chemscore.Hbond>
2.8743

> <Gold.Chemscore.Metal>
0.0000

> <Gold.Chemscore.Lipo>
125.9879

> <Gold.Chemscore.Internal_Hbond>
0.0000

> <Gold.Chemscore.DEClash>
0.0285

> <Gold.Chemscore.DEInternal>
0.8220

> <Gold.Chemscore.Rot>
1.9035

> <Gold.Chemscore.Internal.Correction>
   9.000000E+99

> <Gold.Chemscore.Hbonds>
donor molecule, donor type, donor heavy atom, donor atom, acceptor molecule, acceptor atom, score
      L1  H     6    28       P1  8028  0.98
      L1  H     9    32       P1  7957  0.93
      P1  H 10752 10765       L1    13  0.17

> <Gold.Chemscore.Hbond.Weighted>
-9.6002

> <Gold.Chemscore.Metal.Weighted>
-0.0000

> <Gold.Chemscore.Lipo.Weighted>
-14.7406

> <Gold.Chemscore.Internal_Hbond.Weighted>
0.0000

> <Gold.Chemscore.DEClash.Weighted>
0.0285

> <Gold.Chemscore.DEInternal.Weighted>
0.8220

> <Gold.Chemscore.Rot.Weighted>
4.8729

> <Gold.Chemscore.Internal.Correction.Weighted>
   9.000000E+99

> <Gold.Protein.RotatedTorsions>
[ 6907 6896 6895 6894 ] final   65.65 input  -60.11 | X-H torsion
[ 7974 7965 7964 7962 ] final   52.01 input  175.53 | X-H torsion
[ 8008 7997 7996 7995 ] final  109.57 input   59.86 | X-H torsion
[ 10167 10162 10161 10158 ] final -167.74 input  -65.29 | X-H torsion
[ 10718 10713 10712 10709 ] final   94.89 input   66.30 | X-H torsion
[ 10763 10752 10751 10750 ] final -167.37 input  -60.55 | X-H torsion
[ 11005 11000 10999 10996 ] final  -33.59 input  -57.11 | X-H torsion

> <Gold.Protein.ActiveResidues>
 VAL166  LYS551  ARG553  GLY616  TRP617  ASP618  TYR619  PRO620  LYS621  CYS622 
 ASP623  PHE694  ASN695  SER759  ASP760  ASP761  ALA762  ILE779  LEU786  VAL792 
 PHE793  MET794  SER795  GLU796  ALA797  LYS798  CYS799  TRP800  GLU811  SER814 

> <Gold.Protein.RotatedAtoms>
  152.4423  134.5565  159.9881 H   0  0  0  0  0  0  0  0  0  0  0  0  # atno 6907 bound_to 6896
  151.5659  133.3391  159.2988 H   0  0  0  0  0  0  0  0  0  0  0  0  # atno 6908 bound_to 6896
  150.8332  134.7627  159.6935 H   0  0  0  0  0  0  0  0  0  0  0  0  # atno 6909 bound_to 6896
  145.9856  139.4286  143.0105 H   0  0  0  0  0  0  0  0  0  0  0  0  # atno 7974 bound_to 7965
  156.1989  140.3055  155.9485 H   0  0  0  0  0  0  0  0  0  0  0  0  # atno 8008 bound_to 7997
  155.3000  140.0446  157.3046 H   0  0  0  0  0  0  0  0  0  0  0  0  # atno 8009 bound_to 7997
  154.5545  140.2301  155.8441 H   0  0  0  0  0  0  0  0  0  0  0  0  # atno 8010 bound_to 7997
  139.6029  144.0972  152.1762 H   0  0  0  0  0  0  0  0  0  0  0  0  # atno 10167 bound_to 10162
  157.6944  131.0527  150.4256 H   0  0  0  0  0  0  0  0  0  0  0  0  # atno 10718 bound_to 10713
  154.6738  135.2943  154.9706 H   0  0  0  0  0  0  0  0  0  0  0  0  # atno 10763 bound_to 10752
  154.0724  135.6616  153.4830 H   0  0  0  0  0  0  0  0  0  0  0  0  # atno 10764 bound_to 10752
  153.0503  135.5178  154.7747 H   0  0  0  0  0  0  0  0  0  0  0  0  # atno 10765 bound_to 10752
  140.9647  133.7144  156.1426 H   0  0  0  0  0  0  0  0  0  0  0  0  # atno 11005 bound_to 11000
  145.7705  140.9898  143.1152 LP  0  0  0  0  0  0  0  0  0  0  0  0  # atno 17320 bound_to 7965
  144.6874  139.9441  143.7476 LP  0  0  0  0  0  0  0  0  0  0  0  0  # atno 17321 bound_to 7965
  140.0573  144.5885  150.7290 LP  0  0  0  0  0  0  0  0  0  0  0  0  # atno 17342 bound_to 10162
  140.7263  143.2640  151.4107 LP  0  0  0  0  0  0  0  0  0  0  0  0  # atno 17343 bound_to 10162
  156.4627  130.4035  149.6566 LP  0  0  0  0  0  0  0  0  0  0  0  0  # atno 17370 bound_to 10713
  156.3676  130.7513  151.2493 LP  0  0  0  0  0  0  0  0  0  0  0  0  # atno 17371 bound_to 10713
  140.7416  134.4143  157.5554 LP  0  0  0  0  0  0  0  0  0  0  0  0  # atno 17394 bound_to 11000
  139.8890  134.8841  156.2443 LP  0  0  0  0  0  0  0  0  0  0  0  0  # atno 17395 bound_to 11000

$$$$
