AV-unprocessed.smi:993|AV-procd|sdf|4337|dock1
  -GOLD-   22720 2233D 1   1.00000     0.00000
 Structure written by MMmdl.
 31 32  0  0  0  0  0  0  0  0  2 V2000
  152.2493  138.6993  157.7805 C   0  0  0  0  0  0  0  0  0  0  0  0
  151.6692  140.0687  157.4774 C   0  0  0  0  0  0  0  0  0  0  0  0
  151.8918  141.0205  158.4100 N   0  0  0  0  0  0  0  0  0  0  0  0
  151.3980  142.2408  158.1779 C   0  0  0  0  0  0  0  0  0  0  0  0
  151.6341  143.2157  159.1427 N   0  0  0  0  0  0  0  0  0  0  0  0
  151.1862  144.5986  159.0513 C   0  0  0  0  0  0  0  0  0  0  0  0
  151.9113  145.3407  160.1755 C   0  0  0  0  0  0  0  0  0  0  0  0
  152.1484  144.2533  161.2206 C   0  0  0  0  0  0  0  0  0  0  0  0
  152.3748  142.9970  160.3776 C   0  0  0  0  0  0  0  0  0  0  0  0
  150.6946  142.6049  157.1007 N   0  0  0  0  0  0  0  0  0  0  0  0
  150.4595  141.6692  156.1561 C   0  0  0  0  0  0  0  0  0  0  0  0
  149.7392  142.0420  155.0584 O   0  0  0  0  0  0  0  0  0  0  0  0
  150.9365  140.3431  156.2958 C   0  0  0  0  0  0  0  0  0  0  0  0
  150.6815  139.2800  155.2299 C   0  0  0  0  0  0  0  0  0  0  0  0
  152.0275  138.7161  154.7651 C   0  0  0  0  0  0  0  0  0  0  0  0
  152.9853  139.5174  154.6995 O   0  0  0  0  0  0  0  0  0  0  0  0
  152.0815  137.4971  154.4893 O   0  5  0  0  0  0  0  0  0  0  0  0
  149.2024  142.8020  155.2187 H   0  0  0  0  0  0  0  0  0  0  0  0
  151.4540  137.9590  157.8655 H   0  0  0  0  0  0  0  0  0  0  0  0
  152.8071  138.7013  158.7177 H   0  0  0  0  0  0  0  0  0  0  0  0
  152.9300  138.3880  156.9884 H   0  0  0  0  0  0  0  0  0  0  0  0
  150.1062  144.6298  159.1998 H   0  0  0  0  0  0  0  0  0  0  0  0
  151.4108  145.0348  158.0773 H   0  0  0  0  0  0  0  0  0  0  0  0
  152.8697  145.7136  159.8117 H   0  0  0  0  0  0  0  0  0  0  0  0
  151.3433  146.1879  160.5602 H   0  0  0  0  0  0  0  0  0  0  0  0
  152.9831  144.4736  161.8862 H   0  0  0  0  0  0  0  0  0  0  0  0
  151.2528  144.1309  161.8311 H   0  0  0  0  0  0  0  0  0  0  0  0
  153.4320  142.8766  160.1383 H   0  0  0  0  0  0  0  0  0  0  0  0
  152.0375  142.1013  160.9002 H   0  0  0  0  0  0  0  0  0  0  0  0
  150.1502  139.7009  154.3762 H   0  0  0  0  0  0  0  0  0  0  0  0
  150.0480  138.4842  155.6221 H   0  0  0  0  0  0  0  0  0  0  0  0
  1 19  1  0  0  0  0
  1 20  1  0  0  0  0
  1 21  1  0  0  0  0
  1  2  1  0  0  0  0
  2 13  2  0  0  0  0
  2  3  1  0  0  0  0
  3  4  2  0  0  0  0
  4  5  1  0  0  0  0
  4 10  1  0  0  0  0
  5  9  1  0  0  0  0
  5  6  1  0  0  0  0
  6  7  1  0  0  0  0
  6 22  1  0  0  0  0
  6 23  1  0  0  0  0
  7  8  1  0  0  0  0
  7 24  1  0  0  0  0
  7 25  1  0  0  0  0
  8  9  1  0  0  0  0
  8 26  1  0  0  0  0
  8 27  1  0  0  0  0
  9 28  1  0  0  0  0
  9 29  1  0  0  0  0
 10 11  2  0  0  0  0
 11 12  1  0  0  0  0
 11 13  1  0  0  0  0
 12 18  1  0  0  0  0
 13 14  1  0  0  0  0
 14 15  1  0  0  0  0
 14 30  1  0  0  0  0
 14 31  1  0  0  0  0
 15 16  2  0  0  0  0
 15 17  1  0  0  0  0
M  CHG  1  17  -1
M  END
> <s_m_source_file>
AV-unprocessed.smi

> <i_m_source_file_index>
993

> <i_lp_mmshare_version>
43012

> <i_f3d_flags>
0

> <s_epik_input>
W0NIMl0xW0NIMl1bQ0gyXVtDSDJdTjFjKG5jMltDSDNdKVtuSF1jKD1PKWMyW0NIMl1DKD1PKVtPSF0=

> <s_epik_cmdline>
J2VwaWtfcHl0aG9uJywgJy1waCcsICc3LjAnLCAnLXRuJywgJzgnLCAnLW1hJywgJzIwMCcsICctbWV0YWxfYmluZGluZycsICctaW1hZScsICc8aW5maWxlLm1hZT4nLCAnLW9tYWUnLCAnPG91dGZpbGUubWFlPic=

> <r_lp_tautomer_probability>
0.0131408

> <r_epik_Ionization_Penalty>
7.69819

> <r_epik_Ionization_Penalty_Charging>
0.000581328

> <r_epik_Ionization_Penalty_Neutral>
7.69761

> <r_epik_State_Penalty>
2.72329

> <r_epik_Charging_Adjusted_Penalty>
2.72387

> <i_epik_Tot_Q>
-1

> <i_epik_Tot_abs_Q>
1

> <r_epik_Metal_State_Penalty>
2.93318

> <b_epik_Metal_Only>
0

> <s_lp_Force_Field>
OPLS_2005

> <r_lp_Energy>
12.7556

> <b_lp_Chiralities_Consistent>
1

> <s_lp_Variant>
AV-unprocessed.smi:993-3

> <Gold.Version>
5.8.1

> <Gold.Id.Protein>
6NUR|6NUR_protein|mol2

> <Gold.PLP.Fitness>
53.1606

> <Gold.PLP.PLP>
-39.4556

> <Gold.PLP.part.hbond>
-4.6660

> <Gold.PLP.part.metal>
0.0000

> <Gold.PLP.part.buried>
-6.1978

> <Gold.PLP.part.nonpolar>
-30.3083

> <Gold.PLP.part.repulsive>
0.2970

> <Gold.PLP.ligand.clash>
0.0000

> <Gold.PLP.ligand.torsion>
0.3487

> <Gold.PLP.Chemscore.Hbond>
4.7964

> <Gold.PLP.Chemscore.CHOScore>
0.0000

> <Gold.PLP.Chemscore.Metal>
0.0000

> <Gold.Chemscore.Hbonds>
donor molecule, donor type, donor heavy atom, donor atom, acceptor molecule, acceptor atom, score
      L1  H    12    18       P1  8028  1.00
      P1  H  7989  7998       L1    16  0.10
      P1  H  7997  8009       L1    16  2.00
      P1  H 10752 10765       L1    17  1.70

> <Gold.PLP.Chemscore.Internal.Correction>
0.0133

> <Gold.Rescore>
     Score         DG    S(hbond)    S(metal)    S(lipo)     H(rot)  DE(clash)    DE(int)     intcor
     16.63     -17.11       2.69        0.00      68.59       2.10       0.12       0.36       ----

> <Gold.Chemscore.Fitness>
16.6262

> <Gold.Chemscore.DG>
-17.1061

> <Gold.Chemscore.ZeroCoef>
-5.4800

> <Gold.Chemscore.Hbond>
2.6892

> <Gold.Chemscore.Metal>
0.0000

> <Gold.Chemscore.Lipo>
68.5910

> <Gold.Chemscore.Internal_Hbond>
0.0000

> <Gold.Chemscore.DEClash>
0.1214

> <Gold.Chemscore.DEInternal>
0.3584

> <Gold.Chemscore.Rot>
2.1020

> <Gold.Chemscore.Internal.Correction>
   9.000000E+99

> <Gold.Chemscore.Hbonds>
donor molecule, donor type, donor heavy atom, donor atom, acceptor molecule, acceptor atom, score
      L1  H    12    18       P1  8028  0.95
      P1  H  7997  8009       L1    16  0.96
      P1  H 10752 10765       L1    17  0.78

> <Gold.Chemscore.Hbond.Weighted>
-8.9820

> <Gold.Chemscore.Metal.Weighted>
-0.0000

> <Gold.Chemscore.Lipo.Weighted>
-8.0251

> <Gold.Chemscore.Internal_Hbond.Weighted>
0.0000

> <Gold.Chemscore.DEClash.Weighted>
0.1214

> <Gold.Chemscore.DEInternal.Weighted>
0.3584

> <Gold.Chemscore.Rot.Weighted>
5.3810

> <Gold.Chemscore.Internal.Correction.Weighted>
   9.000000E+99

> <Gold.Protein.RotatedTorsions>
[ 6907 6896 6895 6894 ] final -139.56 input  -60.11 | X-H torsion
[ 7974 7965 7964 7962 ] final   53.25 input  175.53 | X-H torsion
[ 8008 7997 7996 7995 ] final -127.73 input   59.86 | X-H torsion
[ 10167 10162 10161 10158 ] final   62.06 input  -65.29 | X-H torsion
[ 10718 10713 10712 10709 ] final -100.92 input   66.30 | X-H torsion
[ 10763 10752 10751 10750 ] final  161.26 input  -60.55 | X-H torsion
[ 11005 11000 10999 10996 ] final -167.63 input  -57.11 | X-H torsion

> <Gold.Protein.ActiveResidues>
 VAL166  LYS551  ARG553  GLY616  TRP617  ASP618  TYR619  PRO620  LYS621  CYS622 
 ASP623  PHE694  ASN695  SER759  ASP760  ASP761  ALA762  ILE779  LEU786  VAL792 
 PHE793  MET794  SER795  GLU796  ALA797  LYS798  CYS799  TRP800  GLU811  SER814 

> <Gold.Protein.RotatedAtoms>
  151.0493  133.5638  159.2643 H   0  0  0  0  0  0  0  0  0  0  0  0  # atno 6907 bound_to 6896
  151.2655  135.0667  159.9124 H   0  0  0  0  0  0  0  0  0  0  0  0  # atno 6908 bound_to 6896
  152.5379  134.0232  159.8045 H   0  0  0  0  0  0  0  0  0  0  0  0  # atno 6909 bound_to 6896
  145.9731  139.4168  143.0178 H   0  0  0  0  0  0  0  0  0  0  0  0  # atno 7974 bound_to 7965
  155.2510  140.0432  157.2986 H   0  0  0  0  0  0  0  0  0  0  0  0  # atno 8008 bound_to 7997
  154.5769  140.2389  155.8079 H   0  0  0  0  0  0  0  0  0  0  0  0  # atno 8009 bound_to 7997
  156.2164  140.2983  155.9858 H   0  0  0  0  0  0  0  0  0  0  0  0  # atno 8010 bound_to 7997
  140.1481  144.4489  150.6774 H   0  0  0  0  0  0  0  0  0  0  0  0  # atno 10167 bound_to 10162
  156.0178  130.5350  150.6888 H   0  0  0  0  0  0  0  0  0  0  0  0  # atno 10718 bound_to 10713
  154.2601  135.2769  155.2781 H   0  0  0  0  0  0  0  0  0  0  0  0  # atno 10763 bound_to 10752
  154.5391  135.5708  153.6827 H   0  0  0  0  0  0  0  0  0  0  0  0  # atno 10764 bound_to 10752
  152.9964  135.6246  154.2751 H   0  0  0  0  0  0  0  0  0  0  0  0  # atno 10765 bound_to 10752
  140.5511  134.5428  157.5122 H   0  0  0  0  0  0  0  0  0  0  0  0  # atno 11005 bound_to 11000
  145.7878  140.9828  143.1065 LP  0  0  0  0  0  0  0  0  0  0  0  0  # atno 17320 bound_to 7965
  144.6842  139.9644  143.7481 LP  0  0  0  0  0  0  0  0  0  0  0  0  # atno 17321 bound_to 7965
  140.6720  143.2289  151.5603 LP  0  0  0  0  0  0  0  0  0  0  0  0  # atno 17342 bound_to 10162
  139.5439  144.2573  152.1405 LP  0  0  0  0  0  0  0  0  0  0  0  0  # atno 17343 bound_to 10162
  157.4574  131.0879  151.0782 LP  0  0  0  0  0  0  0  0  0  0  0  0  # atno 17370 bound_to 10713
  157.1280  130.6090  149.5522 LP  0  0  0  0  0  0  0  0  0  0  0  0  # atno 17371 bound_to 10713
  139.9455  134.7710  156.0573 LP  0  0  0  0  0  0  0  0  0  0  0  0  # atno 17394 bound_to 11000
  141.1171  133.6624  156.3121 LP  0  0  0  0  0  0  0  0  0  0  0  0  # atno 17395 bound_to 11000

$$$$
