AV-unprocessed.smi:1414|AV-procd|sdf|5760|dock1
  -GOLD-   22720 5393D 1   1.00000     0.00000
 Structure written by MMmdl.
 45 46  0  0  0  0  0  0  0  0  1 V2000
  148.9805  139.2125  154.0933 C   0  0  0  0  0  0  0  0  0  0  0  0
  150.5098  139.0845  153.9879 C   0  0  2  0  0  0  0  0  0  0  0  0
  151.0481  137.6426  154.1486 C   0  0  0  0  0  0  0  0  0  0  0  0
  151.3198  137.2704  155.5494 N   0  0  0  0  0  0  0  0  0  0  0  0
  150.6566  135.8226  156.2459 S   0  0  0  0  0  0  0  0  0  0  0  0
  151.7733  134.8906  156.4653 O   0  0  0  0  0  0  0  0  0  0  0  0
  149.8010  136.2213  157.3743 O   0  0  0  0  0  0  0  0  0  0  0  0
  149.5930  135.1371  154.9025 C   0  0  0  0  0  0  0  0  0  0  0  0
  150.0045  133.7078  154.5135 C   0  0  0  0  0  0  0  0  0  0  0  0
  149.3065  133.2573  153.3155 N   0  0  0  0  0  0  0  0  0  0  0  0
  147.9878  133.3716  153.1055 C   0  0  0  0  0  0  0  0  0  0  0  0
  147.2115  133.8715  153.9188 O   0  0  0  0  0  0  0  0  0  0  0  0
  147.6377  132.8540  151.9160 N   0  0  0  0  0  0  0  0  0  0  0  0
  146.3523  132.8296  151.3122 C   0  0  0  0  0  0  0  0  0  0  0  0
  145.3875  133.7521  151.7664 C   0  0  0  0  0  0  0  0  0  0  0  0
  144.0992  133.7319  151.1997 C   0  0  0  0  0  0  0  0  0  0  0  0
  143.8218  132.7784  150.2014 C   0  0  0  0  0  0  0  0  0  0  0  0
  144.7284  131.8785  149.7655 N   0  0  0  0  0  0  0  0  0  0  0  0
  145.9630  131.9045  150.3120 C   0  0  0  0  0  0  0  0  0  0  0  0
  151.9110  138.3174  156.3934 C   0  0  0  0  0  0  0  0  0  0  0  0
  151.1582  139.6440  156.2223 C   0  0  1  0  0  0  0  0  0  0  0  0
  151.8057  140.7794  157.0219 C   0  0  0  0  0  0  0  0  0  0  0  0
  151.1744  140.0066  154.8477 O   0  0  0  0  0  0  0  0  0  0  0  0
  148.4841  138.5557  153.3787 H   0  0  0  0  0  0  0  0  0  0  0  0
  148.6652  140.2328  153.8743 H   0  0  0  0  0  0  0  0  0  0  0  0
  148.6042  138.9639  155.0816 H   0  0  0  0  0  0  0  0  0  0  0  0
  150.7601  139.3999  152.9745 H   0  0  0  0  0  0  0  0  0  0  0  0
  150.3674  136.9286  153.6856 H   0  0  0  0  0  0  0  0  0  0  0  0
  151.9900  137.5583  153.6058 H   0  0  0  0  0  0  0  0  0  0  0  0
  148.5534  135.2024  155.2137 H   0  0  0  0  0  0  0  0  0  0  0  0
  149.7066  135.7918  154.0383 H   0  0  0  0  0  0  0  0  0  0  0  0
  151.0749  133.6700  154.3109 H   0  0  0  0  0  0  0  0  0  0  0  0
  149.8212  133.0134  155.3332 H   0  0  0  0  0  0  0  0  0  0  0  0
  149.8679  132.8238  152.5970 H   0  0  0  0  0  0  0  0  0  0  0  0
  148.3689  132.3870  151.4001 H   0  0  0  0  0  0  0  0  0  0  0  0
  145.6296  134.4700  152.5366 H   0  0  0  0  0  0  0  0  0  0  0  0
  143.3411  134.4296  151.5235 H   0  0  0  0  0  0  0  0  0  0  0  0
  142.8440  132.7337  149.7451 H   0  0  0  0  0  0  0  0  0  0  0  0
  146.6348  131.1444  149.9446 H   0  0  0  0  0  0  0  0  0  0  0  0
  151.9076  138.0103  157.4387 H   0  0  0  0  0  0  0  0  0  0  0  0
  152.9561  138.4405  156.1073 H   0  0  0  0  0  0  0  0  0  0  0  0
  150.1329  139.5343  156.5713 H   0  0  0  0  0  0  0  0  0  0  0  0
  151.8120  140.5531  158.0885 H   0  0  0  0  0  0  0  0  0  0  0  0
  151.2593  141.7128  156.8844 H   0  0  0  0  0  0  0  0  0  0  0  0
  152.8364  140.9469  156.7083 H   0  0  0  0  0  0  0  0  0  0  0  0
  1  2  1  0  0  0  0
  1 24  1  0  0  0  0
  1 25  1  0  0  0  0
  1 26  1  0  0  0  0
  2 23  1  0  0  0  0
  2  3  1  0  0  0  0
  2 27  1  0  0  0  0
  3  4  1  0  0  0  0
  3 28  1  0  0  0  0
  3 29  1  0  0  0  0
  4  5  1  0  0  0  0
  4 20  1  0  0  0  0
  5  6  2  0  0  0  0
  5  7  2  0  0  0  0
  5  8  1  0  0  0  0
  8  9  1  0  0  0  0
  8 30  1  0  0  0  0
  8 31  1  0  0  0  0
  9 10  1  0  0  0  0
  9 32  1  0  0  0  0
  9 33  1  0  0  0  0
 10 11  1  0  0  0  0
 10 34  1  0  0  0  0
 11 12  2  0  0  0  0
 11 13  1  0  0  0  0
 13 14  1  0  0  0  0
 13 35  1  0  0  0  0
 14 19  1  0  0  0  0
 14 15  2  0  0  0  0
 15 16  1  0  0  0  0
 15 36  1  0  0  0  0
 16 17  2  0  0  0  0
 16 37  1  0  0  0  0
 17 18  1  0  0  0  0
 17 38  1  0  0  0  0
 18 19  2  0  0  0  0
 19 39  1  0  0  0  0
 20 21  1  0  0  0  0
 20 40  1  0  0  0  0
 20 41  1  0  0  0  0
 21 22  1  0  0  0  0
 21 23  1  0  0  0  0
 21 42  1  0  0  0  0
 22 43  1  0  0  0  0
 22 44  1  0  0  0  0
 22 45  1  0  0  0  0
M  END
> <s_m_source_file>
AV-unprocessed.smi

> <i_m_source_file_index>
1414

> <i_lp_mmshare_version>
43012

> <i_f3d_flags>
0

> <s_epik_input>
W0NIM11bQ0BASF0xW0NIMl1OKFtDSDJdW0NASF0oTzEpW0NIM10pUyg9TykoPU8pW0NIMl1bQ0gyXVtOSF1DKD1PKVtOSF1jMltjSF1bY0hdW2NIXW5bY0hdMg==

> <s_epik_cmdline>
J2VwaWtfcHl0aG9uJywgJy1waCcsICc3LjAnLCAnLXRuJywgJzgnLCAnLW1hJywgJzIwMCcsICctbWV0YWxfYmluZGluZycsICctaW1hZScsICc8aW5maWxlLm1hZT4nLCAnLW9tYWUnLCAnPG91dGZpbGUubWFlPic=

> <r_epik_Ionization_Penalty>
0.00437531

> <r_epik_Ionization_Penalty_Charging>
0

> <r_epik_Ionization_Penalty_Neutral>
0.00437531

> <r_epik_State_Penalty>
0.00312896

> <r_epik_Charging_Adjusted_Penalty>
0.00312896

> <i_epik_Tot_Q>
0

> <i_epik_Tot_abs_Q>
0

> <r_epik_Metal_State_Penalty>
-0

> <b_epik_Metal_Only>
0

> <s_lp_Force_Field>
OPLS_2005

> <r_lp_Energy>
6.94025

> <b_lp_Chiralities_Consistent>
1

> <s_lp_Variant>
AV-unprocessed.smi:1414-1

> <Gold.Version>
5.8.1

> <Gold.Id.Protein>
6NUR|6NUR_protein|mol2

> <Gold.PLP.Fitness>
50.1842

> <Gold.PLP.PLP>
-38.0098

> <Gold.PLP.part.hbond>
-3.5375

> <Gold.PLP.part.metal>
0.0000

> <Gold.PLP.part.buried>
-4.4834

> <Gold.PLP.part.nonpolar>
-29.2220

> <Gold.PLP.part.repulsive>
0.2945

> <Gold.PLP.ligand.clash>
0.0000

> <Gold.PLP.ligand.torsion>
1.4524

> <Gold.PLP.Chemscore.Hbond>
2.3221

> <Gold.PLP.Chemscore.CHOScore>
2.0000

> <Gold.PLP.Chemscore.Metal>
0.0000

> <Gold.Chemscore.Hbonds>
donor molecule, donor type, donor heavy atom, donor atom, acceptor molecule, acceptor atom, score
      L1  H    13    35       P1 10747  1.00
      P1  H  7989  7998       L1    23  0.45
      P1  H 10752 10764       L1     6  0.99
      L1  C    17    38       P1 10186  1.00
      L1  C    19    39       P1 10747  1.00

> <Gold.PLP.Chemscore.Internal.Correction>
2.1129

> <Gold.Rescore>
     Score         DG    S(hbond)    S(metal)    S(lipo)     H(rot)  DE(clash)    DE(int)     intcor
     13.33     -17.50       1.75        0.00      86.97       1.57       0.02       4.15       ----

> <Gold.Chemscore.Fitness>
13.3269

> <Gold.Chemscore.DG>
-17.4968

> <Gold.Chemscore.ZeroCoef>
-5.4800

> <Gold.Chemscore.Hbond>
1.7536

> <Gold.Chemscore.Metal>
0.0000

> <Gold.Chemscore.Lipo>
86.9731

> <Gold.Chemscore.Internal_Hbond>
0.0000

> <Gold.Chemscore.DEClash>
0.0174

> <Gold.Chemscore.DEInternal>
4.1524

> <Gold.Chemscore.Rot>
1.5687

> <Gold.Chemscore.Internal.Correction>
   9.000000E+99

> <Gold.Chemscore.Hbonds>
donor molecule, donor type, donor heavy atom, donor atom, acceptor molecule, acceptor atom, score
      L1  H    13    35       P1 10747  0.93
      P1  H  7989  7998       L1    23  0.02
      P1  H 10752 10764       L1     6  0.44

> <Gold.Chemscore.Hbond.Weighted>
-5.8569

> <Gold.Chemscore.Metal.Weighted>
-0.0000

> <Gold.Chemscore.Lipo.Weighted>
-10.1758

> <Gold.Chemscore.Internal_Hbond.Weighted>
0.0000

> <Gold.Chemscore.DEClash.Weighted>
0.0174

> <Gold.Chemscore.DEInternal.Weighted>
4.1524

> <Gold.Chemscore.Rot.Weighted>
4.0160

> <Gold.Chemscore.Internal.Correction.Weighted>
   9.000000E+99

> <Gold.Protein.RotatedTorsions>
[ 6907 6896 6895 6894 ] final -124.12 input  -60.11 | X-H torsion
[ 7974 7965 7964 7962 ] final -112.95 input  175.53 | X-H torsion
[ 8008 7997 7996 7995 ] final  116.15 input   59.86 | X-H torsion
[ 10167 10162 10161 10158 ] final  146.43 input  -65.29 | X-H torsion
[ 10718 10713 10712 10709 ] final -162.39 input   66.30 | X-H torsion
[ 10763 10752 10751 10750 ] final  -25.92 input  -60.55 | X-H torsion
[ 11005 11000 10999 10996 ] final -141.36 input  -57.11 | X-H torsion

> <Gold.Protein.ActiveResidues>
 VAL166  LYS551  ARG553  GLY616  TRP617  ASP618  TYR619  PRO620  LYS621  CYS622 
 ASP623  PHE694  ASN695  SER759  ASP760  ASP761  ALA762  ILE779  LEU786  VAL792 
 PHE793  MET794  SER795  GLU796  ALA797  LYS798  CYS799  TRP800  GLU811  SER814 

> <Gold.Protein.RotatedAtoms>
  150.8737  133.7469  159.2953 H   0  0  0  0  0  0  0  0  0  0  0  0  # atno 6907 bound_to 6896
  151.5073  135.1062  159.9854 H   0  0  0  0  0  0  0  0  0  0  0  0  # atno 6908 bound_to 6896
  152.4713  133.7990  159.6998 H   0  0  0  0  0  0  0  0  0  0  0  0  # atno 6909 bound_to 6896
  145.1378  140.8761  143.3720 H   0  0  0  0  0  0  0  0  0  0  0  0  # atno 7974 bound_to 7965
  156.2422  140.2923  156.0478 H   0  0  0  0  0  0  0  0  0  0  0  0  # atno 8008 bound_to 7997
  155.1915  140.0407  157.2918 H   0  0  0  0  0  0  0  0  0  0  0  0  # atno 8009 bound_to 7997
  154.6191  140.2471  155.7579 H   0  0  0  0  0  0  0  0  0  0  0  0  # atno 8010 bound_to 7997
  139.4907  144.5830  151.6835 H   0  0  0  0  0  0  0  0  0  0  0  0  # atno 10167 bound_to 10162
  156.6097  130.8845  151.2933 H   0  0  0  0  0  0  0  0  0  0  0  0  # atno 10718 bound_to 10713
  153.7076  135.6952  153.5046 H   0  0  0  0  0  0  0  0  0  0  0  0  # atno 10763 bound_to 10752
  153.2296  135.4342  155.0579 H   0  0  0  0  0  0  0  0  0  0  0  0  # atno 10764 bound_to 10752
  154.8325  135.3481  154.6614 H   0  0  0  0  0  0  0  0  0  0  0  0  # atno 10765 bound_to 10752
  140.8332  134.2491  157.4846 H   0  0  0  0  0  0  0  0  0  0  0  0  # atno 11005 bound_to 11000
  145.0565  139.3139  143.5902 LP  0  0  0  0  0  0  0  0  0  0  0  0  # atno 17320 bound_to 7965
  146.3508  139.9992  142.8678 LP  0  0  0  0  0  0  0  0  0  0  0  0  # atno 17321 bound_to 7965
  140.5440  144.0534  150.6099 LP  0  0  0  0  0  0  0  0  0  0  0  0  # atno 17342 bound_to 10162
  140.3565  143.2932  152.0430 LP  0  0  0  0  0  0  0  0  0  0  0  0  # atno 17343 bound_to 10162
  157.7257  130.9620  150.1627 LP  0  0  0  0  0  0  0  0  0  0  0  0  # atno 17370 bound_to 10713
  156.2400  130.3690  149.8348 LP  0  0  0  0  0  0  0  0  0  0  0  0  # atno 17371 bound_to 10713
  139.8704  134.9597  156.4340 LP  0  0  0  0  0  0  0  0  0  0  0  0  # atno 17394 bound_to 11000
  140.8975  133.7803  155.9642 LP  0  0  0  0  0  0  0  0  0  0  0  0  # atno 17395 bound_to 11000

$$$$
