#       Name:                AV-unprocessed.smi:1835
#       Creating user name   scv26
#       Creation time:       Fri Mar 27 09:16:54 2020


#       File generated by GOLD software.
#

@<TRIPOS>MOLECULE
AV-unprocessed.smi:1835
    48    49     1
SMALL
NO_CHARGES


@<TRIPOS>ATOM
      1 ****        -2.4374   1.1348  -0.6076 C.3            1 S1                 0.0000
      2 ****        -1.8878  -0.3132  -0.6806 C.3            1 S1                 0.0000
      3 ****        -0.3365  -0.2667  -0.6046 C.3            1 S1                 0.0000
      4 ****         0.1399   0.4124   0.5952 N.am           1 S1                 0.0000
      5 ****         1.4300   0.5572   0.9284 C.2            1 S1                 0.0000
      6 ****         2.3547   0.1156   0.2444 O.2            1 S1                 0.0000
      7 ****         1.6993   1.3026   2.2438 C.3            1 S1                 0.0000
      8 ****         3.1173   1.6388   2.4532 N.am           1 S1                 0.0000
      9 ****         3.8757   0.7498   3.2409 C.2            1 S1                 0.0000
     10 ****         5.1762   0.9610   3.4975 C.2            1 S1                 0.0000
     11 ****         5.7985   2.1398   2.9429 C.2            1 S1                 0.0000
     12 ****         5.0838   2.9937   2.1834 C.2            1 S1                 0.0000
     13 ****         3.6628   2.7642   1.8962 C.2            1 S1                 0.0000
     14 ****         3.0039   3.5365   1.1995 O.2            1 S1                 0.0000
     15 ****        -2.4014  -1.0567  -1.8552 N.3            1 S1                 0.0000
     16 ****        -3.8677  -1.1237  -1.8761 C.3            1 S1                 0.0000
     17 ****        -4.4149  -1.9161  -3.0757 C.3            1 S1                 0.0000
     18 ****        -3.8690  -3.2275  -3.0704 O.3            1 S1                 0.0000
     19 ****        -2.4499  -3.2128  -3.1323 C.3            1 S1                 0.0000
     20 ****        -1.8849  -2.4283  -1.9350 C.3            1 S1                 0.0000
     21 ****        -2.0224   1.6997   0.2263 H              1 S1                 0.0000
     22 ****        -3.5156   1.1614  -0.4567 H              1 S1                 0.0000
     23 ****        -2.2111   1.6873  -1.5203 H              1 S1                 0.0000
     24 ****        -2.2307  -0.8297   0.2173 H              1 S1                 0.0000
     25 ****         0.0888  -1.2689  -0.5721 H              1 S1                 0.0000
     26 ****         0.0699   0.2280  -1.4884 H              1 S1                 0.0000
     27 ****        -0.5601   0.8015   1.2099 H              1 S1                 0.0000
     28 ****         1.0894   2.2076   2.2723 H              1 S1                 0.0000
     29 ****         1.3315   0.6868   3.0659 H              1 S1                 0.0000
     30 ****         3.3373  -0.1100   3.6123 H              1 S1                 0.0000
     31 ****         5.7425   0.2658   4.0998 H              1 S1                 0.0000
     32 ****         6.8422   2.3374   3.1373 H              1 S1                 0.0000
     33 ****         5.5667   3.8697   1.7760 H              1 S1                 0.0000
     34 ****        -4.2304  -1.5746  -0.9510 H              1 S1                 0.0000
     35 ****        -4.2983  -0.1258  -1.9312 H              1 S1                 0.0000
     36 ****        -5.5014  -1.9838  -3.0200 H              1 S1                 0.0000
     37 ****        -4.1726  -1.4143  -4.0139 H              1 S1                 0.0000
     38 ****        -2.0832  -4.2392  -3.1181 H              1 S1                 0.0000
     39 ****        -2.1236  -2.7692  -4.0743 H              1 S1                 0.0000
     40 ****        -0.8025  -2.4257  -2.0461 H              1 S1                 0.0000
     41 ****        -2.1101  -2.9638  -1.0116 H              1 S1                 0.0000
     42 ****         2.1585  -0.3774  -0.6032 LP             1 S1                 0.0000
     43 ****         3.3015   0.2501   0.5368 LP             1 S1                 0.0000
     44 ****         2.0370   3.3508   1.0245 LP             1 S1                 0.0000
     45 ****         3.4357   4.3494   0.8086 LP             1 S1                 0.0000
     46 ****        -2.0742  -0.5358  -2.6436 LP             1 S1                 0.0000
     47 ****        -4.2216  -3.7273  -3.8615 LP             1 S1                 0.0000
     48 ****        -4.1508  -3.6913  -2.2305 LP             1 S1                 0.0000
@<TRIPOS>BOND
    1    1    2 1     
    2    1   21 1     
    3    1   22 1     
    4    1   23 1     
    5    2    3 1     
    6    2   15 1     
    7    2   24 1     
    8    3    4 1     
    9    3   25 1     
   10    3   26 1     
   11    4    5 am    
   12    4   27 1     
   13    5    6 2     
   14    5    7 1     
   15    7    8 1     
   16    7   28 1     
   17    7   29 1     
   18    8   13 am    
   19    8    9 1     
   20    9   10 2     
   21    9   30 1     
   22   10   11 1     
   23   10   31 1     
   24   11   12 2     
   25   11   32 1     
   26   12   13 1     
   27   12   33 1     
   28   13   14 2     
   29   15   20 1     
   30   15   16 1     
   31   16   17 1     
   32   16   34 1     
   33   16   35 1     
   34   17   18 1     
   35   17   36 1     
   36   17   37 1     
   37   18   19 1     
   38   19   20 1     
   39   19   38 1     
   40   19   39 1     
   41   20   40 1     
   42   20   41 1     
   43    6   42 1     
   44    6   43 1     
   45   14   44 1     
   46   14   45 1     
   47   15   46 1     
   48   18   47 1     
   49   18   48 1     
@<TRIPOS>SUBSTRUCTURE
      1 S1             1
@<TRIPOS>SET
LONE_PAIRS      STATIC     ATOMS    <user>   **** ""
7 42 43 44 45 46 47 48
DONOR_HYDROGENS      STATIC     ATOMS    <user>   **** ""
1 27
ATOM$BLUE        STATIC     ATOMS    COLORGROUP SYSTEM
7 42 43 44 45 46 47 48
ATOM$RED        STATIC     ATOMS    COLORGROUP SYSTEM
1 27
