AV-unprocessed.smi:33|AV-procd|sdf|208|dock9
  -GOLD-   2262015503D 1   1.00000     0.00000
 Structure written by MMmdl.
 67 72  0  0  0  0  0  0  0  0  1 V2000
  147.6285  129.5648  153.2087 O   0  0  0  0  0  0  0  0  0  0  0  0
  147.4042  130.7769  153.2232 C   0  0  0  0  0  0  0  0  0  0  0  0
  147.9433  131.6270  154.1196 O   0  0  0  0  0  0  0  0  0  0  0  0
  149.0288  131.2139  154.9351 C   0  0  0  0  0  0  0  0  0  0  0  0
  150.3047  131.9365  154.4737 C   0  0  1  0  0  0  0  0  0  0  0  0
  150.0722  133.3486  154.5062 O   0  0  0  0  0  0  0  0  0  0  0  0
  150.8611  133.9653  155.4815 C   0  0  1  0  0  0  0  0  0  0  0  0
  150.0612  135.0051  156.2059 N   0  0  0  0  0  0  0  0  0  0  0  0
  150.4396  136.3006  156.4809 C   0  0  0  0  0  0  0  0  0  0  0  0
  149.5608  137.0184  157.1268 N   0  0  0  0  0  0  0  0  0  0  0  0
  148.4918  136.1518  157.3110 C   0  0  0  0  0  0  0  0  0  0  0  0
  147.2178  136.2719  157.9290 C   0  0  0  0  0  0  0  0  0  0  0  0
  146.7845  137.4170  158.5061 N   0  0  0  0  0  0  0  0  0  0  0  0
  146.1661  137.3021  159.8352 C   0  0  0  0  0  0  0  0  0  0  0  0
  145.3845  138.1736  160.2206 O   0  0  0  0  0  0  0  0  0  0  0  0
  146.4468  136.1111  160.7069 C   0  0  0  0  0  0  0  0  0  0  0  0
  145.4143  135.5491  161.4894 C   0  0  0  0  0  0  0  0  0  0  0  0
  145.6752  134.4408  162.3187 C   0  0  0  0  0  0  0  0  0  0  0  0
  146.9737  133.9009  162.3862 C   0  0  0  0  0  0  0  0  0  0  0  0
  148.0139  134.4749  161.6307 C   0  0  0  0  0  0  0  0  0  0  0  0
  147.7537  135.5816  160.7997 C   0  0  0  0  0  0  0  0  0  0  0  0
  146.9852  138.6661  157.7568 C   0  0  0  0  0  0  0  0  0  0  0  0
  147.0625  139.7340  158.3673 O   0  0  0  0  0  0  0  0  0  0  0  0
  147.1542  138.6430  156.2637 C   0  0  0  0  0  0  0  0  0  0  0  0
  148.0486  139.5403  155.6398 C   0  0  0  0  0  0  0  0  0  0  0  0
  148.2030  139.5306  154.2399 C   0  0  0  0  0  0  0  0  0  0  0  0
  147.4503  138.6376  153.4536 C   0  0  0  0  0  0  0  0  0  0  0  0
  146.5351  137.7610  154.0665 C   0  0  0  0  0  0  0  0  0  0  0  0
  146.3807  137.7694  155.4663 C   0  0  0  0  0  0  0  0  0  0  0  0
  146.4037  135.1850  157.9324 N   0  0  0  0  0  0  0  0  0  0  0  0
  146.8129  134.0495  157.3602 C   0  0  0  0  0  0  0  0  0  0  0  0
  147.9698  133.7963  156.7449 N   0  0  0  0  0  0  0  0  0  0  0  0
  148.7930  134.8841  156.7409 C   0  0  0  0  0  0  0  0  0  0  0  0
  151.4023  132.8648  156.4019 C   0  0  1  0  0  0  0  0  0  0  0  0
  150.5434  132.5653  157.4886 O   0  0  0  0  0  0  0  0  0  0  0  0
  151.5046  131.7265  155.4045 C   0  0  1  0  0  0  0  0  0  0  0  0
  151.5806  130.5200  155.9692 F   0  0  0  0  0  0  0  0  0  0  0  0
  146.4936  131.4549  152.2564 C   0  0  0  0  0  0  0  0  0  0  0  0
  145.4773  130.7050  151.6195 C   0  0  0  0  0  0  0  0  0  0  0  0
  144.5988  131.3187  150.7055 C   0  0  0  0  0  0  0  0  0  0  0  0
  144.7266  132.6896  150.4161 C   0  0  0  0  0  0  0  0  0  0  0  0
  145.7341  133.4464  151.0421 C   0  0  0  0  0  0  0  0  0  0  0  0
  146.6126  132.8348  151.9577 C   0  0  0  0  0  0  0  0  0  0  0  0
  148.8327  131.4206  155.9869 H   0  0  0  0  0  0  0  0  0  0  0  0
  149.1462  130.1346  154.8343 H   0  0  0  0  0  0  0  0  0  0  0  0
  150.5557  131.6213  153.4602 H   0  0  0  0  0  0  0  0  0  0  0  0
  151.6583  134.5214  154.9858 H   0  0  0  0  0  0  0  0  0  0  0  0
  151.3985  136.7004  156.1842 H   0  0  0  0  0  0  0  0  0  0  0  0
  144.4140  135.9553  161.4450 H   0  0  0  0  0  0  0  0  0  0  0  0
  144.8787  134.0059  162.9041 H   0  0  0  0  0  0  0  0  0  0  0  0
  147.1728  133.0515  163.0228 H   0  0  0  0  0  0  0  0  0  0  0  0
  149.0123  134.0675  161.6896 H   0  0  0  0  0  0  0  0  0  0  0  0
  148.5608  136.0173  160.2285 H   0  0  0  0  0  0  0  0  0  0  0  0
  148.6318  140.2298  156.2331 H   0  0  0  0  0  0  0  0  0  0  0  0
  148.8989  140.2093  153.7694 H   0  0  0  0  0  0  0  0  0  0  0  0
  147.5699  138.6302  152.3802 H   0  0  0  0  0  0  0  0  0  0  0  0
  145.9504  137.0819  153.4637 H   0  0  0  0  0  0  0  0  0  0  0  0
  145.6722  137.0947  155.9250 H   0  0  0  0  0  0  0  0  0  0  0  0
  146.1145  133.2265  157.3990 H   0  0  0  0  0  0  0  0  0  0  0  0
  152.3758  133.1578  156.7965 H   0  0  0  0  0  0  0  0  0  0  0  0
  149.8783  131.9646  157.1884 H   0  0  0  0  0  0  0  0  0  0  0  0
  152.4218  131.8484  154.8262 H   0  0  0  0  0  0  0  0  0  0  0  0
  145.3584  129.6514  151.8272 H   0  0  0  0  0  0  0  0  0  0  0  0
  143.8253  130.7366  150.2268 H   0  0  0  0  0  0  0  0  0  0  0  0
  144.0529  133.1600  149.7152 H   0  0  0  0  0  0  0  0  0  0  0  0
  145.8330  134.4987  150.8208 H   0  0  0  0  0  0  0  0  0  0  0  0
  147.3743  133.4448  152.4211 H   0  0  0  0  0  0  0  0  0  0  0  0
  1  2  2  0  0  0  0
  2  3  1  0  0  0  0
  2 38  1  0  0  0  0
  3  4  1  0  0  0  0
  4  5  1  0  0  0  0
  4 44  1  0  0  0  0
  4 45  1  0  0  0  0
  5 36  1  0  0  0  0
  5  6  1  0  0  0  0
  5 46  1  0  0  0  0
  6  7  1  0  0  0  0
  7  8  1  0  0  0  0
  7 34  1  0  0  0  0
  7 47  1  0  0  0  0
  8 33  1  0  0  0  0
  8  9  1  0  0  0  0
  9 10  2  0  0  0  0
  9 48  1  0  0  0  0
 10 11  1  0  0  0  0
 11 33  2  0  0  0  0
 11 12  1  0  0  0  0
 12 13  1  0  0  0  0
 12 30  2  0  0  0  0
 13 14  1  0  0  0  0
 13 22  1  0  0  0  0
 14 15  2  0  0  0  0
 14 16  1  0  0  0  0
 16 21  1  0  0  0  0
 16 17  2  0  0  0  0
 17 18  1  0  0  0  0
 17 49  1  0  0  0  0
 18 19  2  0  0  0  0
 18 50  1  0  0  0  0
 19 20  1  0  0  0  0
 19 51  1  0  0  0  0
 20 21  2  0  0  0  0
 20 52  1  0  0  0  0
 21 53  1  0  0  0  0
 22 23  2  0  0  0  0
 22 24  1  0  0  0  0
 24 29  1  0  0  0  0
 24 25  2  0  0  0  0
 25 26  1  0  0  0  0
 25 54  1  0  0  0  0
 26 27  2  0  0  0  0
 26 55  1  0  0  0  0
 27 28  1  0  0  0  0
 27 56  1  0  0  0  0
 28 29  2  0  0  0  0
 28 57  1  0  0  0  0
 29 58  1  0  0  0  0
 30 31  1  0  0  0  0
 31 32  2  0  0  0  0
 31 59  1  0  0  0  0
 32 33  1  0  0  0  0
 34 35  1  0  0  0  0
 34 36  1  0  0  0  0
 34 60  1  0  0  0  0
 35 61  1  0  0  0  0
 36 37  1  0  0  0  0
 36 62  1  0  0  0  0
 38 43  1  0  0  0  0
 38 39  2  0  0  0  0
 39 40  1  0  0  0  0
 39 63  1  0  0  0  0
 40 41  2  0  0  0  0
 40 64  1  0  0  0  0
 41 42  1  0  0  0  0
 41 65  1  0  0  0  0
 42 43  2  0  0  0  0
 42 66  1  0  0  0  0
 43 67  1  0  0  0  0
M  END
> <s_m_source_file>
AV-unprocessed.smi

> <i_m_source_file_index>
33

> <i_lp_mmshare_version>
43012

> <i_f3d_flags>
0

> <s_epik_input>
W2NIXTFbY0hdW2NIXVtjSF1bY0hdYzFDKD1PKU9bQ0gyXVtDQEBIXTJPW0NASF0oW0NAQEhdKFtPSF0pW0NAQEhdMkYpbihbY0hdbjMpYyhjMzQpbltjSF1uYzROKEMoPU8pYzVbY0hdW2NIXVtjSF1bY0hdW2NIXTUpQyg9TyljNltjSF1bY0hdW2NIXVtjSF1bY0hdNg==

> <s_epik_cmdline>
J2VwaWtfcHl0aG9uJywgJy1waCcsICc3LjAnLCAnLXRuJywgJzgnLCAnLW1hJywgJzIwMCcsICctbWV0YWxfYmluZGluZycsICctaW1hZScsICc8aW5maWxlLm1hZT4nLCAnLW9tYWUnLCAnPG91dGZpbGUubWFlPic=

> <r_lp_tautomer_probability>
1

> <r_epik_Ionization_Penalty>
0.00067664

> <r_epik_Ionization_Penalty_Charging>
0

> <r_epik_Ionization_Penalty_Neutral>
0.00067664

> <r_epik_State_Penalty>
0.000428095

> <r_epik_Charging_Adjusted_Penalty>
0.000428095

> <i_epik_Tot_Q>
0

> <i_epik_Tot_abs_Q>
0

> <r_epik_Metal_State_Penalty>
-0

> <b_epik_Metal_Only>
0

> <s_epik_Chemistry_Notes>
This compound has an ester and may undergo hydrolysis at high or low pH. This compound contains an acetal/aminal-like group ( X-CH(R)-Y where X, Y are N, S, or O) that may be acid/base labile, releasing an aldehyde.

> <s_lp_Force_Field>
OPLS_2005

> <r_lp_Energy>
79.915

> <b_lp_Chiralities_Consistent>
1

> <s_lp_Variant>
AV-unprocessed.smi:33-10

> <Gold.Version>
5.8.1

> <Gold.Id.Protein>
6NUR|6NUR_protein|mol2

> <Gold.PLP.Fitness>
48.4859

> <Gold.PLP.PLP>
-47.9302

> <Gold.PLP.part.hbond>
-3.0000

> <Gold.PLP.part.metal>
0.0000

> <Gold.PLP.part.buried>
-8.3180

> <Gold.PLP.part.nonpolar>
-36.5345

> <Gold.PLP.part.repulsive>
0.2395

> <Gold.PLP.ligand.clash>
0.0025

> <Gold.PLP.ligand.torsion>
3.4152

> <Gold.PLP.Chemscore.Hbond>
1.0000

> <Gold.PLP.Chemscore.CHOScore>
0.0000

> <Gold.PLP.Chemscore.Metal>
0.0000

> <Gold.Chemscore.Hbonds>
donor molecule, donor type, donor heavy atom, donor atom, acceptor molecule, acceptor atom, score
      P1  H  6896  6909       L1    35  0.98
      P1  H  6934  6947       L1    15  0.10

> <Gold.PLP.Chemscore.Internal.Correction>
4.3886

> <Gold.Rescore>
     Score         DG    S(hbond)    S(metal)    S(lipo)     H(rot)  DE(clash)    DE(int)     intcor
      8.07     -16.55       0.82        0.00     126.50       2.52       0.79       7.68       ----

> <Gold.Chemscore.Fitness>
8.0734

> <Gold.Chemscore.DG>
-16.5472

> <Gold.Chemscore.ZeroCoef>
-5.4800

> <Gold.Chemscore.Hbond>
0.8174

> <Gold.Chemscore.Metal>
0.0000

> <Gold.Chemscore.Lipo>
126.4973

> <Gold.Chemscore.Internal_Hbond>
0.0000

> <Gold.Chemscore.DEClash>
0.7910

> <Gold.Chemscore.DEInternal>
7.6828

> <Gold.Chemscore.Rot>
2.5247

> <Gold.Chemscore.Internal.Correction>
   9.000000E+99

> <Gold.Chemscore.Hbonds>
donor molecule, donor type, donor heavy atom, donor atom, acceptor molecule, acceptor atom, score
      P1  H  6896  6909       L1    35  0.68

> <Gold.Chemscore.Hbond.Weighted>
-2.7303

> <Gold.Chemscore.Metal.Weighted>
-0.0000

> <Gold.Chemscore.Lipo.Weighted>
-14.8002

> <Gold.Chemscore.Internal_Hbond.Weighted>
0.0000

> <Gold.Chemscore.DEClash.Weighted>
0.7910

> <Gold.Chemscore.DEInternal.Weighted>
7.6828

> <Gold.Chemscore.Rot.Weighted>
6.4633

> <Gold.Chemscore.Internal.Correction.Weighted>
   9.000000E+99

> <Gold.Protein.RotatedTorsions>
[ 6907 6896 6895 6894 ] final  -37.63 input  -60.11 | X-H torsion
[ 7974 7965 7964 7962 ] final  156.06 input  175.53 | X-H torsion
[ 8008 7997 7996 7995 ] final -136.23 input   59.86 | X-H torsion
[ 10167 10162 10161 10158 ] final  142.85 input  -65.29 | X-H torsion
[ 10718 10713 10712 10709 ] final  120.43 input   66.30 | X-H torsion
[ 10763 10752 10751 10750 ] final  110.55 input  -60.55 | X-H torsion
[ 11005 11000 10999 10996 ] final   21.46 input  -57.11 | X-H torsion

> <Gold.Protein.ActiveResidues>
 VAL166  LYS551  ARG553  GLY616  TRP617  ASP618  TYR619  PRO620  LYS621  CYS622 
 ASP623  PHE694  ASN695  SER759  ASP760  ASP761  ALA762  ILE779  LEU786  VAL792 
 PHE793  MET794  SER795  GLU796  ALA797  LYS798  CYS799  TRP800  GLU811  SER814 

> <Gold.Protein.RotatedAtoms>
  151.0123  134.9406  159.8013 H   0  0  0  0  0  0  0  0  0  0  0  0  # atno 6907 bound_to 6896
  152.5305  134.3011  159.9089 H   0  0  0  0  0  0  0  0  0  0  0  0  # atno 6908 bound_to 6896
  151.3018  133.4077  159.2674 H   0  0  0  0  0  0  0  0  0  0  0  0  # atno 6909 bound_to 6896
  144.7986  139.7153  143.6191 H   0  0  0  0  0  0  0  0  0  0  0  0  # atno 7974 bound_to 7965
  155.3918  140.0500  157.3040 H   0  0  0  0  0  0  0  0  0  0  0  0  # atno 8008 bound_to 7997
  154.5033  140.2164  155.9264 H   0  0  0  0  0  0  0  0  0  0  0  0  # atno 8009 bound_to 7997
  156.1494  140.3139  155.8628 H   0  0  0  0  0  0  0  0  0  0  0  0  # atno 8010 bound_to 7997
  139.4984  144.6079  151.6337 H   0  0  0  0  0  0  0  0  0  0  0  0  # atno 10167 bound_to 10162
  157.5891  131.1066  150.8034 H   0  0  0  0  0  0  0  0  0  0  0  0  # atno 10718 bound_to 10713
  153.4506  135.3745  155.2281 H   0  0  0  0  0  0  0  0  0  0  0  0  # atno 10763 bound_to 10752
  154.8756  135.3885  154.4043 H   0  0  0  0  0  0  0  0  0  0  0  0  # atno 10764 bound_to 10752
  153.4602  135.7086  153.6119 H   0  0  0  0  0  0  0  0  0  0  0  0  # atno 10765 bound_to 10752
  140.3913  134.1816  155.7662 H   0  0  0  0  0  0  0  0  0  0  0  0  # atno 11005 bound_to 11000
  146.2261  139.5725  142.9586 LP  0  0  0  0  0  0  0  0  0  0  0  0  # atno 17320 bound_to 7965
  145.5610  141.0404  143.2226 LP  0  0  0  0  0  0  0  0  0  0  0  0  # atno 17321 bound_to 7965
  140.5746  144.0050  150.6235 LP  0  0  0  0  0  0  0  0  0  0  0  0  # atno 17342 bound_to 10162
  140.3179  143.3156  152.0813 LP  0  0  0  0  0  0  0  0  0  0  0  0  # atno 17343 bound_to 10162
  156.8461  130.5064  149.5316 LP  0  0  0  0  0  0  0  0  0  0  0  0  # atno 17370 bound_to 10713
  156.0943  130.5920  150.9787 LP  0  0  0  0  0  0  0  0  0  0  0  0  # atno 17371 bound_to 10713
  141.1890  133.8249  157.0975 LP  0  0  0  0  0  0  0  0  0  0  0  0  # atno 17394 bound_to 11000
  140.0404  134.9857  157.0951 LP  0  0  0  0  0  0  0  0  0  0  0  0  # atno 17395 bound_to 11000

$$$$
