AV-unprocessed.smi:544|AV-procd|sdf|2877|dock2
  -GOLD-   2262023373D 1   1.00000     0.00000
 Structure written by MMmdl.
 49 51  0  0  0  0  0  0  0  0  1 V2000
  150.0645  134.5229  154.8353 C   0  0  0  0  0  0  0  0  0  0  0  0
  148.5803  134.7077  155.1579 C   0  0  0  0  0  0  0  0  0  0  0  0
  148.4525  135.7316  156.1277 O   0  0  0  0  0  0  0  0  0  0  0  0
  147.2748  135.6160  156.9064 C   0  0  0  0  0  0  0  0  0  0  0  0
  147.2703  136.6929  158.0019 C   0  0  0  0  0  0  0  0  0  0  0  0
  148.5977  136.9242  158.5654 N   0  0  0  0  0  0  0  0  0  0  0  0
  149.0672  136.5732  159.7907 C   0  0  0  0  0  0  0  0  0  0  0  0
  148.2619  135.9032  160.7050 N   0  0  0  0  0  0  0  0  0  0  0  0
  147.5096  136.5531  161.7738 C   0  0  0  0  0  0  0  0  0  0  0  0
  147.7244  135.8451  163.1215 C   0  0  0  0  0  0  0  0  0  0  0  0
  147.3277  134.3656  163.0194 C   0  0  0  0  0  0  0  0  0  0  0  0
  148.0508  133.6982  161.8356 C   0  0  1  0  0  0  0  0  0  0  0  0
  147.6080  132.2403  161.6527 C   0  0  0  0  0  0  0  0  0  0  0  0
  147.8286  134.5179  160.5480 C   0  0  0  0  0  0  0  0  0  0  0  0
  150.3280  136.9361  160.0377 N   0  0  0  0  0  0  0  0  0  0  0  0
  150.6992  137.5714  158.8612 C   0  0  0  0  0  0  0  0  0  0  0  0
  149.6742  137.5809  157.9709 C   0  0  0  0  0  0  0  0  0  0  0  0
  149.7827  138.2077  156.6482 C   0  0  0  0  0  0  0  0  0  0  0  0
  148.8643  138.2293  155.8316 O   0  0  0  0  0  0  0  0  0  0  0  0
  150.9971  138.7660  156.4239 N   0  0  0  0  0  0  0  0  0  0  0  0
  152.0687  138.7954  157.2742 C   0  0  0  0  0  0  0  0  0  0  0  0
  153.1086  139.3579  156.9322 O   0  0  0  0  0  0  0  0  0  0  0  0
  151.9307  138.1861  158.4957 N   0  0  0  0  0  0  0  0  0  0  0  0
  153.0427  138.1823  159.4481 C   0  0  0  0  0  0  0  0  0  0  0  0
  151.1240  139.2162  155.5293 H   0  0  0  0  0  0  0  0  0  0  0  0
  150.2069  133.7411  154.0893 H   0  0  0  0  0  0  0  0  0  0  0  0
  150.6264  134.2431  155.7267 H   0  0  0  0  0  0  0  0  0  0  0  0
  150.4962  135.4438  154.4424 H   0  0  0  0  0  0  0  0  0  0  0  0
  148.0319  134.9737  154.2533 H   0  0  0  0  0  0  0  0  0  0  0  0
  148.1624  133.7746  155.5381 H   0  0  0  0  0  0  0  0  0  0  0  0
  146.3991  135.7219  156.2653 H   0  0  0  0  0  0  0  0  0  0  0  0
  147.2243  134.6271  157.3642 H   0  0  0  0  0  0  0  0  0  0  0  0
  146.8878  137.6339  157.6071 H   0  0  0  0  0  0  0  0  0  0  0  0
  146.5829  136.4063  158.7966 H   0  0  0  0  0  0  0  0  0  0  0  0
  147.8058  137.5994  161.8460 H   0  0  0  0  0  0  0  0  0  0  0  0
  146.4503  136.5522  161.5141 H   0  0  0  0  0  0  0  0  0  0  0  0
  148.7703  135.9268  163.4192 H   0  0  0  0  0  0  0  0  0  0  0  0
  147.1412  136.3376  163.9000 H   0  0  0  0  0  0  0  0  0  0  0  0
  147.5631  133.8496  163.9508 H   0  0  0  0  0  0  0  0  0  0  0  0
  146.2478  134.2892  162.8834 H   0  0  0  0  0  0  0  0  0  0  0  0
  149.1198  133.6925  162.0522 H   0  0  0  0  0  0  0  0  0  0  0  0
  146.5430  132.1751  161.4282 H   0  0  0  0  0  0  0  0  0  0  0  0
  147.7959  131.6567  162.5543 H   0  0  0  0  0  0  0  0  0  0  0  0
  148.1500  131.7665  160.8339 H   0  0  0  0  0  0  0  0  0  0  0  0
  146.7756  134.5040  160.2637 H   0  0  0  0  0  0  0  0  0  0  0  0
  148.3794  134.0656  159.7222 H   0  0  0  0  0  0  0  0  0  0  0  0
  153.9809  137.9133  158.9607 H   0  0  0  0  0  0  0  0  0  0  0  0
  152.8913  137.4679  160.2569 H   0  0  0  0  0  0  0  0  0  0  0  0
  153.1605  139.1704  159.8938 H   0  0  0  0  0  0  0  0  0  0  0  0
  1  2  1  0  0  0  0
  1 26  1  0  0  0  0
  1 27  1  0  0  0  0
  1 28  1  0  0  0  0
  2  3  1  0  0  0  0
  2 29  1  0  0  0  0
  2 30  1  0  0  0  0
  3  4  1  0  0  0  0
  4  5  1  0  0  0  0
  4 31  1  0  0  0  0
  4 32  1  0  0  0  0
  5  6  1  0  0  0  0
  5 33  1  0  0  0  0
  5 34  1  0  0  0  0
  6 17  1  0  0  0  0
  6  7  1  0  0  0  0
  7  8  1  0  0  0  0
  7 15  2  0  0  0  0
  8 14  1  0  0  0  0
  8  9  1  0  0  0  0
  9 10  1  0  0  0  0
  9 35  1  0  0  0  0
  9 36  1  0  0  0  0
 10 11  1  0  0  0  0
 10 37  1  0  0  0  0
 10 38  1  0  0  0  0
 11 12  1  0  0  0  0
 11 39  1  0  0  0  0
 11 40  1  0  0  0  0
 12 13  1  0  0  0  0
 12 14  1  0  0  0  0
 12 41  1  0  0  0  0
 13 42  1  0  0  0  0
 13 43  1  0  0  0  0
 13 44  1  0  0  0  0
 14 45  1  0  0  0  0
 14 46  1  0  0  0  0
 15 16  1  0  0  0  0
 16 23  1  0  0  0  0
 16 17  2  0  0  0  0
 17 18  1  0  0  0  0
 18 19  2  0  0  0  0
 18 20  1  0  0  0  0
 20 25  1  0  0  0  0
 20 21  1  0  0  0  0
 21 22  2  0  0  0  0
 21 23  1  0  0  0  0
 23 24  1  0  0  0  0
 24 47  1  0  0  0  0
 24 48  1  0  0  0  0
 24 49  1  0  0  0  0
M  END
> <s_m_source_file>
AV-unprocessed.smi

> <i_m_source_file_index>
544

> <i_lp_mmshare_version>
43012

> <i_f3d_flags>
0

> <s_epik_input>
W0NIM11uMWMoPU8pW25IXWMoPU8pYyhjMTIpbihbQ0gyXVtDSDJdT1tDSDJdW0NIM10pYyhuMilOM1tDSDJdW0NIMl1bQ0gyXVtDQEBIXShbQ0gzXSlbQ0gyXTM=

> <s_epik_cmdline>
J2VwaWtfcHl0aG9uJywgJy1waCcsICc3LjAnLCAnLXRuJywgJzgnLCAnLW1hJywgJzIwMCcsICctbWV0YWxfYmluZGluZycsICctaW1hZScsICc8aW5maWxlLm1hZT4nLCAnLW9tYWUnLCAnPG91dGZpbGUubWFlPic=

> <r_lp_tautomer_probability>
1

> <r_epik_Ionization_Penalty>
0.000382477

> <r_epik_Ionization_Penalty_Charging>
0.000119472

> <r_epik_Ionization_Penalty_Neutral>
0.000263005

> <r_epik_State_Penalty>
-0

> <r_epik_Charging_Adjusted_Penalty>
0.000119472

> <i_epik_Tot_Q>
0

> <i_epik_Tot_abs_Q>
0

> <r_epik_Metal_State_Penalty>
0.0919313

> <b_epik_Metal_Only>
0

> <s_lp_Force_Field>
OPLS_2005

> <r_lp_Energy>
37.8306

> <b_lp_Chiralities_Consistent>
1

> <s_lp_Variant>
AV-unprocessed.smi:544-1

> <Gold.Version>
5.8.1

> <Gold.Id.Protein>
6NUR|6NUR_protein|mol2

> <Gold.PLP.Fitness>
38.5190

> <Gold.PLP.PLP>
-35.1813

> <Gold.PLP.part.hbond>
-2.6694

> <Gold.PLP.part.metal>
0.0000

> <Gold.PLP.part.buried>
-3.9343

> <Gold.PLP.part.nonpolar>
-29.7448

> <Gold.PLP.part.repulsive>
0.1000

> <Gold.PLP.ligand.clash>
0.0000

> <Gold.PLP.ligand.torsion>
1.8014

> <Gold.PLP.Chemscore.Hbond>
1.9913

> <Gold.PLP.Chemscore.CHOScore>
0.0000

> <Gold.PLP.Chemscore.Metal>
0.0000

> <Gold.Chemscore.Hbonds>
donor molecule, donor type, donor heavy atom, donor atom, acceptor molecule, acceptor atom, score
      P1  H  6896  6908       L1    15  0.75
      P1  H  7997  8008       L1    22  0.96

> <Gold.PLP.Chemscore.Internal.Correction>
0.9668

> <Gold.Rescore>
     Score         DG    S(hbond)    S(metal)    S(lipo)     H(rot)  DE(clash)    DE(int)     intcor
     12.44     -14.47       1.94        0.00      56.01       1.58       0.05       1.98       ----

> <Gold.Chemscore.Fitness>
12.4389

> <Gold.Chemscore.DG>
-14.4737

> <Gold.Chemscore.ZeroCoef>
-5.4800

> <Gold.Chemscore.Hbond>
1.9421

> <Gold.Chemscore.Metal>
0.0000

> <Gold.Chemscore.Lipo>
56.0130

> <Gold.Chemscore.Internal_Hbond>
0.0000

> <Gold.Chemscore.DEClash>
0.0545

> <Gold.Chemscore.DEInternal>
1.9804

> <Gold.Chemscore.Rot>
1.5806

> <Gold.Chemscore.Internal.Correction>
   9.000000E+99

> <Gold.Chemscore.Hbonds>
donor molecule, donor type, donor heavy atom, donor atom, acceptor molecule, acceptor atom, score
      P1  H  6896  6908       L1    15  0.04
      P1  H  7997  8008       L1    22  0.91

> <Gold.Chemscore.Hbond.Weighted>
-6.4865

> <Gold.Chemscore.Metal.Weighted>
-0.0000

> <Gold.Chemscore.Lipo.Weighted>
-6.5535

> <Gold.Chemscore.Internal_Hbond.Weighted>
0.0000

> <Gold.Chemscore.DEClash.Weighted>
0.0545

> <Gold.Chemscore.DEInternal.Weighted>
1.9804

> <Gold.Chemscore.Rot.Weighted>
4.0463

> <Gold.Chemscore.Internal.Correction.Weighted>
   9.000000E+99

> <Gold.Protein.RotatedTorsions>
[ 6907 6896 6895 6894 ] final -149.00 input  -60.11 | X-H torsion
[ 7974 7965 7964 7962 ] final -101.08 input  175.53 | X-H torsion
[ 8008 7997 7996 7995 ] final  -49.53 input   59.86 | X-H torsion
[ 10167 10162 10161 10158 ] final  128.43 input  -65.29 | X-H torsion
[ 10718 10713 10712 10709 ] final   -6.72 input   66.30 | X-H torsion
[ 10763 10752 10751 10750 ] final  157.57 input  -60.55 | X-H torsion
[ 11005 11000 10999 10996 ] final   25.37 input  -57.11 | X-H torsion

> <Gold.Protein.ActiveResidues>
 VAL166  LYS551  ARG553  GLY616  TRP617  ASP618  TYR619  PRO620  LYS621  CYS622 
 ASP623  PHE694  ASN695  SER759  ASP760  ASP761  ALA762  ILE779  LEU786  VAL792 
 PHE793  MET794  SER795  GLU796  ALA797  LYS798  CYS799  TRP800  GLU811  SER814 

> <Gold.Protein.RotatedAtoms>
  151.1778  133.4744  159.2593 H   0  0  0  0  0  0  0  0  0  0  0  0  # atno 6907 bound_to 6896
  151.1290  135.0120  159.8584 H   0  0  0  0  0  0  0  0  0  0  0  0  # atno 6908 bound_to 6896
  152.5459  134.1682  159.8639 H   0  0  0  0  0  0  0  0  0  0  0  0  # atno 6909 bound_to 6896
  145.2862  140.9340  143.2904 H   0  0  0  0  0  0  0  0  0  0  0  0  # atno 7974 bound_to 7965
  154.4045  140.1294  156.4517 H   0  0  0  0  0  0  0  0  0  0  0  0  # atno 8008 bound_to 7997
  155.7360  140.3490  155.5061 H   0  0  0  0  0  0  0  0  0  0  0  0  # atno 8009 bound_to 7997
  155.9084  140.1031  157.1288 H   0  0  0  0  0  0  0  0  0  0  0  0  # atno 8010 bound_to 7997
  139.5528  144.6826  151.4273 H   0  0  0  0  0  0  0  0  0  0  0  0  # atno 10167 bound_to 10162
  156.7278  130.5170  149.5853 H   0  0  0  0  0  0  0  0  0  0  0  0  # atno 10718 bound_to 10713
  154.2024  135.2789  155.2986 H   0  0  0  0  0  0  0  0  0  0  0  0  # atno 10763 bound_to 10752
  154.5844  135.5579  153.7219 H   0  0  0  0  0  0  0  0  0  0  0  0  # atno 10764 bound_to 10752
  153.0084  135.6352  154.2163 H   0  0  0  0  0  0  0  0  0  0  0  0  # atno 10765 bound_to 10752
  140.3486  134.2254  155.7682 H   0  0  0  0  0  0  0  0  0  0  0  0  # atno 11005 bound_to 11000
  144.9211  139.4411  143.6541 LP  0  0  0  0  0  0  0  0  0  0  0  0  # atno 17320 bound_to 7965
  146.3200  139.8072  142.8953 LP  0  0  0  0  0  0  0  0  0  0  0  0  # atno 17321 bound_to 7965
  140.6794  143.8116  150.7101 LP  0  0  0  0  0  0  0  0  0  0  0  0  # atno 17342 bound_to 10162
  140.1565  143.4312  152.2096 LP  0  0  0  0  0  0  0  0  0  0  0  0  # atno 17343 bound_to 10162
  156.1550  130.6335  151.0645 LP  0  0  0  0  0  0  0  0  0  0  0  0  # atno 17370 bound_to 10713
  157.6871  131.0821  150.7211 LP  0  0  0  0  0  0  0  0  0  0  0  0  # atno 17371 bound_to 10713
  141.2018  133.7952  157.0420 LP  0  0  0  0  0  0  0  0  0  0  0  0  # atno 17394 bound_to 11000
  140.0722  134.9696  157.1486 LP  0  0  0  0  0  0  0  0  0  0  0  0  # atno 17395 bound_to 11000

$$$$
