AV-unprocessed.smi:2691|AV-procd|sdf|10392|dock2
  -GOLD-   2272014423D 1   1.00000     0.00000
 Structure written by MMmdl.
 50 52  0  0  0  0  0  0  0  0  2 V2000
  152.1402  144.8710  160.3259 C   0  0  0  0  0  0  0  0  0  0  0  0
  151.9258  143.6561  159.4392 C   0  0  0  0  0  0  0  0  0  0  0  0
  151.1731  143.8115  158.2528 C   0  0  0  0  0  0  0  0  0  0  0  0
  150.9958  142.6824  157.4615 C   0  0  0  0  0  0  0  0  0  0  0  0
  150.3191  142.5076  156.2519 N   0  3  0  0  0  0  0  0  0  0  0  0
  150.4252  141.2087  155.8556 C   0  0  0  0  0  0  0  0  0  0  0  0
  151.1582  140.5525  156.7955 N   0  0  0  0  0  0  0  0  0  0  0  0
  151.5745  139.1454  156.8579 C   0  0  0  0  0  0  0  0  0  0  0  0
  150.3835  138.1790  157.0124 C   0  0  2  0  0  0  0  0  0  0  0  0
  149.8468  137.9415  155.7252 O   0  0  0  0  0  0  0  0  0  0  0  0
  149.2788  138.7668  157.9179 C   0  0  0  0  0  0  0  0  0  0  0  0
  148.6326  137.7276  158.7360 N   0  0  0  0  0  0  0  0  0  0  0  0
  147.2317  137.6224  158.6290 C   0  0  0  0  0  0  0  0  0  0  0  0
  146.5584  136.7557  159.3162 N   0  0  0  0  0  0  0  0  0  0  0  0
  147.2260  135.8939  160.1936 C   0  0  0  0  0  0  0  0  0  0  0  0
  146.3727  134.9016  160.9731 C   0  0  0  0  0  0  0  0  0  0  0  0
  146.4390  135.1643  162.4860 C   0  0  0  0  0  0  0  0  0  0  0  0
  146.7438  133.4497  160.6331 C   0  0  0  0  0  0  0  0  0  0  0  0
  148.5722  135.9604  160.3342 C   0  0  0  0  0  0  0  0  0  0  0  0
  149.3579  136.9329  159.5751 C   0  0  0  0  0  0  0  0  0  0  0  0
  150.5796  137.0320  159.6895 O   0  0  0  0  0  0  0  0  0  0  0  0
  151.5361  141.4312  157.8154 C   0  0  0  0  0  0  0  0  0  0  0  0
  152.2794  141.2598  158.9804 C   0  0  0  0  0  0  0  0  0  0  0  0
  152.4713  142.3961  159.7985 C   0  0  0  0  0  0  0  0  0  0  0  0
  153.2772  142.2400  161.0766 C   0  0  0  0  0  0  0  0  0  0  0  0
  151.6749  145.7616  159.9027 H   0  0  0  0  0  0  0  0  0  0  0  0
  153.2044  145.0768  160.4448 H   0  0  0  0  0  0  0  0  0  0  0  0
  151.7063  144.7055  161.3124 H   0  0  0  0  0  0  0  0  0  0  0  0
  150.7543  144.7672  157.9732 H   0  0  0  0  0  0  0  0  0  0  0  0
  150.0084  140.7777  154.9566 H   0  0  0  0  0  0  0  0  0  0  0  0
  152.1485  138.9196  155.9583 H   0  0  0  0  0  0  0  0  0  0  0  0
  152.2624  139.0410  157.6982 H   0  0  0  0  0  0  0  0  0  0  0  0
  150.7429  137.2337  157.4207 H   0  0  0  0  0  0  0  0  0  0  0  0
  148.9169  138.1109  155.7506 H   0  0  0  0  0  0  0  0  0  0  0  0
  149.7140  139.5174  158.5808 H   0  0  0  0  0  0  0  0  0  0  0  0
  148.5498  139.3283  157.3299 H   0  0  0  0  0  0  0  0  0  0  0  0
  146.7603  138.3222  157.9367 H   0  0  0  0  0  0  0  0  0  0  0  0
  145.3355  135.0484  160.6670 H   0  0  0  0  0  0  0  0  0  0  0  0
  146.1513  136.1901  162.7189 H   0  0  0  0  0  0  0  0  0  0  0  0
  147.4426  135.0018  162.8803 H   0  0  0  0  0  0  0  0  0  0  0  0
  145.7619  134.5029  163.0273 H   0  0  0  0  0  0  0  0  0  0  0  0
  146.6633  133.2654  159.5612 H   0  0  0  0  0  0  0  0  0  0  0  0
  146.0787  132.7487  161.1377 H   0  0  0  0  0  0  0  0  0  0  0  0
  147.7640  133.2138  160.9367 H   0  0  0  0  0  0  0  0  0  0  0  0
  149.0801  135.2923  161.0146 H   0  0  0  0  0  0  0  0  0  0  0  0
  152.6949  140.3006  159.2517 H   0  0  0  0  0  0  0  0  0  0  0  0
  153.5996  141.2084  161.2214 H   0  0  0  0  0  0  0  0  0  0  0  0
  152.6821  142.5263  161.9441 H   0  0  0  0  0  0  0  0  0  0  0  0
  154.1689  142.8665  161.0451 H   0  0  0  0  0  0  0  0  0  0  0  0
  149.8238  143.2203  155.7314 H   0  0  0  0  0  0  0  0  0  0  0  0
  1  2  1  0  0  0  0
  1 26  1  0  0  0  0
  1 27  1  0  0  0  0
  1 28  1  0  0  0  0
  2 24  1  0  0  0  0
  2  3  2  0  0  0  0
  3  4  1  0  0  0  0
  3 29  1  0  0  0  0
  4 22  2  0  0  0  0
  4  5  1  0  0  0  0
  5  6  2  0  0  0  0
  5 50  1  0  0  0  0
  6  7  1  0  0  0  0
  6 30  1  0  0  0  0
  7  8  1  0  0  0  0
  7 22  1  0  0  0  0
  8  9  1  0  0  0  0
  8 31  1  0  0  0  0
  8 32  1  0  0  0  0
  9 10  1  0  0  0  0
  9 11  1  0  0  0  0
  9 33  1  0  0  0  0
 10 34  1  0  0  0  0
 11 12  1  0  0  0  0
 11 35  1  0  0  0  0
 11 36  1  0  0  0  0
 12 20  1  0  0  0  0
 12 13  1  0  0  0  0
 13 14  2  0  0  0  0
 13 37  1  0  0  0  0
 14 15  1  0  0  0  0
 15 16  1  0  0  0  0
 15 19  2  0  0  0  0
 16 17  1  0  0  0  0
 16 18  1  0  0  0  0
 16 38  1  0  0  0  0
 17 39  1  0  0  0  0
 17 40  1  0  0  0  0
 17 41  1  0  0  0  0
 18 42  1  0  0  0  0
 18 43  1  0  0  0  0
 18 44  1  0  0  0  0
 19 20  1  0  0  0  0
 19 45  1  0  0  0  0
 20 21  2  0  0  0  0
 22 23  1  0  0  0  0
 23 24  2  0  0  0  0
 23 46  1  0  0  0  0
 24 25  1  0  0  0  0
 25 47  1  0  0  0  0
 25 48  1  0  0  0  0
 25 49  1  0  0  0  0
M  CHG  1   5   1
M  END
> <s_m_source_file>
AV-unprocessed.smi

> <i_m_source_file_index>
2691

> <i_lp_mmshare_version>
43012

> <i_f3d_flags>
0

> <s_epik_input>
W0NIM11jKFtjSF0xKWMoW0NIM10pW2NIXWMoYzEyKW4oW2NIXW4yKVtDSDJdW0NASF0oW09IXSlbQ0gyXW4zW2NIXW5jKFtDSF0oW0NIM10pW0NIM10pW2NIXWMzPU8=

> <s_epik_cmdline>
J2VwaWtfcHl0aG9uJywgJy1waCcsICc3LjAnLCAnLXRuJywgJzgnLCAnLW1hJywgJzIwMCcsICctbWV0YWxfYmluZGluZycsICctaW1hZScsICc8aW5maWxlLm1hZT4nLCAnLW9tYWUnLCAnPG91dGZpbGUubWFlPic=

> <r_lp_tautomer_probability>
1

> <r_epik_Ionization_Penalty>
1.0357

> <r_epik_Ionization_Penalty_Charging>
1.03568

> <r_epik_Ionization_Penalty_Neutral>
1.29543e-05

> <r_epik_State_Penalty>
1.08724

> <r_epik_Charging_Adjusted_Penalty>
2.12292

> <i_epik_Tot_Q>
1

> <i_epik_Tot_abs_Q>
1

> <r_epik_Metal_State_Penalty>
1.18376

> <b_epik_Metal_Only>
0

> <s_lp_Force_Field>
OPLS_2005

> <r_lp_Energy>
24.5824

> <b_lp_Chiralities_Consistent>
1

> <s_lp_Variant>
AV-unprocessed.smi:2691-3

> <Gold.Version>
5.8.1

> <Gold.Id.Protein>
6NUR|6NUR_protein|mol2

> <Gold.PLP.Fitness>
53.5604

> <Gold.PLP.PLP>
-46.1046

> <Gold.PLP.part.hbond>
-1.9778

> <Gold.PLP.part.metal>
0.0000

> <Gold.PLP.part.buried>
-6.8239

> <Gold.PLP.part.nonpolar>
-39.3103

> <Gold.PLP.part.repulsive>
0.1084

> <Gold.PLP.ligand.clash>
0.0000

> <Gold.PLP.ligand.torsion>
0.7993

> <Gold.PLP.Chemscore.Hbond>
2.9913

> <Gold.PLP.Chemscore.CHOScore>
0.0000

> <Gold.PLP.Chemscore.Metal>
0.0000

> <Gold.Chemscore.Hbonds>
donor molecule, donor type, donor heavy atom, donor atom, acceptor molecule, acceptor atom, score
      L1  H     5    50       P1  8028  2.00
      P1  H  6896  6909       L1    21  1.00

> <Gold.PLP.Chemscore.Internal.Correction>
0.0805

> <Gold.Rescore>
     Score         DG    S(hbond)    S(metal)    S(lipo)     H(rot)  DE(clash)    DE(int)     intcor
     17.05     -18.93       1.94        0.00     114.62       2.52       0.07       1.81       ----

> <Gold.Chemscore.Fitness>
17.0497

> <Gold.Chemscore.DG>
-18.9325

> <Gold.Chemscore.ZeroCoef>
-5.4800

> <Gold.Chemscore.Hbond>
1.9441

> <Gold.Chemscore.Metal>
0.0000

> <Gold.Chemscore.Lipo>
114.6221

> <Gold.Chemscore.Internal_Hbond>
0.0000

> <Gold.Chemscore.DEClash>
0.0712

> <Gold.Chemscore.DEInternal>
1.8116

> <Gold.Chemscore.Rot>
2.5202

> <Gold.Chemscore.Internal.Correction>
   9.000000E+99

> <Gold.Chemscore.Hbonds>
donor molecule, donor type, donor heavy atom, donor atom, acceptor molecule, acceptor atom, score
      L1  H     5    50       P1  8028  0.96
      P1  H  6896  6909       L1    21  0.28

> <Gold.Chemscore.Hbond.Weighted>
-6.4934

> <Gold.Chemscore.Metal.Weighted>
-0.0000

> <Gold.Chemscore.Lipo.Weighted>
-13.4108

> <Gold.Chemscore.Internal_Hbond.Weighted>
0.0000

> <Gold.Chemscore.DEClash.Weighted>
0.0712

> <Gold.Chemscore.DEInternal.Weighted>
1.8116

> <Gold.Chemscore.Rot.Weighted>
6.4517

> <Gold.Chemscore.Internal.Correction.Weighted>
   9.000000E+99

> <Gold.Protein.RotatedTorsions>
[ 6907 6896 6895 6894 ] final   92.42 input  -60.11 | X-H torsion
[ 7974 7965 7964 7962 ] final  -86.70 input  175.53 | X-H torsion
[ 8008 7997 7996 7995 ] final -158.44 input   59.86 | X-H torsion
[ 10167 10162 10161 10158 ] final  171.90 input  -65.29 | X-H torsion
[ 10718 10713 10712 10709 ] final -102.83 input   66.30 | X-H torsion
[ 10763 10752 10751 10750 ] final   25.15 input  -60.55 | X-H torsion
[ 11005 11000 10999 10996 ] final   27.34 input  -57.11 | X-H torsion

> <Gold.Protein.ActiveResidues>
 VAL166  LYS551  ARG553  GLY616  TRP617  ASP618  TYR619  PRO620  LYS621  CYS622 
 ASP623  PHE694  ASN695  SER759  ASP760  ASP761  ALA762  ILE779  LEU786  VAL792 
 PHE793  MET794  SER795  GLU796  ALA797  LYS798  CYS799  TRP800  GLU811  SER814 

> <Gold.Protein.RotatedAtoms>
  152.5452  134.1504  159.8515 H   0  0  0  0  0  0  0  0  0  0  0  0  # atno 6907 bound_to 6896
  151.1532  133.4887  159.2602 H   0  0  0  0  0  0  0  0  0  0  0  0  # atno 6908 bound_to 6896
  151.1450  135.0209  159.8698 H   0  0  0  0  0  0  0  0  0  0  0  0  # atno 6909 bound_to 6896
  145.4763  140.9558  143.1889 H   0  0  0  0  0  0  0  0  0  0  0  0  # atno 7974 bound_to 7965
  155.7477  140.0822  157.2216 H   0  0  0  0  0  0  0  0  0  0  0  0  # atno 8008 bound_to 7997
  154.4015  140.1566  156.2743 H   0  0  0  0  0  0  0  0  0  0  0  0  # atno 8009 bound_to 7997
  155.8960  140.3412  155.5994 H   0  0  0  0  0  0  0  0  0  0  0  0  # atno 8010 bound_to 7997
  139.5060  144.3434  151.9995 H   0  0  0  0  0  0  0  0  0  0  0  0  # atno 10167 bound_to 10162
  156.0243  130.5439  150.7165 H   0  0  0  0  0  0  0  0  0  0  0  0  # atno 10718 bound_to 10713
  153.0712  135.6589  154.0243 H   0  0  0  0  0  0  0  0  0  0  0  0  # atno 10763 bound_to 10752
  153.9888  135.2948  155.3415 H   0  0  0  0  0  0  0  0  0  0  0  0  # atno 10764 bound_to 10752
  154.7087  135.5214  153.8704 H   0  0  0  0  0  0  0  0  0  0  0  0  # atno 10765 bound_to 10752
  140.3273  134.2477  155.7707 H   0  0  0  0  0  0  0  0  0  0  0  0  # atno 11005 bound_to 11000
  144.7915  139.6319  143.7111 LP  0  0  0  0  0  0  0  0  0  0  0  0  # atno 17320 bound_to 7965
  146.2367  139.5919  142.9519 LP  0  0  0  0  0  0  0  0  0  0  0  0  # atno 17321 bound_to 7965
  140.2872  144.3794  150.6100 LP  0  0  0  0  0  0  0  0  0  0  0  0  # atno 17342 bound_to 10162
  140.5974  143.2167  151.7138 LP  0  0  0  0  0  0  0  0  0  0  0  0  # atno 17343 bound_to 10162
  157.4791  131.0900  151.0556 LP  0  0  0  0  0  0  0  0  0  0  0  0  # atno 17370 bound_to 10713
  157.0995  130.5976  149.5457 LP  0  0  0  0  0  0  0  0  0  0  0  0  # atno 17371 bound_to 10713
  141.2072  133.7812  157.0132 LP  0  0  0  0  0  0  0  0  0  0  0  0  # atno 17394 bound_to 11000
  140.0891  134.9603  157.1747 LP  0  0  0  0  0  0  0  0  0  0  0  0  # atno 17395 bound_to 11000

$$$$
