#       Name:                AV-unprocessed.smi:1933
#       Creating user name   scv26
#       Creation time:       Fri Mar 27 09:56:09 2020


#       File generated by GOLD software.
#

@<TRIPOS>MOLECULE
AV-unprocessed.smi:1933
    55    57     1
SMALL
NO_CHARGES


@<TRIPOS>ATOM
      1 ****        -2.2064   0.6117  -0.9788 O.2            1 S1                 0.0000
      2 ****        -1.8664   1.2128   0.0404 C.2            1 S1                 0.0000
      3 ****        -1.1302   0.6624   1.0171 N.am           1 S1                 0.0000
      4 ****        -0.6176  -0.7053   1.0320 C.3            1 S1                 0.0000
      5 ****         0.9178  -0.7647   0.8121 C.3            1 S1                 0.0000
      6 ****         1.3685  -0.1474  -0.5447 C.3            1 S1                 0.0000
      7 ****         2.8687   0.0055  -0.7344 C.3            1 S1                 0.0000
      8 ****         3.0082   0.1912  -2.2499 C.3            1 S1                 0.0000
      9 ****         1.7307  -0.1069  -2.8101 O.3            1 S1                 0.0000
     10 ****         0.9703  -0.8273  -1.8531 C.3            1 S1                 0.0000
     11 ****         1.5331  -2.0666   1.1397 N.3            1 S1                 0.0000
     12 ****         0.8367  -3.2430   0.6121 C.3            1 S1                 0.0000
     13 ****         1.6076  -4.5384   0.9153 C.3            1 S1                 0.0000
     14 ****         1.7947  -4.6596   2.3220 O.3            1 S1                 0.0000
     15 ****         2.4916  -3.5518   2.8833 C.3            1 S1                 0.0000
     16 ****         1.7334  -2.2487   2.5754 C.3            1 S1                 0.0000
     17 ****        -2.1558   2.4964   0.3159 N.am           1 S1                 0.0000
     18 ****        -2.8622   3.4300  -0.4878 C.ar           1 S1                 0.0000
     19 ****        -3.9508   3.0101  -1.2950 C.ar           1 S1                 0.0000
     20 ****        -4.6510   3.9626  -2.0599 C.ar           1 S1                 0.0000
     21 ****        -4.2559   5.3102  -1.9927 C.ar           1 S1                 0.0000
     22 ****        -3.1775   5.6434  -1.1533 C.ar           1 S1                 0.0000
     23 ****        -2.5053   4.7334  -0.4168 N.ar           1 S1                 0.0000
     24 ****        -0.8984   1.2376   1.8137 H              1 S1                 0.0000
     25 ****        -0.8759  -1.1229   2.0048 H              1 S1                 0.0000
     26 ****        -1.1342  -1.3211   0.2942 H              1 S1                 0.0000
     27 ****         1.3246  -0.0566   1.5359 H              1 S1                 0.0000
     28 ****         0.9636   0.8641  -0.5918 H              1 S1                 0.0000
     29 ****         3.2781   0.8434  -0.1693 H              1 S1                 0.0000
     30 ****         3.3981  -0.8970  -0.4272 H              1 S1                 0.0000
     31 ****         3.2863   1.2137  -2.5070 H              1 S1                 0.0000
     32 ****         3.7655  -0.4792  -2.6578 H              1 S1                 0.0000
     33 ****         1.2930  -1.8646  -1.9025 H              1 S1                 0.0000
     34 ****        -0.0977  -0.7757  -2.0629 H              1 S1                 0.0000
     35 ****        -0.1540  -3.3230   1.0610 H              1 S1                 0.0000
     36 ****         0.6770  -3.1685  -0.4583 H              1 S1                 0.0000
     37 ****         1.0520  -5.4039   0.5541 H              1 S1                 0.0000
     38 ****         2.5739  -4.5419   0.4081 H              1 S1                 0.0000
     39 ****         2.5793  -3.6934   3.9605 H              1 S1                 0.0000
     40 ****         3.5054  -3.5113   2.4816 H              1 S1                 0.0000
     41 ****         2.2960  -1.4084   2.9834 H              1 S1                 0.0000
     42 ****         0.7727  -2.2620   3.0911 H              1 S1                 0.0000
     43 ****        -1.7229   2.8812   1.1425 H              1 S1                 0.0000
     44 ****        -4.2665   1.9782  -1.3300 H              1 S1                 0.0000
     45 ****        -5.4811   3.6640  -2.6831 H              1 S1                 0.0000
     46 ****        -4.7695   6.0692  -2.5642 H              1 S1                 0.0000
     47 ****        -2.8465   6.6678  -1.0677 H              1 S1                 0.0000
     48 ****        -1.9327  -0.3408  -1.1123 LP             1 S1                 0.0000
     49 ****        -2.7563   1.0759  -1.6731 LP             1 S1                 0.0000
     50 ****         1.8459  -0.6611  -3.6344 LP             1 S1                 0.0000
     51 ****         1.2590   0.7434  -3.0434 LP             1 S1                 0.0000
     52 ****         2.4150  -2.0130   0.6714 LP             1 S1                 0.0000
     53 ****         2.3181  -5.4920   2.5042 LP             1 S1                 0.0000
     54 ****         0.8978  -4.7275   2.7590 LP             1 S1                 0.0000
     55 ****        -1.7517   5.0194   0.1750 LP             1 S1                 0.0000
@<TRIPOS>BOND
    1    1    2 2     
    2    2    3 am    
    3    2   17 am    
    4    3    4 1     
    5    3   24 1     
    6    4    5 1     
    7    4   25 1     
    8    4   26 1     
    9    5    6 1     
   10    5   11 1     
   11    5   27 1     
   12    6   10 1     
   13    6    7 1     
   14    6   28 1     
   15    7    8 1     
   16    7   29 1     
   17    7   30 1     
   18    8    9 1     
   19    8   31 1     
   20    8   32 1     
   21    9   10 1     
   22   10   33 1     
   23   10   34 1     
   24   11   16 1     
   25   11   12 1     
   26   12   13 1     
   27   12   35 1     
   28   12   36 1     
   29   13   14 1     
   30   13   37 1     
   31   13   38 1     
   32   14   15 1     
   33   15   16 1     
   34   15   39 1     
   35   15   40 1     
   36   16   41 1     
   37   16   42 1     
   38   17   18 1     
   39   17   43 1     
   40   18   23 ar    
   41   18   19 ar    
   42   19   20 ar    
   43   19   44 1     
   44   20   21 ar    
   45   20   45 1     
   46   21   22 ar    
   47   21   46 1     
   48   22   23 ar    
   49   22   47 1     
   50    1   48 1     
   51    1   49 1     
   52    9   50 1     
   53    9   51 1     
   54   11   52 1     
   55   14   53 1     
   56   14   54 1     
   57   23   55 1     
@<TRIPOS>SUBSTRUCTURE
      1 S1             1
@<TRIPOS>SET
LONE_PAIRS      STATIC     ATOMS    <user>   **** ""
8 48 49 50 51 52 53 54 55
DONOR_HYDROGENS      STATIC     ATOMS    <user>   **** ""
2 24 43
ATOM$BLUE        STATIC     ATOMS    COLORGROUP SYSTEM
8 48 49 50 51 52 53 54 55
ATOM$RED        STATIC     ATOMS    COLORGROUP SYSTEM
2 24 43
