AV-unprocessed.smi:3060|AV-procd|sdf|11678|dock7
  -GOLD-   2272017 83D 1   1.00000     0.00000
 Structure written by MMmdl.
 42 43  0  0  0  0  0  0  0  0  1 V2000
  146.6694  138.6475  152.9594 C   0  0  0  0  0  0  0  0  0  0  0  0
  147.8225  138.6576  153.9684 C   0  0  0  0  0  0  0  0  0  0  0  0
  148.3443  140.0348  154.2327 C   0  0  0  0  0  0  0  0  0  0  0  0
  147.8170  141.1546  153.7552 N   0  0  0  0  0  0  0  0  0  0  0  0
  148.6423  142.1458  154.2518 N   0  0  0  0  0  0  0  0  0  0  0  0
  149.6048  141.6448  154.9711 N   0  0  0  0  0  0  0  0  0  0  0  0
  149.4350  140.2992  154.9675 N   0  0  0  0  0  0  0  0  0  0  0  0
  150.3551  139.4295  155.6866 C   0  0  0  0  0  0  0  0  0  0  0  0
  151.5022  140.2034  156.3473 C   0  0  0  0  0  0  0  0  0  0  0  0
  152.6574  140.0176  155.9666 O   0  0  0  0  0  0  0  0  0  0  0  0
  151.1807  141.0454  157.3443 N   0  0  0  0  0  0  0  0  0  0  0  0
  152.1110  141.8729  158.1081 C   0  0  0  0  0  0  0  0  0  0  0  0
  152.8855  140.9590  159.0893 C   0  0  0  0  0  0  0  0  0  0  0  0
  154.0635  141.6294  159.8244 C   0  0  0  0  0  0  0  0  0  0  0  0
  153.7911  142.0323  161.2868 C   0  0  0  0  0  0  0  0  0  0  0  0
  152.4425  142.7130  161.5820 C   0  0  0  0  0  0  0  0  0  0  0  0
  152.2148  144.0927  160.9387 C   0  0  0  0  0  0  0  0  0  0  0  0
  152.1367  144.1402  159.4004 C   0  0  0  0  0  0  0  0  0  0  0  0
  151.2976  143.0263  158.7421 C   0  0  0  0  0  0  0  0  0  0  0  0
  146.3096  137.6322  152.7913 H   0  0  0  0  0  0  0  0  0  0  0  0
  146.9848  139.0532  151.9976 H   0  0  0  0  0  0  0  0  0  0  0  0
  145.8292  139.2441  153.3163 H   0  0  0  0  0  0  0  0  0  0  0  0
  147.4865  138.2277  154.9125 H   0  0  0  0  0  0  0  0  0  0  0  0
  148.6340  138.0205  153.6165 H   0  0  0  0  0  0  0  0  0  0  0  0
  149.8068  138.8729  156.4466 H   0  0  0  0  0  0  0  0  0  0  0  0
  150.7596  138.6944  154.9890 H   0  0  0  0  0  0  0  0  0  0  0  0
  150.2050  141.1285  157.5898 H   0  0  0  0  0  0  0  0  0  0  0  0
  152.8282  142.3203  157.4175 H   0  0  0  0  0  0  0  0  0  0  0  0
  152.2074  140.4764  159.7936 H   0  0  0  0  0  0  0  0  0  0  0  0
  153.3068  140.1392  158.5050 H   0  0  0  0  0  0  0  0  0  0  0  0
  154.8973  140.9264  159.8401 H   0  0  0  0  0  0  0  0  0  0  0  0
  154.4427  142.4743  159.2522 H   0  0  0  0  0  0  0  0  0  0  0  0
  153.8402  141.1296  161.8969 H   0  0  0  0  0  0  0  0  0  0  0  0
  154.6049  142.6668  161.6391 H   0  0  0  0  0  0  0  0  0  0  0  0
  151.6183  142.0423  161.3444 H   0  0  0  0  0  0  0  0  0  0  0  0
  152.3778  142.8460  162.6624 H   0  0  0  0  0  0  0  0  0  0  0  0
  151.2766  144.4848  161.3333 H   0  0  0  0  0  0  0  0  0  0  0  0
  152.9856  144.7855  161.2780 H   0  0  0  0  0  0  0  0  0  0  0  0
  151.6927  145.1005  159.1355 H   0  0  0  0  0  0  0  0  0  0  0  0
  153.1320  144.1808  158.9619 H   0  0  0  0  0  0  0  0  0  0  0  0
  150.7265  143.4958  157.9392 H   0  0  0  0  0  0  0  0  0  0  0  0
  150.5435  142.6435  159.4303 H   0  0  0  0  0  0  0  0  0  0  0  0
  1  2  1  0  0  0  0
  1 20  1  0  0  0  0
  1 21  1  0  0  0  0
  1 22  1  0  0  0  0
  2  3  1  0  0  0  0
  2 23  1  0  0  0  0
  2 24  1  0  0  0  0
  3  7  1  0  0  0  0
  3  4  2  0  0  0  0
  4  5  1  0  0  0  0
  5  6  2  0  0  0  0
  6  7  1  0  0  0  0
  7  8  1  0  0  0  0
  8  9  1  0  0  0  0
  8 25  1  0  0  0  0
  8 26  1  0  0  0  0
  9 10  2  0  0  0  0
  9 11  1  0  0  0  0
 11 12  1  0  0  0  0
 11 27  1  0  0  0  0
 12 19  1  0  0  0  0
 12 13  1  0  0  0  0
 12 28  1  0  0  0  0
 13 14  1  0  0  0  0
 13 29  1  0  0  0  0
 13 30  1  0  0  0  0
 14 15  1  0  0  0  0
 14 31  1  0  0  0  0
 14 32  1  0  0  0  0
 15 16  1  0  0  0  0
 15 33  1  0  0  0  0
 15 34  1  0  0  0  0
 16 17  1  0  0  0  0
 16 35  1  0  0  0  0
 16 36  1  0  0  0  0
 17 18  1  0  0  0  0
 17 37  1  0  0  0  0
 17 38  1  0  0  0  0
 18 19  1  0  0  0  0
 18 39  1  0  0  0  0
 18 40  1  0  0  0  0
 19 41  1  0  0  0  0
 19 42  1  0  0  0  0
M  END
> <s_m_source_file>
AV-unprocessed.smi

> <i_m_source_file_index>
3060

> <i_lp_mmshare_version>
43012

> <i_f3d_flags>
0

> <s_epik_input>
W0NIM11bQ0gyXWMxbm5ubjFbQ0gyXUMoPU8pW05IXVtDSF0yW0NIMl1bQ0gyXVtDSDJdW0NIMl1bQ0gyXVtDSDJdW0NIMl0y

> <s_epik_cmdline>
J2VwaWtfcHl0aG9uJywgJy1waCcsICc3LjAnLCAnLXRuJywgJzgnLCAnLW1hJywgJzIwMCcsICctbWV0YWxfYmluZGluZycsICctaW1hZScsICc8aW5maWxlLm1hZT4nLCAnLW9tYWUnLCAnPG91dGZpbGUubWFlPic=

> <r_lp_tautomer_probability>
1

> <r_epik_Ionization_Penalty>
4.54698e-07

> <r_epik_Ionization_Penalty_Charging>
0

> <r_epik_Ionization_Penalty_Neutral>
4.54698e-07

> <r_epik_State_Penalty>
-0

> <r_epik_Charging_Adjusted_Penalty>
0

> <i_epik_Tot_Q>
0

> <i_epik_Tot_abs_Q>
0

> <r_epik_Metal_State_Penalty>
-0

> <b_epik_Metal_Only>
0

> <s_lp_Force_Field>
OPLS_2005

> <r_lp_Energy>
19.51

> <b_lp_Chiralities_Consistent>
1

> <s_lp_Variant>
AV-unprocessed.smi:3060-1

> <Gold.Version>
5.8.1

> <Gold.Id.Protein>
6NUR|6NUR_protein|mol2

> <Gold.PLP.Fitness>
42.4573

> <Gold.PLP.PLP>
-38.5632

> <Gold.PLP.part.hbond>
-3.3139

> <Gold.PLP.part.metal>
0.0000

> <Gold.PLP.part.buried>
-5.0456

> <Gold.PLP.part.nonpolar>
-30.4954

> <Gold.PLP.part.repulsive>
1.6185

> <Gold.PLP.ligand.clash>
0.0000

> <Gold.PLP.ligand.torsion>
0.3150

> <Gold.PLP.Chemscore.Hbond>
1.4989

> <Gold.PLP.Chemscore.CHOScore>
0.0000

> <Gold.PLP.Chemscore.Metal>
0.0000

> <Gold.Chemscore.Hbonds>
donor molecule, donor type, donor heavy atom, donor atom, acceptor molecule, acceptor atom, score
      P1  H  7997  8008       L1    10  0.88
      P1  H  8011  8017       L1     5  0.10

> <Gold.PLP.Chemscore.Internal.Correction>
0.0274

> <Gold.Rescore>
     Score         DG    S(hbond)    S(metal)    S(lipo)     H(rot)  DE(clash)    DE(int)     intcor
     16.30     -16.55       1.04        0.00     101.28       1.66       0.11       0.14       ----

> <Gold.Chemscore.Fitness>
16.2995

> <Gold.Chemscore.DG>
-16.5451

> <Gold.Chemscore.ZeroCoef>
-5.4800

> <Gold.Chemscore.Hbond>
1.0380

> <Gold.Chemscore.Metal>
0.0000

> <Gold.Chemscore.Lipo>
101.2808

> <Gold.Chemscore.Internal_Hbond>
0.0000

> <Gold.Chemscore.DEClash>
0.1090

> <Gold.Chemscore.DEInternal>
0.1365

> <Gold.Chemscore.Rot>
1.6609

> <Gold.Chemscore.Internal.Correction>
   9.000000E+99

> <Gold.Chemscore.Hbonds>
donor molecule, donor type, donor heavy atom, donor atom, acceptor molecule, acceptor atom, score
      P1  H  7997  8008       L1    10  0.87

> <Gold.Chemscore.Hbond.Weighted>
-3.4670

> <Gold.Chemscore.Metal.Weighted>
-0.0000

> <Gold.Chemscore.Lipo.Weighted>
-11.8498

> <Gold.Chemscore.Internal_Hbond.Weighted>
0.0000

> <Gold.Chemscore.DEClash.Weighted>
0.1090

> <Gold.Chemscore.DEInternal.Weighted>
0.1365

> <Gold.Chemscore.Rot.Weighted>
4.2518

> <Gold.Chemscore.Internal.Correction.Weighted>
   9.000000E+99

> <Gold.Protein.RotatedTorsions>
[ 6907 6896 6895 6894 ] final  -41.06 input  -60.11 | X-H torsion
[ 7974 7965 7964 7962 ] final   35.52 input  175.53 | X-H torsion
[ 8008 7997 7996 7995 ] final  -58.06 input   59.86 | X-H torsion
[ 10167 10162 10161 10158 ] final -115.51 input  -65.29 | X-H torsion
[ 10718 10713 10712 10709 ] final -125.01 input   66.30 | X-H torsion
[ 10763 10752 10751 10750 ] final   98.79 input  -60.55 | X-H torsion
[ 11005 11000 10999 10996 ] final  -99.50 input  -57.11 | X-H torsion

> <Gold.Protein.ActiveResidues>
 VAL166  LYS551  ARG553  GLY616  TRP617  ASP618  TYR619  PRO620  LYS621  CYS622 
 ASP623  PHE694  ASN695  SER759  ASP760  ASP761  ALA762  ILE779  LEU786  VAL792 
 PHE793  MET794  SER795  GLU796  ALA797  LYS798  CYS799  TRP800  GLU811  SER814 

> <Gold.Protein.RotatedAtoms>
  150.9711  134.9084  159.7788 H   0  0  0  0  0  0  0  0  0  0  0  0  # atno 6907 bound_to 6896
  152.5190  134.3539  159.9271 H   0  0  0  0  0  0  0  0  0  0  0  0  # atno 6908 bound_to 6896
  151.3548  133.3871  159.2718 H   0  0  0  0  0  0  0  0  0  0  0  0  # atno 6909 bound_to 6896
  146.1277  139.6132  142.9248 H   0  0  0  0  0  0  0  0  0  0  0  0  # atno 7974 bound_to 7965
  154.4293  140.1092  156.5897 H   0  0  0  0  0  0  0  0  0  0  0  0  # atno 8008 bound_to 7997
  155.6025  140.3493  155.4579 H   0  0  0  0  0  0  0  0  0  0  0  0  # atno 8009 bound_to 7997
  156.0162  140.1230  157.0393 H   0  0  0  0  0  0  0  0  0  0  0  0  # atno 8010 bound_to 7997
  140.0893  143.4715  152.1880 H   0  0  0  0  0  0  0  0  0  0  0  0  # atno 10167 bound_to 10162
  156.1638  130.6620  151.0086 H   0  0  0  0  0  0  0  0  0  0  0  0  # atno 10718 bound_to 10713
  153.2934  135.4136  155.1187 H   0  0  0  0  0  0  0  0  0  0  0  0  # atno 10763 bound_to 10752
  154.8527  135.3524  154.5950 H   0  0  0  0  0  0  0  0  0  0  0  0  # atno 10764 bound_to 10752
  153.6373  135.7058  153.5312 H   0  0  0  0  0  0  0  0  0  0  0  0  # atno 10765 bound_to 10752
  141.1306  133.8326  157.0980 H   0  0  0  0  0  0  0  0  0  0  0  0  # atno 11005 bound_to 11000
  145.5330  141.0426  143.2372 LP  0  0  0  0  0  0  0  0  0  0  0  0  # atno 17320 bound_to 7965
  144.7658  139.6848  143.7215 LP  0  0  0  0  0  0  0  0  0  0  0  0  # atno 17321 bound_to 7965
  139.5734  144.7475  151.3829 LP  0  0  0  0  0  0  0  0  0  0  0  0  # atno 17342 bound_to 10162
  140.7037  143.7567  150.7446 LP  0  0  0  0  0  0  0  0  0  0  0  0  # atno 17343 bound_to 10162
  157.6752  131.0852  150.7512 LP  0  0  0  0  0  0  0  0  0  0  0  0  # atno 17370 bound_to 10713
  156.7574  130.4787  149.5444 LP  0  0  0  0  0  0  0  0  0  0  0  0  # atno 17371 bound_to 10713
  140.0351  134.9882  157.0855 LP  0  0  0  0  0  0  0  0  0  0  0  0  # atno 17394 bound_to 11000
  140.4223  134.1867  155.7165 LP  0  0  0  0  0  0  0  0  0  0  0  0  # atno 17395 bound_to 11000

$$$$
