AV-unprocessed.smi:263|AV-procd|sdf|2003|dock9
  -GOLD-   2262021193D 1   1.00000     0.00000
 Structure written by MMmdl.
 57 61  0  0  0  0  0  0  0  0  1 V2000
  148.7658  134.5214  157.9349 O   0  0  0  0  0  0  0  0  0  0  0  0
  149.0994  134.1903  156.5976 C   0  0  0  0  0  0  0  0  0  0  0  0
  150.5407  134.6949  156.3369 C   0  0  0  0  0  0  0  0  0  0  0  0
  150.7344  136.1042  156.6428 N   0  0  0  0  0  0  0  0  0  0  0  0
  150.9929  136.6549  157.8776 C   0  0  0  0  0  0  0  0  0  0  0  0
  151.1318  137.9527  157.8898 N   0  0  0  0  0  0  0  0  0  0  0  0
  150.9564  138.3268  156.5624 C   0  0  0  0  0  0  0  0  0  0  0  0
  150.9755  139.5715  155.8714 C   0  0  0  0  0  0  0  0  0  0  0  0
  151.2277  140.7527  156.4918 N   0  0  0  0  0  0  0  0  0  0  0  0
  150.5717  141.9079  155.8790 C   0  0  0  0  0  0  0  0  0  0  0  0
  151.1722  143.2315  156.3906 C   0  0  0  0  0  0  0  0  0  0  0  0
  151.1863  143.3035  157.9321 C   0  0  2  0  0  0  0  0  0  0  0  0
  149.8375  143.3471  158.3699 O   0  0  0  0  0  0  0  0  0  0  0  0
  151.8843  144.5855  158.4392 C   0  0  0  0  0  0  0  0  0  0  0  0
  152.0042  144.6173  159.9749 C   0  0  0  0  0  0  0  0  0  0  0  0
  152.6953  143.3551  160.5152 C   0  0  0  0  0  0  0  0  0  0  0  0
  151.9920  142.0766  160.0302 C   0  0  0  0  0  0  0  0  0  0  0  0
  151.9001  142.0459  158.4921 C   0  0  1  0  0  0  0  0  0  0  0  0
  151.2597  140.7514  157.9562 C   0  0  0  0  0  0  0  0  0  0  0  0
  150.7333  139.5460  154.5328 N   0  0  0  0  0  0  0  0  0  0  0  0
  150.4981  138.3873  153.9100 C   0  0  0  0  0  0  0  0  0  0  0  0
  150.4574  137.1572  154.4246 N   0  0  0  0  0  0  0  0  0  0  0  0
  150.6929  137.1755  155.7676 C   0  0  0  0  0  0  0  0  0  0  0  0
  148.9616  132.6610  156.4264 C   0  0  0  0  0  0  0  0  0  0  0  0
  147.4944  132.2006  156.4866 C   0  0  0  0  0  0  0  0  0  0  0  0
  146.7218  132.9026  155.5205 O   0  0  0  0  0  0  0  0  0  0  0  0
  146.6843  134.3036  155.7628 C   0  0  0  0  0  0  0  0  0  0  0  0
  148.1013  134.8960  155.6569 C   0  0  0  0  0  0  0  0  0  0  0  0
  148.5404  135.4383  157.9699 H   0  0  0  0  0  0  0  0  0  0  0  0
  151.2488  134.1213  156.9366 H   0  0  0  0  0  0  0  0  0  0  0  0
  150.8230  134.5273  155.2964 H   0  0  0  0  0  0  0  0  0  0  0  0
  151.0805  136.0591  158.7746 H   0  0  0  0  0  0  0  0  0  0  0  0
  150.6517  141.8792  154.7930 H   0  0  0  0  0  0  0  0  0  0  0  0
  149.5065  141.8658  156.1094 H   0  0  0  0  0  0  0  0  0  0  0  0
  152.1921  143.3214  156.0142 H   0  0  0  0  0  0  0  0  0  0  0  0
  150.6194  144.0743  155.9738 H   0  0  0  0  0  0  0  0  0  0  0  0
  149.2942  143.5969  157.6383 H   0  0  0  0  0  0  0  0  0  0  0  0
  152.8850  144.6463  158.0094 H   0  0  0  0  0  0  0  0  0  0  0  0
  151.3516  145.4717  158.0915 H   0  0  0  0  0  0  0  0  0  0  0  0
  152.5590  145.5035  160.2842 H   0  0  0  0  0  0  0  0  0  0  0  0
  151.0130  144.7083  160.4207 H   0  0  0  0  0  0  0  0  0  0  0  0
  153.7363  143.3435  160.1898 H   0  0  0  0  0  0  0  0  0  0  0  0
  152.7130  143.3788  161.6051 H   0  0  0  0  0  0  0  0  0  0  0  0
  152.5383  141.2032  160.3877 H   0  0  0  0  0  0  0  0  0  0  0  0
  150.9950  142.0153  160.4680 H   0  0  0  0  0  0  0  0  0  0  0  0
  152.9260  142.0619  158.1190 H   0  0  0  0  0  0  0  0  0  0  0  0
  150.2460  140.6402  158.3440 H   0  0  0  0  0  0  0  0  0  0  0  0
  151.8339  139.8933  158.3086 H   0  0  0  0  0  0  0  0  0  0  0  0
  150.3192  138.4556  152.8471 H   0  0  0  0  0  0  0  0  0  0  0  0
  149.3759  132.3695  155.4605 H   0  0  0  0  0  0  0  0  0  0  0  0
  149.5411  132.1296  157.1823 H   0  0  0  0  0  0  0  0  0  0  0  0
  147.4316  131.1328  156.2767 H   0  0  0  0  0  0  0  0  0  0  0  0
  147.0760  132.3502  157.4831 H   0  0  0  0  0  0  0  0  0  0  0  0
  146.0312  134.7682  155.0241 H   0  0  0  0  0  0  0  0  0  0  0  0
  146.2452  134.5040  156.7412 H   0  0  0  0  0  0  0  0  0  0  0  0
  148.0753  135.9676  155.8584 H   0  0  0  0  0  0  0  0  0  0  0  0
  148.4407  134.7889  154.6257 H   0  0  0  0  0  0  0  0  0  0  0  0
  1  2  1  0  0  0  0
  1 29  1  0  0  0  0
  2 28  1  0  0  0  0
  2  3  1  0  0  0  0
  2 24  1  0  0  0  0
  3  4  1  0  0  0  0
  3 30  1  0  0  0  0
  3 31  1  0  0  0  0
  4 23  1  0  0  0  0
  4  5  1  0  0  0  0
  5  6  2  0  0  0  0
  5 32  1  0  0  0  0
  6  7  1  0  0  0  0
  7 23  2  0  0  0  0
  7  8  1  0  0  0  0
  8  9  1  0  0  0  0
  8 20  2  0  0  0  0
  9 19  1  0  0  0  0
  9 10  1  0  0  0  0
 10 11  1  0  0  0  0
 10 33  1  0  0  0  0
 10 34  1  0  0  0  0
 11 12  1  0  0  0  0
 11 35  1  0  0  0  0
 11 36  1  0  0  0  0
 12 18  1  0  0  0  0
 12 13  1  0  0  0  0
 12 14  1  0  0  0  0
 13 37  1  0  0  0  0
 14 15  1  0  0  0  0
 14 38  1  0  0  0  0
 14 39  1  0  0  0  0
 15 16  1  0  0  0  0
 15 40  1  0  0  0  0
 15 41  1  0  0  0  0
 16 17  1  0  0  0  0
 16 42  1  0  0  0  0
 16 43  1  0  0  0  0
 17 18  1  0  0  0  0
 17 44  1  0  0  0  0
 17 45  1  0  0  0  0
 18 19  1  0  0  0  0
 18 46  1  0  0  0  0
 19 47  1  0  0  0  0
 19 48  1  0  0  0  0
 20 21  1  0  0  0  0
 21 22  2  0  0  0  0
 21 49  1  0  0  0  0
 22 23  1  0  0  0  0
 24 25  1  0  0  0  0
 24 50  1  0  0  0  0
 24 51  1  0  0  0  0
 25 26  1  0  0  0  0
 25 52  1  0  0  0  0
 25 53  1  0  0  0  0
 26 27  1  0  0  0  0
 27 28  1  0  0  0  0
 27 54  1  0  0  0  0
 27 55  1  0  0  0  0
 28 56  1  0  0  0  0
 28 57  1  0  0  0  0
M  END
> <s_m_source_file>
AV-unprocessed.smi

> <i_m_source_file_index>
263

> <i_lp_mmshare_version>
43012

> <i_f3d_flags>
0

> <s_epik_input>
W0NIMl0xW0NIMl1PW0NIMl1bQ0gyXUMxKFtPSF0pW0NIMl1uKFtjSF1uMiljKGMyMyluW2NIXW5jM04oW0NIMl1bQ0gyXTQpW0NIMl1bQ0BASF0oW0NAXTQ1W09IXSlbQ0gyXVtDSDJdW0NIMl1bQ0gyXTU=

> <s_epik_cmdline>
J2VwaWtfcHl0aG9uJywgJy1waCcsICc3LjAnLCAnLXRuJywgJzgnLCAnLW1hJywgJzIwMCcsICctbWV0YWxfYmluZGluZycsICctaW1hZScsICc8aW5maWxlLm1hZT4nLCAnLW9tYWUnLCAnPG91dGZpbGUubWFlPic=

> <r_lp_tautomer_probability>
1

> <r_epik_Ionization_Penalty>
0.00747493

> <r_epik_Ionization_Penalty_Charging>
0

> <r_epik_Ionization_Penalty_Neutral>
0.00747493

> <r_epik_State_Penalty>
0.00549307

> <r_epik_Charging_Adjusted_Penalty>
0.00549307

> <i_epik_Tot_Q>
0

> <i_epik_Tot_abs_Q>
0

> <r_epik_Metal_State_Penalty>
-0

> <b_epik_Metal_Only>
0

> <s_lp_Force_Field>
OPLS_2005

> <r_lp_Energy>
38.6154

> <b_lp_Chiralities_Consistent>
1

> <s_lp_Variant>
AV-unprocessed.smi:263-1

> <Gold.Version>
5.8.1

> <Gold.Id.Protein>
6NUR|6NUR_protein|mol2

> <Gold.PLP.Fitness>
47.0480

> <Gold.PLP.PLP>
-38.0608

> <Gold.PLP.part.hbond>
-2.0000

> <Gold.PLP.part.metal>
0.0000

> <Gold.PLP.part.buried>
-3.3805

> <Gold.PLP.part.nonpolar>
-33.7032

> <Gold.PLP.part.repulsive>
0.3372

> <Gold.PLP.ligand.clash>
0.0000

> <Gold.PLP.ligand.torsion>
0.8288

> <Gold.PLP.Chemscore.Hbond>
1.9920

> <Gold.PLP.Chemscore.CHOScore>
1.4315

> <Gold.PLP.Chemscore.Metal>
0.0000

> <Gold.Chemscore.Hbonds>
donor molecule, donor type, donor heavy atom, donor atom, acceptor molecule, acceptor atom, score
      L1  H    13    37       P1  8028  0.34
      P1  H  7989  7998       L1    20  1.00
      L1  C    21    49       P1  7948  0.28
      L1  C    21    49       P1  7957  0.96

> <Gold.PLP.Chemscore.Internal.Correction>
0.3743

> <Gold.Rescore>
     Score         DG    S(hbond)    S(metal)    S(lipo)     H(rot)  DE(clash)    DE(int)     intcor
     14.94     -19.73       2.28        0.00     113.99       2.62       2.58       2.20       ----

> <Gold.Chemscore.Fitness>
14.9421

> <Gold.Chemscore.DG>
-19.7253

> <Gold.Chemscore.ZeroCoef>
-5.4800

> <Gold.Chemscore.Hbond>
2.2827

> <Gold.Chemscore.Metal>
0.0000

> <Gold.Chemscore.Lipo>
113.9884

> <Gold.Chemscore.Internal_Hbond>
0.0000

> <Gold.Chemscore.DEClash>
2.5831

> <Gold.Chemscore.DEInternal>
2.2002

> <Gold.Chemscore.Rot>
2.6232

> <Gold.Chemscore.Internal.Correction>
   9.000000E+99

> <Gold.Chemscore.Hbonds>
donor molecule, donor type, donor heavy atom, donor atom, acceptor molecule, acceptor atom, score
      L1  H    13    37       P1  8028  0.12
      P1  H  6896  6909       L1     1  0.01
      P1  H  7989  7998       L1    20  0.84

> <Gold.Chemscore.Hbond.Weighted>
-7.6242

> <Gold.Chemscore.Metal.Weighted>
-0.0000

> <Gold.Chemscore.Lipo.Weighted>
-13.3366

> <Gold.Chemscore.Internal_Hbond.Weighted>
0.0000

> <Gold.Chemscore.DEClash.Weighted>
2.5831

> <Gold.Chemscore.DEInternal.Weighted>
2.2002

> <Gold.Chemscore.Rot.Weighted>
6.7155

> <Gold.Chemscore.Internal.Correction.Weighted>
   9.000000E+99

> <Gold.Protein.RotatedTorsions>
[ 6907 6896 6895 6894 ] final    2.00 input  -60.11 | X-H torsion
[ 7974 7965 7964 7962 ] final   53.02 input  175.53 | X-H torsion
[ 8008 7997 7996 7995 ] final  -76.24 input   59.86 | X-H torsion
[ 10167 10162 10161 10158 ] final -104.27 input  -65.29 | X-H torsion
[ 10718 10713 10712 10709 ] final   56.15 input   66.30 | X-H torsion
[ 10763 10752 10751 10750 ] final  143.04 input  -60.55 | X-H torsion
[ 11005 11000 10999 10996 ] final   37.64 input  -57.11 | X-H torsion

> <Gold.Protein.ActiveResidues>
 VAL166  LYS551  ARG553  GLY616  TRP617  ASP618  TYR619  PRO620  LYS621  CYS622 
 ASP623  PHE694  ASN695  SER759  ASP760  ASP761  ALA762  ILE779  LEU786  VAL792 
 PHE793  MET794  SER795  GLU796  ALA797  LYS798  CYS799  TRP800  GLU811  SER814 

> <Gold.Protein.RotatedAtoms>
  151.6017  135.1047  160.0061 H   0  0  0  0  0  0  0  0  0  0  0  0  # atno 6907 bound_to 6896
  152.4254  133.7182  159.6529 H   0  0  0  0  0  0  0  0  0  0  0  0  # atno 6908 bound_to 6896
  150.8143  133.8293  159.3190 H   0  0  0  0  0  0  0  0  0  0  0  0  # atno 6909 bound_to 6896
  145.9754  139.4190  143.0164 H   0  0  0  0  0  0  0  0  0  0  0  0  # atno 7974 bound_to 7965
  154.5488  140.0730  156.8633 H   0  0  0  0  0  0  0  0  0  0  0  0  # atno 8008 bound_to 7997
  155.3035  140.3385  155.4228 H   0  0  0  0  0  0  0  0  0  0  0  0  # atno 8009 bound_to 7997
  156.1942  140.1697  156.8017 H   0  0  0  0  0  0  0  0  0  0  0  0  # atno 8010 bound_to 7997
  140.2110  143.3746  152.1050 H   0  0  0  0  0  0  0  0  0  0  0  0  # atno 10167 bound_to 10162
  157.5406  130.8695  149.8817 H   0  0  0  0  0  0  0  0  0  0  0  0  # atno 10718 bound_to 10713
  153.9657  135.2955  155.3430 H   0  0  0  0  0  0  0  0  0  0  0  0  # atno 10763 bound_to 10752
  154.7350  135.5050  153.9029 H   0  0  0  0  0  0  0  0  0  0  0  0  # atno 10764 bound_to 10752
  153.0924  135.6711  153.9939 H   0  0  0  0  0  0  0  0  0  0  0  0  # atno 10765 bound_to 10752
  140.2205  134.3647  155.8007 H   0  0  0  0  0  0  0  0  0  0  0  0  # atno 11005 bound_to 11000
  145.7846  140.9841  143.1081 LP  0  0  0  0  0  0  0  0  0  0  0  0  # atno 17320 bound_to 7965
  144.6847  139.9606  143.7480 LP  0  0  0  0  0  0  0  0  0  0  0  0  # atno 17321 bound_to 7965
  139.5180  144.6999  151.5523 LP  0  0  0  0  0  0  0  0  0  0  0  0  # atno 17342 bound_to 10162
  140.6323  143.9052  150.6616 LP  0  0  0  0  0  0  0  0  0  0  0  0  # atno 17343 bound_to 10162
  156.0494  130.3721  150.1238 LP  0  0  0  0  0  0  0  0  0  0  0  0  # atno 17370 bound_to 10713
  156.9418  130.9747  151.3515 LP  0  0  0  0  0  0  0  0  0  0  0  0  # atno 17371 bound_to 10713
  141.2223  133.7191  156.8568 LP  0  0  0  0  0  0  0  0  0  0  0  0  # atno 17394 bound_to 11000
  140.1855  134.9003  157.2999 LP  0  0  0  0  0  0  0  0  0  0  0  0  # atno 17395 bound_to 11000

$$$$
