AV-unprocessed.smi:1055|AV-procd|sdf|4627|dock6
  -GOLD-   22720 3133D 1   1.00000     0.00000
 Structure written by MMmdl.
 51 52  0  0  0  0  0  0  0  0  2 V2000
  145.5889  143.3997  157.4957 C   0  0  0  0  0  0  0  0  0  0  0  0
  144.6811  143.6136  156.5289 C   0  0  0  0  0  0  0  0  0  0  0  0
  144.0703  144.9815  156.2880 C   0  0  0  0  0  0  0  0  0  0  0  0
  144.1983  142.5000  155.6132 C   0  0  0  0  0  0  0  0  0  0  0  0
  145.3049  141.9477  154.7930 N   0  3  2  0  0  0  0  0  0  0  0  0
  146.1969  141.0572  155.5777 C   0  0  0  0  0  0  0  0  0  0  0  0
  147.2426  140.3792  154.6734 C   0  0  0  0  0  0  0  0  0  0  0  0
  148.0640  141.4033  153.8711 C   0  0  2  0  0  0  0  0  0  0  0  0
  148.9857  142.1207  154.7516 N   0  0  0  0  0  0  0  0  0  0  0  0
  149.7349  141.5601  155.7120 C   0  0  0  0  0  0  0  0  0  0  0  0
  149.7396  140.3527  155.9497 O   0  0  0  0  0  0  0  0  0  0  0  0
  150.4472  142.4863  156.3758 N   0  0  0  0  0  0  0  0  0  0  0  0
  151.3720  142.2903  157.4364 C   0  0  0  0  0  0  0  0  0  0  0  0
  151.8386  143.4230  158.1301 C   0  0  0  0  0  0  0  0  0  0  0  0
  152.7699  143.2587  159.1727 C   0  0  0  0  0  0  0  0  0  0  0  0
  153.2258  141.9561  159.4944 C   0  0  0  0  0  0  0  0  0  0  0  0
  154.1588  141.7364  160.5336 N   0  0  0  0  0  0  0  0  0  0  0  0
  155.1515  140.6755  160.4168 C   0  0  0  0  0  0  0  0  0  0  0  0
  154.1082  142.5562  161.7400 C   0  0  0  0  0  0  0  0  0  0  0  0
  152.7862  140.8697  158.8130 N   0  0  0  0  0  0  0  0  0  0  0  0
  151.8912  141.0308  157.8160 C   0  0  0  0  0  0  0  0  0  0  0  0
  147.1139  142.3615  153.1248 C   0  0  0  0  0  0  0  0  0  0  0  0
  146.0730  142.9928  154.0657 C   0  0  0  0  0  0  0  0  0  0  0  0
  145.9207  144.2007  158.1406 H   0  0  0  0  0  0  0  0  0  0  0  0
  146.0160  142.4208  157.6584 H   0  0  0  0  0  0  0  0  0  0  0  0
  142.9862  144.9363  156.3959 H   0  0  0  0  0  0  0  0  0  0  0  0
  144.3008  145.3342  155.2824 H   0  0  0  0  0  0  0  0  0  0  0  0
  144.4504  145.7169  156.9978 H   0  0  0  0  0  0  0  0  0  0  0  0
  143.7290  141.6999  156.1884 H   0  0  0  0  0  0  0  0  0  0  0  0
  143.4243  142.9177  154.9679 H   0  0  0  0  0  0  0  0  0  0  0  0
  146.6877  141.6322  156.3646 H   0  0  0  0  0  0  0  0  0  0  0  0
  145.6031  140.2880  156.0734 H   0  0  0  0  0  0  0  0  0  0  0  0
  147.9024  139.7476  155.2698 H   0  0  0  0  0  0  0  0  0  0  0  0
  146.7310  139.7106  153.9797 H   0  0  0  0  0  0  0  0  0  0  0  0
  148.6602  140.8576  153.1372 H   0  0  0  0  0  0  0  0  0  0  0  0
  149.0405  143.1221  154.6360 H   0  0  0  0  0  0  0  0  0  0  0  0
  150.2673  143.4491  156.1311 H   0  0  0  0  0  0  0  0  0  0  0  0
  151.4843  144.4106  157.8724 H   0  0  0  0  0  0  0  0  0  0  0  0
  153.1140  144.1337  159.7028 H   0  0  0  0  0  0  0  0  0  0  0  0
  154.6653  139.7063  160.3023 H   0  0  0  0  0  0  0  0  0  0  0  0
  155.7859  140.6262  161.3020 H   0  0  0  0  0  0  0  0  0  0  0  0
  155.7972  140.8471  159.5552 H   0  0  0  0  0  0  0  0  0  0  0  0
  153.1565  142.4208  162.2548 H   0  0  0  0  0  0  0  0  0  0  0  0
  154.2205  143.6122  161.4917 H   0  0  0  0  0  0  0  0  0  0  0  0
  154.9047  142.2917  162.4356 H   0  0  0  0  0  0  0  0  0  0  0  0
  151.6128  140.1209  157.3076 H   0  0  0  0  0  0  0  0  0  0  0  0
  147.6764  143.1425  152.6119 H   0  0  0  0  0  0  0  0  0  0  0  0
  146.5929  141.8075  152.3427 H   0  0  0  0  0  0  0  0  0  0  0  0
  145.3981  143.6146  153.4773 H   0  0  0  0  0  0  0  0  0  0  0  0
  146.5626  143.6538  154.7827 H   0  0  0  0  0  0  0  0  0  0  0  0
  144.8706  141.3636  154.0926 H   0  0  0  0  0  0  0  0  0  0  0  0
  1  2  2  0  0  0  0
  1 24  1  0  0  0  0
  1 25  1  0  0  0  0
  2  3  1  0  0  0  0
  2  4  1  0  0  0  0
  3 26  1  0  0  0  0
  3 27  1  0  0  0  0
  3 28  1  0  0  0  0
  4  5  1  0  0  0  0
  4 29  1  0  0  0  0
  4 30  1  0  0  0  0
  5 23  1  0  0  0  0
  5  6  1  0  0  0  0
  5 51  1  0  0  0  0
  6  7  1  0  0  0  0
  6 31  1  0  0  0  0
  6 32  1  0  0  0  0
  7  8  1  0  0  0  0
  7 33  1  0  0  0  0
  7 34  1  0  0  0  0
  8  9  1  0  0  0  0
  8 22  1  0  0  0  0
  8 35  1  0  0  0  0
  9 10  1  0  0  0  0
  9 36  1  0  0  0  0
 10 11  2  0  0  0  0
 10 12  1  0  0  0  0
 12 13  1  0  0  0  0
 12 37  1  0  0  0  0
 13 21  1  0  0  0  0
 13 14  2  0  0  0  0
 14 15  1  0  0  0  0
 14 38  1  0  0  0  0
 15 16  2  0  0  0  0
 15 39  1  0  0  0  0
 16 17  1  0  0  0  0
 16 20  1  0  0  0  0
 17 18  1  0  0  0  0
 17 19  1  0  0  0  0
 18 40  1  0  0  0  0
 18 41  1  0  0  0  0
 18 42  1  0  0  0  0
 19 43  1  0  0  0  0
 19 44  1  0  0  0  0
 19 45  1  0  0  0  0
 20 21  2  0  0  0  0
 21 46  1  0  0  0  0
 22 23  1  0  0  0  0
 22 47  1  0  0  0  0
 22 48  1  0  0  0  0
 23 49  1  0  0  0  0
 23 50  1  0  0  0  0
M  CHG  1   5   1
M  END
> <s_m_source_file>
AV-unprocessed.smi

> <i_m_source_file_index>
1055

> <i_lp_mmshare_version>
43012

> <i_f3d_flags>
0

> <s_epik_input>
W0NIMl09QyhbQ0gzXSlbQ0gyXU4xW0NIMl1bQ0gyXVtDSF0oW0NIMl1bQ0gyXTEpW05IXUMoPU8pW05IXWMyW2NIXVtjSF1jKE4oW0NIM10pW0NIM10pbltjSF0y

> <s_epik_cmdline>
J2VwaWtfcHl0aG9uJywgJy1waCcsICc3LjAnLCAnLXRuJywgJzgnLCAnLW1hJywgJzIwMCcsICctbWV0YWxfYmluZGluZycsICctaW1hZScsICc8aW5maWxlLm1hZT4nLCAnLW9tYWUnLCAnPG91dGZpbGUubWFlPic=

> <r_lp_tautomer_probability>
1

> <r_epik_Ionization_Penalty>
0.534133

> <r_epik_Ionization_Penalty_Charging>
0.0193505

> <r_epik_Ionization_Penalty_Neutral>
0.514782

> <r_epik_State_Penalty>
0.557749

> <r_epik_Charging_Adjusted_Penalty>
0.5771

> <i_epik_Tot_Q>
1

> <i_epik_Tot_abs_Q>
1

> <r_epik_Metal_State_Penalty>
0.306227

> <b_epik_Metal_Only>
0

> <s_lp_Force_Field>
OPLS_2005

> <r_lp_Energy>
19.9376

> <b_lp_Chiralities_Consistent>
1

> <s_lp_Variant>
AV-unprocessed.smi:1055-4

> <Gold.Version>
5.8.1

> <Gold.Id.Protein>
6NUR|6NUR_protein|mol2

> <Gold.PLP.Fitness>
54.0904

> <Gold.PLP.PLP>
-43.8156

> <Gold.PLP.part.hbond>
-3.0000

> <Gold.PLP.part.metal>
0.0000

> <Gold.PLP.part.buried>
-7.5334

> <Gold.PLP.part.nonpolar>
-33.2406

> <Gold.PLP.part.repulsive>
0.2752

> <Gold.PLP.ligand.clash>
0.0000

> <Gold.PLP.ligand.torsion>
0.8020

> <Gold.PLP.Chemscore.Hbond>
3.9360

> <Gold.PLP.Chemscore.CHOScore>
0.0000

> <Gold.PLP.Chemscore.Metal>
0.0000

> <Gold.Chemscore.Hbonds>
donor molecule, donor type, donor heavy atom, donor atom, acceptor molecule, acceptor atom, score
      L1  H     5    51       P1 10175  1.30
      L1  H     9    36       P1  8028  0.83
      L1  H    12    37       P1  8028  0.91

> <Gold.PLP.Chemscore.Internal.Correction>
0.0708

> <Gold.Rescore>
     Score         DG    S(hbond)    S(metal)    S(lipo)     H(rot)  DE(clash)    DE(int)     intcor
     17.76     -22.45       2.80        0.00      94.08       1.33       1.42       3.26       ----

> <Gold.Chemscore.Fitness>
17.7642

> <Gold.Chemscore.DG>
-22.4461

> <Gold.Chemscore.ZeroCoef>
-5.4800

> <Gold.Chemscore.Hbond>
2.8009

> <Gold.Chemscore.Metal>
0.0000

> <Gold.Chemscore.Lipo>
94.0781

> <Gold.Chemscore.Internal_Hbond>
0.0000

> <Gold.Chemscore.DEClash>
1.4193

> <Gold.Chemscore.DEInternal>
3.2626

> <Gold.Chemscore.Rot>
1.3266

> <Gold.Chemscore.Internal.Correction>
   9.000000E+99

> <Gold.Chemscore.Hbonds>
donor molecule, donor type, donor heavy atom, donor atom, acceptor molecule, acceptor atom, score
      L1  H     5    51       P1 10175  0.32
      L1  H     9    36       P1  8028  0.81
      L1  H    12    37       P1  8028  0.88

> <Gold.Chemscore.Hbond.Weighted>
-9.3551

> <Gold.Chemscore.Metal.Weighted>
-0.0000

> <Gold.Chemscore.Lipo.Weighted>
-11.0071

> <Gold.Chemscore.Internal_Hbond.Weighted>
0.0000

> <Gold.Chemscore.DEClash.Weighted>
1.4193

> <Gold.Chemscore.DEInternal.Weighted>
3.2626

> <Gold.Chemscore.Rot.Weighted>
3.3962

> <Gold.Chemscore.Internal.Correction.Weighted>
   9.000000E+99

> <Gold.Protein.RotatedTorsions>
[ 6907 6896 6895 6894 ] final  124.17 input  -60.11 | X-H torsion
[ 7974 7965 7964 7962 ] final   85.09 input  175.53 | X-H torsion
[ 8008 7997 7996 7995 ] final   37.70 input   59.86 | X-H torsion
[ 10167 10162 10161 10158 ] final   21.74 input  -65.29 | X-H torsion
[ 10718 10713 10712 10709 ] final  -20.98 input   66.30 | X-H torsion
[ 10763 10752 10751 10750 ] final  114.29 input  -60.55 | X-H torsion
[ 11005 11000 10999 10996 ] final -168.04 input  -57.11 | X-H torsion

> <Gold.Protein.ActiveResidues>
 VAL166  LYS551  ARG553  GLY616  TRP617  ASP618  TYR619  PRO620  LYS621  CYS622 
 ASP623  PHE694  ASN695  SER759  ASP760  ASP761  ALA762  ILE779  LEU786  VAL792 
 PHE793  MET794  SER795  GLU796  ALA797  LYS798  CYS799  TRP800  GLU811  SER814 

> <Gold.Protein.RotatedAtoms>
  152.4100  133.6949  159.6389 H   0  0  0  0  0  0  0  0  0  0  0  0  # atno 6907 bound_to 6896
  150.7981  133.8640  159.3248 H   0  0  0  0  0  0  0  0  0  0  0  0  # atno 6908 bound_to 6896
  151.6385  135.1017  160.0188 H   0  0  0  0  0  0  0  0  0  0  0  0  # atno 6909 bound_to 6896
  145.5902  139.2337  143.2304 H   0  0  0  0  0  0  0  0  0  0  0  0  # atno 7974 bound_to 7965
  155.2080  140.3321  155.4333 H   0  0  0  0  0  0  0  0  0  0  0  0  # atno 8008 bound_to 7997
  156.2381  140.1882  156.7112 H   0  0  0  0  0  0  0  0  0  0  0  0  # atno 8009 bound_to 7997
  154.6097  140.0611  156.9463 H   0  0  0  0  0  0  0  0  0  0  0  0  # atno 8010 bound_to 7997
  140.5403  143.9688  150.6515 H   0  0  0  0  0  0  0  0  0  0  0  0  # atno 10167 bound_to 10162
  156.5245  130.4640  149.6579 H   0  0  0  0  0  0  0  0  0  0  0  0  # atno 10718 bound_to 10713
  153.5050  135.3630  155.2559 H   0  0  0  0  0  0  0  0  0  0  0  0  # atno 10763 bound_to 10752
  154.8745  135.4009  154.3434 H   0  0  0  0  0  0  0  0  0  0  0  0  # atno 10764 bound_to 10752
  153.4077  135.7077  153.6447 H   0  0  0  0  0  0  0  0  0  0  0  0  # atno 10765 bound_to 10752
  140.5465  134.5471  157.5112 H   0  0  0  0  0  0  0  0  0  0  0  0  # atno 11005 bound_to 11000
  146.1653  140.6728  142.9258 LP  0  0  0  0  0  0  0  0  0  0  0  0  # atno 17320 bound_to 7965
  144.7355  140.4795  143.6907 LP  0  0  0  0  0  0  0  0  0  0  0  0  # atno 17321 bound_to 7965
  140.3087  143.3212  152.0900 LP  0  0  0  0  0  0  0  0  0  0  0  0  # atno 17342 bound_to 10162
  139.4986  144.6650  151.6376 LP  0  0  0  0  0  0  0  0  0  0  0  0  # atno 17343 bound_to 10162
  156.3118  130.7233  151.2127 LP  0  0  0  0  0  0  0  0  0  0  0  0  # atno 17370 bound_to 10713
  157.7431  131.0479  150.4968 LP  0  0  0  0  0  0  0  0  0  0  0  0  # atno 17371 bound_to 10713
  139.9477  134.7672  156.0522 LP  0  0  0  0  0  0  0  0  0  0  0  0  # atno 17394 bound_to 11000
  141.1197  133.6617  156.3183 LP  0  0  0  0  0  0  0  0  0  0  0  0  # atno 17395 bound_to 11000

$$$$
