AV-unprocessed.smi:2448|AV-procd|sdf|9657|dock7
  -GOLD-   2272013293D 1   1.00000     0.00000
 Structure written by MMmdl.
 38 39  0  0  0  0  0  0  0  0  2 V2000
  149.8137  140.7846  153.6695 O   0  0  0  0  0  0  0  0  0  0  0  0
  148.7892  140.3563  154.5504 C   0  0  1  0  0  0  0  0  0  0  0  0
  149.3435  140.4008  155.9888 C   0  0  0  0  0  0  0  0  0  0  0  0
  150.2874  139.2891  156.2426 N   0  3  0  0  0  0  0  0  0  0  0  0
  151.5907  139.6680  156.8368 C   0  0  1  0  0  0  0  0  0  0  0  0
  151.3873  140.2795  158.2451 C   0  0  0  0  0  0  0  0  0  0  0  0
  151.7261  141.7562  158.3394 C   0  0  0  0  0  0  0  0  0  0  0  0
  150.9843  142.7136  157.6167 C   0  0  0  0  0  0  0  0  0  0  0  0
  151.3360  144.0723  157.7443 C   0  0  0  0  0  0  0  0  0  0  0  0
  152.3503  144.5053  158.5235 N   0  0  0  0  0  0  0  0  0  0  0  0
  153.0592  143.5830  159.2091 C   0  0  0  0  0  0  0  0  0  0  0  0
  152.7899  142.2006  159.1522 C   0  0  0  0  0  0  0  0  0  0  0  0
  152.5258  138.4366  156.8227 C   0  0  0  0  0  0  0  0  0  0  0  0
  151.9901  137.4662  157.5643 F   0  0  0  0  0  0  0  0  0  0  0  0
  152.6904  137.9584  155.5903 F   0  0  0  0  0  0  0  0  0  0  0  0
  153.7169  138.7528  157.3317 F   0  0  0  0  0  0  0  0  0  0  0  0
  147.5843  141.2931  154.3630 C   0  0  0  0  0  0  0  0  0  0  0  0
  146.9220  140.9441  153.0263 C   0  0  0  0  0  0  0  0  0  0  0  0
  147.0996  139.1598  152.7802 S   0  0  0  0  0  0  0  0  0  0  0  0
  148.2960  138.9603  154.1272 C   0  0  0  0  0  0  0  0  0  0  0  0
  149.5220  140.6589  152.7791 H   0  0  0  0  0  0  0  0  0  0  0  0
  149.8488  141.3522  156.1615 H   0  0  0  0  0  0  0  0  0  0  0  0
  148.5187  140.3469  156.6993 H   0  0  0  0  0  0  0  0  0  0  0  0
  149.8443  138.5997  156.8329 H   0  0  0  0  0  0  0  0  0  0  0  0
  152.0406  140.4213  156.1882 H   0  0  0  0  0  0  0  0  0  0  0  0
  150.3500  140.1710  158.5617 H   0  0  0  0  0  0  0  0  0  0  0  0
  151.9821  139.7296  158.9758 H   0  0  0  0  0  0  0  0  0  0  0  0
  150.1614  142.4203  156.9815 H   0  0  0  0  0  0  0  0  0  0  0  0
  150.7869  144.8312  157.2067 H   0  0  0  0  0  0  0  0  0  0  0  0
  153.8650  143.9580  159.8225 H   0  0  0  0  0  0  0  0  0  0  0  0
  153.3866  141.5035  159.7220 H   0  0  0  0  0  0  0  0  0  0  0  0
  146.8638  141.1204  155.1639 H   0  0  0  0  0  0  0  0  0  0  0  0
  147.8629  142.3467  154.4122 H   0  0  0  0  0  0  0  0  0  0  0  0
  145.8736  141.2415  152.9962 H   0  0  0  0  0  0  0  0  0  0  0  0
  147.4341  141.4529  152.2090 H   0  0  0  0  0  0  0  0  0  0  0  0
  149.1092  138.2962  153.8311 H   0  0  0  0  0  0  0  0  0  0  0  0
  147.7710  138.4821  154.9549 H   0  0  0  0  0  0  0  0  0  0  0  0
  150.4799  138.8601  155.3480 H   0  0  0  0  0  0  0  0  0  0  0  0
  1  2  1  0  0  0  0
  1 21  1  0  0  0  0
  2 20  1  0  0  0  0
  2  3  1  0  0  0  0
  2 17  1  0  0  0  0
  3  4  1  0  0  0  0
  3 22  1  0  0  0  0
  3 23  1  0  0  0  0
  4  5  1  0  0  0  0
  4 24  1  0  0  0  0
  4 38  1  0  0  0  0
  5  6  1  0  0  0  0
  5 13  1  0  0  0  0
  5 25  1  0  0  0  0
  6  7  1  0  0  0  0
  6 26  1  0  0  0  0
  6 27  1  0  0  0  0
  7 12  1  0  0  0  0
  7  8  2  0  0  0  0
  8  9  1  0  0  0  0
  8 28  1  0  0  0  0
  9 10  2  0  0  0  0
  9 29  1  0  0  0  0
 10 11  1  0  0  0  0
 11 12  2  0  0  0  0
 11 30  1  0  0  0  0
 12 31  1  0  0  0  0
 13 14  1  0  0  0  0
 13 15  1  0  0  0  0
 13 16  1  0  0  0  0
 17 18  1  0  0  0  0
 17 32  1  0  0  0  0
 17 33  1  0  0  0  0
 18 19  1  0  0  0  0
 18 34  1  0  0  0  0
 18 35  1  0  0  0  0
 19 20  1  0  0  0  0
 20 36  1  0  0  0  0
 20 37  1  0  0  0  0
M  CHG  1   4   1
M  END
> <s_m_source_file>
AV-unprocessed.smi

> <i_m_source_file_index>
2448

> <i_lp_mmshare_version>
43012

> <i_f3d_flags>
0

> <s_epik_input>
W0NIMl0xU1tDSDJdW0NIMl1bQ0BAXTEoW09IXSlbQ0gyXVtOSF1bQ0BASF0oQyhGKShGKUYpW0NIMl1jMltjSF1bY0hdbltjSF1bY0hdMg==

> <s_epik_cmdline>
J2VwaWtfcHl0aG9uJywgJy1waCcsICc3LjAnLCAnLXRuJywgJzgnLCAnLW1hJywgJzIwMCcsICctbWV0YWxfYmluZGluZycsICctaW1hZScsICc8aW5maWxlLm1hZT4nLCAnLW9tYWUnLCAnPG91dGZpbGUubWFlPic=

> <r_epik_Ionization_Penalty>
1.19945

> <r_epik_Ionization_Penalty_Charging>
1.19892

> <r_epik_Ionization_Penalty_Neutral>
0.000532129

> <r_epik_State_Penalty>
0.752927

> <r_epik_Charging_Adjusted_Penalty>
1.95185

> <i_epik_Tot_Q>
1

> <i_epik_Tot_abs_Q>
1

> <r_epik_Metal_State_Penalty>
0.804507

> <b_epik_Metal_Only>
0

> <s_lp_Force_Field>
OPLS_2005

> <r_lp_Energy>
21.3844

> <b_lp_Chiralities_Consistent>
1

> <s_lp_Variant>
AV-unprocessed.smi:2448-7

> <Gold.Version>
5.8.1

> <Gold.Id.Protein>
6NUR|6NUR_protein|mol2

> <Gold.PLP.Fitness>
41.8257

> <Gold.PLP.PLP>
-36.5560

> <Gold.PLP.part.hbond>
-2.0000

> <Gold.PLP.part.metal>
0.0000

> <Gold.PLP.part.buried>
-5.5577

> <Gold.PLP.part.nonpolar>
-29.4629

> <Gold.PLP.part.repulsive>
0.0305

> <Gold.PLP.ligand.clash>
0.0000

> <Gold.PLP.ligand.torsion>
1.2556

> <Gold.PLP.Chemscore.Hbond>
1.5304

> <Gold.PLP.Chemscore.CHOScore>
0.8868

> <Gold.PLP.Chemscore.Metal>
0.0000

> <Gold.Chemscore.Hbonds>
donor molecule, donor type, donor heavy atom, donor atom, acceptor molecule, acceptor atom, score
      L1  H     1    21       P1  7957  1.00
      P1  H  7989  7998       L1     1  0.43
      L1  C     9    29       P1  8028  1.00

> <Gold.PLP.Chemscore.Internal.Correction>
0.5294

> <Gold.Rescore>
     Score         DG    S(hbond)    S(metal)    S(lipo)     H(rot)  DE(clash)    DE(int)     intcor
     14.22     -15.70       1.13        0.00     107.31       2.39       0.12       1.36       ----

> <Gold.Chemscore.Fitness>
14.2240

> <Gold.Chemscore.DG>
-15.7018

> <Gold.Chemscore.ZeroCoef>
-5.4800

> <Gold.Chemscore.Hbond>
1.1307

> <Gold.Chemscore.Metal>
0.0000

> <Gold.Chemscore.Lipo>
107.3078

> <Gold.Chemscore.Internal_Hbond>
0.0000

> <Gold.Chemscore.DEClash>
0.1210

> <Gold.Chemscore.DEInternal>
1.3568

> <Gold.Chemscore.Rot>
2.3866

> <Gold.Chemscore.Internal.Correction>
   9.000000E+99

> <Gold.Chemscore.Hbonds>
donor molecule, donor type, donor heavy atom, donor atom, acceptor molecule, acceptor atom, score
      L1  H     1    21       P1  7957  0.99
      P1  H  7989  7998       L1     1  0.15

> <Gold.Chemscore.Hbond.Weighted>
-3.7764

> <Gold.Chemscore.Metal.Weighted>
-0.0000

> <Gold.Chemscore.Lipo.Weighted>
-12.5550

> <Gold.Chemscore.Internal_Hbond.Weighted>
0.0000

> <Gold.Chemscore.DEClash.Weighted>
0.1210

> <Gold.Chemscore.DEInternal.Weighted>
1.3568

> <Gold.Chemscore.Rot.Weighted>
6.1096

> <Gold.Chemscore.Internal.Correction.Weighted>
   9.000000E+99

> <Gold.Protein.RotatedTorsions>
[ 6907 6896 6895 6894 ] final   37.92 input  -60.11 | X-H torsion
[ 7974 7965 7964 7962 ] final   87.31 input  175.53 | X-H torsion
[ 8008 7997 7996 7995 ] final   47.19 input   59.86 | X-H torsion
[ 10167 10162 10161 10158 ] final  173.63 input  -65.29 | X-H torsion
[ 10718 10713 10712 10709 ] final  140.73 input   66.30 | X-H torsion
[ 10763 10752 10751 10750 ] final  -70.80 input  -60.55 | X-H torsion
[ 11005 11000 10999 10996 ] final  131.56 input  -57.11 | X-H torsion

> <Gold.Protein.ActiveResidues>
 VAL166  LYS551  ARG553  GLY616  TRP617  ASP618  TYR619  PRO620  LYS621  CYS622 
 ASP623  PHE694  ASN695  SER759  ASP760  ASP761  ALA762  ILE779  LEU786  VAL792 
 PHE793  MET794  SER795  GLU796  ALA797  LYS798  CYS799  TRP800  GLU811  SER814 

> <Gold.Protein.RotatedAtoms>
  152.1495  134.8999  160.0548 H   0  0  0  0  0  0  0  0  0  0  0  0  # atno 6907 bound_to 6896
  152.0036  133.3830  159.4200 H   0  0  0  0  0  0  0  0  0  0  0  0  # atno 6908 bound_to 6896
  150.6874  134.3729  159.5044 H   0  0  0  0  0  0  0  0  0  0  0  0  # atno 6909 bound_to 6896
  145.5607  139.2303  143.2461 H   0  0  0  0  0  0  0  0  0  0  0  0  # atno 7974 bound_to 7965
  155.3649  140.3420  155.4241 H   0  0  0  0  0  0  0  0  0  0  0  0  # atno 8008 bound_to 7997
  156.1693  140.1626  156.8509 H   0  0  0  0  0  0  0  0  0  0  0  0  # atno 8009 bound_to 7997
  154.5217  140.0765  156.8167 H   0  0  0  0  0  0  0  0  0  0  0  0  # atno 8010 bound_to 7997
  139.5114  144.3239  152.0176 H   0  0  0  0  0  0  0  0  0  0  0  0  # atno 10167 bound_to 10162
  157.3999  131.1015  151.0562 H   0  0  0  0  0  0  0  0  0  0  0  0  # atno 10718 bound_to 10713
  154.4228  135.5982  153.6020 H   0  0  0  0  0  0  0  0  0  0  0  0  # atno 10763 bound_to 10752
  152.9794  135.5956  154.3934 H   0  0  0  0  0  0  0  0  0  0  0  0  # atno 10764 bound_to 10752
  154.3762  135.2841  155.2216 H   0  0  0  0  0  0  0  0  0  0  0  0  # atno 10765 bound_to 10752
  139.9737  134.9570  156.9456 H   0  0  0  0  0  0  0  0  0  0  0  0  # atno 11005 bound_to 11000
  146.1853  140.6432  142.9170 LP  0  0  0  0  0  0  0  0  0  0  0  0  # atno 17320 bound_to 7965
  144.7484  140.5128  143.6819 LP  0  0  0  0  0  0  0  0  0  0  0  0  # atno 17321 bound_to 7965
  140.2680  144.3995  150.6161 LP  0  0  0  0  0  0  0  0  0  0  0  0  # atno 17342 bound_to 10162
  140.6109  143.2169  151.6888 LP  0  0  0  0  0  0  0  0  0  0  0  0  # atno 17343 bound_to 10162
  157.1564  130.6206  149.5597 LP  0  0  0  0  0  0  0  0  0  0  0  0  # atno 17370 bound_to 10713
  155.9820  130.4832  150.6860 LP  0  0  0  0  0  0  0  0  0  0  0  0  # atno 17371 bound_to 10713
  140.5239  134.0880  155.7298 LP  0  0  0  0  0  0  0  0  0  0  0  0  # atno 17394 bound_to 11000
  141.1416  133.9128  157.2313 LP  0  0  0  0  0  0  0  0  0  0  0  0  # atno 17395 bound_to 11000

$$$$
