AV-unprocessed.smi:1922|AV-procd|sdf|7787|dock1
  -GOLD-   22720 9533D 1   1.00000     0.00000
 Structure written by MMmdl.
 34 35  0  0  0  0  0  0  0  0  2 V2000
  155.4039  138.6095  159.5521 O   0  0  0  0  0  0  0  0  0  0  0  0
  154.1775  138.6749  159.4544 C   0  0  0  0  0  0  0  0  0  0  0  0
  153.3578  137.4896  158.9210 C   0  0  0  0  0  0  0  0  0  0  0  0
  152.4790  137.8271  157.7915 N   0  0  0  0  0  0  0  0  0  0  0  0
  153.1024  138.6969  156.7978 N   0  5  0  0  0  0  0  0  0  0  0  0
  152.3914  139.0625  155.6983 C   0  0  0  0  0  0  0  0  0  0  0  0
  152.8553  139.7752  154.8112 O   0  0  0  0  0  0  0  0  0  0  0  0
  151.0224  138.5891  155.5802 C   0  0  0  0  0  0  0  0  0  0  0  0
  150.4636  137.8087  156.5262 C   0  0  0  0  0  0  0  0  0  0  0  0
  151.1903  137.3864  157.7174 C   0  0  0  0  0  0  0  0  0  0  0  0
  150.6823  136.6827  158.5911 O   0  0  0  0  0  0  0  0  0  0  0  0
  153.4702  139.7648  159.7898 N   0  0  0  0  0  0  0  0  0  0  0  0
  154.0201  141.0008  160.3367 C   0  0  0  0  0  0  0  0  0  0  0  0
  152.9544  142.1097  160.4195 C   0  0  0  0  0  0  0  0  0  0  0  0
  153.1375  143.2120  159.3745 C   0  0  0  0  0  0  0  0  0  0  0  0
  152.3151  144.3936  159.8992 C   0  0  0  0  0  0  0  0  0  0  0  0
  152.2092  144.2012  161.4200 C   0  0  0  0  0  0  0  0  0  0  0  0
  152.9317  142.8875  161.7400 C   0  0  0  0  0  0  0  0  0  0  0  0
  154.0369  136.6898  158.6197 H   0  0  0  0  0  0  0  0  0  0  0  0
  152.7770  137.0833  159.7511 H   0  0  0  0  0  0  0  0  0  0  0  0
  150.4394  138.8715  154.7161 H   0  0  0  0  0  0  0  0  0  0  0  0
  149.4426  137.4823  156.3982 H   0  0  0  0  0  0  0  0  0  0  0  0
  152.4685  139.7278  159.6692 H   0  0  0  0  0  0  0  0  0  0  0  0
  154.4747  140.8293  161.3139 H   0  0  0  0  0  0  0  0  0  0  0  0
  154.8278  141.3210  159.6783 H   0  0  0  0  0  0  0  0  0  0  0  0
  151.9692  141.6646  160.2690 H   0  0  0  0  0  0  0  0  0  0  0  0
  154.1889  143.4984  159.3179 H   0  0  0  0  0  0  0  0  0  0  0  0
  152.8269  142.8987  158.3774 H   0  0  0  0  0  0  0  0  0  0  0  0
  152.7737  145.3475  159.6374 H   0  0  0  0  0  0  0  0  0  0  0  0
  151.3181  144.3795  159.4573 H   0  0  0  0  0  0  0  0  0  0  0  0
  152.6488  145.0357  161.9671 H   0  0  0  0  0  0  0  0  0  0  0  0
  151.1603  144.1370  161.7125 H   0  0  0  0  0  0  0  0  0  0  0  0
  152.4482  142.3332  162.5452 H   0  0  0  0  0  0  0  0  0  0  0  0
  153.9522  143.1047  162.0586 H   0  0  0  0  0  0  0  0  0  0  0  0
  1  2  2  0  0  0  0
  2  3  1  0  0  0  0
  2 12  1  0  0  0  0
  3 19  1  0  0  0  0
  3 20  1  0  0  0  0
  3  4  1  0  0  0  0
  4  5  1  0  0  0  0
  4 10  1  0  0  0  0
  5  6  1  0  0  0  0
  6  7  2  0  0  0  0
  6  8  1  0  0  0  0
  8 21  1  0  0  0  0
  8  9  2  0  0  0  0
  9 22  1  0  0  0  0
  9 10  1  0  0  0  0
 10 11  2  0  0  0  0
 12 13  1  0  0  0  0
 12 23  1  0  0  0  0
 13 14  1  0  0  0  0
 13 24  1  0  0  0  0
 13 25  1  0  0  0  0
 14 18  1  0  0  0  0
 14 15  1  0  0  0  0
 14 26  1  0  0  0  0
 15 16  1  0  0  0  0
 15 27  1  0  0  0  0
 15 28  1  0  0  0  0
 16 17  1  0  0  0  0
 16 29  1  0  0  0  0
 16 30  1  0  0  0  0
 17 18  1  0  0  0  0
 17 31  1  0  0  0  0
 17 32  1  0  0  0  0
 18 33  1  0  0  0  0
 18 34  1  0  0  0  0
M  CHG  1   5  -1
M  END
> <s_m_source_file>
AV-unprocessed.smi

> <i_m_source_file_index>
1922

> <i_lp_mmshare_version>
43012

> <i_f3d_flags>
0

> <s_epik_input>
W0NIMl0xW0NIMl1bQ0gyXVtDSDJdW0NIXTFbQ0gyXVtOSF1DKD1PKVtDSDJdbjJbbkhdYyg9TylbY0hdW2NIXWMyPU8=

> <s_epik_cmdline>
J2VwaWtfcHl0aG9uJywgJy1waCcsICc3LjAnLCAnLXRuJywgJzgnLCAnLW1hJywgJzIwMCcsICctbWV0YWxfYmluZGluZycsICctaW1hZScsICc8aW5maWxlLm1hZT4nLCAnLW9tYWUnLCAnPG91dGZpbGUubWFlPic=

> <r_lp_tautomer_probability>
1

> <r_epik_Ionization_Penalty>
0.0984168

> <r_epik_Ionization_Penalty_Charging>
0.0984168

> <r_epik_Ionization_Penalty_Neutral>
1.97085e-08

> <r_epik_State_Penalty>
0.0346886

> <r_epik_Charging_Adjusted_Penalty>
0.133105

> <i_epik_Tot_Q>
-1

> <i_epik_Tot_abs_Q>
1

> <r_epik_Metal_State_Penalty>
0.0346886

> <b_epik_Metal_Only>
0

> <s_lp_Force_Field>
OPLS_2005

> <r_lp_Energy>
36.8816

> <b_lp_Chiralities_Consistent>
1

> <s_lp_Variant>
AV-unprocessed.smi:1922-1

> <Gold.Version>
5.8.1

> <Gold.Id.Protein>
6NUR|6NUR_protein|mol2

> <Gold.PLP.Fitness>
44.0629

> <Gold.PLP.PLP>
-35.2130

> <Gold.PLP.part.hbond>
-3.4705

> <Gold.PLP.part.metal>
0.0000

> <Gold.PLP.part.buried>
-5.2510

> <Gold.PLP.part.nonpolar>
-26.4123

> <Gold.PLP.part.repulsive>
0.1170

> <Gold.PLP.ligand.clash>
0.0000

> <Gold.PLP.ligand.torsion>
0.9491

> <Gold.PLP.Chemscore.Hbond>
3.5520

> <Gold.PLP.Chemscore.CHOScore>
0.0000

> <Gold.PLP.Chemscore.Metal>
0.0000

> <Gold.Chemscore.Hbonds>
donor molecule, donor type, donor heavy atom, donor atom, acceptor molecule, acceptor atom, score
      P1  H  6896  6908       L1    11  0.81
      P1  H  7989  7998       L1     7  0.39
      P1  H  7997  8008       L1     5  1.50

> <Gold.PLP.Chemscore.Internal.Correction>
0.0920

> <Gold.Rescore>
     Score         DG    S(hbond)    S(metal)    S(lipo)     H(rot)  DE(clash)    DE(int)     intcor
     18.56     -19.62       2.89        0.00      80.89       1.94       0.12       0.93       ----

> <Gold.Chemscore.Fitness>
18.5646

> <Gold.Chemscore.DG>
-19.6204

> <Gold.Chemscore.ZeroCoef>
-5.4800

> <Gold.Chemscore.Hbond>
2.8872

> <Gold.Chemscore.Metal>
0.0000

> <Gold.Chemscore.Lipo>
80.8866

> <Gold.Chemscore.Internal_Hbond>
0.0000

> <Gold.Chemscore.DEClash>
0.1225

> <Gold.Chemscore.DEInternal>
0.9332

> <Gold.Chemscore.Rot>
1.9401

> <Gold.Chemscore.Internal.Correction>
   9.000000E+99

> <Gold.Chemscore.Hbonds>
donor molecule, donor type, donor heavy atom, donor atom, acceptor molecule, acceptor atom, score
      P1  H  6896  6908       L1    11  0.76
      P1  H  7989  7998       L1     7  0.39
      P1  H  7997  8008       L1     5  0.09

> <Gold.Chemscore.Hbond.Weighted>
-9.6433

> <Gold.Chemscore.Metal.Weighted>
-0.0000

> <Gold.Chemscore.Lipo.Weighted>
-9.4637

> <Gold.Chemscore.Internal_Hbond.Weighted>
0.0000

> <Gold.Chemscore.DEClash.Weighted>
0.1225

> <Gold.Chemscore.DEInternal.Weighted>
0.9332

> <Gold.Chemscore.Rot.Weighted>
4.9666

> <Gold.Chemscore.Internal.Correction.Weighted>
   9.000000E+99

> <Gold.Protein.RotatedTorsions>
[ 6907 6896 6895 6894 ] final -160.58 input  -60.11 | X-H torsion
[ 7974 7965 7964 7962 ] final   45.75 input  175.53 | X-H torsion
[ 8008 7997 7996 7995 ] final  -58.94 input   59.86 | X-H torsion
[ 10167 10162 10161 10158 ] final  142.81 input  -65.29 | X-H torsion
[ 10718 10713 10712 10709 ] final    6.88 input   66.30 | X-H torsion
[ 10763 10752 10751 10750 ] final   11.99 input  -60.55 | X-H torsion
[ 11005 11000 10999 10996 ] final   -7.84 input  -57.11 | X-H torsion

> <Gold.Protein.ActiveResidues>
 VAL166  LYS551  ARG553  GLY616  TRP617  ASP618  TYR619  PRO620  LYS621  CYS622 
 ASP623  PHE694  ASN695  SER759  ASP760  ASP761  ALA762  ILE779  LEU786  VAL792 
 PHE793  MET794  SER795  GLU796  ALA797  LYS798  CYS799  TRP800  GLU811  SER814 

> <Gold.Protein.RotatedAtoms>
  151.3512  133.3924  159.2680 H   0  0  0  0  0  0  0  0  0  0  0  0  # atno 6907 bound_to 6896
  150.9799  134.9157  159.7849 H   0  0  0  0  0  0  0  0  0  0  0  0  # atno 6908 bound_to 6896
  152.5213  134.3476  159.9292 H   0  0  0  0  0  0  0  0  0  0  0  0  # atno 6909 bound_to 6896
  146.0452  139.4930  142.9753 H   0  0  0  0  0  0  0  0  0  0  0  0  # atno 7974 bound_to 7965
  154.4330  140.1073  156.6037 H   0  0  0  0  0  0  0  0  0  0  0  0  # atno 8008 bound_to 7997
  155.5884  140.3492  155.4541 H   0  0  0  0  0  0  0  0  0  0  0  0  # atno 8009 bound_to 7997
  156.0265  140.1251  157.0292 H   0  0  0  0  0  0  0  0  0  0  0  0  # atno 8010 bound_to 7997
  139.4985  144.6082  151.6330 H   0  0  0  0  0  0  0  0  0  0  0  0  # atno 10167 bound_to 10162
  156.9287  130.5818  149.5649 H   0  0  0  0  0  0  0  0  0  0  0  0  # atno 10718 bound_to 10713
  153.1869  135.6836  153.8403 H   0  0  0  0  0  0  0  0  0  0  0  0  # atno 10763 bound_to 10752
  153.7716  135.3195  155.3354 H   0  0  0  0  0  0  0  0  0  0  0  0  # atno 10764 bound_to 10752
  154.8094  135.4727  154.0573 H   0  0  0  0  0  0  0  0  0  0  0  0  # atno 10765 bound_to 10752
  140.7171  133.8860  155.8793 H   0  0  0  0  0  0  0  0  0  0  0  0  # atno 11005 bound_to 11000
  145.6818  141.0189  143.1602 LP  0  0  0  0  0  0  0  0  0  0  0  0  # atno 17320 bound_to 7965
  144.7094  139.8430  143.7419 LP  0  0  0  0  0  0  0  0  0  0  0  0  # atno 17321 bound_to 7965
  140.5750  144.0044  150.6237 LP  0  0  0  0  0  0  0  0  0  0  0  0  # atno 17342 bound_to 10162
  140.3174  143.3159  152.0818 LP  0  0  0  0  0  0  0  0  0  0  0  0  # atno 17343 bound_to 10162
  156.0457  130.5534  150.8876 LP  0  0  0  0  0  0  0  0  0  0  0  0  # atno 17370 bound_to 10713
  157.5861  131.0945  150.9194 LP  0  0  0  0  0  0  0  0  0  0  0  0  # atno 17371 bound_to 10713
  141.0035  134.1118  157.4293 LP  0  0  0  0  0  0  0  0  0  0  0  0  # atno 17394 bound_to 11000
  139.8857  135.0075  156.6452 LP  0  0  0  0  0  0  0  0  0  0  0  0  # atno 17395 bound_to 11000

$$$$
