AV-unprocessed.smi:862|AV-procd|sdf|3977|dock1
  -GOLD-   22720 1453D 1   1.00000     0.00000
 Structure written by MMmdl.
 44 46  0  0  0  0  0  0  0  0  2 V2000
  148.9296  131.4492  157.5674 N   0  0  0  0  0  0  0  0  0  0  0  0
  149.6681  132.3929  156.9753 C   0  0  0  0  0  0  0  0  0  0  0  0
  150.2062  133.2809  157.6341 O   0  0  0  0  0  0  0  0  0  0  0  0
  149.7979  132.2692  155.6300 N   0  0  0  0  0  0  0  0  0  0  0  0
  149.1649  131.2427  154.7852 C   0  0  0  0  0  0  0  0  0  0  0  0
  148.0077  131.8884  154.0008 C   0  0  0  0  0  0  0  0  0  0  0  0
  148.5028  133.0888  153.1610 C   0  0  0  0  0  0  0  0  0  0  0  0
  147.3741  133.8125  152.5348 N   0  3  0  0  0  0  0  0  0  0  0  0
  146.6039  133.0693  151.5082 C   0  0  1  0  0  0  0  0  0  0  0  0
  145.7153  131.9523  152.0655 C   0  0  0  0  0  0  0  0  0  0  0  0
  144.6470  131.7179  150.9887 C   0  0  0  0  0  0  0  0  0  0  0  0
  144.6598  132.9567  150.0757 C   0  0  0  0  0  0  0  0  0  0  0  0
  145.6387  133.9618  150.7065 C   0  0  1  0  0  0  0  0  0  0  0  0
  144.9598  134.9636  151.5276 N   0  0  0  0  0  0  0  0  0  0  0  0
  143.6079  134.9735  151.8514 C   0  0  0  0  0  0  0  0  0  0  0  0
  143.3847  136.1051  152.6020 C   0  0  0  0  0  0  0  0  0  0  0  0
  144.5745  136.8131  152.7434 N   0  0  0  0  0  0  0  0  0  0  0  0
  145.4604  136.0795  152.0837 C   0  0  0  0  0  0  0  0  0  0  0  0
  149.3234  134.0608  154.0342 C   0  0  0  0  0  0  0  0  0  0  0  0
  150.4225  133.3167  154.8132 C   0  0  0  0  0  0  0  0  0  0  0  0
  148.7956  131.4760  158.5679 H   0  0  0  0  0  0  0  0  0  0  0  0
  148.5139  130.7121  157.0174 H   0  0  0  0  0  0  0  0  0  0  0  0
  149.9067  130.8440  154.0914 H   0  0  0  0  0  0  0  0  0  0  0  0
  148.7974  130.3797  155.3402 H   0  0  0  0  0  0  0  0  0  0  0  0
  147.5435  131.1364  153.3645 H   0  0  0  0  0  0  0  0  0  0  0  0
  147.2380  132.2174  154.7009 H   0  0  0  0  0  0  0  0  0  0  0  0
  149.1661  132.7177  152.3779 H   0  0  0  0  0  0  0  0  0  0  0  0
  146.7492  134.1460  153.2549 H   0  0  0  0  0  0  0  0  0  0  0  0
  147.3086  132.6300  150.8000 H   0  0  0  0  0  0  0  0  0  0  0  0
  146.2784  131.0444  152.2833 H   0  0  0  0  0  0  0  0  0  0  0  0
  145.2370  132.2732  152.9916 H   0  0  0  0  0  0  0  0  0  0  0  0
  144.8780  130.8245  150.4073 H   0  0  0  0  0  0  0  0  0  0  0  0
  143.6666  131.5640  151.4409 H   0  0  0  0  0  0  0  0  0  0  0  0
  145.0281  132.6669  149.0909 H   0  0  0  0  0  0  0  0  0  0  0  0
  143.6625  133.3729  149.9259 H   0  0  0  0  0  0  0  0  0  0  0  0
  146.1801  134.4962  149.9242 H   0  0  0  0  0  0  0  0  0  0  0  0
  142.9315  134.1945  151.5310 H   0  0  0  0  0  0  0  0  0  0  0  0
  142.4661  136.4639  153.0424 H   0  0  0  0  0  0  0  0  0  0  0  0
  146.4976  136.3692  152.0027 H   0  0  0  0  0  0  0  0  0  0  0  0
  149.7718  134.8357  153.4115 H   0  0  0  0  0  0  0  0  0  0  0  0
  148.6673  134.5726  154.7404 H   0  0  0  0  0  0  0  0  0  0  0  0
  151.0017  134.0243  155.4084 H   0  0  0  0  0  0  0  0  0  0  0  0
  151.1339  132.8624  154.1218 H   0  0  0  0  0  0  0  0  0  0  0  0
  147.7685  134.6160  152.0669 H   0  0  0  0  0  0  0  0  0  0  0  0
  1  2  1  0  0  0  0
  1 21  1  0  0  0  0
  1 22  1  0  0  0  0
  2  3  2  0  0  0  0
  2  4  1  0  0  0  0
  4 20  1  0  0  0  0
  4  5  1  0  0  0  0
  5  6  1  0  0  0  0
  5 23  1  0  0  0  0
  5 24  1  0  0  0  0
  6  7  1  0  0  0  0
  6 25  1  0  0  0  0
  6 26  1  0  0  0  0
  7  8  1  0  0  0  0
  7 19  1  0  0  0  0
  7 27  1  0  0  0  0
  8  9  1  0  0  0  0
  8 28  1  0  0  0  0
  8 44  1  0  0  0  0
  9 13  1  0  0  0  0
  9 10  1  0  0  0  0
  9 29  1  0  0  0  0
 10 11  1  0  0  0  0
 10 30  1  0  0  0  0
 10 31  1  0  0  0  0
 11 12  1  0  0  0  0
 11 32  1  0  0  0  0
 11 33  1  0  0  0  0
 12 13  1  0  0  0  0
 12 34  1  0  0  0  0
 12 35  1  0  0  0  0
 13 14  1  0  0  0  0
 13 36  1  0  0  0  0
 14 18  1  0  0  0  0
 14 15  1  0  0  0  0
 15 16  2  0  0  0  0
 15 37  1  0  0  0  0
 16 17  1  0  0  0  0
 16 38  1  0  0  0  0
 17 18  2  0  0  0  0
 18 39  1  0  0  0  0
 19 20  1  0  0  0  0
 19 40  1  0  0  0  0
 19 41  1  0  0  0  0
 20 42  1  0  0  0  0
 20 43  1  0  0  0  0
M  CHG  1   8   1
M  END
> <s_m_source_file>
AV-unprocessed.smi

> <i_m_source_file_index>
862

> <i_lp_mmshare_version>
43012

> <i_f3d_flags>
0

> <s_epik_input>
W05IMl1DKD1PKU4xW0NIMl1bQ0gyXVtDSF0oW0NIMl1bQ0gyXTEpW05IXVtDQEBIXTJbQ0gyXVtDSDJdW0NIMl1bQ0BIXTJuM1tjSF1bY0hdbltjSF0z

> <s_epik_cmdline>
J2VwaWtfcHl0aG9uJywgJy1waCcsICc3LjAnLCAnLXRuJywgJzgnLCAnLW1hJywgJzIwMCcsICctbWV0YWxfYmluZGluZycsICctaW1hZScsICc8aW5maWxlLm1hZT4nLCAnLW9tYWUnLCAnPG91dGZpbGUubWFlPic=

> <r_lp_tautomer_probability>
1

> <r_epik_Ionization_Penalty>
0.0731506

> <r_epik_Ionization_Penalty_Charging>
0.0731

> <r_epik_Ionization_Penalty_Neutral>
5.05966e-05

> <r_epik_State_Penalty>
0.128895

> <r_epik_Charging_Adjusted_Penalty>
0.201995

> <i_epik_Tot_Q>
1

> <i_epik_Tot_abs_Q>
1

> <r_epik_Metal_State_Penalty>
0.113934

> <b_epik_Metal_Only>
0

> <s_lp_Force_Field>
OPLS_2005

> <r_lp_Energy>
58.7587

> <b_lp_Chiralities_Consistent>
1

> <s_lp_Variant>
AV-unprocessed.smi:862-2

> <Gold.Version>
5.8.1

> <Gold.Id.Protein>
6NUR|6NUR_protein|mol2

> <Gold.PLP.Fitness>
48.3309

> <Gold.PLP.PLP>
-34.4096

> <Gold.PLP.part.hbond>
-2.0000

> <Gold.PLP.part.metal>
0.0000

> <Gold.PLP.part.buried>
-3.6238

> <Gold.PLP.part.nonpolar>
-28.6995

> <Gold.PLP.part.repulsive>
0.1901

> <Gold.PLP.ligand.clash>
0.0000

> <Gold.PLP.ligand.torsion>
0.2892

> <Gold.PLP.Chemscore.Hbond>
3.0000

> <Gold.PLP.Chemscore.CHOScore>
1.8056

> <Gold.PLP.Chemscore.Metal>
0.0000

> <Gold.Chemscore.Hbonds>
donor molecule, donor type, donor heavy atom, donor atom, acceptor molecule, acceptor atom, score
      L1  H     8    44       P1  7948  2.00
      P1  H  6896  6907       L1     3  0.96
      L1  C    15    37       P1 10186  0.35
      L1  C    18    39       P1  7948  1.00

> <Gold.PLP.Chemscore.Internal.Correction>
0.0828

> <Gold.Rescore>
     Score         DG    S(hbond)    S(metal)    S(lipo)     H(rot)  DE(clash)    DE(int)     intcor
     14.42     -16.26       1.82        0.00      76.19       1.64       0.11       1.73       ----

> <Gold.Chemscore.Fitness>
14.4156

> <Gold.Chemscore.DG>
-16.2591

> <Gold.Chemscore.ZeroCoef>
-5.4800

> <Gold.Chemscore.Hbond>
1.8161

> <Gold.Chemscore.Metal>
0.0000

> <Gold.Chemscore.Lipo>
76.1934

> <Gold.Chemscore.Internal_Hbond>
0.0000

> <Gold.Chemscore.DEClash>
0.1139

> <Gold.Chemscore.DEInternal>
1.7297

> <Gold.Chemscore.Rot>
1.6411

> <Gold.Chemscore.Internal.Correction>
   9.000000E+99

> <Gold.Chemscore.Hbonds>
donor molecule, donor type, donor heavy atom, donor atom, acceptor molecule, acceptor atom, score
      L1  H     8    44       P1  7948  0.44
      P1  H  6896  6907       L1     3  0.92

> <Gold.Chemscore.Hbond.Weighted>
-6.0659

> <Gold.Chemscore.Metal.Weighted>
-0.0000

> <Gold.Chemscore.Lipo.Weighted>
-8.9146

> <Gold.Chemscore.Internal_Hbond.Weighted>
0.0000

> <Gold.Chemscore.DEClash.Weighted>
0.1139

> <Gold.Chemscore.DEInternal.Weighted>
1.7297

> <Gold.Chemscore.Rot.Weighted>
4.2013

> <Gold.Chemscore.Internal.Correction.Weighted>
   9.000000E+99

> <Gold.Protein.RotatedTorsions>
[ 6907 6896 6895 6894 ] final -148.97 input  -60.11 | X-H torsion
[ 7974 7965 7964 7962 ] final  179.54 input  175.53 | X-H torsion
[ 8008 7997 7996 7995 ] final  -26.69 input   59.86 | X-H torsion
[ 10167 10162 10161 10158 ] final  -44.77 input  -65.29 | X-H torsion
[ 10718 10713 10712 10709 ] final   -2.17 input   66.30 | X-H torsion
[ 10763 10752 10751 10750 ] final  157.01 input  -60.55 | X-H torsion
[ 11005 11000 10999 10996 ] final  -49.13 input  -57.11 | X-H torsion

> <Gold.Protein.ActiveResidues>
 VAL166  LYS551  ARG553  GLY616  TRP617  ASP618  TYR619  PRO620  LYS621  CYS622 
 ASP623  PHE694  ASN695  SER759  ASP760  ASP761  ALA762  ILE779  LEU786  VAL792 
 PHE793  MET794  SER795  GLU796  ALA797  LYS798  CYS799  TRP800  GLU811  SER814 

> <Gold.Protein.RotatedAtoms>
  151.1774  133.4746  159.2593 H   0  0  0  0  0  0  0  0  0  0  0  0  # atno 6907 bound_to 6896
  151.1293  135.0122  159.8585 H   0  0  0  0  0  0  0  0  0  0  0  0  # atno 6908 bound_to 6896
  152.5459  134.1679  159.8637 H   0  0  0  0  0  0  0  0  0  0  0  0  # atno 6909 bound_to 6896
  144.7145  140.0563  143.6434 H   0  0  0  0  0  0  0  0  0  0  0  0  # atno 7974 bound_to 7965
  154.4413  140.1892  156.0814 H   0  0  0  0  0  0  0  0  0  0  0  0  # atno 8008 bound_to 7997
  156.0436  140.3317  155.7244 H   0  0  0  0  0  0  0  0  0  0  0  0  # atno 8009 bound_to 7997
  155.5663  140.0608  157.2808 H   0  0  0  0  0  0  0  0  0  0  0  0  # atno 8010 bound_to 7997
  140.6884  143.2913  151.3544 H   0  0  0  0  0  0  0  0  0  0  0  0  # atno 10167 bound_to 10162
  156.7947  130.5373  149.5730 H   0  0  0  0  0  0  0  0  0  0  0  0  # atno 10718 bound_to 10713
  154.1934  135.2793  155.3014 H   0  0  0  0  0  0  0  0  0  0  0  0  # atno 10763 bound_to 10752
  154.5911  135.5559  153.7282 H   0  0  0  0  0  0  0  0  0  0  0  0  # atno 10764 bound_to 10752
  153.0106  135.6368  154.2073 H   0  0  0  0  0  0  0  0  0  0  0  0  # atno 10765 bound_to 10752
  141.0741  133.6670  156.3541 H   0  0  0  0  0  0  0  0  0  0  0  0  # atno 11005 bound_to 11000
  145.9902  139.3009  143.0989 LP  0  0  0  0  0  0  0  0  0  0  0  0  # atno 17320 bound_to 7965
  145.8912  140.9302  143.0551 LP  0  0  0  0  0  0  0  0  0  0  0  0  # atno 17321 bound_to 7965
  139.6263  144.0808  152.2437 LP  0  0  0  0  0  0  0  0  0  0  0  0  # atno 17342 bound_to 10162
  140.0269  144.6111  150.7520 LP  0  0  0  0  0  0  0  0  0  0  0  0  # atno 17343 bound_to 10162
  156.1137  130.6059  151.0088 LP  0  0  0  0  0  0  0  0  0  0  0  0  # atno 17370 bound_to 10713
  157.6583  131.0885  150.7897 LP  0  0  0  0  0  0  0  0  0  0  0  0  # atno 17371 bound_to 10713
  140.5610  134.5934  157.5433 LP  0  0  0  0  0  0  0  0  0  0  0  0  # atno 17394 bound_to 11000
  139.9554  134.7544  156.0354 LP  0  0  0  0  0  0  0  0  0  0  0  0  # atno 17395 bound_to 11000

$$$$
