AV-unprocessed.smi:1261|AV-procd|sdf|5302|dock8
  -GOLD-   22720 4423D 1   1.00000     0.00000
 Structure written by MMmdl.
 49 50  0  0  0  0  0  0  0  0  3 V2000
  145.0174  132.0918  149.9032 C   0  0  0  0  0  0  0  0  0  0  0  0
  145.6849  131.8899  151.2707 C   0  0  1  0  0  0  0  0  0  0  0  0
  146.1395  130.4337  151.4645 C   0  0  0  0  0  0  0  0  0  0  0  0
  146.8207  130.2565  152.8315 C   0  0  1  0  0  0  0  0  0  0  0  0
  147.2995  128.8122  153.0358 C   0  0  0  0  0  0  0  0  0  0  0  0
  147.9783  131.2623  152.9827 C   0  0  0  0  0  0  0  0  0  0  0  0
  147.5125  132.6611  152.7951 N   0  3  1  0  0  0  0  0  0  0  0  0
  148.5854  133.6485  153.0772 C   0  0  0  0  0  0  0  0  0  0  0  0
  148.8376  133.8355  154.5833 C   0  0  0  0  0  0  0  0  0  0  0  0
  150.1022  134.6638  154.8615 C   0  0  0  0  0  0  0  0  0  0  0  0
  150.0518  135.9601  154.1974 N   0  0  0  0  0  0  0  0  0  0  0  0
  150.8398  137.0068  154.4864 C   0  0  0  0  0  0  0  0  0  0  0  0
  151.7252  136.9725  155.3416 O   0  0  0  0  0  0  0  0  0  0  0  0
  150.6020  138.2809  153.6685 C   0  0  0  0  0  0  0  0  0  0  0  0
  150.3554  139.4446  154.5289 N   0  0  0  0  0  0  0  0  0  0  0  0
  148.9952  139.9675  154.4264 N   0  5  0  0  0  0  0  0  0  0  0  0
  148.6345  141.0308  155.1929 C   0  0  0  0  0  0  0  0  0  0  0  0
  147.5065  141.5175  155.1679 O   0  0  0  0  0  0  0  0  0  0  0  0
  149.6346  141.6092  156.0748 C   0  0  0  0  0  0  0  0  0  0  0  0
  150.8855  141.1124  156.1413 C   0  0  0  0  0  0  0  0  0  0  0  0
  151.3145  139.9697  155.3437 C   0  0  0  0  0  0  0  0  0  0  0  0
  152.4553  139.5113  155.4016 O   0  0  0  0  0  0  0  0  0  0  0  0
  146.8746  132.8498  151.4649 C   0  0  0  0  0  0  0  0  0  0  0  0
  145.7102  131.8806  149.0880 H   0  0  0  0  0  0  0  0  0  0  0  0
  144.6665  133.1173  149.7843 H   0  0  0  0  0  0  0  0  0  0  0  0
  144.1554  131.4344  149.7860 H   0  0  0  0  0  0  0  0  0  0  0  0
  144.9399  132.1163  152.0351 H   0  0  0  0  0  0  0  0  0  0  0  0
  145.2832  129.7626  151.3856 H   0  0  0  0  0  0  0  0  0  0  0  0
  146.8296  130.1522  150.6674 H   0  0  0  0  0  0  0  0  0  0  0  0
  146.0837  130.4705  153.6073 H   0  0  0  0  0  0  0  0  0  0  0  0
  148.0403  128.5299  152.2871 H   0  0  0  0  0  0  0  0  0  0  0  0
  146.4689  128.1095  152.9637 H   0  0  0  0  0  0  0  0  0  0  0  0
  147.7539  128.6835  154.0186 H   0  0  0  0  0  0  0  0  0  0  0  0
  148.4154  131.1551  153.9765 H   0  0  0  0  0  0  0  0  0  0  0  0
  148.7693  131.0435  152.2634 H   0  0  0  0  0  0  0  0  0  0  0  0
  149.5148  133.3020  152.6234 H   0  0  0  0  0  0  0  0  0  0  0  0
  148.3484  134.6020  152.6025 H   0  0  0  0  0  0  0  0  0  0  0  0
  147.9836  134.3261  155.0497 H   0  0  0  0  0  0  0  0  0  0  0  0
  148.9338  132.8596  155.0609 H   0  0  0  0  0  0  0  0  0  0  0  0
  150.2058  134.8392  155.9325 H   0  0  0  0  0  0  0  0  0  0  0  0
  150.9945  134.1185  154.5491 H   0  0  0  0  0  0  0  0  0  0  0  0
  149.3436  136.0888  153.4883 H   0  0  0  0  0  0  0  0  0  0  0  0
  151.4656  138.4588  153.0254 H   0  0  0  0  0  0  0  0  0  0  0  0
  149.7639  138.1253  152.9863 H   0  0  0  0  0  0  0  0  0  0  0  0
  149.3692  142.4567  156.6894 H   0  0  0  0  0  0  0  0  0  0  0  0
  151.5961  141.5747  156.8100 H   0  0  0  0  0  0  0  0  0  0  0  0
  147.6177  132.6950  150.6808 H   0  0  0  0  0  0  0  0  0  0  0  0
  146.5186  133.8741  151.3620 H   0  0  0  0  0  0  0  0  0  0  0  0
  146.7956  132.8136  153.4901 H   0  0  0  0  0  0  0  0  0  0  0  0
  1  2  1  0  0  0  0
  1 24  1  0  0  0  0
  1 25  1  0  0  0  0
  1 26  1  0  0  0  0
  2 23  1  0  0  0  0
  2  3  1  0  0  0  0
  2 27  1  0  0  0  0
  3  4  1  0  0  0  0
  3 28  1  0  0  0  0
  3 29  1  0  0  0  0
  4  5  1  0  0  0  0
  4  6  1  0  0  0  0
  4 30  1  0  0  0  0
  5 31  1  0  0  0  0
  5 32  1  0  0  0  0
  5 33  1  0  0  0  0
  6  7  1  0  0  0  0
  6 34  1  0  0  0  0
  6 35  1  0  0  0  0
  7  8  1  0  0  0  0
  7 23  1  0  0  0  0
  7 49  1  0  0  0  0
  8  9  1  0  0  0  0
  8 36  1  0  0  0  0
  8 37  1  0  0  0  0
  9 10  1  0  0  0  0
  9 38  1  0  0  0  0
  9 39  1  0  0  0  0
 10 11  1  0  0  0  0
 10 40  1  0  0  0  0
 10 41  1  0  0  0  0
 11 12  1  0  0  0  0
 11 42  1  0  0  0  0
 12 13  2  0  0  0  0
 12 14  1  0  0  0  0
 14 43  1  0  0  0  0
 14 44  1  0  0  0  0
 14 15  1  0  0  0  0
 15 16  1  0  0  0  0
 15 21  1  0  0  0  0
 16 17  1  0  0  0  0
 17 18  2  0  0  0  0
 17 19  1  0  0  0  0
 19 45  1  0  0  0  0
 19 20  2  0  0  0  0
 20 46  1  0  0  0  0
 20 21  1  0  0  0  0
 21 22  2  0  0  0  0
 23 47  1  0  0  0  0
 23 48  1  0  0  0  0
M  CHG  1   7   1
M  CHG  1  16  -1
M  END
> <s_m_source_file>
AV-unprocessed.smi

> <i_m_source_file_index>
1261

> <i_lp_mmshare_version>
43012

> <i_f3d_flags>
0

> <s_epik_input>
W0NIM11bQ0BASF0xW0NIMl1bQ0BASF0oW0NIM10pW0NIMl1OKFtDSDJdMSlbQ0gyXVtDSDJdW0NIMl1bTkhdQyg9TylbQ0gyXW4yW25IXWMoPU8pW2NIXVtjSF1jMj1P

> <s_epik_cmdline>
J2VwaWtfcHl0aG9uJywgJy1waCcsICc3LjAnLCAnLXRuJywgJzgnLCAnLW1hJywgJzIwMCcsICctbWV0YWxfYmluZGluZycsICctaW1hZScsICc8aW5maWxlLm1hZT4nLCAnLW9tYWUnLCAnPG91dGZpbGUubWFlPic=

> <r_lp_tautomer_probability>
1

> <r_epik_Ionization_Penalty>
0.0955723

> <r_epik_Ionization_Penalty_Charging>
0.0955723

> <r_epik_Ionization_Penalty_Neutral>
2.68632e-08

> <r_epik_State_Penalty>
0.0334406

> <r_epik_Charging_Adjusted_Penalty>
0.129013

> <i_epik_Tot_Q>
0

> <i_epik_Tot_abs_Q>
2

> <r_epik_Metal_State_Penalty>
0.0334406

> <b_epik_Metal_Only>
0

> <s_lp_Force_Field>
OPLS_2005

> <r_lp_Energy>
31.5278

> <b_lp_Chiralities_Consistent>
1

> <s_lp_Variant>
AV-unprocessed.smi:1261-2

> <Gold.Version>
5.8.1

> <Gold.Id.Protein>
6NUR|6NUR_protein|mol2

> <Gold.PLP.Fitness>
51.1897

> <Gold.PLP.PLP>
-42.9102

> <Gold.PLP.part.hbond>
-3.6057

> <Gold.PLP.part.metal>
0.0000

> <Gold.PLP.part.buried>
-2.3940

> <Gold.PLP.part.nonpolar>
-36.3341

> <Gold.PLP.part.repulsive>
0.3548

> <Gold.PLP.ligand.clash>
0.0000

> <Gold.PLP.ligand.torsion>
0.3895

> <Gold.PLP.Chemscore.Hbond>
3.0000

> <Gold.PLP.Chemscore.CHOScore>
0.0000

> <Gold.PLP.Chemscore.Metal>
0.0000

> <Gold.Chemscore.Hbonds>
donor molecule, donor type, donor heavy atom, donor atom, acceptor molecule, acceptor atom, score
      L1  H    11    42       P1  7948  0.93
      P1  H  7997  8010       L1    22  0.71
      P1  H 10752 10763       L1    13  0.65

> <Gold.PLP.Chemscore.Internal.Correction>
0.0585

> <Gold.Rescore>
     Score         DG    S(hbond)    S(metal)    S(lipo)     H(rot)  DE(clash)    DE(int)     intcor
     15.86     -17.61       2.60        0.00      84.17       2.49       0.19       1.56       ----

> <Gold.Chemscore.Fitness>
15.8613

> <Gold.Chemscore.DG>
-17.6130

> <Gold.Chemscore.ZeroCoef>
-5.4800

> <Gold.Chemscore.Hbond>
2.5955

> <Gold.Chemscore.Metal>
0.0000

> <Gold.Chemscore.Lipo>
84.1701

> <Gold.Chemscore.Internal_Hbond>
0.0000

> <Gold.Chemscore.DEClash>
0.1941

> <Gold.Chemscore.DEInternal>
1.5576

> <Gold.Chemscore.Rot>
2.4938

> <Gold.Chemscore.Internal.Correction>
   9.000000E+99

> <Gold.Chemscore.Hbonds>
donor molecule, donor type, donor heavy atom, donor atom, acceptor molecule, acceptor atom, score
      L1  H    11    42       P1  7948  0.63
      P1  H  7997  8010       L1    22  0.73
      P1  H 10752 10763       L1    13  0.56

> <Gold.Chemscore.Hbond.Weighted>
-8.6691

> <Gold.Chemscore.Metal.Weighted>
-0.0000

> <Gold.Chemscore.Lipo.Weighted>
-9.8479

> <Gold.Chemscore.Internal_Hbond.Weighted>
0.0000

> <Gold.Chemscore.DEClash.Weighted>
0.1941

> <Gold.Chemscore.DEInternal.Weighted>
1.5576

> <Gold.Chemscore.Rot.Weighted>
6.3840

> <Gold.Chemscore.Internal.Correction.Weighted>
   9.000000E+99

> <Gold.Protein.RotatedTorsions>
[ 6907 6896 6895 6894 ] final -105.32 input  -60.11 | X-H torsion
[ 7974 7965 7964 7962 ] final  -53.91 input  175.53 | X-H torsion
[ 8008 7997 7996 7995 ] final   87.36 input   59.86 | X-H torsion
[ 10167 10162 10161 10158 ] final  -91.00 input  -65.29 | X-H torsion
[ 10718 10713 10712 10709 ] final  169.68 input   66.30 | X-H torsion
[ 10763 10752 10751 10750 ] final   92.24 input  -60.55 | X-H torsion
[ 11005 11000 10999 10996 ] final  -88.35 input  -57.11 | X-H torsion

> <Gold.Protein.ActiveResidues>
 VAL166  LYS551  ARG553  GLY616  TRP617  ASP618  TYR619  PRO620  LYS621  CYS622 
 ASP623  PHE694  ASN695  SER759  ASP760  ASP761  ALA762  ILE779  LEU786  VAL792 
 PHE793  MET794  SER795  GLU796  ALA797  LYS798  CYS799  TRP800  GLU811  SER814 

> <Gold.Protein.RotatedAtoms>
  150.7331  134.0144  159.3680 H   0  0  0  0  0  0  0  0  0  0  0  0  # atno 6907 bound_to 6896
  151.8106  135.0680  160.0421 H   0  0  0  0  0  0  0  0  0  0  0  0  # atno 6908 bound_to 6896
  152.3075  133.5682  159.5695 H   0  0  0  0  0  0  0  0  0  0  0  0  # atno 6909 bound_to 6896
  145.8915  140.8067  142.9789 H   0  0  0  0  0  0  0  0  0  0  0  0  # atno 7974 bound_to 7965
  155.9743  140.3383  155.6604 H   0  0  0  0  0  0  0  0  0  0  0  0  # atno 8008 bound_to 7997
  155.6633  140.0718  157.2564 H   0  0  0  0  0  0  0  0  0  0  0  0  # atno 8009 bound_to 7997
  154.4175  140.1705  156.1787 H   0  0  0  0  0  0  0  0  0  0  0  0  # atno 8010 bound_to 7997
  140.3493  143.2900  151.9745 H   0  0  0  0  0  0  0  0  0  0  0  0  # atno 10167 bound_to 10162
  157.0192  131.0227  151.2780 H   0  0  0  0  0  0  0  0  0  0  0  0  # atno 10718 bound_to 10713
  153.2170  135.4368  155.0446 H   0  0  0  0  0  0  0  0  0  0  0  0  # atno 10763 bound_to 10752
  154.8230  135.3347  154.6984 H   0  0  0  0  0  0  0  0  0  0  0  0  # atno 10764 bound_to 10752
  153.7418  135.7004  153.5021 H   0  0  0  0  0  0  0  0  0  0  0  0  # atno 10765 bound_to 10752
  141.1603  133.7564  156.9438 H   0  0  0  0  0  0  0  0  0  0  0  0  # atno 11005 bound_to 11000
  144.6731  140.1536  143.7428 LP  0  0  0  0  0  0  0  0  0  0  0  0  # atno 17320 bound_to 7965
  145.8903  139.2372  143.1553 LP  0  0  0  0  0  0  0  0  0  0  0  0  # atno 17321 bound_to 7965
  139.4828  144.6090  151.7469 LP  0  0  0  0  0  0  0  0  0  0  0  0  # atno 17342 bound_to 10162
  140.5234  144.0843  150.6030 LP  0  0  0  0  0  0  0  0  0  0  0  0  # atno 17343 bound_to 10162
  157.5262  130.8029  149.7865 LP  0  0  0  0  0  0  0  0  0  0  0  0  # atno 17370 bound_to 10713
  156.0108  130.3834  150.2271 LP  0  0  0  0  0  0  0  0  0  0  0  0  # atno 17371 bound_to 10713
  140.1303  134.9360  157.2328 LP  0  0  0  0  0  0  0  0  0  0  0  0  # atno 17394 bound_to 11000
  140.2961  134.3185  155.7302 LP  0  0  0  0  0  0  0  0  0  0  0  0  # atno 17395 bound_to 11000

$$$$
