AV-unprocessed.smi:3126|AV-procd|sdf|11910|dock10
  -GOLD-   2272017293D 1   1.00000     0.00000
 Structure written by MMmdl.
 42 43  0  0  0  0  0  0  0  0  2 V2000
  151.5437  138.0123  154.9871 C   0  0  0  0  0  0  0  0  0  0  0  0
  150.0482  137.7859  154.7262 C   0  0  0  0  0  0  0  0  0  0  0  0
  149.1865  139.0585  154.8542 C   0  0  2  0  0  0  0  0  0  0  0  0
  148.0236  139.0871  153.8393 C   0  0  0  0  0  0  0  0  0  0  0  0
  147.1939  140.3744  153.9593 C   0  0  0  0  0  0  0  0  0  0  0  0
  148.0746  141.6235  153.8018 C   0  0  0  0  0  0  0  0  0  0  0  0
  149.2491  141.6330  154.8033 C   0  0  1  0  0  0  0  0  0  0  0  0
  148.8009  141.8526  156.1986 N   0  3  0  0  0  0  0  0  0  0  0  0
  149.7299  141.3790  157.2455 C   0  0  0  0  0  0  0  0  0  0  0  0
  151.1201  142.0030  157.0690 C   0  0  0  0  0  0  0  0  0  0  0  0
  151.4544  142.9680  158.1891 C   0  0  0  0  0  0  0  0  0  0  0  0
  152.4714  142.6736  159.1208 C   0  0  0  0  0  0  0  0  0  0  0  0
  152.7372  143.5980  160.1492 C   0  0  0  0  0  0  0  0  0  0  0  0
  151.9733  144.7811  160.2021 C   0  0  0  0  0  0  0  0  0  0  0  0
  150.9975  145.0732  159.3154 N   0  0  0  0  0  0  0  0  0  0  0  0
  150.7494  144.1822  158.3320 C   0  0  0  0  0  0  0  0  0  0  0  0
  150.0580  140.3247  154.6978 C   0  0  0  0  0  0  0  0  0  0  0  0
  152.1076  137.0966  154.8077 H   0  0  0  0  0  0  0  0  0  0  0  0
  151.7342  138.3131  156.0170 H   0  0  0  0  0  0  0  0  0  0  0  0
  151.9472  138.7825  154.3294 H   0  0  0  0  0  0  0  0  0  0  0  0
  149.9416  137.3838  153.7179 H   0  0  0  0  0  0  0  0  0  0  0  0
  149.6734  137.0130  155.3982 H   0  0  0  0  0  0  0  0  0  0  0  0
  148.7601  139.0683  155.8583 H   0  0  0  0  0  0  0  0  0  0  0  0
  148.4170  139.0018  152.8254 H   0  0  0  0  0  0  0  0  0  0  0  0
  147.3663  138.2305  153.9867 H   0  0  0  0  0  0  0  0  0  0  0  0
  146.4094  140.3785  153.2019 H   0  0  0  0  0  0  0  0  0  0  0  0
  146.6872  140.3964  154.9249 H   0  0  0  0  0  0  0  0  0  0  0  0
  148.4771  141.6407  152.7880 H   0  0  0  0  0  0  0  0  0  0  0  0
  147.4687  142.5247  153.8906 H   0  0  0  0  0  0  0  0  0  0  0  0
  149.9202  142.4539  154.5464 H   0  0  0  0  0  0  0  0  0  0  0  0
  148.6217  142.8377  156.3315 H   0  0  0  0  0  0  0  0  0  0  0  0
  149.3298  141.6394  158.2265 H   0  0  0  0  0  0  0  0  0  0  0  0
  149.8103  140.2929  157.2067 H   0  0  0  0  0  0  0  0  0  0  0  0
  151.8810  141.2219  157.0335 H   0  0  0  0  0  0  0  0  0  0  0  0
  151.1768  142.5326  156.1168 H   0  0  0  0  0  0  0  0  0  0  0  0
  153.0362  141.7554  159.0526 H   0  0  0  0  0  0  0  0  0  0  0  0
  153.5076  143.4056  160.8813 H   0  0  0  0  0  0  0  0  0  0  0  0
  152.1501  145.5109  160.9782 H   0  0  0  0  0  0  0  0  0  0  0  0
  149.9610  144.4440  157.6416 H   0  0  0  0  0  0  0  0  0  0  0  0
  150.8566  140.3255  155.4410 H   0  0  0  0  0  0  0  0  0  0  0  0
  150.5543  140.2958  153.7265 H   0  0  0  0  0  0  0  0  0  0  0  0
  147.9327  141.3513  156.3208 H   0  0  0  0  0  0  0  0  0  0  0  0
  1  2  1  0  0  0  0
  1 18  1  0  0  0  0
  1 19  1  0  0  0  0
  1 20  1  0  0  0  0
  2  3  1  0  0  0  0
  2 21  1  0  0  0  0
  2 22  1  0  0  0  0
  3 17  1  0  0  0  0
  3  4  1  0  0  0  0
  3 23  1  0  0  0  0
  4  5  1  0  0  0  0
  4 24  1  0  0  0  0
  4 25  1  0  0  0  0
  5  6  1  0  0  0  0
  5 26  1  0  0  0  0
  5 27  1  0  0  0  0
  6  7  1  0  0  0  0
  6 28  1  0  0  0  0
  6 29  1  0  0  0  0
  7  8  1  0  0  0  0
  7 17  1  0  0  0  0
  7 30  1  0  0  0  0
  8  9  1  0  0  0  0
  8 31  1  0  0  0  0
  8 42  1  0  0  0  0
  9 10  1  0  0  0  0
  9 32  1  0  0  0  0
  9 33  1  0  0  0  0
 10 11  1  0  0  0  0
 10 34  1  0  0  0  0
 10 35  1  0  0  0  0
 11 16  1  0  0  0  0
 11 12  2  0  0  0  0
 12 13  1  0  0  0  0
 12 36  1  0  0  0  0
 13 14  2  0  0  0  0
 13 37  1  0  0  0  0
 14 15  1  0  0  0  0
 14 38  1  0  0  0  0
 15 16  2  0  0  0  0
 16 39  1  0  0  0  0
 17 40  1  0  0  0  0
 17 41  1  0  0  0  0
M  CHG  1   8   1
M  END
> <s_m_source_file>
AV-unprocessed.smi

> <i_m_source_file_index>
3126

> <i_lp_mmshare_version>
43012

> <i_f3d_flags>
0

> <s_epik_input>
W0NIM11bQ0gyXVtDQEBIXTFbQ0gyXVtDSDJdW0NIMl1bQ0BIXShbQ0gyXTEpW05IXVtDSDJdW0NIMl1jMltjSF1bY0hdW2NIXW5bY0hdMg==

> <s_epik_cmdline>
J2VwaWtfcHl0aG9uJywgJy1waCcsICc3LjAnLCAnLXRuJywgJzgnLCAnLW1hJywgJzIwMCcsICctbWV0YWxfYmluZGluZycsICctaW1hZScsICc8aW5maWxlLm1hZT4nLCAnLW9tYWUnLCAnPG91dGZpbGUubWFlPic=

> <r_lp_tautomer_probability>
1

> <r_epik_Ionization_Penalty>
0.000947364

> <r_epik_Ionization_Penalty_Charging>
0.000286103

> <r_epik_Ionization_Penalty_Neutral>
0.000661261

> <r_epik_State_Penalty>
-0

> <r_epik_Charging_Adjusted_Penalty>
0.000286103

> <i_epik_Tot_Q>
1

> <i_epik_Tot_abs_Q>
1

> <r_epik_Metal_State_Penalty>
-0

> <b_epik_Metal_Only>
0

> <s_lp_Force_Field>
OPLS_2005

> <r_lp_Energy>
17.7549

> <b_lp_Chiralities_Consistent>
1

> <s_lp_Variant>
AV-unprocessed.smi:3126-1

> <Gold.Version>
5.8.1

> <Gold.Id.Protein>
6NUR|6NUR_protein|mol2

> <Gold.PLP.Fitness>
43.9976

> <Gold.PLP.PLP>
-37.1339

> <Gold.PLP.part.hbond>
-1.0000

> <Gold.PLP.part.metal>
0.0000

> <Gold.PLP.part.buried>
-2.0369

> <Gold.PLP.part.nonpolar>
-34.4767

> <Gold.PLP.part.repulsive>
0.1742

> <Gold.PLP.ligand.clash>
0.0000

> <Gold.PLP.ligand.torsion>
1.1995

> <Gold.PLP.Chemscore.Hbond>
1.9840

> <Gold.PLP.Chemscore.CHOScore>
1.0974

> <Gold.PLP.Chemscore.Metal>
0.0000

> <Gold.Chemscore.Hbonds>
donor molecule, donor type, donor heavy atom, donor atom, acceptor molecule, acceptor atom, score
      L1  H     8    31       P1  8028  1.92
      L1  C    16    39       P1  8028  0.90
      L1  C    16    39       P1  8029  0.15

> <Gold.PLP.Chemscore.Internal.Correction>
0.0183

> <Gold.Rescore>
     Score         DG    S(hbond)    S(metal)    S(lipo)     H(rot)  DE(clash)    DE(int)     intcor
     18.16     -19.45       0.99        0.00     120.68       1.35       0.19       1.10       ----

> <Gold.Chemscore.Fitness>
18.1624

> <Gold.Chemscore.DG>
-19.4475

> <Gold.Chemscore.ZeroCoef>
-5.4800

> <Gold.Chemscore.Hbond>
0.9898

> <Gold.Chemscore.Metal>
0.0000

> <Gold.Chemscore.Lipo>
120.6794

> <Gold.Chemscore.Internal_Hbond>
0.0000

> <Gold.Chemscore.DEClash>
0.1872

> <Gold.Chemscore.DEInternal>
1.0978

> <Gold.Chemscore.Rot>
1.3507

> <Gold.Chemscore.Internal.Correction>
   9.000000E+99

> <Gold.Chemscore.Hbonds>
donor molecule, donor type, donor heavy atom, donor atom, acceptor molecule, acceptor atom, score
      L1  H     8    31       P1  8028  0.85

> <Gold.Chemscore.Hbond.Weighted>
-3.3058

> <Gold.Chemscore.Metal.Weighted>
-0.0000

> <Gold.Chemscore.Lipo.Weighted>
-14.1195

> <Gold.Chemscore.Internal_Hbond.Weighted>
0.0000

> <Gold.Chemscore.DEClash.Weighted>
0.1872

> <Gold.Chemscore.DEInternal.Weighted>
1.0978

> <Gold.Chemscore.Rot.Weighted>
3.4579

> <Gold.Chemscore.Internal.Correction.Weighted>
   9.000000E+99

> <Gold.Protein.RotatedTorsions>
[ 6907 6896 6895 6894 ] final   -2.00 input  -60.11 | X-H torsion
[ 7974 7965 7964 7962 ] final  168.49 input  175.53 | X-H torsion
[ 8008 7997 7996 7995 ] final   50.26 input   59.86 | X-H torsion
[ 10167 10162 10161 10158 ] final  -99.02 input  -65.29 | X-H torsion
[ 10718 10713 10712 10709 ] final -152.87 input   66.30 | X-H torsion
[ 10763 10752 10751 10750 ] final -119.63 input  -60.55 | X-H torsion
[ 11005 11000 10999 10996 ] final   77.11 input  -57.11 | X-H torsion

> <Gold.Protein.ActiveResidues>
 VAL166  LYS551  ARG553  GLY616  TRP617  ASP618  TYR619  PRO620  LYS621  CYS622 
 ASP623  PHE694  ASN695  SER759  ASP760  ASP761  ALA762  ILE779  LEU786  VAL792 
 PHE793  MET794  SER795  GLU796  ALA797  LYS798  CYS799  TRP800  GLU811  SER814 

> <Gold.Protein.RotatedAtoms>
  151.5370  135.1068  159.9916 H   0  0  0  0  0  0  0  0  0  0  0  0  # atno 6907 bound_to 6896
  152.4553  133.7706  159.6807 H   0  0  0  0  0  0  0  0  0  0  0  0  # atno 6908 bound_to 6896
  150.8494  133.7745  159.3056 H   0  0  0  0  0  0  0  0  0  0  0  0  # atno 6909 bound_to 6896
  144.7387  139.8916  143.6403 H   0  0  0  0  0  0  0  0  0  0  0  0  # atno 7974 bound_to 7965
  155.4158  140.3444  155.4267 H   0  0  0  0  0  0  0  0  0  0  0  0  # atno 8008 bound_to 7997
  156.1422  140.1545  156.8934 H   0  0  0  0  0  0  0  0  0  0  0  0  # atno 8009 bound_to 7997
  154.4980  140.0822  156.7719 H   0  0  0  0  0  0  0  0  0  0  0  0  # atno 8010 bound_to 7997
  140.2669  143.3370  152.0572 H   0  0  0  0  0  0  0  0  0  0  0  0  # atno 10167 bound_to 10162
  156.4782  130.8291  151.2518 H   0  0  0  0  0  0  0  0  0  0  0  0  # atno 10718 bound_to 10713
  154.8622  135.4231  154.2329 H   0  0  0  0  0  0  0  0  0  0  0  0  # atno 10763 bound_to 10752
  153.3311  135.6988  153.6953 H   0  0  0  0  0  0  0  0  0  0  0  0  # atno 10764 bound_to 10752
  153.5969  135.3544  155.2905 H   0  0  0  0  0  0  0  0  0  0  0  0  # atno 10765 bound_to 10752
  139.9268  134.7656  156.1481 H   0  0  0  0  0  0  0  0  0  0  0  0  # atno 11005 bound_to 11000
  146.1138  139.4146  143.0271 LP  0  0  0  0  0  0  0  0  0  0  0  0  # atno 17320 bound_to 7965
  145.7405  141.0010  143.1304 LP  0  0  0  0  0  0  0  0  0  0  0  0  # atno 17321 bound_to 7965
  139.5000  144.6682  151.6306 LP  0  0  0  0  0  0  0  0  0  0  0  0  # atno 17342 bound_to 10162
  140.5921  143.9761  150.6331 LP  0  0  0  0  0  0  0  0  0  0  0  0  # atno 17343 bound_to 10162
  157.7485  131.0053  150.3110 LP  0  0  0  0  0  0  0  0  0  0  0  0  # atno 17370 bound_to 10713
  156.3548  130.3837  149.7299 LP  0  0  0  0  0  0  0  0  0  0  0  0  # atno 17371 bound_to 10713
  141.0832  133.6745  156.2379 LP  0  0  0  0  0  0  0  0  0  0  0  0  # atno 17394 bound_to 11000
  140.6312  134.5261  157.5560 LP  0  0  0  0  0  0  0  0  0  0  0  0  # atno 17395 bound_to 11000

$$$$
