#       Name:                AV-unprocessed.smi:2855
#       Creating user name   scv26
#       Creation time:       Fri Mar 27 15:44:43 2020


#       File generated by GOLD software.
#

@<TRIPOS>MOLECULE
AV-unprocessed.smi:2855
    53    54     1
SMALL
NO_CHARGES


@<TRIPOS>ATOM
      1 ****        -4.1133  -0.4884  -0.9010 C.3            1 S1                 0.0000
      2 ****        -2.6295  -0.1656  -0.6755 C.3            1 S1                 0.0000
      3 ****        -2.0612   0.7004  -1.8103 C.3            1 S1                 0.0000
      4 ****        -0.5763   1.0278  -1.5885 C.3            1 S1                 0.0000
      5 ****        -0.3163   1.7284  -0.2299 C.3            1 S1                 0.0000
      6 ****         1.1916   2.0802  -0.0312 C.3            1 S1                 0.0000
      7 ****         1.4902   2.6835   1.3551 C.3            1 S1                 0.0000
      8 ****         1.7206   3.0408  -1.1137 C.3            1 S1                 0.0000
      9 ****        -0.9199   0.8776   0.9247 C.3            1 S1                 0.0000
     10 ****        -0.1303  -0.3333   1.1287 N.am           1 S1                 0.0000
     11 ****        -0.0188  -1.0408   2.2643 C.2            1 S1                 0.0000
     12 ****        -0.6284  -0.7558   3.2944 O.2            1 S1                 0.0000
     13 ****         0.9229  -2.2575   2.2535 C.3            1 S1                 0.0000
     14 ****         1.6784  -2.4277   0.9978 N.am           1 S1                 0.0000
     15 ****         1.1408  -3.2909   0.0267 C.2            1 S1                 0.0000
     16 ****         1.7377  -3.4783  -1.1658 C.2            1 S1                 0.0000
     17 ****         2.9751  -2.7582  -1.4392 C.2            1 S1                 0.0000
     18 ****         3.5328  -2.9156  -2.5234 O.2            1 S1                 0.0000
     19 ****         3.4575  -1.9325  -0.4648 N.pl3          1 S1                -1.0000
     20 ****         2.8379  -1.7485   0.7420 C.2            1 S1                 0.0000
     21 ****         3.2805  -0.9848   1.6003 O.2            1 S1                 0.0000
     22 ****        -2.4044   0.5344   0.6765 C.3            1 S1                 0.0000
     23 ****        -4.7183   0.4184  -0.9237 H              1 S1                 0.0000
     24 ****        -4.5000  -1.1273  -0.1065 H              1 S1                 0.0000
     25 ****        -4.2616  -1.0121  -1.8457 H              1 S1                 0.0000
     26 ****        -2.0878  -1.1126  -0.6674 H              1 S1                 0.0000
     27 ****        -2.1804   0.1869  -2.7649 H              1 S1                 0.0000
     28 ****        -2.6289   1.6288  -1.8870 H              1 S1                 0.0000
     29 ****         0.0123   0.1112  -1.6519 H              1 S1                 0.0000
     30 ****        -0.2504   1.6558  -2.4160 H              1 S1                 0.0000
     31 ****        -0.8664   2.6707  -0.2445 H              1 S1                 0.0000
     32 ****         1.7745   1.1616  -0.1118 H              1 S1                 0.0000
     33 ****         0.8761   3.5641   1.5455 H              1 S1                 0.0000
     34 ****         2.5351   2.9839   1.4358 H              1 S1                 0.0000
     35 ****         1.3142   1.9674   2.1575 H              1 S1                 0.0000
     36 ****         1.1276   3.9548  -1.1572 H              1 S1                 0.0000
     37 ****         1.7160   2.5869  -2.1037 H              1 S1                 0.0000
     38 ****         2.7533   3.3272  -0.9127 H              1 S1                 0.0000
     39 ****        -0.8831   1.4654   1.8426 H              1 S1                 0.0000
     40 ****         0.4168  -0.6461   0.3394 H              1 S1                 0.0000
     41 ****         1.6069  -2.1775   3.1000 H              1 S1                 0.0000
     42 ****         0.3262  -3.1484   2.4542 H              1 S1                 0.0000
     43 ****         0.2176  -3.7778   0.3051 H              1 S1                 0.0000
     44 ****         1.3092  -4.1412  -1.9031 H              1 S1                 0.0000
     45 ****        -2.9893   1.4546   0.7070 H              1 S1                 0.0000
     46 ****        -2.7853  -0.0878   1.4873 H              1 S1                 0.0000
     47 ****        -1.2408   0.0346   3.3106 LP             1 S1                 0.0000
     48 ****        -0.5116  -1.3147   4.1154 LP             1 S1                 0.0000
     49 ****         3.1369  -3.5315  -3.2045 LP             1 S1                 0.0000
     50 ****         4.3823  -2.4278  -2.7241 LP             1 S1                 0.0000
     51 ****         4.3075  -1.4364  -0.6418 LP             1 S1                 0.0000
     52 ****         2.7936  -0.8698   2.4662 LP             1 S1                 0.0000
     53 ****         4.1268  -0.4796   1.4316 LP             1 S1                 0.0000
@<TRIPOS>BOND
    1    1    2 1     
    2    1   23 1     
    3    1   24 1     
    4    1   25 1     
    5    2   22 1     
    6    2    3 1     
    7    2   26 1     
    8    3    4 1     
    9    3   27 1     
   10    3   28 1     
   11    4    5 1     
   12    4   29 1     
   13    4   30 1     
   14    5    6 1     
   15    5    9 1     
   16    5   31 1     
   17    6    7 1     
   18    6    8 1     
   19    6   32 1     
   20    7   33 1     
   21    7   34 1     
   22    7   35 1     
   23    8   36 1     
   24    8   37 1     
   25    8   38 1     
   26    9   10 1     
   27    9   22 1     
   28    9   39 1     
   29   10   11 am    
   30   10   40 1     
   31   11   12 2     
   32   11   13 1     
   33   13   14 1     
   34   13   41 1     
   35   13   42 1     
   36   14   20 am    
   37   14   15 1     
   38   15   16 2     
   39   15   43 1     
   40   16   17 1     
   41   16   44 1     
   42   17   18 2     
   43   17   19 1     
   44   19   20 1     
   45   20   21 2     
   46   22   45 1     
   47   22   46 1     
   48   12   47 1     
   49   12   48 1     
   50   18   49 1     
   51   18   50 1     
   52   19   51 1     
   53   21   52 1     
   54   21   53 1     
@<TRIPOS>SUBSTRUCTURE
      1 S1             1
@<TRIPOS>SET
LONE_PAIRS      STATIC     ATOMS    <user>   **** ""
7 47 48 49 50 51 52 53
DONOR_HYDROGENS      STATIC     ATOMS    <user>   **** ""
1 40
ATOM$BLUE        STATIC     ATOMS    COLORGROUP SYSTEM
7 47 48 49 50 51 52 53
ATOM$RED        STATIC     ATOMS    COLORGROUP SYSTEM
1 40
