AV-unprocessed.smi:827|AV-procd|sdf|3857|dock3
  -GOLD-   22720 1303D 1   1.00000     0.00000
 Structure written by MMmdl.
 47 48  0  0  0  0  0  0  0  0  2 V2000
  153.0950  137.9206  154.4645 C   0  0  0  0  0  0  0  0  0  0  0  0
  151.7025  138.2155  154.4474 O   0  0  0  0  0  0  0  0  0  0  0  0
  151.2655  139.3727  155.0636 C   0  0  0  0  0  0  0  0  0  0  0  0
  152.0846  139.9731  155.9634 N   0  0  0  0  0  0  0  0  0  0  0  0
  151.6591  141.1015  156.5670 C   0  0  0  0  0  0  0  0  0  0  0  0
  150.4034  141.6835  156.3142 C   0  0  0  0  0  0  0  0  0  0  0  0
  149.5517  141.0627  155.3822 C   0  0  0  0  0  0  0  0  0  0  0  0
  149.9900  139.8851  154.7284 C   0  0  0  0  0  0  0  0  0  0  0  0
  149.2078  139.1667  153.7815 N   0  0  0  0  0  0  0  0  0  0  0  0
  147.8920  139.2666  153.5277 C   0  0  0  0  0  0  0  0  0  0  0  0
  147.1088  140.0264  154.0972 O   0  0  0  0  0  0  0  0  0  0  0  0
  147.5235  138.4350  152.5429 N   0  0  0  0  0  0  0  0  0  0  0  0
  146.1638  138.2984  152.0330 C   0  0  0  0  0  0  0  0  0  0  0  0
  145.4697  137.0418  152.5944 C   0  0  0  0  0  0  0  0  0  0  0  0
  146.1379  135.7852  152.1717 N   0  3  0  0  0  0  0  0  0  0  0  0
  146.4289  134.8623  153.3046 C   0  0  0  0  0  0  0  0  0  0  0  0
  147.1110  133.5701  152.8191 C   0  0  0  0  0  0  0  0  0  0  0  0
  146.2727  132.9434  151.7930 N   0  0  0  0  0  0  0  0  0  0  0  0
  145.6070  131.7714  151.9276 C   0  0  0  0  0  0  0  0  0  0  0  0
  144.6993  131.2905  150.7933 C   0  0  0  0  0  0  0  0  0  0  0  0
  145.7013  131.0659  152.9318 O   0  0  0  0  0  0  0  0  0  0  0  0
  146.1195  133.8153  150.6253 C   0  0  0  0  0  0  0  0  0  0  0  0
  145.4147  135.1141  151.0577 C   0  0  0  0  0  0  0  0  0  0  0  0
  153.2719  136.9851  153.9342 H   0  0  0  0  0  0  0  0  0  0  0  0
  153.4644  137.7984  155.4837 H   0  0  0  0  0  0  0  0  0  0  0  0
  153.6738  138.6982  153.9638 H   0  0  0  0  0  0  0  0  0  0  0  0
  152.3378  141.5510  157.2765 H   0  0  0  0  0  0  0  0  0  0  0  0
  150.0988  142.5836  156.8277 H   0  0  0  0  0  0  0  0  0  0  0  0
  148.5798  141.4939  155.2004 H   0  0  0  0  0  0  0  0  0  0  0  0
  149.7306  138.5489  153.1777 H   0  0  0  0  0  0  0  0  0  0  0  0
  148.2310  137.8468  152.1265 H   0  0  0  0  0  0  0  0  0  0  0  0
  145.6045  139.1899  152.3179 H   0  0  0  0  0  0  0  0  0  0  0  0
  146.1955  138.2869  150.9433 H   0  0  0  0  0  0  0  0  0  0  0  0
  145.4145  137.0740  153.6835 H   0  0  0  0  0  0  0  0  0  0  0  0
  144.4392  137.0374  152.2354 H   0  0  0  0  0  0  0  0  0  0  0  0
  147.0738  135.3496  154.0347 H   0  0  0  0  0  0  0  0  0  0  0  0
  145.4985  134.6149  153.8187 H   0  0  0  0  0  0  0  0  0  0  0  0
  148.0852  133.8042  152.3869 H   0  0  0  0  0  0  0  0  0  0  0  0
  147.3198  132.9235  153.6702 H   0  0  0  0  0  0  0  0  0  0  0  0
  145.2671  131.1573  149.8719 H   0  0  0  0  0  0  0  0  0  0  0  0
  143.8932  132.0027  150.6148 H   0  0  0  0  0  0  0  0  0  0  0  0
  144.2452  130.3311  151.0448 H   0  0  0  0  0  0  0  0  0  0  0  0
  147.1048  134.0409  150.2147 H   0  0  0  0  0  0  0  0  0  0  0  0
  145.5610  133.3456  149.8146 H   0  0  0  0  0  0  0  0  0  0  0  0
  144.3934  134.8922  151.3725 H   0  0  0  0  0  0  0  0  0  0  0  0
  145.3447  135.7908  150.2050 H   0  0  0  0  0  0  0  0  0  0  0  0
  147.0324  136.0546  151.7878 H   0  0  0  0  0  0  0  0  0  0  0  0
  1  2  1  0  0  0  0
  1 24  1  0  0  0  0
  1 25  1  0  0  0  0
  1 26  1  0  0  0  0
  2  3  1  0  0  0  0
  3  8  1  0  0  0  0
  3  4  2  0  0  0  0
  4  5  1  0  0  0  0
  5  6  2  0  0  0  0
  5 27  1  0  0  0  0
  6  7  1  0  0  0  0
  6 28  1  0  0  0  0
  7  8  2  0  0  0  0
  7 29  1  0  0  0  0
  8  9  1  0  0  0  0
  9 10  1  0  0  0  0
  9 30  1  0  0  0  0
 10 11  2  0  0  0  0
 10 12  1  0  0  0  0
 12 13  1  0  0  0  0
 12 31  1  0  0  0  0
 13 14  1  0  0  0  0
 13 32  1  0  0  0  0
 13 33  1  0  0  0  0
 14 15  1  0  0  0  0
 14 34  1  0  0  0  0
 14 35  1  0  0  0  0
 15 23  1  0  0  0  0
 15 16  1  0  0  0  0
 15 47  1  0  0  0  0
 16 17  1  0  0  0  0
 16 36  1  0  0  0  0
 16 37  1  0  0  0  0
 17 18  1  0  0  0  0
 17 38  1  0  0  0  0
 17 39  1  0  0  0  0
 18 19  1  0  0  0  0
 18 22  1  0  0  0  0
 19 20  1  0  0  0  0
 19 21  2  0  0  0  0
 20 40  1  0  0  0  0
 20 41  1  0  0  0  0
 20 42  1  0  0  0  0
 22 23  1  0  0  0  0
 22 43  1  0  0  0  0
 22 44  1  0  0  0  0
 23 45  1  0  0  0  0
 23 46  1  0  0  0  0
M  CHG  1  15   1
M  END
> <s_m_source_file>
AV-unprocessed.smi

> <i_m_source_file_index>
827

> <i_lp_mmshare_version>
43012

> <i_f3d_flags>
0

> <s_epik_input>
W0NIM11PYzFuW2NIXVtjSF1bY0hdYzFbTkhdQyg9TylbTkhdW0NIMl1bQ0gyXU4yW0NIMl1bQ0gyXU4oQyg9TylbQ0gzXSlbQ0gyXVtDSDJdMg==

> <s_epik_cmdline>
J2VwaWtfcHl0aG9uJywgJy1waCcsICc3LjAnLCAnLXRuJywgJzgnLCAnLW1hJywgJzIwMCcsICctbWV0YWxfYmluZGluZycsICctaW1hZScsICc8aW5maWxlLm1hZT4nLCAnLW9tYWUnLCAnPG91dGZpbGUubWFlPic=

> <r_lp_tautomer_probability>
1

> <r_epik_Ionization_Penalty>
0.63011

> <r_epik_Ionization_Penalty_Charging>
0.630034

> <r_epik_Ionization_Penalty_Neutral>
7.67152e-05

> <r_epik_State_Penalty>
0.646805

> <r_epik_Charging_Adjusted_Penalty>
1.27684

> <i_epik_Tot_Q>
1

> <i_epik_Tot_abs_Q>
1

> <r_epik_Metal_State_Penalty>
0.64681

> <b_epik_Metal_Only>
0

> <s_lp_Force_Field>
OPLS_2005

> <r_lp_Energy>
42.7203

> <b_lp_Chiralities_Consistent>
1

> <s_lp_Variant>
AV-unprocessed.smi:827-2

> <Gold.Version>
5.8.1

> <Gold.Id.Protein>
6NUR|6NUR_protein|mol2

> <Gold.PLP.Fitness>
45.5950

> <Gold.PLP.PLP>
-36.3890

> <Gold.PLP.part.hbond>
-4.8155

> <Gold.PLP.part.metal>
0.0000

> <Gold.PLP.part.buried>
-0.1592

> <Gold.PLP.part.nonpolar>
-31.1075

> <Gold.PLP.part.repulsive>
0.5842

> <Gold.PLP.ligand.clash>
0.0000

> <Gold.PLP.ligand.torsion>
1.0875

> <Gold.PLP.Chemscore.Hbond>
3.7720

> <Gold.PLP.Chemscore.CHOScore>
0.0000

> <Gold.PLP.Chemscore.Metal>
0.0000

> <Gold.Chemscore.Hbonds>
donor molecule, donor type, donor heavy atom, donor atom, acceptor molecule, acceptor atom, score
      L1  H    12    31       P1  7948  1.00
      L1  H    15    47       P1  7948  2.00
      P1  H  7997  8010       L1     4  0.37

> <Gold.PLP.Chemscore.Internal.Correction>
0.0650

> <Gold.Rescore>
     Score         DG    S(hbond)    S(metal)    S(lipo)     H(rot)  DE(clash)    DE(int)     intcor
     15.83     -18.55       2.72        0.00      75.02       1.87       0.48       2.24       ----

> <Gold.Chemscore.Fitness>
15.8337

> <Gold.Chemscore.DG>
-18.5491

> <Gold.Chemscore.ZeroCoef>
-5.4800

> <Gold.Chemscore.Hbond>
2.7207

> <Gold.Chemscore.Metal>
0.0000

> <Gold.Chemscore.Lipo>
75.0216

> <Gold.Chemscore.Internal_Hbond>
0.0000

> <Gold.Chemscore.DEClash>
0.4790

> <Gold.Chemscore.DEInternal>
2.2363

> <Gold.Chemscore.Rot>
1.8732

> <Gold.Chemscore.Internal.Correction>
   9.000000E+99

> <Gold.Chemscore.Hbonds>
donor molecule, donor type, donor heavy atom, donor atom, acceptor molecule, acceptor atom, score
      L1  H    12    31       P1  7948  0.96
      L1  H    15    47       P1  7948  0.97
      P1  H  7997  8010       L1     4  0.13

> <Gold.Chemscore.Hbond.Weighted>
-9.0870

> <Gold.Chemscore.Metal.Weighted>
-0.0000

> <Gold.Chemscore.Lipo.Weighted>
-8.7775

> <Gold.Chemscore.Internal_Hbond.Weighted>
0.0000

> <Gold.Chemscore.DEClash.Weighted>
0.4790

> <Gold.Chemscore.DEInternal.Weighted>
2.2363

> <Gold.Chemscore.Rot.Weighted>
4.7955

> <Gold.Chemscore.Internal.Correction.Weighted>
   9.000000E+99

> <Gold.Protein.RotatedTorsions>
[ 6907 6896 6895 6894 ] final  151.29 input  -60.11 | X-H torsion
[ 7974 7965 7964 7962 ] final -172.12 input  175.53 | X-H torsion
[ 8008 7997 7996 7995 ] final   88.11 input   59.86 | X-H torsion
[ 10167 10162 10161 10158 ] final  130.54 input  -65.29 | X-H torsion
[ 10718 10713 10712 10709 ] final  -19.27 input   66.30 | X-H torsion
[ 10763 10752 10751 10750 ] final -150.11 input  -60.55 | X-H torsion
[ 11005 11000 10999 10996 ] final -177.88 input  -57.11 | X-H torsion

> <Gold.Protein.ActiveResidues>
 VAL166  LYS551  ARG553  GLY616  TRP617  ASP618  TYR619  PRO620  LYS621  CYS622 
 ASP623  PHE694  ASN695  SER759  ASP760  ASP761  ALA762  ILE779  LEU786  VAL792 
 PHE793  MET794  SER795  GLU796  ALA797  LYS798  CYS799  TRP800  GLU811  SER814 

> <Gold.Protein.RotatedAtoms>
  152.1026  133.4258  159.4593 H   0  0  0  0  0  0  0  0  0  0  0  0  # atno 6907 bound_to 6896
  150.6864  134.2742  159.4610 H   0  0  0  0  0  0  0  0  0  0  0  0  # atno 6908 bound_to 6896
  152.0604  134.9597  160.0625 H   0  0  0  0  0  0  0  0  0  0  0  0  # atno 6909 bound_to 6896
  144.7149  140.1819  143.6357 H   0  0  0  0  0  0  0  0  0  0  0  0  # atno 7974 bound_to 7965
  155.9837  140.3375  155.6687 H   0  0  0  0  0  0  0  0  0  0  0  0  # atno 8008 bound_to 7997
  155.6514  140.0706  157.2604 H   0  0  0  0  0  0  0  0  0  0  0  0  # atno 8009 bound_to 7997
  154.4199  140.1725  156.1666 H   0  0  0  0  0  0  0  0  0  0  0  0  # atno 8010 bound_to 7997
  139.5425  144.6743  151.4579 H   0  0  0  0  0  0  0  0  0  0  0  0  # atno 10167 bound_to 10162
  156.5480  130.4694  149.6466 H   0  0  0  0  0  0  0  0  0  0  0  0  # atno 10718 bound_to 10713
  154.8138  135.3292  154.7233 H   0  0  0  0  0  0  0  0  0  0  0  0  # atno 10763 bound_to 10752
  153.7877  135.6913  153.4881 H   0  0  0  0  0  0  0  0  0  0  0  0  # atno 10764 bound_to 10752
  153.1937  135.4541  155.0128 H   0  0  0  0  0  0  0  0  0  0  0  0  # atno 10765 bound_to 10752
  140.4360  134.6475  157.4735 H   0  0  0  0  0  0  0  0  0  0  0  0  # atno 11005 bound_to 11000
  145.8848  139.2343  143.1584 LP  0  0  0  0  0  0  0  0  0  0  0  0  # atno 17320 bound_to 7965
  145.9960  140.8561  143.0042 LP  0  0  0  0  0  0  0  0  0  0  0  0  # atno 17321 bound_to 7965
  140.6661  143.8396  150.6943 LP  0  0  0  0  0  0  0  0  0  0  0  0  # atno 17342 bound_to 10162
  140.1805  143.4118  152.1936 LP  0  0  0  0  0  0  0  0  0  0  0  0  # atno 17343 bound_to 10162
  156.2910  130.7124  151.1973 LP  0  0  0  0  0  0  0  0  0  0  0  0  # atno 17370 bound_to 10713
  157.7393  131.0531  150.5241 LP  0  0  0  0  0  0  0  0  0  0  0  0  # atno 17371 bound_to 10713
  140.0102  134.6702  155.9393 LP  0  0  0  0  0  0  0  0  0  0  0  0  # atno 17394 bound_to 11000
  141.1725  133.6538  156.4706 LP  0  0  0  0  0  0  0  0  0  0  0  0  # atno 17395 bound_to 11000

$$$$
