#       Name:                AV-unprocessed.smi:1389
#       Creating user name   scv26
#       Creation time:       Fri Mar 27 05:26:29 2020


#       File generated by GOLD software.
#

@<TRIPOS>MOLECULE
AV-unprocessed.smi:1389
    58    60     1
SMALL
NO_CHARGES


@<TRIPOS>ATOM
      1 ****        -1.9423  -0.0774  -1.8384 C.3            1 S1                 0.0000
      2 ****        -1.4837  -1.5563  -1.7613 C.3            1 S1                 0.0000
      3 ****         0.0690  -1.6077  -1.6883 C.3            1 S1                 0.0000
      4 ****         0.6147  -0.8266  -0.5804 N.am           1 S1                 0.0000
      5 ****         1.3923   0.2591  -0.6995 C.2            1 S1                 0.0000
      6 ****         1.7580   0.7234  -1.7792 O.2            1 S1                 0.0000
      7 ****         1.6868   0.7757   0.5050 N.am           1 S1                 0.0000
      8 ****         2.4321   1.9526   0.8007 C.ar           1 S1                 0.0000
      9 ****         3.4803   2.4165  -0.0311 C.ar           1 S1                 0.0000
     10 ****         4.1794   3.5818   0.3304 C.ar           1 S1                 0.0000
     11 ****         3.8119   4.2390   1.5174 C.ar           1 S1                 0.0000
     12 ****         2.8289   3.8002   2.3292 N.ar           1 S1                 0.0000
     13 ****         2.1463   2.6800   1.9874 C.ar           1 S1                 0.0000
     14 ****         1.1461   2.2273   2.8726 N.3            1 S1                 0.0000
     15 ****         1.5748   1.1189   3.7208 C.3            1 S1                 0.0000
     16 ****         0.8822   1.3164   5.0701 C.3            1 S1                 0.0000
     17 ****         0.7062   2.8278   5.1441 C.3            1 S1                 0.0000
     18 ****         0.4212   3.1995   3.6898 C.3            1 S1                 0.0000
     19 ****        -2.0414  -2.3846  -2.8563 N.3            1 S1                 0.0000
     20 ****        -1.6298  -3.7909  -2.7753 C.3            1 S1                 0.0000
     21 ****        -2.2280  -4.6541  -3.8996 C.3            1 S1                 0.0000
     22 ****        -3.6453  -4.5587  -3.8750 O.3            1 S1                 0.0000
     23 ****        -4.0913  -3.2187  -4.0296 C.3            1 S1                 0.0000
     24 ****        -3.5077  -2.3452  -2.9057 C.3            1 S1                 0.0000
     25 ****        -1.5113   0.5346  -1.0474 H              1 S1                 0.0000
     26 ****        -3.0188   0.0313  -1.7172 H              1 S1                 0.0000
     27 ****        -1.6614   0.3732  -2.7910 H              1 S1                 0.0000
     28 ****        -1.8583  -1.9536  -0.8168 H              1 S1                 0.0000
     29 ****         0.4202  -2.6217  -1.5065 H              1 S1                 0.0000
     30 ****         0.4969  -1.3016  -2.6445 H              1 S1                 0.0000
     31 ****         0.3642  -1.1285   0.3497 H              1 S1                 0.0000
     32 ****         1.2362   0.3410   1.2969 H              1 S1                 0.0000
     33 ****         3.7681   1.8935  -0.9301 H              1 S1                 0.0000
     34 ****         4.9814   3.9599  -0.2860 H              1 S1                 0.0000
     35 ****         4.3264   5.1361   1.8286 H              1 S1                 0.0000
     36 ****         1.3121   0.1584   3.2770 H              1 S1                 0.0000
     37 ****         2.6583   1.1418   3.8509 H              1 S1                 0.0000
     38 ****        -0.0951   0.8321   5.0602 H              1 S1                 0.0000
     39 ****         1.4539   0.9098   5.9047 H              1 S1                 0.0000
     40 ****        -0.0880   3.1348   5.8249 H              1 S1                 0.0000
     41 ****         1.6361   3.2949   5.4715 H              1 S1                 0.0000
     42 ****         0.6702   4.2403   3.4824 H              1 S1                 0.0000
     43 ****        -0.6420   3.0812   3.4784 H              1 S1                 0.0000
     44 ****        -0.5481  -3.8817  -2.8517 H              1 S1                 0.0000
     45 ****        -1.9173  -4.2057  -1.8081 H              1 S1                 0.0000
     46 ****        -1.8506  -4.3365  -4.8730 H              1 S1                 0.0000
     47 ****        -1.9398  -5.6974  -3.7702 H              1 S1                 0.0000
     48 ****        -3.7952  -2.8377  -5.0083 H              1 S1                 0.0000
     49 ****        -5.1806  -3.2007  -3.9965 H              1 S1                 0.0000
     50 ****        -3.9192  -2.6655  -1.9474 H              1 S1                 0.0000
     51 ****        -3.8603  -1.3302  -3.0788 H              1 S1                 0.0000
     52 ****         1.4744   0.2868  -2.6330 LP             1 S1                 0.0000
     53 ****         2.3387   1.5372  -1.8026 LP             1 S1                 0.0000
     54 ****         2.6069   4.2934   3.1703 LP             1 S1                 0.0000
     55 ****         0.4749   1.9273   2.1948 LP             1 S1                 0.0000
     56 ****        -1.6666  -1.9768  -3.6889 LP             1 S1                 0.0000
     57 ****        -3.9774  -4.9106  -2.9998 LP             1 S1                 0.0000
     58 ****        -4.0190  -5.1113  -4.6199 LP             1 S1                 0.0000
@<TRIPOS>BOND
    1    1    2 1     
    2    1   25 1     
    3    1   26 1     
    4    1   27 1     
    5    2    3 1     
    6    2   19 1     
    7    2   28 1     
    8    3    4 1     
    9    3   29 1     
   10    3   30 1     
   11    4    5 am    
   12    4   31 1     
   13    5    6 2     
   14    5    7 am    
   15    7    8 1     
   16    7   32 1     
   17    8   13 ar    
   18    8    9 ar    
   19    9   10 ar    
   20    9   33 1     
   21   10   11 ar    
   22   10   34 1     
   23   11   12 ar    
   24   11   35 1     
   25   12   13 ar    
   26   13   14 1     
   27   14   18 1     
   28   14   15 1     
   29   15   16 1     
   30   15   36 1     
   31   15   37 1     
   32   16   17 1     
   33   16   38 1     
   34   16   39 1     
   35   17   18 1     
   36   17   40 1     
   37   17   41 1     
   38   18   42 1     
   39   18   43 1     
   40   19   24 1     
   41   19   20 1     
   42   20   21 1     
   43   20   44 1     
   44   20   45 1     
   45   21   22 1     
   46   21   46 1     
   47   21   47 1     
   48   22   23 1     
   49   23   24 1     
   50   23   48 1     
   51   23   49 1     
   52   24   50 1     
   53   24   51 1     
   54    6   52 1     
   55    6   53 1     
   56   12   54 1     
   57   14   55 1     
   58   19   56 1     
   59   22   57 1     
   60   22   58 1     
@<TRIPOS>SUBSTRUCTURE
      1 S1             1
@<TRIPOS>SET
LONE_PAIRS      STATIC     ATOMS    <user>   **** ""
7 52 53 54 55 56 57 58
DONOR_HYDROGENS      STATIC     ATOMS    <user>   **** ""
2 31 32
ATOM$BLUE        STATIC     ATOMS    COLORGROUP SYSTEM
7 52 53 54 55 56 57 58
ATOM$RED        STATIC     ATOMS    COLORGROUP SYSTEM
2 31 32
