#       Name:                AV-unprocessed.smi:2948
#       Creating user name   scv26
#       Creation time:       Fri Mar 27 16:17:39 2020


#       File generated by GOLD software.
#

@<TRIPOS>MOLECULE
AV-unprocessed.smi:2948
    37    38     1
SMALL
NO_CHARGES


@<TRIPOS>ATOM
      1 ****        -3.4049   1.4965  -1.1548 C.3            1 S1                 0.0000
      2 ****        -2.9737   0.0378  -1.3201 C.3            1 S1                 0.0000
      3 ****        -1.5598  -0.0257  -1.2602 O.3            1 S1                 0.0000
      4 ****        -1.0588  -1.3471  -1.3784 C.3            1 S1                 0.0000
      5 ****         0.4711  -1.3353  -1.2466 C.3            1 S1                 0.0000
      6 ****         0.9159  -0.7479   0.0264 N.pl3          1 S1                 0.0000
      7 ****         1.1185  -1.3344   1.2411 C.2            1 S1                 0.0000
      8 ****         0.9360  -2.7760   1.5830 C.3            1 S1                 0.0000
      9 ****         2.0878  -3.5413   1.3070 O.3            1 S1                 0.0000
     10 ****         1.5293  -0.3577   2.0980 N.pl3          1 S1                 1.0000
     11 ****         1.5818   0.8660   1.4297 C.ar           1 S1                 0.0000
     12 ****         1.9338   2.1348   1.8794 C.ar           1 S1                 0.0000
     13 ****         1.8750   3.1802   0.9345 C.ar           1 S1                 0.0000
     14 ****         1.4787   2.9439  -0.3978 C.ar           1 S1                 0.0000
     15 ****         1.1262   1.6526  -0.8426 C.ar           1 S1                 0.0000
     16 ****         1.1877   0.6239   0.0977 C.ar           1 S1                 0.0000
     17 ****        -4.4903   1.5894  -1.1948 H              1 S1                 0.0000
     18 ****        -2.9856   2.1202  -1.9445 H              1 S1                 0.0000
     19 ****        -3.0694   1.8967  -0.1978 H              1 S1                 0.0000
     20 ****        -3.4130  -0.5707  -0.5283 H              1 S1                 0.0000
     21 ****        -3.3288  -0.3525  -2.2748 H              1 S1                 0.0000
     22 ****        -1.4913  -1.9795  -0.6015 H              1 S1                 0.0000
     23 ****        -1.3459  -1.7710  -2.3416 H              1 S1                 0.0000
     24 ****         0.8586  -2.3533  -1.2965 H              1 S1                 0.0000
     25 ****         0.9317  -0.7934  -2.0725 H              1 S1                 0.0000
     26 ****         0.6925  -2.8691   2.6416 H              1 S1                 0.0000
     27 ****         0.0926  -3.1813   1.0240 H              1 S1                 0.0000
     28 ****         1.9147  -4.4409   1.5399 H              1 S1                 0.0000
     29 ****         2.2359   2.3185   2.9000 H              1 S1                 0.0000
     30 ****         2.1374   4.1834   1.2385 H              1 S1                 0.0000
     31 ****         1.4423   3.7701  -1.0931 H              1 S1                 0.0000
     32 ****         0.8179   1.4845  -1.8638 H              1 S1                 0.0000
     33 ****         1.7569  -0.5208   3.0703 H              1 S1                 0.0000
     34 ****        -1.2608   0.3512  -0.3836 LP             1 S1                 0.0000
     35 ****        -1.1843   0.5253  -2.0055 LP             1 S1                 0.0000
     36 ****         2.8580  -3.1965   1.8435 LP             1 S1                 0.0000
     37 ****         2.3067  -3.4815   0.3331 LP             1 S1                 0.0000
@<TRIPOS>BOND
    1    1    2 1     
    2    1   17 1     
    3    1   18 1     
    4    1   19 1     
    5    2    3 1     
    6    2   20 1     
    7    2   21 1     
    8    3    4 1     
    9    4    5 1     
   10    4   22 1     
   11    4   23 1     
   12    5    6 1     
   13    5   24 1     
   14    5   25 1     
   15    6   16 1     
   16    6    7 1     
   17    7    8 1     
   18    7   10 2     
   19    8    9 1     
   20    8   26 1     
   21    8   27 1     
   22    9   28 1     
   23   10   11 1     
   24   10   33 1     
   25   11   16 ar    
   26   11   12 ar    
   27   12   13 ar    
   28   12   29 1     
   29   13   14 ar    
   30   13   30 1     
   31   14   15 ar    
   32   14   31 1     
   33   15   16 ar    
   34   15   32 1     
   35    3   34 1     
   36    3   35 1     
   37    9   36 1     
   38    9   37 1     
@<TRIPOS>SUBSTRUCTURE
      1 S1             1
@<TRIPOS>SET
LONE_PAIRS      STATIC     ATOMS    <user>   **** ""
4 34 35 36 37
DONOR_HYDROGENS      STATIC     ATOMS    <user>   **** ""
2 28 33
ATOM$BLUE        STATIC     ATOMS    COLORGROUP SYSTEM
4 34 35 36 37
ATOM$RED        STATIC     ATOMS    COLORGROUP SYSTEM
2 28 33
