AV-unprocessed.smi:1783|AV-procd|sdf|7195|dock2
  -GOLD-   22720 8433D 1   1.00000     0.00000
 Structure written by MMmdl.
 29 30  0  0  0  0  0  0  0  0  2 V2000
  150.0851  143.3018  158.0299 O   0  0  0  0  0  0  0  0  0  0  0  0
  151.2315  142.8614  157.9462 C   0  0  0  0  0  0  0  0  0  0  0  0
  151.6288  141.8990  157.0899 N   0  0  0  0  0  0  0  0  0  0  0  0
  150.8897  141.1949  156.1243 C   0  0  0  0  0  0  0  0  0  0  0  0
  149.6342  141.5240  155.7118 C   0  0  0  0  0  0  0  0  0  0  0  0
  148.9214  140.7599  154.6958 C   0  0  0  0  0  0  0  0  0  0  0  0
  147.4855  141.0371  154.2873 C   0  0  0  0  0  0  0  0  0  0  0  0
  147.1330  140.2267  153.2903 F   0  0  0  0  0  0  0  0  0  0  0  0
  146.6483  140.8329  155.3047 F   0  0  0  0  0  0  0  0  0  0  0  0
  147.3420  142.2952  153.8705 F   0  0  0  0  0  0  0  0  0  0  0  0
  149.6611  139.6907  154.2290 C   0  0  0  0  0  0  0  0  0  0  0  0
  150.9154  139.3141  154.5613 N   0  5  0  0  0  0  0  0  0  0  0  0
  151.5725  140.0355  155.5129 C   0  0  0  0  0  0  0  0  0  0  0  0
  152.7144  139.7425  155.8692 O   0  0  0  0  0  0  0  0  0  0  0  0
  152.3294  143.4206  158.8741 C   0  0  1  0  0  0  0  0  0  0  0  0
  152.4679  144.9463  158.8410 C   0  0  0  0  0  0  0  0  0  0  0  0
  151.3690  145.4234  159.7770 C   0  0  0  0  0  0  0  0  0  0  0  0
  151.1291  144.2265  160.7035 C   0  0  0  0  0  0  0  0  0  0  0  0
  151.9976  143.1929  160.2417 O   0  0  0  0  0  0  0  0  0  0  0  0
  152.5882  141.5960  157.1807 H   0  0  0  0  0  0  0  0  0  0  0  0
  149.1268  142.3854  156.1135 H   0  0  0  0  0  0  0  0  0  0  0  0
  149.1688  139.0357  153.4787 H   0  0  0  0  0  0  0  0  0  0  0  0
  153.2720  142.9310  158.6284 H   0  0  0  0  0  0  0  0  0  0  0  0
  153.4416  145.2282  159.2432 H   0  0  0  0  0  0  0  0  0  0  0  0
  152.3904  145.3811  157.8439 H   0  0  0  0  0  0  0  0  0  0  0  0
  151.6590  146.3221  160.3220 H   0  0  0  0  0  0  0  0  0  0  0  0
  150.4616  145.6491  159.2155 H   0  0  0  0  0  0  0  0  0  0  0  0
  151.3504  144.4621  161.7447 H   0  0  0  0  0  0  0  0  0  0  0  0
  150.0918  143.8936  160.6452 H   0  0  0  0  0  0  0  0  0  0  0  0
  1  2  2  0  0  0  0
  2  3  1  0  0  0  0
  2 15  1  0  0  0  0
  3  4  1  0  0  0  0
  3 20  1  0  0  0  0
  4 13  1  0  0  0  0
  4  5  2  0  0  0  0
  5  6  1  0  0  0  0
  5 21  1  0  0  0  0
  6  7  1  0  0  0  0
  6 11  2  0  0  0  0
  7  8  1  0  0  0  0
  7  9  1  0  0  0  0
  7 10  1  0  0  0  0
 11 12  1  0  0  0  0
 11 22  1  0  0  0  0
 12 13  1  0  0  0  0
 13 14  2  0  0  0  0
 15 19  1  0  0  0  0
 15 16  1  0  0  0  0
 15 23  1  0  0  0  0
 16 17  1  0  0  0  0
 16 24  1  0  0  0  0
 16 25  1  0  0  0  0
 17 18  1  0  0  0  0
 17 26  1  0  0  0  0
 17 27  1  0  0  0  0
 18 19  1  0  0  0  0
 18 28  1  0  0  0  0
 18 29  1  0  0  0  0
M  CHG  1  12  -1
M  END
> <s_m_source_file>
AV-unprocessed.smi

> <i_m_source_file_index>
1783

> <i_lp_mmshare_version>
43012

> <i_f3d_flags>
0

> <s_epik_input>
TzFbQ0gyXVtDSDJdW0NIMl1bQ0BIXTFDKD1PKVtOSF1jMltjSF1jKEMoRikoRilGKVtjSF1bbkhdYzI9Tw==

> <s_epik_cmdline>
J2VwaWtfcHl0aG9uJywgJy1waCcsICc3LjAnLCAnLXRuJywgJzgnLCAnLW1hJywgJzIwMCcsICctbWV0YWxfYmluZGluZycsICctaW1hZScsICc8aW5maWxlLm1hZT4nLCAnLW9tYWUnLCAnPG91dGZpbGUubWFlPic=

> <r_epik_Ionization_Penalty>
2.55264

> <r_epik_Ionization_Penalty_Charging>
0.0580859

> <r_epik_Ionization_Penalty_Neutral>
2.49455

> <r_epik_State_Penalty>
2.65913

> <r_epik_Charging_Adjusted_Penalty>
2.71721

> <i_epik_Tot_Q>
-1

> <i_epik_Tot_abs_Q>
1

> <r_epik_Metal_State_Penalty>
0.516671

> <b_epik_Metal_Only>
0

> <s_lp_Force_Field>
OPLS_2005

> <r_lp_Energy>
34.221

> <b_lp_Chiralities_Consistent>
1

> <s_lp_Variant>
AV-unprocessed.smi:1783-4

> <Gold.Version>
5.8.1

> <Gold.Id.Protein>
6NUR|6NUR_protein|mol2

> <Gold.PLP.Fitness>
42.3878

> <Gold.PLP.PLP>
-39.7298

> <Gold.PLP.part.hbond>
-1.5913

> <Gold.PLP.part.metal>
0.0000

> <Gold.PLP.part.buried>
-4.1456

> <Gold.PLP.part.nonpolar>
-35.2979

> <Gold.PLP.part.repulsive>
1.4236

> <Gold.PLP.ligand.clash>
0.0183

> <Gold.PLP.ligand.torsion>
0.2062

> <Gold.PLP.Chemscore.Hbond>
1.0000

> <Gold.PLP.Chemscore.CHOScore>
0.0000

> <Gold.PLP.Chemscore.Metal>
0.0000

> <Gold.Chemscore.Hbonds>
donor molecule, donor type, donor heavy atom, donor atom, acceptor molecule, acceptor atom, score
      P1  H  7997  8010       L1    14  1.00

> <Gold.PLP.Chemscore.Internal.Correction>
0.0888

> <Gold.Rescore>
     Score         DG    S(hbond)    S(metal)    S(lipo)     H(rot)  DE(clash)    DE(int)     intcor
     11.83     -16.02       1.00        0.00      83.46       1.00       1.06       3.14       ----

> <Gold.Chemscore.Fitness>
11.8264

> <Gold.Chemscore.DG>
-16.0241

> <Gold.Chemscore.ZeroCoef>
-5.4800

> <Gold.Chemscore.Hbond>
0.9997

> <Gold.Chemscore.Metal>
0.0000

> <Gold.Chemscore.Lipo>
83.4614

> <Gold.Chemscore.Internal_Hbond>
0.0000

> <Gold.Chemscore.DEClash>
1.0573

> <Gold.Chemscore.DEInternal>
3.1404

> <Gold.Chemscore.Rot>
1.0000

> <Gold.Chemscore.Internal.Correction>
   9.000000E+99

> <Gold.Chemscore.Hbonds>
donor molecule, donor type, donor heavy atom, donor atom, acceptor molecule, acceptor atom, score
      P1  H  7997  8010       L1    14  1.00

> <Gold.Chemscore.Hbond.Weighted>
-3.3391

> <Gold.Chemscore.Metal.Weighted>
-0.0000

> <Gold.Chemscore.Lipo.Weighted>
-9.7650

> <Gold.Chemscore.Internal_Hbond.Weighted>
0.0000

> <Gold.Chemscore.DEClash.Weighted>
1.0573

> <Gold.Chemscore.DEInternal.Weighted>
3.1404

> <Gold.Chemscore.Rot.Weighted>
2.5600

> <Gold.Chemscore.Internal.Correction.Weighted>
   9.000000E+99

> <Gold.Protein.RotatedTorsions>
[ 6907 6896 6895 6894 ] final  -94.71 input  -60.11 | X-H torsion
[ 7974 7965 7964 7962 ] final   94.77 input  175.53 | X-H torsion
[ 8008 7997 7996 7995 ] final   89.47 input   59.86 | X-H torsion
[ 10167 10162 10161 10158 ] final  147.80 input  -65.29 | X-H torsion
[ 10718 10713 10712 10709 ] final    1.84 input   66.30 | X-H torsion
[ 10763 10752 10751 10750 ] final   85.48 input  -60.55 | X-H torsion
[ 11005 11000 10999 10996 ] final -120.86 input  -57.11 | X-H torsion

> <Gold.Protein.ActiveResidues>
 VAL166  LYS551  ARG553  GLY616  TRP617  ASP618  TYR619  PRO620  LYS621  CYS622 
 ASP623  PHE694  ASN695  SER759  ASP760  ASP761  ALA762  ILE779  LEU786  VAL792 
 PHE793  MET794  SER795  GLU796  ALA797  LYS798  CYS799  TRP800  GLU811  SER814 

> <Gold.Protein.RotatedAtoms>
  150.6947  134.1770  159.4233 H   0  0  0  0  0  0  0  0  0  0  0  0  # atno 6907 bound_to 6896
  151.9746  135.0057  160.0564 H   0  0  0  0  0  0  0  0  0  0  0  0  # atno 6908 bound_to 6896
  152.1810  133.4672  159.4995 H   0  0  0  0  0  0  0  0  0  0  0  0  # atno 6909 bound_to 6896
  145.4611  139.2287  143.2987 H   0  0  0  0  0  0  0  0  0  0  0  0  # atno 7974 bound_to 7965
  156.0004  140.3360  155.6840 H   0  0  0  0  0  0  0  0  0  0  0  0  # atno 8008 bound_to 7997
  155.6298  140.0684  157.2670 H   0  0  0  0  0  0  0  0  0  0  0  0  # atno 8009 bound_to 7997
  154.4247  140.1761  156.1448 H   0  0  0  0  0  0  0  0  0  0  0  0  # atno 8010 bound_to 7997
  139.4884  144.5728  151.7023 H   0  0  0  0  0  0  0  0  0  0  0  0  # atno 10167 bound_to 10162
  156.8541  130.5564  149.5667 H   0  0  0  0  0  0  0  0  0  0  0  0  # atno 10718 bound_to 10713
  153.1479  135.4615  154.9593 H   0  0  0  0  0  0  0  0  0  0  0  0  # atno 10763 bound_to 10752
  154.7801  135.3185  154.8010 H   0  0  0  0  0  0  0  0  0  0  0  0  # atno 10764 bound_to 10752
  153.8521  135.6920  153.4845 H   0  0  0  0  0  0  0  0  0  0  0  0  # atno 10765 bound_to 10752
  141.0113  134.0261  157.3410 H   0  0  0  0  0  0  0  0  0  0  0  0  # atno 11005 bound_to 11000
  146.2451  140.5380  142.8917 LP  0  0  0  0  0  0  0  0  0  0  0  0  # atno 17320 bound_to 7965
  144.8002  140.6199  143.6483 LP  0  0  0  0  0  0  0  0  0  0  0  0  # atno 17321 bound_to 7965
  140.5318  144.0718  150.6056 LP  0  0  0  0  0  0  0  0  0  0  0  0  # atno 17342 bound_to 10162
  140.3711  143.2854  152.0277 LP  0  0  0  0  0  0  0  0  0  0  0  0  # atno 17343 bound_to 10162
  156.0812  130.5822  150.9566 LP  0  0  0  0  0  0  0  0  0  0  0  0  # atno 17370 bound_to 10713
  157.6287  131.0923  150.8484 LP  0  0  0  0  0  0  0  0  0  0  0  0  # atno 17371 bound_to 10713
  139.9091  135.0186  156.7616 LP  0  0  0  0  0  0  0  0  0  0  0  0  # atno 17394 bound_to 11000
  140.6729  133.9543  155.7866 LP  0  0  0  0  0  0  0  0  0  0  0  0  # atno 17395 bound_to 11000

$$$$
