#       Name:                AV-unprocessed.smi:1962
#       Creating user name   scv26
#       Creation time:       Fri Mar 27 10:09:01 2020


#       File generated by GOLD software.
#

@<TRIPOS>MOLECULE
AV-unprocessed.smi:1962
    42    43     1
SMALL
NO_CHARGES


@<TRIPOS>ATOM
      1 ****        -2.9869  -0.9005   2.0047 C.3            1 S1                 0.0000
      2 ****        -2.4361  -0.1628   0.7769 C.3            1 S1                 0.0000
      3 ****        -2.9591  -0.7843  -0.5352 C.3            1 S1                 0.0000
      4 ****        -2.5447  -0.0382  -1.7109 N.pl3          1 S1                 0.0000
      5 ****        -3.0424   1.1566  -2.1866 C.2            1 S1                 0.0000
      6 ****        -2.3292   1.4766  -3.3060 C.2            1 S1                 0.0000
      7 ****        -1.4066   0.4013  -3.4380 C.2            1 S1                 0.0000
      8 ****        -1.5403  -0.5057  -2.4843 N.2            1 S1                 0.0000
      9 ****        -0.9749  -0.1949   0.8191 N.am           1 S1                 0.0000
     10 ****        -0.1550   0.8418   0.5622 C.2            1 S1                 0.0000
     11 ****        -0.5636   1.9713   0.2906 O.2            1 S1                 0.0000
     12 ****         1.3012   0.5441   0.6046 C.2            1 S1                 0.0000
     13 ****         1.7104  -0.6728   0.7846 N.2            1 S1                 0.0000
     14 ****         3.0513  -0.9985   0.8115 N.am           1 S1                 0.0000
     15 ****         3.3361  -2.4303   0.7431 C.3            1 S1                 0.0000
     16 ****         4.0611  -0.0995   0.9183 C.2            1 S1                 0.0000
     17 ****         5.2531  -0.4067   0.9250 O.2            1 S1                 0.0000
     18 ****         3.6539   1.3693   1.0673 C.3            1 S1                 0.0000
     19 ****         2.2971   1.6687   0.3995 C.3            1 S1                 0.0000
     20 ****        -4.0768  -0.8775   2.0196 H              1 S1                 0.0000
     21 ****        -2.6363  -0.4403   2.9291 H              1 S1                 0.0000
     22 ****        -2.6760  -1.9458   2.0135 H              1 S1                 0.0000
     23 ****        -2.7884   0.8685   0.8365 H              1 S1                 0.0000
     24 ****        -2.6251  -1.8191  -0.6299 H              1 S1                 0.0000
     25 ****        -4.0494  -0.8105  -0.5263 H              1 S1                 0.0000
     26 ****        -3.8490   1.6762  -1.6906 H              1 S1                 0.0000
     27 ****        -2.4467   2.3474  -3.9337 H              1 S1                 0.0000
     28 ****        -0.6494   0.2533  -4.1938 H              1 S1                 0.0000
     29 ****        -0.5477  -1.0861   1.0273 H              1 S1                 0.0000
     30 ****         3.8962  -2.7547   1.6214 H              1 S1                 0.0000
     31 ****         3.9272  -2.6606  -0.1446 H              1 S1                 0.0000
     32 ****         2.4241  -3.0277   0.6950 H              1 S1                 0.0000
     33 ****         3.5930   1.5854   2.1345 H              1 S1                 0.0000
     34 ****         4.4297   2.0178   0.6588 H              1 S1                 0.0000
     35 ****         2.4363   1.8338  -0.6695 H              1 S1                 0.0000
     36 ****         1.9114   2.6040   0.8073 H              1 S1                 0.0000
     37 ****        -1.0156  -1.3483  -2.3630 LP             1 S1                 0.0000
     38 ****        -1.5464   2.1519   0.2530 LP             1 S1                 0.0000
     39 ****         0.0875   2.7080   0.1076 LP             1 S1                 0.0000
     40 ****         1.0333  -1.3982   0.9078 LP             1 S1                 0.0000
     41 ****         5.5225  -1.3667   0.8488 LP             1 S1                 0.0000
     42 ****         5.9521   0.3038   1.0066 LP             1 S1                 0.0000
@<TRIPOS>BOND
    1    1    2 1     
    2    1   20 1     
    3    1   21 1     
    4    1   22 1     
    5    2    3 1     
    6    2    9 1     
    7    2   23 1     
    8    3    4 1     
    9    3   24 1     
   10    3   25 1     
   11    4    8 1     
   12    4    5 1     
   13    5    6 2     
   14    5   26 1     
   15    6    7 1     
   16    6   27 1     
   17    7    8 2     
   18    7   28 1     
   19    9   10 am    
   20    9   29 1     
   21   10   11 2     
   22   10   12 1     
   23   12   19 1     
   24   12   13 2     
   25   13   14 1     
   26   14   15 1     
   27   14   16 am    
   28   15   30 1     
   29   15   31 1     
   30   15   32 1     
   31   16   17 2     
   32   16   18 1     
   33   18   19 1     
   34   18   33 1     
   35   18   34 1     
   36   19   35 1     
   37   19   36 1     
   38    8   37 1     
   39   11   38 1     
   40   11   39 1     
   41   13   40 1     
   42   17   41 1     
   43   17   42 1     
@<TRIPOS>SUBSTRUCTURE
      1 S1             1
@<TRIPOS>SET
LONE_PAIRS      STATIC     ATOMS    <user>   **** ""
6 37 38 39 40 41 42
DONOR_HYDROGENS      STATIC     ATOMS    <user>   **** ""
1 29
ATOM$BLUE        STATIC     ATOMS    COLORGROUP SYSTEM
6 37 38 39 40 41 42
ATOM$RED        STATIC     ATOMS    COLORGROUP SYSTEM
1 29
