AV-unprocessed.smi:3187|AV-procd|sdf|12177|dock2
  -GOLD-   2272018 13D 1   1.00000     0.00000
 Structure written by MMmdl.
 41 42  0  0  0  0  0  0  0  0  2 V2000
  152.3604  139.3751  157.5095 C   0  0  0  0  0  0  0  0  0  0  0  0
  151.4294  139.6110  156.3315 C   0  0  0  0  0  0  0  0  0  0  0  0
  151.3724  138.7069  155.3349 C   0  0  0  0  0  0  0  0  0  0  0  0
  150.4341  138.7973  154.1536 C   0  0  0  0  0  0  0  0  0  0  0  0
  149.2539  139.7228  154.4586 C   0  0  0  0  0  0  0  0  0  0  0  0
  149.7279  141.0661  155.0370 C   0  0  1  0  0  0  0  0  0  0  0  0
  148.5137  141.9951  155.2318 C   0  0  0  0  0  0  0  0  0  0  0  0
  150.5602  140.8858  156.3443 C   0  0  2  0  0  0  0  0  0  0  0  0
  151.3810  142.1700  156.6375 C   0  0  0  0  0  0  0  0  0  0  0  0
  150.6036  143.1962  157.3627 N   0  3  0  0  0  0  0  0  0  0  0  0
  151.4195  144.2945  157.9146 C   0  0  0  0  0  0  0  0  0  0  0  0
  151.1566  144.4732  159.4157 C   0  0  0  0  0  0  0  0  0  0  0  0
  152.0193  143.6232  160.2107 N   0  0  0  0  0  0  0  0  0  0  0  0
  152.8994  142.6544  159.7463 C   0  0  0  0  0  0  0  0  0  0  0  0
  153.5049  142.1094  160.8562 C   0  0  0  0  0  0  0  0  0  0  0  0
  153.0169  142.7257  162.0060 N   0  0  0  0  0  0  0  0  0  0  0  0
  152.1410  143.6090  161.5452 C   0  0  0  0  0  0  0  0  0  0  0  0
  151.8179  139.4702  158.4504 H   0  0  0  0  0  0  0  0  0  0  0  0
  153.1872  140.0848  157.5010 H   0  0  0  0  0  0  0  0  0  0  0  0
  152.7928  138.3742  157.4783 H   0  0  0  0  0  0  0  0  0  0  0  0
  152.0159  137.8391  155.3564 H   0  0  0  0  0  0  0  0  0  0  0  0
  150.9939  139.1526  153.2881 H   0  0  0  0  0  0  0  0  0  0  0  0
  150.0664  137.7998  153.9113 H   0  0  0  0  0  0  0  0  0  0  0  0
  148.6751  139.8805  153.5476 H   0  0  0  0  0  0  0  0  0  0  0  0
  148.5836  139.2359  155.1688 H   0  0  0  0  0  0  0  0  0  0  0  0
  150.3748  141.5212  154.2850 H   0  0  0  0  0  0  0  0  0  0  0  0
  147.8356  141.6051  155.9915 H   0  0  0  0  0  0  0  0  0  0  0  0
  147.9456  142.0925  154.3061 H   0  0  0  0  0  0  0  0  0  0  0  0
  148.8010  143.0019  155.5303 H   0  0  0  0  0  0  0  0  0  0  0  0
  149.8492  140.7422  157.1595 H   0  0  0  0  0  0  0  0  0  0  0  0
  152.2742  141.9129  157.2091 H   0  0  0  0  0  0  0  0  0  0  0  0
  151.7320  142.6326  155.7166 H   0  0  0  0  0  0  0  0  0  0  0  0
  149.9186  143.5867  156.7314 H   0  0  0  0  0  0  0  0  0  0  0  0
  152.4750  144.0766  157.7446 H   0  0  0  0  0  0  0  0  0  0  0  0
  151.1893  145.2174  157.3800 H   0  0  0  0  0  0  0  0  0  0  0  0
  151.3196  145.5101  159.7134 H   0  0  0  0  0  0  0  0  0  0  0  0
  150.1196  144.2326  159.6536 H   0  0  0  0  0  0  0  0  0  0  0  0
  153.0198  142.4374  158.6950 H   0  0  0  0  0  0  0  0  0  0  0  0
  154.2489  141.3287  160.9153 H   0  0  0  0  0  0  0  0  0  0  0  0
  151.5766  144.2625  162.1943 H   0  0  0  0  0  0  0  0  0  0  0  0
  150.1189  142.7448  158.1254 H   0  0  0  0  0  0  0  0  0  0  0  0
  1  2  1  0  0  0  0
  1 18  1  0  0  0  0
  1 19  1  0  0  0  0
  1 20  1  0  0  0  0
  2  8  1  0  0  0  0
  2  3  2  0  0  0  0
  3  4  1  0  0  0  0
  3 21  1  0  0  0  0
  4  5  1  0  0  0  0
  4 22  1  0  0  0  0
  4 23  1  0  0  0  0
  5  6  1  0  0  0  0
  5 24  1  0  0  0  0
  5 25  1  0  0  0  0
  6  7  1  0  0  0  0
  6  8  1  0  0  0  0
  6 26  1  0  0  0  0
  7 27  1  0  0  0  0
  7 28  1  0  0  0  0
  7 29  1  0  0  0  0
  8  9  1  0  0  0  0
  8 30  1  0  0  0  0
  9 10  1  0  0  0  0
  9 31  1  0  0  0  0
  9 32  1  0  0  0  0
 10 11  1  0  0  0  0
 10 33  1  0  0  0  0
 10 41  1  0  0  0  0
 11 12  1  0  0  0  0
 11 34  1  0  0  0  0
 11 35  1  0  0  0  0
 12 13  1  0  0  0  0
 12 36  1  0  0  0  0
 12 37  1  0  0  0  0
 13 17  1  0  0  0  0
 13 14  1  0  0  0  0
 14 15  2  0  0  0  0
 14 38  1  0  0  0  0
 15 16  1  0  0  0  0
 15 39  1  0  0  0  0
 16 17  2  0  0  0  0
 17 40  1  0  0  0  0
M  CHG  1  10   1
M  END
> <s_m_source_file>
AV-unprocessed.smi

> <i_m_source_file_index>
3187

> <i_lp_mmshare_version>
43012

> <i_f3d_flags>
0

> <s_epik_input>
W0NIM11DMT1bQ0hdW0NIMl1bQ0gyXVtDQEBIXShbQ0gzXSlbQ0BIXTFbQ0gyXVtOSF1bQ0gyXVtDSDJdbjJbY0hdW2NIXW5bY0hdMg==

> <s_epik_cmdline>
J2VwaWtfcHl0aG9uJywgJy1waCcsICc3LjAnLCAnLXRuJywgJzgnLCAnLW1hJywgJzIwMCcsICctbWV0YWxfYmluZGluZycsICctaW1hZScsICc8aW5maWxlLm1hZT4nLCAnLW9tYWUnLCAnPG91dGZpbGUubWFlPic=

> <r_lp_tautomer_probability>
1

> <r_epik_Ionization_Penalty>
0.0501625

> <r_epik_Ionization_Penalty_Charging>
0.0501625

> <r_epik_Ionization_Penalty_Neutral>
0

> <r_epik_State_Penalty>
0.0972392

> <r_epik_Charging_Adjusted_Penalty>
0.147402

> <i_epik_Tot_Q>
1

> <i_epik_Tot_abs_Q>
1

> <r_epik_Metal_State_Penalty>
0.000104376

> <b_epik_Metal_Only>
0

> <s_lp_Force_Field>
OPLS_2005

> <r_lp_Energy>
17.2086

> <b_lp_Chiralities_Consistent>
1

> <s_lp_Variant>
AV-unprocessed.smi:3187-3

> <Gold.Version>
5.8.1

> <Gold.Id.Protein>
6NUR|6NUR_protein|mol2

> <Gold.PLP.Fitness>
46.2290

> <Gold.PLP.PLP>
-42.0122

> <Gold.PLP.part.hbond>
-1.0000

> <Gold.PLP.part.metal>
0.0000

> <Gold.PLP.part.buried>
-1.8881

> <Gold.PLP.part.nonpolar>
-39.1496

> <Gold.PLP.part.repulsive>
0.0621

> <Gold.PLP.ligand.clash>
0.0000

> <Gold.PLP.ligand.torsion>
0.9442

> <Gold.PLP.Chemscore.Hbond>
2.0000

> <Gold.PLP.Chemscore.CHOScore>
0.0000

> <Gold.PLP.Chemscore.Metal>
0.0000

> <Gold.Chemscore.Hbonds>
donor molecule, donor type, donor heavy atom, donor atom, acceptor molecule, acceptor atom, score
      L1  H    10    33       P1  8028  2.00

> <Gold.PLP.Chemscore.Internal.Correction>
0.1052

> <Gold.Rescore>
     Score         DG    S(hbond)    S(metal)    S(lipo)     H(rot)  DE(clash)    DE(int)     intcor
     14.89     -16.01       0.96        0.00     103.84       1.89       0.29       0.83       ----

> <Gold.Chemscore.Fitness>
14.8934

> <Gold.Chemscore.DG>
-16.0114

> <Gold.Chemscore.ZeroCoef>
-5.4800

> <Gold.Chemscore.Hbond>
0.9604

> <Gold.Chemscore.Metal>
0.0000

> <Gold.Chemscore.Lipo>
103.8441

> <Gold.Chemscore.Internal_Hbond>
0.0000

> <Gold.Chemscore.DEClash>
0.2916

> <Gold.Chemscore.DEInternal>
0.8264

> <Gold.Chemscore.Rot>
1.8853

> <Gold.Chemscore.Internal.Correction>
   9.000000E+99

> <Gold.Chemscore.Hbonds>
donor molecule, donor type, donor heavy atom, donor atom, acceptor molecule, acceptor atom, score
      L1  H    10    33       P1  8028  1.00

> <Gold.Chemscore.Hbond.Weighted>
-3.2078

> <Gold.Chemscore.Metal.Weighted>
-0.0000

> <Gold.Chemscore.Lipo.Weighted>
-12.1498

> <Gold.Chemscore.Internal_Hbond.Weighted>
0.0000

> <Gold.Chemscore.DEClash.Weighted>
0.2916

> <Gold.Chemscore.DEInternal.Weighted>
0.8264

> <Gold.Chemscore.Rot.Weighted>
4.8263

> <Gold.Chemscore.Internal.Correction.Weighted>
   9.000000E+99

> <Gold.Protein.RotatedTorsions>
[ 6907 6896 6895 6894 ] final -154.48 input  -60.11 | X-H torsion
[ 7974 7965 7964 7962 ] final -170.31 input  175.53 | X-H torsion
[ 8008 7997 7996 7995 ] final   79.47 input   59.86 | X-H torsion
[ 10167 10162 10161 10158 ] final -176.67 input  -65.29 | X-H torsion
[ 10718 10713 10712 10709 ] final  -28.66 input   66.30 | X-H torsion
[ 10763 10752 10751 10750 ] final -161.19 input  -60.55 | X-H torsion
[ 11005 11000 10999 10996 ] final -169.95 input  -57.11 | X-H torsion

> <Gold.Protein.ActiveResidues>
 VAL166  LYS551  ARG553  GLY616  TRP617  ASP618  TYR619  PRO620  LYS621  CYS622 
 ASP623  PHE694  ASN695  SER759  ASP760  ASP761  ALA762  ILE779  LEU786  VAL792 
 PHE793  MET794  SER795  GLU796  ALA797  LYS798  CYS799  TRP800  GLU811  SER814 

> <Gold.Protein.RotatedAtoms>
  151.2581  133.4316  159.2614 H   0  0  0  0  0  0  0  0  0  0  0  0  # atno 6907 bound_to 6896
  151.0556  134.9703  159.8244 H   0  0  0  0  0  0  0  0  0  0  0  0  # atno 6908 bound_to 6896
  152.5390  134.2533  159.8960 H   0  0  0  0  0  0  0  0  0  0  0  0  # atno 6909 bound_to 6896
  144.7172  140.2090  143.6329 H   0  0  0  0  0  0  0  0  0  0  0  0  # atno 7974 bound_to 7965
  155.8702  140.3449  155.5816 H   0  0  0  0  0  0  0  0  0  0  0  0  # atno 8008 bound_to 7997
  155.7836  140.0862  157.2065 H   0  0  0  0  0  0  0  0  0  0  0  0  # atno 8009 bound_to 7997
  154.4017  140.1496  156.3068 H   0  0  0  0  0  0  0  0  0  0  0  0  # atno 8010 bound_to 7997
  139.5518  144.2090  152.1090 H   0  0  0  0  0  0  0  0  0  0  0  0  # atno 10167 bound_to 10162
  156.4223  130.4429  149.7175 H   0  0  0  0  0  0  0  0  0  0  0  0  # atno 10718 bound_to 10713
  154.7325  135.3049  154.8867 H   0  0  0  0  0  0  0  0  0  0  0  0  # atno 10763 bound_to 10752
  153.9706  135.6742  153.4751 H   0  0  0  0  0  0  0  0  0  0  0  0  # atno 10764 bound_to 10752
  153.0931  135.4949  154.8650 H   0  0  0  0  0  0  0  0  0  0  0  0  # atno 10765 bound_to 10752
  140.5250  134.5672  157.5058 H   0  0  0  0  0  0  0  0  0  0  0  0  # atno 11005 bound_to 11000
  145.8608  139.2222  143.1717 LP  0  0  0  0  0  0  0  0  0  0  0  0  # atno 17320 bound_to 7965
  146.0175  140.8379  142.9940 LP  0  0  0  0  0  0  0  0  0  0  0  0  # atno 17321 bound_to 7965
  140.1587  144.5046  150.6645 LP  0  0  0  0  0  0  0  0  0  0  0  0  # atno 17342 bound_to 10162
  140.6782  143.2314  151.5452 LP  0  0  0  0  0  0  0  0  0  0  0  0  # atno 17343 bound_to 10162
  156.4111  130.7722  151.2735 LP  0  0  0  0  0  0  0  0  0  0  0  0  # atno 17370 bound_to 10713
  157.7508  131.0211  150.3737 LP  0  0  0  0  0  0  0  0  0  0  0  0  # atno 17371 bound_to 10713
  139.9585  134.7493  156.0288 LP  0  0  0  0  0  0  0  0  0  0  0  0  # atno 17394 bound_to 11000
  141.1313  133.6586  156.3473 LP  0  0  0  0  0  0  0  0  0  0  0  0  # atno 17395 bound_to 11000

$$$$
