AV-unprocessed.smi:1207|AV-procd|sdf|5050|dock7
  -GOLD-   22720 4 73D 1   1.00000     0.00000
 Structure written by MMmdl.
 51 53  0  0  0  0  0  0  0  0  1 V2000
  152.9315  143.3901  161.7639 C   0  0  0  0  0  0  0  0  0  0  0  0
  152.4347  142.9317  160.4043 C   0  0  0  0  0  0  0  0  0  0  0  0
  152.7731  141.6373  159.9493 C   0  0  0  0  0  0  0  0  0  0  0  0
  152.3298  141.1727  158.6915 C   0  0  0  0  0  0  0  0  0  0  0  0
  152.5377  139.9593  158.0580 N   0  0  0  0  0  0  0  0  0  0  0  0
  151.8732  140.1349  156.9195 C   0  0  0  0  0  0  0  0  0  0  0  0
  151.2592  141.3200  156.7397 N   0  0  0  0  0  0  0  0  0  0  0  0
  150.4818  141.7316  155.5838 C   0  0  0  0  0  0  0  0  0  0  0  0
  149.0725  141.1072  155.5662 C   0  0  1  0  0  0  0  0  0  0  0  0
  148.2007  141.9823  154.8755 O   0  0  0  0  0  0  0  0  0  0  0  0
  149.0591  139.7293  154.8683 C   0  0  0  0  0  0  0  0  0  0  0  0
  149.6206  138.6259  155.6502 N   0  0  0  0  0  0  0  0  0  0  0  0
  150.8098  138.0982  154.9864 C   0  0  0  0  0  0  0  0  0  0  0  0
  148.6397  137.5656  155.8969 C   0  0  0  0  0  0  0  0  0  0  0  0
  149.1145  136.5437  156.8984 C   0  0  0  0  0  0  0  0  0  0  0  0
  149.2690  136.6991  158.3057 C   0  0  0  0  0  0  0  0  0  0  0  0
  148.9923  137.9131  159.1454 C   0  0  0  0  0  0  0  0  0  0  0  0
  149.7076  135.5913  158.8800 N   0  0  0  0  0  0  0  0  0  0  0  0
  149.8595  134.6596  157.8485 O   0  0  0  0  0  0  0  0  0  0  0  0
  149.4998  135.2495  156.6801 C   0  0  0  0  0  0  0  0  0  0  0  0
  149.5946  134.4101  155.4511 C   0  0  0  0  0  0  0  0  0  0  0  0
  151.5340  142.0461  157.8938 C   0  0  0  0  0  0  0  0  0  0  0  0
  151.1905  143.3358  158.3359 C   0  0  0  0  0  0  0  0  0  0  0  0
  151.6404  143.7838  159.5956 C   0  0  0  0  0  0  0  0  0  0  0  0
  151.2621  145.1776  160.0644 C   0  0  0  0  0  0  0  0  0  0  0  0
  153.5340  142.6207  162.2480 H   0  0  0  0  0  0  0  0  0  0  0  0
  152.0914  143.6191  162.4199 H   0  0  0  0  0  0  0  0  0  0  0  0
  153.5479  144.2838  161.6644 H   0  0  0  0  0  0  0  0  0  0  0  0
  153.3775  140.9876  160.5651 H   0  0  0  0  0  0  0  0  0  0  0  0
  151.8284  139.3567  156.1716 H   0  0  0  0  0  0  0  0  0  0  0  0
  150.4209  142.8207  155.5703 H   0  0  0  0  0  0  0  0  0  0  0  0
  151.0326  141.4402  154.6883 H   0  0  0  0  0  0  0  0  0  0  0  0
  148.7246  141.0058  156.5956 H   0  0  0  0  0  0  0  0  0  0  0  0
  148.5170  142.8663  154.9816 H   0  0  0  0  0  0  0  0  0  0  0  0
  148.0537  139.4814  154.5233 H   0  0  0  0  0  0  0  0  0  0  0  0
  149.6556  139.8234  153.9597 H   0  0  0  0  0  0  0  0  0  0  0  0
  151.2932  137.3292  155.5893 H   0  0  0  0  0  0  0  0  0  0  0  0
  151.5455  138.8865  154.8240 H   0  0  0  0  0  0  0  0  0  0  0  0
  150.5599  137.6635  154.0176 H   0  0  0  0  0  0  0  0  0  0  0  0
  147.7159  138.0041  156.2714 H   0  0  0  0  0  0  0  0  0  0  0  0
  148.3712  137.0920  154.9518 H   0  0  0  0  0  0  0  0  0  0  0  0
  149.4976  138.7906  158.7408 H   0  0  0  0  0  0  0  0  0  0  0  0
  149.3329  137.7816  160.1733 H   0  0  0  0  0  0  0  0  0  0  0  0
  147.9242  138.1292  159.1743 H   0  0  0  0  0  0  0  0  0  0  0  0
  148.9486  134.7964  154.6625 H   0  0  0  0  0  0  0  0  0  0  0  0
  149.2942  133.3827  155.6577 H   0  0  0  0  0  0  0  0  0  0  0  0
  150.6168  134.3953  155.0730 H   0  0  0  0  0  0  0  0  0  0  0  0
  150.5825  143.9731  157.7110 H   0  0  0  0  0  0  0  0  0  0  0  0
  150.6440  145.6911  159.3273 H   0  0  0  0  0  0  0  0  0  0  0  0
  152.1552  145.7804  160.2305 H   0  0  0  0  0  0  0  0  0  0  0  0
  150.6987  145.1275  160.9965 H   0  0  0  0  0  0  0  0  0  0  0  0
  1  2  1  0  0  0  0
  1 26  1  0  0  0  0
  1 27  1  0  0  0  0
  1 28  1  0  0  0  0
  2 24  1  0  0  0  0
  2  3  2  0  0  0  0
  3  4  1  0  0  0  0
  3 29  1  0  0  0  0
  4 22  2  0  0  0  0
  4  5  1  0  0  0  0
  5  6  2  0  0  0  0
  6  7  1  0  0  0  0
  6 30  1  0  0  0  0
  7  8  1  0  0  0  0
  7 22  1  0  0  0  0
  8  9  1  0  0  0  0
  8 31  1  0  0  0  0
  8 32  1  0  0  0  0
  9 10  1  0  0  0  0
  9 11  1  0  0  0  0
  9 33  1  0  0  0  0
 10 34  1  0  0  0  0
 11 12  1  0  0  0  0
 11 35  1  0  0  0  0
 11 36  1  0  0  0  0
 12 13  1  0  0  0  0
 12 14  1  0  0  0  0
 13 37  1  0  0  0  0
 13 38  1  0  0  0  0
 13 39  1  0  0  0  0
 14 15  1  0  0  0  0
 14 40  1  0  0  0  0
 14 41  1  0  0  0  0
 15 20  2  0  0  0  0
 15 16  1  0  0  0  0
 16 17  1  0  0  0  0
 16 18  2  0  0  0  0
 17 42  1  0  0  0  0
 17 43  1  0  0  0  0
 17 44  1  0  0  0  0
 18 19  1  0  0  0  0
 19 20  1  0  0  0  0
 20 21  1  0  0  0  0
 21 45  1  0  0  0  0
 21 46  1  0  0  0  0
 21 47  1  0  0  0  0
 22 23  1  0  0  0  0
 23 24  2  0  0  0  0
 23 48  1  0  0  0  0
 24 25  1  0  0  0  0
 25 49  1  0  0  0  0
 25 50  1  0  0  0  0
 25 51  1  0  0  0  0
M  END
> <s_m_source_file>
AV-unprocessed.smi

> <i_m_source_file_index>
1207

> <i_lp_mmshare_version>
43012

> <i_f3d_flags>
0

> <s_epik_input>
W0NIM11jKFtjSF0xKWMoW0NIM10pW2NIXWMoYzEyKW4oW2NIXW4yKVtDSDJdW0NASF0oW09IXSlbQ0gyXU4oW0NIM10pW0NIMl1jM2MoW0NIM10pbm9jM1tDSDNd

> <s_epik_cmdline>
J2VwaWtfcHl0aG9uJywgJy1waCcsICc3LjAnLCAnLXRuJywgJzgnLCAnLW1hJywgJzIwMCcsICctbWV0YWxfYmluZGluZycsICctaW1hZScsICc8aW5maWxlLm1hZT4nLCAnLW9tYWUnLCAnPG91dGZpbGUubWFlPic=

> <r_epik_Ionization_Penalty>
0.374039

> <r_epik_Ionization_Penalty_Charging>
0

> <r_epik_Ionization_Penalty_Neutral>
0.374039

> <r_epik_State_Penalty>
0.350767

> <r_epik_Charging_Adjusted_Penalty>
0.350767

> <i_epik_Tot_Q>
0

> <i_epik_Tot_abs_Q>
0

> <r_epik_Metal_State_Penalty>
0.343187

> <b_epik_Metal_Only>
0

> <s_lp_Force_Field>
OPLS_2005

> <r_lp_Energy>
17.6596

> <b_lp_Chiralities_Consistent>
1

> <s_lp_Variant>
AV-unprocessed.smi:1207-2

> <Gold.Version>
5.8.1

> <Gold.Id.Protein>
6NUR|6NUR_protein|mol2

> <Gold.PLP.Fitness>
50.6164

> <Gold.PLP.PLP>
-45.7469

> <Gold.PLP.part.hbond>
-3.4892

> <Gold.PLP.part.metal>
0.0000

> <Gold.PLP.part.buried>
-7.2576

> <Gold.PLP.part.nonpolar>
-35.3368

> <Gold.PLP.part.repulsive>
0.0693

> <Gold.PLP.ligand.clash>
0.0000

> <Gold.PLP.ligand.torsion>
1.5846

> <Gold.PLP.Chemscore.Hbond>
2.6450

> <Gold.PLP.Chemscore.CHOScore>
0.0000

> <Gold.PLP.Chemscore.Metal>
0.0000

> <Gold.Chemscore.Hbonds>
donor molecule, donor type, donor heavy atom, donor atom, acceptor molecule, acceptor atom, score
      L1  H    10    34       P1  8028  1.00
      P1  H  7997  8009       L1     5  0.21

> <Gold.PLP.Chemscore.Internal.Correction>
0.1036

> <Gold.Rescore>
     Score         DG    S(hbond)    S(metal)    S(lipo)     H(rot)  DE(clash)    DE(int)     intcor
     18.70     -20.38       1.89        0.00     125.44       2.38       0.06       1.63       ----

> <Gold.Chemscore.Fitness>
18.6962

> <Gold.Chemscore.DG>
-20.3810

> <Gold.Chemscore.ZeroCoef>
-5.4800

> <Gold.Chemscore.Hbond>
1.8881

> <Gold.Chemscore.Metal>
0.0000

> <Gold.Chemscore.Lipo>
125.4398

> <Gold.Chemscore.Internal_Hbond>
0.0000

> <Gold.Chemscore.DEClash>
0.0580

> <Gold.Chemscore.DEInternal>
1.6268

> <Gold.Chemscore.Rot>
2.3756

> <Gold.Chemscore.Internal.Correction>
   9.000000E+99

> <Gold.Chemscore.Hbonds>
donor molecule, donor type, donor heavy atom, donor atom, acceptor molecule, acceptor atom, score
      L1  H    10    34       P1  8028  0.97
      P1  H  7997  8009       L1     5  0.01

> <Gold.Chemscore.Hbond.Weighted>
-6.3061

> <Gold.Chemscore.Metal.Weighted>
-0.0000

> <Gold.Chemscore.Lipo.Weighted>
-14.6765

> <Gold.Chemscore.Internal_Hbond.Weighted>
0.0000

> <Gold.Chemscore.DEClash.Weighted>
0.0580

> <Gold.Chemscore.DEInternal.Weighted>
1.6268

> <Gold.Chemscore.Rot.Weighted>
6.0816

> <Gold.Chemscore.Internal.Correction.Weighted>
   9.000000E+99

> <Gold.Protein.RotatedTorsions>
[ 6907 6896 6895 6894 ] final   27.22 input  -60.11 | X-H torsion
[ 7974 7965 7964 7962 ] final -178.44 input  175.53 | X-H torsion
[ 8008 7997 7996 7995 ] final  151.37 input   59.86 | X-H torsion
[ 10167 10162 10161 10158 ] final   -4.69 input  -65.29 | X-H torsion
[ 10718 10713 10712 10709 ] final   -3.03 input   66.30 | X-H torsion
[ 10763 10752 10751 10750 ] final   37.40 input  -60.55 | X-H torsion
[ 11005 11000 10999 10996 ] final    0.07 input  -57.11 | X-H torsion

> <Gold.Protein.ActiveResidues>
 VAL166  LYS551  ARG553  GLY616  TRP617  ASP618  TYR619  PRO620  LYS621  CYS622 
 ASP623  PHE694  ASN695  SER759  ASP760  ASP761  ALA762  ILE779  LEU786  VAL792 
 PHE793  MET794  SER795  GLU796  ALA797  LYS798  CYS799  TRP800  GLU811  SER814 

> <Gold.Protein.RotatedAtoms>
  151.9991  134.9938  160.0564 H   0  0  0  0  0  0  0  0  0  0  0  0  # atno 6907 bound_to 6896
  152.1536  133.4533  159.4834 H   0  0  0  0  0  0  0  0  0  0  0  0  # atno 6908 bound_to 6896
  150.6878  134.2076  159.4390 H   0  0  0  0  0  0  0  0  0  0  0  0  # atno 6909 bound_to 6896
  144.7131  140.0868  143.6423 H   0  0  0  0  0  0  0  0  0  0  0  0  # atno 7974 bound_to 7965
  156.2676  140.2049  156.6165 H   0  0  0  0  0  0  0  0  0  0  0  0  # atno 8008 bound_to 7997
  154.6790  140.0542  157.0270 H   0  0  0  0  0  0  0  0  0  0  0  0  # atno 8009 bound_to 7997
  155.1027  140.3207  155.4545 H   0  0  0  0  0  0  0  0  0  0  0  0  # atno 8010 bound_to 7997
  140.6937  143.6394  150.8449 H   0  0  0  0  0  0  0  0  0  0  0  0  # atno 10167 bound_to 10162
  156.7821  130.5334  149.5749 H   0  0  0  0  0  0  0  0  0  0  0  0  # atno 10718 bound_to 10713
  153.0039  135.6279  154.2139 H   0  0  0  0  0  0  0  0  0  0  0  0  # atno 10763 bound_to 10752
  154.1883  135.2810  155.3032 H   0  0  0  0  0  0  0  0  0  0  0  0  # atno 10764 bound_to 10752
  154.5780  135.5656  153.7217 H   0  0  0  0  0  0  0  0  0  0  0  0  # atno 10765 bound_to 10752
  140.6306  133.9578  155.8272 H   0  0  0  0  0  0  0  0  0  0  0  0  # atno 11005 bound_to 11000
  145.9655  139.2831  143.1130 LP  0  0  0  0  0  0  0  0  0  0  0  0  # atno 17320 bound_to 7965
  145.9174  140.9138  143.0422 LP  0  0  0  0  0  0  0  0  0  0  0  0  # atno 17321 bound_to 7965
  140.0110  143.5643  152.2839 LP  0  0  0  0  0  0  0  0  0  0  0  0  # atno 17342 bound_to 10162
  139.6367  144.7650  151.2424 LP  0  0  0  0  0  0  0  0  0  0  0  0  # atno 17343 bound_to 10162
  156.1212  130.6111  151.0196 LP  0  0  0  0  0  0  0  0  0  0  0  0  # atno 17370 bound_to 10713
  157.6641  131.0875  150.7769 LP  0  0  0  0  0  0  0  0  0  0  0  0  # atno 17371 bound_to 10713
  141.0678  134.0251  157.3570 LP  0  0  0  0  0  0  0  0  0  0  0  0  # atno 17394 bound_to 11000
  139.9117  135.0191  156.7720 LP  0  0  0  0  0  0  0  0  0  0  0  0  # atno 17395 bound_to 11000

$$$$
