AV-unprocessed.smi:2040|AV-procd|sdf|8287|dock5
  -GOLD-   2272010553D 1   1.00000     0.00000
 Structure written by MMmdl.
 38 39  0  0  0  0  0  0  0  0  1 V2000
  154.6391  140.4180  161.9179 C   0  0  0  0  0  0  0  0  0  0  0  0
  153.6779  140.9616  160.9024 C   0  0  0  0  0  0  0  0  0  0  0  0
  153.0111  140.2554  159.8593 C   0  0  0  0  0  0  0  0  0  0  0  0
  152.2723  141.2363  159.2559 C   0  0  0  0  0  0  0  0  0  0  0  0
  151.4380  141.1425  158.1865 N   0  0  0  0  0  0  0  0  0  0  0  0
  151.6006  140.4345  157.0551 C   0  0  0  0  0  0  0  0  0  0  0  0
  152.5676  139.7189  156.7933 O   0  0  0  0  0  0  0  0  0  0  0  0
  150.5568  140.5973  156.2292 N   0  0  0  0  0  0  0  0  0  0  0  0
  150.4151  139.9790  154.9133 C   0  0  1  0  0  0  0  0  0  0  0  0
  150.7352  138.4771  155.0109 C   0  0  0  0  0  0  0  0  0  0  0  0
  148.9913  140.2376  154.3847 C   0  0  2  0  0  0  0  0  0  0  0  0
  148.6059  141.7159  154.2755 C   0  0  0  0  0  0  0  0  0  0  0  0
  147.0977  141.7241  154.4819 C   0  0  0  0  0  0  0  0  0  0  0  0
  146.7704  140.2934  154.9127 C   0  0  0  0  0  0  0  0  0  0  0  0
  148.0206  139.7409  155.2941 O   0  0  0  0  0  0  0  0  0  0  0  0
  152.5023  142.4292  159.9046 N   0  0  0  0  0  0  0  0  0  0  0  0
  151.9552  143.7445  159.6348 C   0  0  0  0  0  0  0  0  0  0  0  0
  153.3702  142.2537  160.9245 N   0  0  0  0  0  0  0  0  0  0  0  0
  154.8649  139.3692  161.7247 H   0  0  0  0  0  0  0  0  0  0  0  0
  154.2272  140.4885  162.9249 H   0  0  0  0  0  0  0  0  0  0  0  0
  155.5808  140.9674  161.9022 H   0  0  0  0  0  0  0  0  0  0  0  0
  153.0796  139.2069  159.6120 H   0  0  0  0  0  0  0  0  0  0  0  0
  150.5785  141.6658  158.2637 H   0  0  0  0  0  0  0  0  0  0  0  0
  149.8088  141.2078  156.5234 H   0  0  0  0  0  0  0  0  0  0  0  0
  151.1234  140.4429  154.2241 H   0  0  0  0  0  0  0  0  0  0  0  0
  150.6750  137.9936  154.0358 H   0  0  0  0  0  0  0  0  0  0  0  0
  150.0409  137.9664  155.6789 H   0  0  0  0  0  0  0  0  0  0  0  0
  151.7441  138.3113  155.3902 H   0  0  0  0  0  0  0  0  0  0  0  0
  148.8481  139.7472  153.4193 H   0  0  0  0  0  0  0  0  0  0  0  0
  149.0831  142.2945  155.0678 H   0  0  0  0  0  0  0  0  0  0  0  0
  148.9017  142.1513  153.3205 H   0  0  0  0  0  0  0  0  0  0  0  0
  146.8251  142.4408  155.2575 H   0  0  0  0  0  0  0  0  0  0  0  0
  146.5600  141.9932  153.5721 H   0  0  0  0  0  0  0  0  0  0  0  0
  146.0505  140.2538  155.7303 H   0  0  0  0  0  0  0  0  0  0  0  0
  146.3672  139.7222  154.0750 H   0  0  0  0  0  0  0  0  0  0  0  0
  150.8702  143.7179  159.7374 H   0  0  0  0  0  0  0  0  0  0  0  0
  152.2106  144.0457  158.6186 H   0  0  0  0  0  0  0  0  0  0  0  0
  152.3588  144.4792  160.3327 H   0  0  0  0  0  0  0  0  0  0  0  0
  1  2  1  0  0  0  0
  1 19  1  0  0  0  0
  1 20  1  0  0  0  0
  1 21  1  0  0  0  0
  2 18  2  0  0  0  0
  2  3  1  0  0  0  0
  3  4  2  0  0  0  0
  3 22  1  0  0  0  0
  4  5  1  0  0  0  0
  4 16  1  0  0  0  0
  5  6  1  0  0  0  0
  5 23  1  0  0  0  0
  6  7  2  0  0  0  0
  6  8  1  0  0  0  0
  8  9  1  0  0  0  0
  8 24  1  0  0  0  0
  9 10  1  0  0  0  0
  9 11  1  0  0  0  0
  9 25  1  0  0  0  0
 10 26  1  0  0  0  0
 10 27  1  0  0  0  0
 10 28  1  0  0  0  0
 11 15  1  0  0  0  0
 11 12  1  0  0  0  0
 11 29  1  0  0  0  0
 12 13  1  0  0  0  0
 12 30  1  0  0  0  0
 12 31  1  0  0  0  0
 13 14  1  0  0  0  0
 13 32  1  0  0  0  0
 13 33  1  0  0  0  0
 14 15  1  0  0  0  0
 14 34  1  0  0  0  0
 14 35  1  0  0  0  0
 16 17  1  0  0  0  0
 16 18  1  0  0  0  0
 17 36  1  0  0  0  0
 17 37  1  0  0  0  0
 17 38  1  0  0  0  0
M  END
> <s_m_source_file>
AV-unprocessed.smi

> <i_m_source_file_index>
2040

> <i_lp_mmshare_version>
43012

> <i_f3d_flags>
0

> <s_epik_input>
W0NIM11jMVtjSF1jKG4objEpW0NIM10pW05IXUMoPU8pW05IXVtDQEhdKFtDSDNdKVtDQEBIXTJbQ0gyXVtDSDJdW0NIMl1PMg==

> <s_epik_cmdline>
J2VwaWtfcHl0aG9uJywgJy1waCcsICc3LjAnLCAnLXRuJywgJzgnLCAnLW1hJywgJzIwMCcsICctbWV0YWxfYmluZGluZycsICctaW1hZScsICc8aW5maWxlLm1hZT4nLCAnLW9tYWUnLCAnPG91dGZpbGUubWFlPic=

> <r_lp_tautomer_probability>
1

> <r_epik_Ionization_Penalty>
9.09088e-05

> <r_epik_Ionization_Penalty_Charging>
0

> <r_epik_Ionization_Penalty_Neutral>
9.09088e-05

> <r_epik_State_Penalty>
-0

> <r_epik_Charging_Adjusted_Penalty>
0

> <i_epik_Tot_Q>
0

> <i_epik_Tot_abs_Q>
0

> <r_epik_Metal_State_Penalty>
-0

> <b_epik_Metal_Only>
0

> <s_lp_Force_Field>
OPLS_2005

> <r_lp_Energy>
19.5884

> <b_lp_Chiralities_Consistent>
1

> <s_lp_Variant>
AV-unprocessed.smi:2040-2

> <Gold.Version>
5.8.1

> <Gold.Id.Protein>
6NUR|6NUR_protein|mol2

> <Gold.PLP.Fitness>
37.4868

> <Gold.PLP.PLP>
-35.3188

> <Gold.PLP.part.hbond>
-1.0000

> <Gold.PLP.part.metal>
0.0000

> <Gold.PLP.part.buried>
-2.5897

> <Gold.PLP.part.nonpolar>
-32.0854

> <Gold.PLP.part.repulsive>
0.1888

> <Gold.PLP.ligand.clash>
0.0000

> <Gold.PLP.ligand.torsion>
0.4274

> <Gold.PLP.Chemscore.Hbond>
1.0000

> <Gold.PLP.Chemscore.CHOScore>
0.0000

> <Gold.PLP.Chemscore.Metal>
0.0000

> <Gold.Chemscore.Hbonds>
donor molecule, donor type, donor heavy atom, donor atom, acceptor molecule, acceptor atom, score
      P1  H  7997  8009       L1     7  1.00

> <Gold.PLP.Chemscore.Internal.Correction>
0.0228

> <Gold.Rescore>
     Score         DG    S(hbond)    S(metal)    S(lipo)     H(rot)  DE(clash)    DE(int)     intcor
     12.74     -14.41       1.00        0.00      74.80       1.23       0.02       1.64       ----

> <Gold.Chemscore.Fitness>
12.7407

> <Gold.Chemscore.DG>
-14.4078

> <Gold.Chemscore.ZeroCoef>
-5.4800

> <Gold.Chemscore.Hbond>
0.9985

> <Gold.Chemscore.Metal>
0.0000

> <Gold.Chemscore.Lipo>
74.7985

> <Gold.Chemscore.Internal_Hbond>
0.0000

> <Gold.Chemscore.DEClash>
0.0241

> <Gold.Chemscore.DEInternal>
1.6430

> <Gold.Chemscore.Rot>
1.2338

> <Gold.Chemscore.Internal.Correction>
   9.000000E+99

> <Gold.Chemscore.Hbonds>
donor molecule, donor type, donor heavy atom, donor atom, acceptor molecule, acceptor atom, score
      P1  H  7997  8009       L1     7  1.00

> <Gold.Chemscore.Hbond.Weighted>
-3.3348

> <Gold.Chemscore.Metal.Weighted>
-0.0000

> <Gold.Chemscore.Lipo.Weighted>
-8.7514

> <Gold.Chemscore.Internal_Hbond.Weighted>
0.0000

> <Gold.Chemscore.DEClash.Weighted>
0.0241

> <Gold.Chemscore.DEInternal.Weighted>
1.6430

> <Gold.Chemscore.Rot.Weighted>
3.1584

> <Gold.Chemscore.Internal.Correction.Weighted>
   9.000000E+99

> <Gold.Protein.RotatedTorsions>
[ 6907 6896 6895 6894 ] final  -31.07 input  -60.11 | X-H torsion
[ 7974 7965 7964 7962 ] final -118.57 input  175.53 | X-H torsion
[ 8008 7997 7996 7995 ] final -164.49 input   59.86 | X-H torsion
[ 10167 10162 10161 10158 ] final -169.29 input  -65.29 | X-H torsion
[ 10718 10713 10712 10709 ] final  145.69 input   66.30 | X-H torsion
[ 10763 10752 10751 10750 ] final  172.31 input  -60.55 | X-H torsion
[ 11005 11000 10999 10996 ] final   43.05 input  -57.11 | X-H torsion

> <Gold.Protein.ActiveResidues>
 VAL166  LYS551  ARG553  GLY616  TRP617  ASP618  TYR619  PRO620  LYS621  CYS622 
 ASP623  PHE694  ASN695  SER759  ASP760  ASP761  ALA762  ILE779  LEU786  VAL792 
 PHE793  MET794  SER795  GLU796  ALA797  LYS798  CYS799  TRP800  GLU811  SER814 

> <Gold.Protein.RotatedAtoms>
  151.0970  134.9950  159.8430 H   0  0  0  0  0  0  0  0  0  0  0  0  # atno 6907 bound_to 6896
  152.5434  134.1996  159.8717 H   0  0  0  0  0  0  0  0  0  0  0  0  # atno 6908 bound_to 6896
  151.2036  133.4552  159.2630 H   0  0  0  0  0  0  0  0  0  0  0  0  # atno 6909 bound_to 6896
  145.0723  140.8368  143.4088 H   0  0  0  0  0  0  0  0  0  0  0  0  # atno 7974 bound_to 7965
  155.8363  140.0941  157.1762 H   0  0  0  0  0  0  0  0  0  0  0  0  # atno 8008 bound_to 7997
  154.3981  140.1409  156.3736 H   0  0  0  0  0  0  0  0  0  0  0  0  # atno 8009 bound_to 7997
  155.8112  140.3449  155.5461 H   0  0  0  0  0  0  0  0  0  0  0  0  # atno 8010 bound_to 7997
  139.5932  144.1169  152.1658 H   0  0  0  0  0  0  0  0  0  0  0  0  # atno 10167 bound_to 10162
  157.3422  131.0937  151.1072 H   0  0  0  0  0  0  0  0  0  0  0  0  # atno 10718 bound_to 10713
  154.4242  135.2758  155.1955 H   0  0  0  0  0  0  0  0  0  0  0  0  # atno 10763 bound_to 10752
  154.3888  135.6071  153.5835 H   0  0  0  0  0  0  0  0  0  0  0  0  # atno 10764 bound_to 10752
  152.9834  135.5898  154.4543 H   0  0  0  0  0  0  0  0  0  0  0  0  # atno 10765 bound_to 10752
  140.1681  134.4257  155.8274 H   0  0  0  0  0  0  0  0  0  0  0  0  # atno 11005 bound_to 11000
  145.1277  139.2652  143.5555 LP  0  0  0  0  0  0  0  0  0  0  0  0  # atno 17320 bound_to 7965
  146.3529  140.0920  142.8612 LP  0  0  0  0  0  0  0  0  0  0  0  0  # atno 17321 bound_to 7965
  140.0748  144.5749  150.7165 LP  0  0  0  0  0  0  0  0  0  0  0  0  # atno 17342 bound_to 10162
  140.7190  143.2571  151.4340 LP  0  0  0  0  0  0  0  0  0  0  0  0  # atno 17343 bound_to 10162
  157.2280  130.6512  149.5838 LP  0  0  0  0  0  0  0  0  0  0  0  0  # atno 17370 bound_to 10713
  155.9709  130.4608  150.6085 LP  0  0  0  0  0  0  0  0  0  0  0  0  # atno 17371 bound_to 10713
  141.2215  133.6943  156.7714 LP  0  0  0  0  0  0  0  0  0  0  0  0  # atno 17394 bound_to 11000
  140.2410  134.8614  157.3573 LP  0  0  0  0  0  0  0  0  0  0  0  0  # atno 17395 bound_to 11000

$$$$
