#       Name:                AV-unprocessed.smi:3058
#       Creating user name   scv26
#       Creation time:       Fri Mar 27 17:07:50 2020


#       File generated by GOLD software.
#

@<TRIPOS>MOLECULE
AV-unprocessed.smi:3058
    41    43     1
SMALL
NO_CHARGES


@<TRIPOS>ATOM
      1 ****        -0.2924   1.1633  -0.6909 O.2            1 S1                 0.0000
      2 ****        -0.7277   0.3986   0.1704 C.2            1 S1                 0.0000
      3 ****         0.0709  -0.3158   0.9788 N.am           1 S1                 0.0000
      4 ****         1.5285  -0.2803   0.9583 C.3            1 S1                 0.0000
      5 ****         2.1027  -1.0912  -0.2162 C.3            1 S1                 0.0000
      6 ****         3.6185  -1.0685  -0.2418 C.ar           1 S1                 0.0000
      7 ****         4.3090   0.0451  -0.7693 C.ar           1 S1                 0.0000
      8 ****         5.7195   0.0422  -0.7808 C.ar           1 S1                 0.0000
      9 ****         6.4077  -1.0752  -0.2656 C.ar           1 S1                 0.0000
     10 ****         5.7132  -2.1226   0.2308 N.pl3          1 S1                 1.0000
     11 ****         4.3627  -2.1579   0.2607 C.ar           1 S1                 0.0000
     12 ****        -2.2422   0.2133   0.3728 C.3            1 S1                 0.0000
     13 ****        -2.9675  -0.3202  -0.8875 C.3            1 S1                 0.0000
     14 ****        -4.0713   0.7279  -1.1314 C.3            1 S1                 0.0000
     15 ****        -5.1261   0.6333  -0.0123 C.3            1 S1                 0.0000
     16 ****        -4.3861   1.2261   1.2026 C.3            1 S1                 0.0000
     17 ****        -2.9936   1.5454   0.6255 C.3            1 S1                 0.0000
     18 ****        -3.3597   2.0261  -0.7787 C.3            1 S1                 0.0000
     19 ****        -0.3638  -0.9190   1.6622 H              1 S1                 0.0000
     20 ****         1.8708   0.7553   0.9154 H              1 S1                 0.0000
     21 ****         1.8899  -0.6878   1.9029 H              1 S1                 0.0000
     22 ****         1.7585  -2.1248  -0.1594 H              1 S1                 0.0000
     23 ****         1.7369  -0.6981  -1.1658 H              1 S1                 0.0000
     24 ****         3.7645   0.8930  -1.1594 H              1 S1                 0.0000
     25 ****         6.2651   0.8849  -1.1798 H              1 S1                 0.0000
     26 ****         7.4840  -1.1622  -0.2358 H              1 S1                 0.0000
     27 ****         3.9232  -3.0502   0.6828 H              1 S1                 0.0000
     28 ****        -2.3998  -0.4672   1.2117 H              1 S1                 0.0000
     29 ****        -2.3040  -0.3795  -1.7519 H              1 S1                 0.0000
     30 ****        -3.3816  -1.3166  -0.7292 H              1 S1                 0.0000
     31 ****        -4.4944   0.6920  -2.1356 H              1 S1                 0.0000
     32 ****        -6.0056   1.2314  -0.2541 H              1 S1                 0.0000
     33 ****        -5.4553  -0.3922   0.1595 H              1 S1                 0.0000
     34 ****        -4.8806   2.1363   1.5445 H              1 S1                 0.0000
     35 ****        -4.3437   0.5345   2.0447 H              1 S1                 0.0000
     36 ****        -2.4344   2.2681   1.2213 H              1 S1                 0.0000
     37 ****        -2.5045   2.2378  -1.4206 H              1 S1                 0.0000
     38 ****        -4.0212   2.8943  -0.7793 H              1 S1                 0.0000
     39 ****         6.2311  -2.9211   0.5987 H              1 S1                 0.0000
     40 ****         0.6944   1.2720  -0.8104 LP             1 S1                 0.0000
     41 ****        -0.9258   1.6757  -1.2708 LP             1 S1                 0.0000
@<TRIPOS>BOND
    1    1    2 2     
    2    2    3 am    
    3    2   12 1     
    4    3    4 1     
    5    3   19 1     
    6    4    5 1     
    7    4   20 1     
    8    4   21 1     
    9    5    6 1     
   10    5   22 1     
   11    5   23 1     
   12    6   11 ar    
   13    6    7 ar    
   14    7    8 ar    
   15    7   24 1     
   16    8    9 ar    
   17    8   25 1     
   18    9   10 ar    
   19    9   26 1     
   20   10   11 ar    
   21   10   39 1     
   22   11   27 1     
   23   12   17 1     
   24   12   13 1     
   25   12   28 1     
   26   13   14 1     
   27   13   29 1     
   28   13   30 1     
   29   14   18 1     
   30   14   15 1     
   31   14   31 1     
   32   15   16 1     
   33   15   32 1     
   34   15   33 1     
   35   16   17 1     
   36   16   34 1     
   37   16   35 1     
   38   17   18 1     
   39   17   36 1     
   40   18   37 1     
   41   18   38 1     
   42    1   40 1     
   43    1   41 1     
@<TRIPOS>SUBSTRUCTURE
      1 S1             1
@<TRIPOS>SET
LONE_PAIRS      STATIC     ATOMS    <user>   **** ""
2 40 41
DONOR_HYDROGENS      STATIC     ATOMS    <user>   **** ""
2 19 39
ATOM$BLUE        STATIC     ATOMS    COLORGROUP SYSTEM
2 40 41
ATOM$RED        STATIC     ATOMS    COLORGROUP SYSTEM
2 19 39
