#       Name:                AV-unprocessed.smi:1702
#       Creating user name   scv26
#       Creation time:       Fri Mar 27 08:03:02 2020


#       File generated by GOLD software.
#

@<TRIPOS>MOLECULE
AV-unprocessed.smi:1702
    47    49     1
SMALL
NO_CHARGES


@<TRIPOS>ATOM
      1 ****        -3.9015   4.3646  -0.4245 C.3            1 S1                 0.0000
      2 ****        -3.5009   2.8825  -0.4297 C.3            1 S1                 0.0000
      3 ****        -3.6288   2.2536   0.9678 C.3            1 S1                 0.0000
      4 ****        -3.1926   0.7789   0.9591 C.3            1 S1                 0.0000
      5 ****        -1.8034   0.6339   0.4532 N.4            1 S1                 1.0000
      6 ****        -1.3014  -0.7596   0.5716 C.3            1 S1                 0.0000
      7 ****         0.2356  -0.8298   0.6730 C.3            1 S1                 0.0000
      8 ****         0.6447  -0.1976   1.8711 O.3            1 S1                 0.0000
      9 ****         0.7440  -2.2858   0.6686 C.3            1 S1                 0.0000
     10 ****         2.2044  -2.3845   0.7991 N.pl3          1 S1                 0.0000
     11 ****         2.9701  -2.6497   1.8929 C.2            1 S1                 0.0000
     12 ****         4.2733  -2.6297   1.4972 N.pl3          1 S1                 1.0000
     13 ****         4.3418  -2.3495   0.1306 C.ar           1 S1                 0.0000
     14 ****         5.4343  -2.2243  -0.7216 C.ar           1 S1                 0.0000
     15 ****         5.1556  -1.9282  -2.0722 C.ar           1 S1                 0.0000
     16 ****         6.1825  -1.7919  -2.9440 F              1 S1                 0.0000
     17 ****         3.8302  -1.7707  -2.5307 C.ar           1 S1                 0.0000
     18 ****         3.6062  -1.4858  -3.8354 F              1 S1                 0.0000
     19 ****         2.7302  -1.9028  -1.6574 C.ar           1 S1                 0.0000
     20 ****         3.0158  -2.1924  -0.3241 C.ar           1 S1                 0.0000
     21 ****        -1.6635   1.1973  -0.9159 C.3            1 S1                 0.0000
     22 ****        -2.0663   2.6813  -0.9471 C.3            1 S1                 0.0000
     23 ****        -3.2546   4.9490   0.2304 H              1 S1                 0.0000
     24 ****        -4.9277   4.4928  -0.0792 H              1 S1                 0.0000
     25 ****        -3.8354   4.7926  -1.4251 H              1 S1                 0.0000
     26 ****        -4.1816   2.3578  -1.1018 H              1 S1                 0.0000
     27 ****        -3.0187   2.8088   1.6819 H              1 S1                 0.0000
     28 ****        -4.6585   2.3287   1.3189 H              1 S1                 0.0000
     29 ****        -3.2599   0.3836   1.9736 H              1 S1                 0.0000
     30 ****        -3.8705   0.1872   0.3417 H              1 S1                 0.0000
     31 ****        -1.7262  -1.2326   1.4587 H              1 S1                 0.0000
     32 ****        -1.6572  -1.3422  -0.2796 H              1 S1                 0.0000
     33 ****         0.6944  -0.2983  -0.1596 H              1 S1                 0.0000
     34 ****         0.2922  -0.6785   2.6047 H              1 S1                 0.0000
     35 ****         0.3043  -2.8439   1.4966 H              1 S1                 0.0000
     36 ****         0.4446  -2.8018  -0.2446 H              1 S1                 0.0000
     37 ****         2.6104  -2.8385   2.8944 H              1 S1                 0.0000
     38 ****         6.4504  -2.3447  -0.3754 H              1 S1                 0.0000
     39 ****         1.7205  -1.7819  -2.0194 H              1 S1                 0.0000
     40 ****        -0.6355   1.1040  -1.2636 H              1 S1                 0.0000
     41 ****        -2.2828   0.6274  -1.6106 H              1 S1                 0.0000
     42 ****        -1.9799   3.0628  -1.9652 H              1 S1                 0.0000
     43 ****        -1.3683   3.2602  -0.3405 H              1 S1                 0.0000
     44 ****        -1.2250   1.1940   1.0637 H              1 S1                 0.0000
     45 ****         5.0563  -2.7952   2.1170 H              1 S1                 0.0000
     46 ****         0.3024   0.7418   1.8893 LP             1 S1                 0.0000
     47 ****         1.6433  -0.1897   1.9230 LP             1 S1                 0.0000
@<TRIPOS>BOND
    1    1    2 1     
    2    1   23 1     
    3    1   24 1     
    4    1   25 1     
    5    2   22 1     
    6    2    3 1     
    7    2   26 1     
    8    3    4 1     
    9    3   27 1     
   10    3   28 1     
   11    4    5 1     
   12    4   29 1     
   13    4   30 1     
   14    5    6 1     
   15    5   21 1     
   16    5   44 1     
   17    6    7 1     
   18    6   31 1     
   19    6   32 1     
   20    7    8 1     
   21    7    9 1     
   22    7   33 1     
   23    8   34 1     
   24    9   10 1     
   25    9   35 1     
   26    9   36 1     
   27   10   20 1     
   28   10   11 1     
   29   11   12 2     
   30   11   37 1     
   31   12   13 1     
   32   12   45 1     
   33   13   20 ar    
   34   13   14 ar    
   35   14   15 ar    
   36   14   38 1     
   37   15   16 1     
   38   15   17 ar    
   39   17   18 1     
   40   17   19 ar    
   41   19   20 ar    
   42   19   39 1     
   43   21   22 1     
   44   21   40 1     
   45   21   41 1     
   46   22   42 1     
   47   22   43 1     
   48    8   46 1     
   49    8   47 1     
@<TRIPOS>SUBSTRUCTURE
      1 S1             1
@<TRIPOS>SET
LONE_PAIRS      STATIC     ATOMS    <user>   **** ""
2 46 47
DONOR_HYDROGENS      STATIC     ATOMS    <user>   **** ""
3 44 34 45
ATOM$BLUE        STATIC     ATOMS    COLORGROUP SYSTEM
2 46 47
ATOM$RED        STATIC     ATOMS    COLORGROUP SYSTEM
3 44 34 45
