AV-unprocessed.smi:2330|AV-procd|sdf|9310|dock8
  -GOLD-   2272012533D 1   1.00000     0.00000
 Structure written by MMmdl.
 42 43  0  0  0  0  0  0  0  0  1 V2000
  151.1235  142.6982  156.8318 C   0  0  0  0  0  0  0  0  0  0  0  0
  150.5036  141.3653  156.3884 C   0  0  2  0  0  0  0  0  0  0  0  0
  151.5809  140.2842  156.1784 C   0  0  0  0  0  0  0  0  0  0  0  0
  150.9652  138.9486  155.7312 C   0  0  0  0  0  0  0  0  0  0  0  0
  150.1117  139.1172  154.4575 C   0  0  1  0  0  0  0  0  0  0  0  0
  149.4739  137.8540  154.0993 N   0  0  0  0  0  0  0  0  0  0  0  0
  148.6406  137.1602  154.8870 C   0  0  0  0  0  0  0  0  0  0  0  0
  148.3370  137.4902  156.0336 O   0  0  0  0  0  0  0  0  0  0  0  0
  148.1557  136.0770  154.2651 N   0  0  0  0  0  0  0  0  0  0  0  0
  147.1569  135.1681  154.8216 C   0  0  0  0  0  0  0  0  0  0  0  0
  146.8678  133.9576  153.9053 C   0  0  2  0  0  0  0  0  0  0  0  0
  148.1075  133.0872  153.6541 C   0  0  0  0  0  0  0  0  0  0  0  0
  146.1715  134.3341  152.6320 C   0  0  0  0  0  0  0  0  0  0  0  0
  145.8340  135.5876  152.3118 N   0  0  0  0  0  0  0  0  0  0  0  0
  145.1759  135.6673  151.0822 C   0  0  0  0  0  0  0  0  0  0  0  0
  145.0098  134.4511  150.4702 C   0  0  0  0  0  0  0  0  0  0  0  0
  145.6804  133.1539  151.4200 S   0  0  0  0  0  0  0  0  0  0  0  0
  149.0370  140.2000  154.6636 C   0  0  0  0  0  0  0  0  0  0  0  0
  149.6585  141.5331  155.1111 C   0  0  0  0  0  0  0  0  0  0  0  0
  151.8046  143.0903  156.0758 H   0  0  0  0  0  0  0  0  0  0  0  0
  151.6864  142.5804  157.7580 H   0  0  0  0  0  0  0  0  0  0  0  0
  150.3533  143.4496  157.0086 H   0  0  0  0  0  0  0  0  0  0  0  0
  149.8416  141.0296  157.1883 H   0  0  0  0  0  0  0  0  0  0  0  0
  152.2995  140.6201  155.4294 H   0  0  0  0  0  0  0  0  0  0  0  0
  152.1440  140.1343  157.1000 H   0  0  0  0  0  0  0  0  0  0  0  0
  151.7604  138.2221  155.5591 H   0  0  0  0  0  0  0  0  0  0  0  0
  150.3506  138.5462  156.5379 H   0  0  0  0  0  0  0  0  0  0  0  0
  150.7590  139.4339  153.6372 H   0  0  0  0  0  0  0  0  0  0  0  0
  149.6570  137.5000  153.1718 H   0  0  0  0  0  0  0  0  0  0  0  0
  148.4643  135.8899  153.3222 H   0  0  0  0  0  0  0  0  0  0  0  0
  147.5428  134.8151  155.7783 H   0  0  0  0  0  0  0  0  0  0  0  0
  146.2370  135.7118  155.0424 H   0  0  0  0  0  0  0  0  0  0  0  0
  146.1681  133.3204  154.4476 H   0  0  0  0  0  0  0  0  0  0  0  0
  147.8485  132.1885  153.0934 H   0  0  0  0  0  0  0  0  0  0  0  0
  148.5615  132.7710  154.5936 H   0  0  0  0  0  0  0  0  0  0  0  0
  148.8638  133.6292  153.0858 H   0  0  0  0  0  0  0  0  0  0  0  0
  144.8580  136.6331  150.7176 H   0  0  0  0  0  0  0  0  0  0  0  0
  144.5360  134.2408  149.5229 H   0  0  0  0  0  0  0  0  0  0  0  0
  148.4760  140.3500  153.7404 H   0  0  0  0  0  0  0  0  0  0  0  0
  148.3161  139.8695  155.4131 H   0  0  0  0  0  0  0  0  0  0  0  0
  148.8678  142.2647  155.2806 H   0  0  0  0  0  0  0  0  0  0  0  0
  150.2798  141.9315  154.3077 H   0  0  0  0  0  0  0  0  0  0  0  0
  1  2  1  0  0  0  0
  1 20  1  0  0  0  0
  1 21  1  0  0  0  0
  1 22  1  0  0  0  0
  2 19  1  0  0  0  0
  2  3  1  0  0  0  0
  2 23  1  0  0  0  0
  3  4  1  0  0  0  0
  3 24  1  0  0  0  0
  3 25  1  0  0  0  0
  4  5  1  0  0  0  0
  4 26  1  0  0  0  0
  4 27  1  0  0  0  0
  5  6  1  0  0  0  0
  5 18  1  0  0  0  0
  5 28  1  0  0  0  0
  6  7  1  0  0  0  0
  6 29  1  0  0  0  0
  7  8  2  0  0  0  0
  7  9  1  0  0  0  0
  9 10  1  0  0  0  0
  9 30  1  0  0  0  0
 10 11  1  0  0  0  0
 10 31  1  0  0  0  0
 10 32  1  0  0  0  0
 11 12  1  0  0  0  0
 11 13  1  0  0  0  0
 11 33  1  0  0  0  0
 12 34  1  0  0  0  0
 12 35  1  0  0  0  0
 12 36  1  0  0  0  0
 13 17  1  0  0  0  0
 13 14  2  0  0  0  0
 14 15  1  0  0  0  0
 15 16  2  0  0  0  0
 15 37  1  0  0  0  0
 16 17  1  0  0  0  0
 16 38  1  0  0  0  0
 18 19  1  0  0  0  0
 18 39  1  0  0  0  0
 18 40  1  0  0  0  0
 19 41  1  0  0  0  0
 19 42  1  0  0  0  0
M  END
> <s_m_source_file>
AV-unprocessed.smi

> <i_m_source_file_index>
2330

> <i_lp_mmshare_version>
43012

> <i_f3d_flags>
0

> <s_epik_input>
W0NIM11bQ0BASF0xW0NIMl1bQ0gyXVtDQEhdKFtDSDJdW0NIMl0xKVtOSF1DKD1PKVtOSF1bQ0gyXVtDQEhdKFtDSDNdKWMybltjSF1bY0hdczI=

> <s_epik_cmdline>
J2VwaWtfcHl0aG9uJywgJy1waCcsICc3LjAnLCAnLXRuJywgJzgnLCAnLW1hJywgJzIwMCcsICctbWV0YWxfYmluZGluZycsICctaW1hZScsICc8aW5maWxlLm1hZT4nLCAnLW9tYWUnLCAnPG91dGZpbGUubWFlPic=

> <r_lp_tautomer_probability>
1

> <r_epik_Ionization_Penalty>
0.000331107

> <r_epik_Ionization_Penalty_Charging>
0

> <r_epik_Ionization_Penalty_Neutral>
0.000331107

> <r_epik_State_Penalty>
-0

> <r_epik_Charging_Adjusted_Penalty>
0

> <i_epik_Tot_Q>
0

> <i_epik_Tot_abs_Q>
0

> <r_epik_Metal_State_Penalty>
-0

> <b_epik_Metal_Only>
0

> <s_lp_Force_Field>
OPLS_2005

> <r_lp_Energy>
-1.82221

> <b_lp_Chiralities_Consistent>
1

> <s_lp_Variant>
AV-unprocessed.smi:2330-1

> <Gold.Version>
5.8.1

> <Gold.Id.Protein>
6NUR|6NUR_protein|mol2

> <Gold.PLP.Fitness>
41.1484

> <Gold.PLP.PLP>
-30.9497

> <Gold.PLP.part.hbond>
-1.8694

> <Gold.PLP.part.metal>
0.0000

> <Gold.PLP.part.buried>
-2.9498

> <Gold.PLP.part.nonpolar>
-27.4593

> <Gold.PLP.part.repulsive>
0.1828

> <Gold.PLP.ligand.clash>
0.0000

> <Gold.PLP.ligand.torsion>
0.1013

> <Gold.PLP.Chemscore.Hbond>
1.8320

> <Gold.PLP.Chemscore.CHOScore>
1.5959

> <Gold.PLP.Chemscore.Metal>
0.0000

> <Gold.Chemscore.Hbonds>
donor molecule, donor type, donor heavy atom, donor atom, acceptor molecule, acceptor atom, score
      L1  H     6    29       P1  7948  0.86
      L1  H     9    30       P1  7948  1.00
      L1  C    15    37       P1 10171  1.00
      L1  C    16    38       P1  7921  0.58

> <Gold.PLP.Chemscore.Internal.Correction>
0.1178

> <Gold.Rescore>
     Score         DG    S(hbond)    S(metal)    S(lipo)     H(rot)  DE(clash)    DE(int)     intcor
     15.68     -16.86       1.73        0.00      79.78       1.45       0.01       1.18       ----

> <Gold.Chemscore.Fitness>
15.6780

> <Gold.Chemscore.DG>
-16.8615

> <Gold.Chemscore.ZeroCoef>
-5.4800

> <Gold.Chemscore.Hbond>
1.7270

> <Gold.Chemscore.Metal>
0.0000

> <Gold.Chemscore.Lipo>
79.7834

> <Gold.Chemscore.Internal_Hbond>
0.0000

> <Gold.Chemscore.DEClash>
0.0060

> <Gold.Chemscore.DEInternal>
1.1775

> <Gold.Chemscore.Rot>
1.4536

> <Gold.Chemscore.Internal.Correction>
   9.000000E+99

> <Gold.Chemscore.Hbonds>
donor molecule, donor type, donor heavy atom, donor atom, acceptor molecule, acceptor atom, score
      L1  H     6    29       P1  7948  0.59
      L1  H     9    30       P1  7948  0.96

> <Gold.Chemscore.Hbond.Weighted>
-5.7680

> <Gold.Chemscore.Metal.Weighted>
-0.0000

> <Gold.Chemscore.Lipo.Weighted>
-9.3347

> <Gold.Chemscore.Internal_Hbond.Weighted>
0.0000

> <Gold.Chemscore.DEClash.Weighted>
0.0060

> <Gold.Chemscore.DEInternal.Weighted>
1.1775

> <Gold.Chemscore.Rot.Weighted>
3.7212

> <Gold.Chemscore.Internal.Correction.Weighted>
   9.000000E+99

> <Gold.Protein.RotatedTorsions>
[ 6907 6896 6895 6894 ] final  135.89 input  -60.11 | X-H torsion
[ 7974 7965 7964 7962 ] final  134.96 input  175.53 | X-H torsion
[ 8008 7997 7996 7995 ] final -139.41 input   59.86 | X-H torsion
[ 10167 10162 10161 10158 ] final   65.52 input  -65.29 | X-H torsion
[ 10718 10713 10712 10709 ] final  165.42 input   66.30 | X-H torsion
[ 10763 10752 10751 10750 ] final  138.58 input  -60.55 | X-H torsion
[ 11005 11000 10999 10996 ] final    3.40 input  -57.11 | X-H torsion

> <Gold.Protein.ActiveResidues>
 VAL166  LYS551  ARG553  GLY616  TRP617  ASP618  TYR619  PRO620  LYS621  CYS622 
 ASP623  PHE694  ASN695  SER759  ASP760  ASP761  ALA762  ILE779  LEU786  VAL792 
 PHE793  MET794  SER795  GLU796  ALA797  LYS798  CYS799  TRP800  GLU811  SER814 

> <Gold.Protein.RotatedAtoms>
  152.2954  133.5602  159.5583 H   0  0  0  0  0  0  0  0  0  0  0  0  # atno 6907 bound_to 6896
  150.7253  134.0368  159.3761 H   0  0  0  0  0  0  0  0  0  0  0  0  # atno 6908 bound_to 6896
  151.8272  135.0633  160.0483 H   0  0  0  0  0  0  0  0  0  0  0  0  # atno 6909 bound_to 6896
  144.9711  139.4604  143.5432 H   0  0  0  0  0  0  0  0  0  0  0  0  # atno 7974 bound_to 7965
  155.4443  140.0534  157.3007 H   0  0  0  0  0  0  0  0  0  0  0  0  # atno 8008 bound_to 7997
  154.4804  140.2079  155.9733 H   0  0  0  0  0  0  0  0  0  0  0  0  # atno 8009 bound_to 7997
  156.1197  140.3190  155.8195 H   0  0  0  0  0  0  0  0  0  0  0  0  # atno 8010 bound_to 7997
  140.1104  144.4823  150.6982 H   0  0  0  0  0  0  0  0  0  0  0  0  # atno 10167 bound_to 10162
  157.0804  131.0390  151.2577 H   0  0  0  0  0  0  0  0  0  0  0  0  # atno 10718 bound_to 10713
  153.8920  135.3032  155.3447 H   0  0  0  0  0  0  0  0  0  0  0  0  # atno 10763 bound_to 10752
  154.7712  135.4885  153.9655 H   0  0  0  0  0  0  0  0  0  0  0  0  # atno 10764 bound_to 10752
  153.1292  135.6800  153.9305 H   0  0  0  0  0  0  0  0  0  0  0  0  # atno 10765 bound_to 10752
  140.5935  133.9902  155.8099 H   0  0  0  0  0  0  0  0  0  0  0  0  # atno 11005 bound_to 11000
  146.3382  139.8924  142.8807 LP  0  0  0  0  0  0  0  0  0  0  0  0  # atno 17320 bound_to 7965
  145.2557  141.0060  143.3855 LP  0  0  0  0  0  0  0  0  0  0  0  0  # atno 17321 bound_to 7965
  140.6929  143.2386  151.5082 LP  0  0  0  0  0  0  0  0  0  0  0  0  # atno 17342 bound_to 10162
  139.5622  144.2128  152.1710 LP  0  0  0  0  0  0  0  0  0  0  0  0  # atno 17343 bound_to 10162
  157.4805  130.7762  149.7409 LP  0  0  0  0  0  0  0  0  0  0  0  0  # atno 17370 bound_to 10713
  155.9925  130.3930  150.2939 LP  0  0  0  0  0  0  0  0  0  0  0  0  # atno 17371 bound_to 10713
  141.0919  133.9903  157.3223 LP  0  0  0  0  0  0  0  0  0  0  0  0  # atno 17394 bound_to 11000
  139.9263  135.0201  156.8247 LP  0  0  0  0  0  0  0  0  0  0  0  0  # atno 17395 bound_to 11000

$$$$
