#       Name:                AV-unprocessed.smi:789
#       Creating user name   scv26
#       Creation time:       Fri Mar 27 01:17:20 2020


#       File generated by GOLD software.
#

@<TRIPOS>MOLECULE
AV-unprocessed.smi:789
    37    38     1
SMALL
NO_CHARGES


@<TRIPOS>ATOM
      1 ****        -5.3763  -1.6523  -0.4707 C.3            1 S1                 0.0000
      2 ****        -4.0366  -0.9807  -0.4051 C.2            1 S1                 0.0000
      3 ****        -2.7477  -1.5846  -0.4755 C.2            1 S1                 0.0000
      4 ****        -1.9062  -0.5120  -0.3625 C.2            1 S1                 0.0000
      5 ****        -0.5475  -0.4900  -0.3666 N.am           1 S1                 0.0000
      6 ****         0.3194  -1.5197  -0.4322 C.2            1 S1                 0.0000
      7 ****         0.0003  -2.7037  -0.5213 O.2            1 S1                 0.0000
      8 ****         1.6121  -1.1495  -0.3810 N.am           1 S1                 0.0000
      9 ****         2.8008  -2.0055  -0.4275 C.3            1 S1                 0.0000
     10 ****         4.0444  -1.2364   0.0584 C.3            1 S1                 0.0000
     11 ****         5.1421  -1.5102  -0.9706 C.3            1 S1                 0.0000
     12 ****         4.3873  -1.7183  -2.2791 C.3            1 S1                 0.0000
     13 ****         3.1202  -2.4668  -1.8653 C.3            1 S1                 0.0000
     14 ****        -2.6603   0.6349  -0.2370 N.pl3          1 S1                 0.0000
     15 ****        -2.2447   2.0168  -0.0902 C.3            1 S1                 0.0000
     16 ****        -3.9774   0.3388  -0.2648 N.2            1 S1                 0.0000
     17 ****        -5.2715  -2.7362  -0.5210 H              1 S1                 0.0000
     18 ****        -5.9333  -1.3315  -1.3512 H              1 S1                 0.0000
     19 ****        -5.9767  -1.4184   0.4089 H              1 S1                 0.0000
     20 ****        -2.5051  -2.6302  -0.5896 H              1 S1                 0.0000
     21 ****        -0.1333   0.4273  -0.2903 H              1 S1                 0.0000
     22 ****         1.7903  -0.1606  -0.2806 H              1 S1                 0.0000
     23 ****         2.6534  -2.8779   0.2122 H              1 S1                 0.0000
     24 ****         3.8472  -0.1634   0.0865 H              1 S1                 0.0000
     25 ****         4.3455  -1.5334   1.0636 H              1 S1                 0.0000
     26 ****         5.8730  -0.7033  -1.0299 H              1 S1                 0.0000
     27 ****         5.6753  -2.4242  -0.7058 H              1 S1                 0.0000
     28 ****         4.1200  -0.7508  -2.7063 H              1 S1                 0.0000
     29 ****         4.9729  -2.2611  -3.0216 H              1 S1                 0.0000
     30 ****         3.3210  -3.5390  -1.8605 H              1 S1                 0.0000
     31 ****         2.3040  -2.2997  -2.5694 H              1 S1                 0.0000
     32 ****        -1.1621   2.0853   0.0170 H              1 S1                 0.0000
     33 ****        -2.7118   2.4497   0.7948 H              1 S1                 0.0000
     34 ****        -2.5493   2.5860  -0.9687 H              1 S1                 0.0000
     35 ****        -0.9658  -2.9604  -0.5500 LP             1 S1                 0.0000
     36 ****         0.7068  -3.4100  -0.5652 LP             1 S1                 0.0000
     37 ****        -4.7444   0.9767  -0.1948 LP             1 S1                 0.0000
@<TRIPOS>BOND
    1    1    2 1     
    2    1   17 1     
    3    1   18 1     
    4    1   19 1     
    5    2   16 2     
    6    2    3 1     
    7    3    4 2     
    8    3   20 1     
    9    4    5 1     
   10    4   14 1     
   11    5    6 am    
   12    5   21 1     
   13    6    7 2     
   14    6    8 am    
   15    8    9 1     
   16    8   22 1     
   17    9   13 1     
   18    9   10 1     
   19    9   23 1     
   20   10   11 1     
   21   10   24 1     
   22   10   25 1     
   23   11   12 1     
   24   11   26 1     
   25   11   27 1     
   26   12   13 1     
   27   12   28 1     
   28   12   29 1     
   29   13   30 1     
   30   13   31 1     
   31   14   15 1     
   32   14   16 1     
   33   15   32 1     
   34   15   33 1     
   35   15   34 1     
   36    7   35 1     
   37    7   36 1     
   38   16   37 1     
@<TRIPOS>SUBSTRUCTURE
      1 S1             1
@<TRIPOS>SET
LONE_PAIRS      STATIC     ATOMS    <user>   **** ""
3 35 36 37
DONOR_HYDROGENS      STATIC     ATOMS    <user>   **** ""
2 21 22
ATOM$BLUE        STATIC     ATOMS    COLORGROUP SYSTEM
3 35 36 37
ATOM$RED        STATIC     ATOMS    COLORGROUP SYSTEM
2 21 22
