AV-unprocessed.smi:1612|AV-procd|sdf|6476|dock2
  -GOLD-   22720 7133D 1   1.00000     0.00000
 Structure written by MMmdl.
 37 38  0  0  0  0  0  0  0  0  1 V2000
  148.1565  141.1489  153.9641 C   0  0  0  0  0  0  0  0  0  0  0  0
  148.7314  140.6885  155.3145 C   0  0  2  0  0  0  0  0  0  0  0  0
  149.1916  141.8763  156.0340 N   0  0  0  0  0  0  0  0  0  0  0  0
  150.0077  141.8652  157.0990 C   0  0  0  0  0  0  0  0  0  0  0  0
  150.4442  140.8316  157.6070 O   0  0  0  0  0  0  0  0  0  0  0  0
  150.2771  143.1140  157.5185 N   0  0  0  0  0  0  0  0  0  0  0  0
  151.0913  143.5167  158.6106 C   0  0  0  0  0  0  0  0  0  0  0  0
  152.0390  142.5582  159.0356 C   0  0  0  0  0  0  0  0  0  0  0  0
  152.8963  142.8609  160.1110 C   0  0  0  0  0  0  0  0  0  0  0  0
  152.7837  144.1160  160.7352 C   0  0  0  0  0  0  0  0  0  0  0  0
  151.8138  145.0127  160.2506 C   0  0  0  0  0  0  0  0  0  0  0  0
  150.9916  144.7249  159.2193 N   0  0  0  0  0  0  0  0  0  0  0  0
  149.9128  139.7343  155.0304 C   0  0  0  0  0  0  0  0  0  0  0  0
  151.0057  140.2083  154.7125 O   0  0  0  0  0  0  0  0  0  0  0  0
  149.7162  138.4013  155.1192 N   0  0  0  0  0  0  0  0  0  0  0  0
  148.4267  137.8031  155.4611 C   0  0  0  0  0  0  0  0  0  0  0  0
  148.5785  136.3060  155.1932 C   0  0  0  0  0  0  0  0  0  0  0  0
  150.0713  136.0523  155.3466 C   0  0  0  0  0  0  0  0  0  0  0  0
  150.7204  137.3613  154.8962 C   0  0  0  0  0  0  0  0  0  0  0  0
  147.7845  140.3053  153.3817 H   0  0  0  0  0  0  0  0  0  0  0  0
  148.9028  141.6668  153.3592 H   0  0  0  0  0  0  0  0  0  0  0  0
  147.3201  141.8330  154.1109 H   0  0  0  0  0  0  0  0  0  0  0  0
  147.9492  140.2050  155.9003 H   0  0  0  0  0  0  0  0  0  0  0  0
  148.8852  142.7693  155.6768 H   0  0  0  0  0  0  0  0  0  0  0  0
  149.8514  143.8645  156.9948 H   0  0  0  0  0  0  0  0  0  0  0  0
  152.1119  141.5981  158.5451 H   0  0  0  0  0  0  0  0  0  0  0  0
  153.6271  142.1419  160.4509 H   0  0  0  0  0  0  0  0  0  0  0  0
  153.4233  144.3850  161.5628 H   0  0  0  0  0  0  0  0  0  0  0  0
  151.6952  145.9867  160.7018 H   0  0  0  0  0  0  0  0  0  0  0  0
  148.2205  137.9848  156.5169 H   0  0  0  0  0  0  0  0  0  0  0  0
  147.6082  138.2279  154.8775 H   0  0  0  0  0  0  0  0  0  0  0  0
  147.9724  135.6929  155.8608 H   0  0  0  0  0  0  0  0  0  0  0  0
  148.2750  136.0857  154.1689 H   0  0  0  0  0  0  0  0  0  0  0  0
  150.3037  135.8707  156.3968 H   0  0  0  0  0  0  0  0  0  0  0  0
  150.4159  135.1904  154.7745 H   0  0  0  0  0  0  0  0  0  0  0  0
  150.9588  137.3195  153.8322 H   0  0  0  0  0  0  0  0  0  0  0  0
  151.6425  137.5495  155.4478 H   0  0  0  0  0  0  0  0  0  0  0  0
  1  2  1  0  0  0  0
  1 20  1  0  0  0  0
  1 21  1  0  0  0  0
  1 22  1  0  0  0  0
  2  3  1  0  0  0  0
  2 13  1  0  0  0  0
  2 23  1  0  0  0  0
  3  4  1  0  0  0  0
  3 24  1  0  0  0  0
  4  5  2  0  0  0  0
  4  6  1  0  0  0  0
  6  7  1  0  0  0  0
  6 25  1  0  0  0  0
  7 12  1  0  0  0  0
  7  8  2  0  0  0  0
  8  9  1  0  0  0  0
  8 26  1  0  0  0  0
  9 10  2  0  0  0  0
  9 27  1  0  0  0  0
 10 11  1  0  0  0  0
 10 28  1  0  0  0  0
 11 12  2  0  0  0  0
 11 29  1  0  0  0  0
 13 14  2  0  0  0  0
 13 15  1  0  0  0  0
 15 19  1  0  0  0  0
 15 16  1  0  0  0  0
 16 17  1  0  0  0  0
 16 30  1  0  0  0  0
 16 31  1  0  0  0  0
 17 18  1  0  0  0  0
 17 32  1  0  0  0  0
 17 33  1  0  0  0  0
 18 19  1  0  0  0  0
 18 34  1  0  0  0  0
 18 35  1  0  0  0  0
 19 36  1  0  0  0  0
 19 37  1  0  0  0  0
M  END
> <s_m_source_file>
AV-unprocessed.smi

> <i_m_source_file_index>
1612

> <i_lp_mmshare_version>
43012

> <i_f3d_flags>
0

> <s_epik_input>
W0NIMl0xW0NIMl1bQ0gyXVtDSDJdTjFDKD1PKVtDQEhdKFtDSDNdKVtOSF1DKD1PKVtOSF1jMltjSF1bY0hdW2NIXVtjSF1uMg==

> <s_epik_cmdline>
J2VwaWtfcHl0aG9uJywgJy1waCcsICc3LjAnLCAnLXRuJywgJzgnLCAnLW1hJywgJzIwMCcsICctbWV0YWxfYmluZGluZycsICctaW1hZScsICc8aW5maWxlLm1hZT4nLCAnLW9tYWUnLCAnPG91dGZpbGUubWFlPic=

> <r_lp_tautomer_probability>
1

> <r_epik_Ionization_Penalty>
3.95281e-05

> <r_epik_Ionization_Penalty_Charging>
0

> <r_epik_Ionization_Penalty_Neutral>
3.95281e-05

> <r_epik_State_Penalty>
-0

> <r_epik_Charging_Adjusted_Penalty>
0

> <i_epik_Tot_Q>
0

> <i_epik_Tot_abs_Q>
0

> <r_epik_Metal_State_Penalty>
-0

> <b_epik_Metal_Only>
0

> <s_lp_Force_Field>
OPLS_2005

> <r_lp_Energy>
30.1614

> <b_lp_Chiralities_Consistent>
1

> <s_lp_Variant>
AV-unprocessed.smi:1612-1

> <Gold.Version>
5.8.1

> <Gold.Id.Protein>
6NUR|6NUR_protein|mol2

> <Gold.PLP.Fitness>
41.0643

> <Gold.PLP.PLP>
-33.7456

> <Gold.PLP.part.hbond>
-2.9490

> <Gold.PLP.part.metal>
0.0000

> <Gold.PLP.part.buried>
-4.7644

> <Gold.PLP.part.nonpolar>
-25.7573

> <Gold.PLP.part.repulsive>
0.3455

> <Gold.PLP.ligand.clash>
0.0000

> <Gold.PLP.ligand.torsion>
0.8459

> <Gold.PLP.Chemscore.Hbond>
3.0000

> <Gold.PLP.Chemscore.CHOScore>
0.0000

> <Gold.PLP.Chemscore.Metal>
0.0000

> <Gold.Chemscore.Hbonds>
donor molecule, donor type, donor heavy atom, donor atom, acceptor molecule, acceptor atom, score
      L1  H     3    24       P1  8028  1.00
      L1  H     6    25       P1  8028  1.00
      P1  H  7989  7998       L1    14  0.98

> <Gold.PLP.Chemscore.Internal.Correction>
0.0105

> <Gold.Rescore>
     Score         DG    S(hbond)    S(metal)    S(lipo)     H(rot)  DE(clash)    DE(int)     intcor
     16.99     -20.08       2.87        0.00      71.33       1.30       0.02       3.07       ----

> <Gold.Chemscore.Fitness>
16.9873

> <Gold.Chemscore.DG>
-20.0772

> <Gold.Chemscore.ZeroCoef>
-5.4800

> <Gold.Chemscore.Hbond>
2.8694

> <Gold.Chemscore.Metal>
0.0000

> <Gold.Chemscore.Lipo>
71.3295

> <Gold.Chemscore.Internal_Hbond>
0.0000

> <Gold.Chemscore.DEClash>
0.0248

> <Gold.Chemscore.DEInternal>
3.0651

> <Gold.Chemscore.Rot>
1.3016

> <Gold.Chemscore.Internal.Correction>
   9.000000E+99

> <Gold.Chemscore.Hbonds>
donor molecule, donor type, donor heavy atom, donor atom, acceptor molecule, acceptor atom, score
      L1  H     3    24       P1  8028  0.96
      L1  H     6    25       P1  8028  0.94
      P1  H  7989  7998       L1    14  0.91

> <Gold.Chemscore.Hbond.Weighted>
-9.5838

> <Gold.Chemscore.Metal.Weighted>
-0.0000

> <Gold.Chemscore.Lipo.Weighted>
-8.3456

> <Gold.Chemscore.Internal_Hbond.Weighted>
0.0000

> <Gold.Chemscore.DEClash.Weighted>
0.0248

> <Gold.Chemscore.DEInternal.Weighted>
3.0651

> <Gold.Chemscore.Rot.Weighted>
3.3322

> <Gold.Chemscore.Internal.Correction.Weighted>
   9.000000E+99

> <Gold.Protein.RotatedTorsions>
[ 6907 6896 6895 6894 ] final   82.29 input  -60.11 | X-H torsion
[ 7974 7965 7964 7962 ] final  -25.24 input  175.53 | X-H torsion
[ 8008 7997 7996 7995 ] final -147.54 input   59.86 | X-H torsion
[ 10167 10162 10161 10158 ] final   -6.23 input  -65.29 | X-H torsion
[ 10718 10713 10712 10709 ] final  109.62 input   66.30 | X-H torsion
[ 10763 10752 10751 10750 ] final  178.81 input  -60.55 | X-H torsion
[ 11005 11000 10999 10996 ] final -113.92 input  -57.11 | X-H torsion

> <Gold.Protein.ActiveResidues>
 VAL166  LYS551  ARG553  GLY616  TRP617  ASP618  TYR619  PRO620  LYS621  CYS622 
 ASP623  PHE694  ASN695  SER759  ASP760  ASP761  ALA762  ILE779  LEU786  VAL792 
 PHE793  MET794  SER795  GLU796  ALA797  LYS798  CYS799  TRP800  GLU811  SER814 

> <Gold.Protein.RotatedAtoms>
  152.5295  134.3072  159.9099 H   0  0  0  0  0  0  0  0  0  0  0  0  # atno 6907 bound_to 6896
  151.3022  133.4111  159.2648 H   0  0  0  0  0  0  0  0  0  0  0  0  # atno 6908 bound_to 6896
  151.0109  134.9412  159.8064 H   0  0  0  0  0  0  0  0  0  0  0  0  # atno 6909 bound_to 6896
  146.1504  140.4860  142.8614 H   0  0  0  0  0  0  0  0  0  0  0  0  # atno 7974 bound_to 7965
  155.5771  140.0640  157.2792 H   0  0  0  0  0  0  0  0  0  0  0  0  # atno 8008 bound_to 7997
  154.4343  140.1858  156.0985 H   0  0  0  0  0  0  0  0  0  0  0  0  # atno 8009 bound_to 7997
  156.0333  140.3304  155.7167 H   0  0  0  0  0  0  0  0  0  0  0  0  # atno 8010 bound_to 7997
  140.6990  143.6218  150.8605 H   0  0  0  0  0  0  0  0  0  0  0  0  # atno 10167 bound_to 10162
  157.6533  131.0917  150.6480 H   0  0  0  0  0  0  0  0  0  0  0  0  # atno 10718 bound_to 10713
  154.5126  135.2789  155.1330 H   0  0  0  0  0  0  0  0  0  0  0  0  # atno 10763 bound_to 10752
  154.2919  135.6265  153.5392 H   0  0  0  0  0  0  0  0  0  0  0  0  # atno 10764 bound_to 10752
  152.9921  135.5676  154.5595 H   0  0  0  0  0  0  0  0  0  0  0  0  # atno 10765 bound_to 10752
  141.0584  133.9575  157.2712 H   0  0  0  0  0  0  0  0  0  0  0  0  # atno 11005 bound_to 11000
  144.7896  140.6006  143.6550 LP  0  0  0  0  0  0  0  0  0  0  0  0  # atno 17320 bound_to 7965
  145.4838  139.1493  143.3747 LP  0  0  0  0  0  0  0  0  0  0  0  0  # atno 17321 bound_to 7965
  139.9938  143.5818  152.2900 LP  0  0  0  0  0  0  0  0  0  0  0  0  # atno 17342 bound_to 10162
  139.6482  144.7659  151.2200 LP  0  0  0  0  0  0  0  0  0  0  0  0  # atno 17343 bound_to 10162
  156.6789  130.4561  149.5634 LP  0  0  0  0  0  0  0  0  0  0  0  0  # atno 17370 bound_to 10713
  156.1943  130.6580  151.1097 LP  0  0  0  0  0  0  0  0  0  0  0  0  # atno 17371 bound_to 10713
  139.9411  135.0191  156.8709 LP  0  0  0  0  0  0  0  0  0  0  0  0  # atno 17394 bound_to 11000
  140.5917  134.0255  155.7502 LP  0  0  0  0  0  0  0  0  0  0  0  0  # atno 17395 bound_to 11000

$$$$
