AV-unprocessed.smi:241|AV-procd|sdf|1840|dock6
  -GOLD-   2262020453D 1   1.00000     0.00000
 Structure written by MMmdl.
 54 57  0  0  0  0  0  0  0  0  1 V2000
  155.5051  140.4115  160.5988 C   0  0  0  0  0  0  0  0  0  0  0  0
  154.9632  139.9888  159.3607 O   0  0  0  0  0  0  0  0  0  0  0  0
  153.5444  139.9762  159.3636 C   0  0  0  0  0  0  0  0  0  0  0  0
  153.0046  141.3797  159.0290 C   0  0  2  0  0  0  0  0  0  0  0  0
  153.2350  142.4259  160.1289 C   0  0  0  0  0  0  0  0  0  0  0  0
  152.0235  143.3653  160.0380 C   0  0  1  0  0  0  0  0  0  0  0  0
  152.4483  144.7048  159.8302 O   0  0  0  0  0  0  0  0  0  0  0  0
  151.4465  145.6671  160.1169 C   0  0  0  0  0  0  0  0  0  0  0  0
  151.2091  142.8222  158.8558 C   0  0  0  0  0  0  0  0  0  0  0  0
  151.5738  141.4173  158.7543 N   0  0  0  0  0  0  0  0  0  0  0  0
  151.1748  140.7642  157.6378 C   0  0  0  0  0  0  0  0  0  0  0  0
  152.0815  140.3757  156.7024 N   0  0  0  0  0  0  0  0  0  0  0  0
  151.6771  139.7136  155.6140 C   0  0  0  0  0  0  0  0  0  0  0  0
  150.4407  139.3425  155.2730 N   0  0  0  0  0  0  0  0  0  0  0  0
  149.5293  139.7290  156.2118 C   0  0  0  0  0  0  0  0  0  0  0  0
  149.8115  140.4357  157.4140 C   0  0  0  0  0  0  0  0  0  0  0  0
  148.6404  140.6463  158.1290 N   0  0  0  0  0  0  0  0  0  0  0  0
  147.7172  140.0872  157.3957 C   0  0  0  0  0  0  0  0  0  0  0  0
  148.1589  139.5276  156.2161 N   0  0  0  0  0  0  0  0  0  0  0  0
  147.3707  138.8365  155.2346 C   0  0  0  0  0  0  0  0  0  0  0  0
  147.9991  138.1698  154.0072 C   0  0  0  0  0  0  0  0  0  0  0  0
  146.7329  138.5082  153.1880 C   0  0  0  0  0  0  0  0  0  0  0  0
  146.9907  139.0081  151.7563 C   0  0  0  0  0  0  0  0  0  0  0  0
  147.1010  137.9327  150.8458 O   0  0  0  0  0  0  0  0  0  0  0  0
  145.6611  137.3996  153.1515 C   0  0  0  0  0  0  0  0  0  0  0  0
  144.4272  137.8885  152.6661 O   0  0  0  0  0  0  0  0  0  0  0  0
  146.5030  139.6134  154.2454 C   0  0  0  0  0  0  0  0  0  0  0  0
  153.5150  141.7286  158.1294 H   0  0  0  0  0  0  0  0  0  0  0  0
  151.4490  143.2826  160.9624 H   0  0  0  0  0  0  0  0  0  0  0  0
  156.5936  140.3969  160.5457 H   0  0  0  0  0  0  0  0  0  0  0  0
  155.1976  139.7509  161.4105 H   0  0  0  0  0  0  0  0  0  0  0  0
  155.1942  141.4297  160.8365 H   0  0  0  0  0  0  0  0  0  0  0  0
  153.1838  139.2593  158.6248 H   0  0  0  0  0  0  0  0  0  0  0  0
  153.1703  139.6464  160.3340 H   0  0  0  0  0  0  0  0  0  0  0  0
  153.2642  141.9660  161.1174 H   0  0  0  0  0  0  0  0  0  0  0  0
  154.1826  142.9461  159.9841 H   0  0  0  0  0  0  0  0  0  0  0  0
  151.8483  146.6681  159.9610 H   0  0  0  0  0  0  0  0  0  0  0  0
  151.1170  145.5969  161.1541 H   0  0  0  0  0  0  0  0  0  0  0  0
  150.5796  145.5508  159.4658 H   0  0  0  0  0  0  0  0  0  0  0  0
  150.1371  142.9448  159.0127 H   0  0  0  0  0  0  0  0  0  0  0  0
  151.4813  143.3574  157.9448 H   0  0  0  0  0  0  0  0  0  0  0  0
  152.4561  139.4402  154.9176 H   0  0  0  0  0  0  0  0  0  0  0  0
  146.6824  140.0701  157.7042 H   0  0  0  0  0  0  0  0  0  0  0  0
  146.7662  138.1087  155.7785 H   0  0  0  0  0  0  0  0  0  0  0  0
  148.8864  138.6868  153.6393 H   0  0  0  0  0  0  0  0  0  0  0  0
  148.1944  137.1035  154.1253 H   0  0  0  0  0  0  0  0  0  0  0  0
  146.2015  139.6792  151.4169 H   0  0  0  0  0  0  0  0  0  0  0  0
  147.9178  139.5801  151.7075 H   0  0  0  0  0  0  0  0  0  0  0  0
  147.8599  137.4193  151.0765 H   0  0  0  0  0  0  0  0  0  0  0  0
  145.9749  136.5614  152.5290 H   0  0  0  0  0  0  0  0  0  0  0  0
  145.4867  136.9867  154.1453 H   0  0  0  0  0  0  0  0  0  0  0  0
  144.4999  138.8233  152.5484 H   0  0  0  0  0  0  0  0  0  0  0  0
  145.4681  139.7430  154.5635 H   0  0  0  0  0  0  0  0  0  0  0  0
  146.9463  140.5714  153.9669 H   0  0  0  0  0  0  0  0  0  0  0  0
  1  2  1  0  0  0  0
  1 30  1  0  0  0  0
  1 31  1  0  0  0  0
  1 32  1  0  0  0  0
  2  3  1  0  0  0  0
  3  4  1  0  0  0  0
  3 33  1  0  0  0  0
  3 34  1  0  0  0  0
  4 28  1  0  0  0  0
  4 10  1  0  0  0  0
  4  5  1  0  0  0  0
  5  6  1  0  0  0  0
  5 35  1  0  0  0  0
  5 36  1  0  0  0  0
  6 29  1  0  0  0  0
  6  7  1  0  0  0  0
  6  9  1  0  0  0  0
  7  8  1  0  0  0  0
  8 37  1  0  0  0  0
  8 38  1  0  0  0  0
  8 39  1  0  0  0  0
  9 10  1  0  0  0  0
  9 40  1  0  0  0  0
  9 41  1  0  0  0  0
 10 11  1  0  0  0  0
 11 16  1  0  0  0  0
 11 12  2  0  0  0  0
 12 13  1  0  0  0  0
 13 14  2  0  0  0  0
 13 42  1  0  0  0  0
 14 15  1  0  0  0  0
 15 19  1  0  0  0  0
 15 16  2  0  0  0  0
 16 17  1  0  0  0  0
 17 18  2  0  0  0  0
 18 19  1  0  0  0  0
 18 43  1  0  0  0  0
 19 20  1  0  0  0  0
 20 27  1  0  0  0  0
 20 21  1  0  0  0  0
 20 44  1  0  0  0  0
 21 22  1  0  0  0  0
 21 45  1  0  0  0  0
 21 46  1  0  0  0  0
 22 23  1  0  0  0  0
 22 25  1  0  0  0  0
 22 27  1  0  0  0  0
 23 24  1  0  0  0  0
 23 47  1  0  0  0  0
 23 48  1  0  0  0  0
 24 49  1  0  0  0  0
 25 26  1  0  0  0  0
 25 50  1  0  0  0  0
 25 51  1  0  0  0  0
 26 52  1  0  0  0  0
 27 53  1  0  0  0  0
 27 54  1  0  0  0  0
M  END
> <s_m_source_file>
AV-unprocessed.smi

> <i_m_source_file_index>
241

> <i_lp_mmshare_version>
43012

> <i_f3d_flags>
0

> <s_epik_input>
W0NIM11PW0NIMl1bQ0BASF0xW0NIMl1bQ0BASF0oT1tDSDNdKVtDSDJdTjFjKG5bY0hdbjIpYyhjMjMpbltjSF1uM1tDSF0oW0NIMl00KVtDSDJdQzQoW0NIMl1bT0hdKVtDSDJdW09IXQ==

> <s_epik_cmdline>
J2VwaWtfcHl0aG9uJywgJy1waCcsICc3LjAnLCAnLXRuJywgJzgnLCAnLW1hJywgJzIwMCcsICctbWV0YWxfYmluZGluZycsICctaW1hZScsICc8aW5maWxlLm1hZT4nLCAnLW9tYWUnLCAnPG91dGZpbGUubWFlPic=

> <r_lp_tautomer_probability>
1

> <r_epik_Ionization_Penalty>
0.00568677

> <r_epik_Ionization_Penalty_Charging>
0

> <r_epik_Ionization_Penalty_Neutral>
0.00568677

> <r_epik_State_Penalty>
0.00400877

> <r_epik_Charging_Adjusted_Penalty>
0.00400877

> <i_epik_Tot_Q>
0

> <i_epik_Tot_abs_Q>
0

> <r_epik_Metal_State_Penalty>
-0

> <b_epik_Metal_Only>
0

> <s_lp_Force_Field>
OPLS_2005

> <r_lp_Energy>
60.5945

> <b_lp_Chiralities_Consistent>
1

> <s_lp_Variant>
AV-unprocessed.smi:241-1

> <Gold.Version>
5.8.1

> <Gold.Id.Protein>
6NUR|6NUR_protein|mol2

> <Gold.PLP.Fitness>
49.5221

> <Gold.PLP.PLP>
-42.3220

> <Gold.PLP.part.hbond>
-5.7288

> <Gold.PLP.part.metal>
0.0000

> <Gold.PLP.part.buried>
-3.8378

> <Gold.PLP.part.nonpolar>
-31.6479

> <Gold.PLP.part.repulsive>
0.1043

> <Gold.PLP.ligand.clash>
0.0000

> <Gold.PLP.ligand.torsion>
1.1760

> <Gold.PLP.Chemscore.Hbond>
2.9920

> <Gold.PLP.Chemscore.CHOScore>
0.0000

> <Gold.PLP.Chemscore.Metal>
0.0000

> <Gold.Chemscore.Hbonds>
donor molecule, donor type, donor heavy atom, donor atom, acceptor molecule, acceptor atom, score
      L1  H    24    49       P1  7948  1.00
      L1  H    26    52       P1 10175  0.96
      P1  H  7997  8010       L1     2  1.00

> <Gold.PLP.Chemscore.Internal.Correction>
0.5762

> <Gold.Rescore>
     Score         DG    S(hbond)    S(metal)    S(lipo)     H(rot)  DE(clash)    DE(int)     intcor
     13.32     -15.97       2.88        0.00      94.27       3.97       0.05       2.60       ----

> <Gold.Chemscore.Fitness>
13.3163

> <Gold.Chemscore.DG>
-15.9678

> <Gold.Chemscore.ZeroCoef>
-5.4800

> <Gold.Chemscore.Hbond>
2.8828

> <Gold.Chemscore.Metal>
0.0000

> <Gold.Chemscore.Lipo>
94.2689

> <Gold.Chemscore.Internal_Hbond>
0.0000

> <Gold.Chemscore.DEClash>
0.0524

> <Gold.Chemscore.DEInternal>
2.5991

> <Gold.Chemscore.Rot>
3.9727

> <Gold.Chemscore.Internal.Correction>
   9.000000E+99

> <Gold.Chemscore.Hbonds>
donor molecule, donor type, donor heavy atom, donor atom, acceptor molecule, acceptor atom, score
      L1  H    24    49       P1  7948  0.98
      L1  H    26    52       P1 10175  0.92
      P1  H  7997  8010       L1     2  0.23

> <Gold.Chemscore.Hbond.Weighted>
-9.6285

> <Gold.Chemscore.Metal.Weighted>
-0.0000

> <Gold.Chemscore.Lipo.Weighted>
-11.0295

> <Gold.Chemscore.Internal_Hbond.Weighted>
0.0000

> <Gold.Chemscore.DEClash.Weighted>
0.0524

> <Gold.Chemscore.DEInternal.Weighted>
2.5991

> <Gold.Chemscore.Rot.Weighted>
10.1702

> <Gold.Chemscore.Internal.Correction.Weighted>
   9.000000E+99

> <Gold.Protein.RotatedTorsions>
[ 6907 6896 6895 6894 ] final   58.74 input  -60.11 | X-H torsion
[ 7974 7965 7964 7962 ] final   26.59 input  175.53 | X-H torsion
[ 8008 7997 7996 7995 ] final  -12.10 input   59.86 | X-H torsion
[ 10167 10162 10161 10158 ] final  110.40 input  -65.29 | X-H torsion
[ 10718 10713 10712 10709 ] final   26.34 input   66.30 | X-H torsion
[ 10763 10752 10751 10750 ] final  108.71 input  -60.55 | X-H torsion
[ 11005 11000 10999 10996 ] final  161.67 input  -57.11 | X-H torsion

> <Gold.Protein.ActiveResidues>
 VAL166  LYS551  ARG553  GLY616  TRP617  ASP618  TYR619  PRO620  LYS621  CYS622 
 ASP623  PHE694  ASN695  SER759  ASP760  ASP761  ALA762  ILE779  LEU786  VAL792 
 PHE793  MET794  SER795  GLU796  ALA797  LYS798  CYS799  TRP800  GLU811  SER814 

> <Gold.Protein.RotatedAtoms>
  152.3852  134.6529  160.0128 H   0  0  0  0  0  0  0  0  0  0  0  0  # atno 6907 bound_to 6896
  151.6780  133.3307  159.3220 H   0  0  0  0  0  0  0  0  0  0  0  0  # atno 6908 bound_to 6896
  150.7779  134.6742  159.6453 H   0  0  0  0  0  0  0  0  0  0  0  0  # atno 6909 bound_to 6896
  146.1829  139.7307  142.8887 H   0  0  0  0  0  0  0  0  0  0  0  0  # atno 7974 bound_to 7965
  154.5407  140.2285  155.8646 H   0  0  0  0  0  0  0  0  0  0  0  0  # atno 8008 bound_to 7997
  156.1855  140.3090  155.9193 H   0  0  0  0  0  0  0  0  0  0  0  0  # atno 8009 bound_to 7997
  155.3264  140.0443  157.3032 H   0  0  0  0  0  0  0  0  0  0  0  0  # atno 8010 bound_to 7997
  139.6691  144.7126  151.1721 H   0  0  0  0  0  0  0  0  0  0  0  0  # atno 10167 bound_to 10162
  157.2055  130.6910  149.6206 H   0  0  0  0  0  0  0  0  0  0  0  0  # atno 10718 bound_to 10713
  153.4245  135.3803  155.2132 H   0  0  0  0  0  0  0  0  0  0  0  0  # atno 10763 bound_to 10752
  154.8746  135.3825  154.4343 H   0  0  0  0  0  0  0  0  0  0  0  0  # atno 10764 bound_to 10752
  153.4867  135.7088  153.5970 H   0  0  0  0  0  0  0  0  0  0  0  0  # atno 10765 bound_to 10752
  140.2181  134.8217  157.3192 H   0  0  0  0  0  0  0  0  0  0  0  0  # atno 11005 bound_to 11000
  145.4023  141.0386  143.3063 LP  0  0  0  0  0  0  0  0  0  0  0  0  # atno 17320 bound_to 7965
  144.8346  139.5571  143.6928 LP  0  0  0  0  0  0  0  0  0  0  0  0  # atno 17321 bound_to 7965
  140.7611  143.5872  150.8834 LP  0  0  0  0  0  0  0  0  0  0  0  0  # atno 17342 bound_to 10162
  139.9536  143.6244  152.3022 LP  0  0  0  0  0  0  0  0  0  0  0  0  # atno 17343 bound_to 10162
  155.9696  130.4568  150.5940 LP  0  0  0  0  0  0  0  0  0  0  0  0  # atno 17370 bound_to 10713
  157.3725  131.0768  151.1546 LP  0  0  0  0  0  0  0  0  0  0  0  0  # atno 17371 bound_to 10713
  140.1879  134.4408  155.7733 LP  0  0  0  0  0  0  0  0  0  0  0  0  # atno 17394 bound_to 11000
  141.2224  133.7013  156.7977 LP  0  0  0  0  0  0  0  0  0  0  0  0  # atno 17395 bound_to 11000

$$$$
