AV-unprocessed.smi:3028|AV-procd|sdf|11520|dock3
  -GOLD-   2272016453D 1   1.00000     0.00000
 Structure written by MMmdl.
 48 49  0  0  0  0  0  0  0  0  2 V2000
  144.2813  132.3487  149.1305 C   0  0  0  0  0  0  0  0  0  0  0  0
  144.5012  133.1748  150.3650 C   0  0  0  0  0  0  0  0  0  0  0  0
  145.3368  132.8773  151.4786 C   0  0  0  0  0  0  0  0  0  0  0  0
  145.3084  133.8183  152.4078 N   0  0  0  0  0  0  0  0  0  0  0  0
  144.4567  134.7495  151.9236 N   0  0  0  0  0  0  0  0  0  0  0  0
  144.1688  135.9529  152.6940 C   0  0  1  0  0  0  0  0  0  0  0  0
  143.2804  135.6026  153.9037 C   0  0  0  0  0  0  0  0  0  0  0  0
  145.4575  136.7141  153.1052 C   0  0  1  0  0  0  0  0  0  0  0  0
  146.3774  135.8874  154.0279 C   0  0  0  0  0  0  0  0  0  0  0  0
  146.1986  137.1295  151.8928 N   0  3  0  0  0  0  0  0  0  0  0  0
  146.4555  138.5810  151.7710 C   0  0  0  0  0  0  0  0  0  0  0  0
  147.2328  139.1327  152.9743 C   0  0  0  0  0  0  0  0  0  0  0  0
  146.7586  140.0474  153.6464 O   0  0  0  0  0  0  0  0  0  0  0  0
  148.4299  138.6051  153.2811 N   0  0  0  0  0  0  0  0  0  0  0  0
  149.3211  138.9841  154.3759 C   0  0  0  0  0  0  0  0  0  0  0  0
  149.3616  140.5149  154.4990 C   0  0  0  0  0  0  0  0  0  0  0  0
  150.4046  140.9505  155.5411 C   0  0  0  0  0  0  0  0  0  0  0  0
  151.6829  140.4282  155.1955 O   0  0  0  0  0  0  0  0  0  0  0  0
  151.7179  139.0053  155.1877 C   0  0  0  0  0  0  0  0  0  0  0  0
  150.7463  138.4599  154.1280 C   0  0  0  0  0  0  0  0  0  0  0  0
  143.9540  134.3830  150.6921 C   0  0  0  0  0  0  0  0  0  0  0  0
  144.5785  131.3105  149.2796 H   0  0  0  0  0  0  0  0  0  0  0  0
  144.8555  132.7292  148.2856 H   0  0  0  0  0  0  0  0  0  0  0  0
  143.2333  132.3418  148.8307 H   0  0  0  0  0  0  0  0  0  0  0  0
  145.9595  132.0093  151.6376 H   0  0  0  0  0  0  0  0  0  0  0  0
  143.5894  136.6066  152.0398 H   0  0  0  0  0  0  0  0  0  0  0  0
  142.9422  136.4970  154.4270 H   0  0  0  0  0  0  0  0  0  0  0  0
  143.8108  134.9789  154.6244 H   0  0  0  0  0  0  0  0  0  0  0  0
  142.3900  135.0577  153.5886 H   0  0  0  0  0  0  0  0  0  0  0  0
  145.1554  137.6139  153.6441 H   0  0  0  0  0  0  0  0  0  0  0  0
  145.8840  135.6249  154.9636 H   0  0  0  0  0  0  0  0  0  0  0  0
  147.2789  136.4369  154.2975 H   0  0  0  0  0  0  0  0  0  0  0  0
  146.6878  134.9595  153.5462 H   0  0  0  0  0  0  0  0  0  0  0  0
  147.0760  136.6306  151.8539 H   0  0  0  0  0  0  0  0  0  0  0  0
  147.0305  138.7590  150.8617 H   0  0  0  0  0  0  0  0  0  0  0  0
  145.5111  139.1160  151.6792 H   0  0  0  0  0  0  0  0  0  0  0  0
  148.7589  137.8558  152.6887 H   0  0  0  0  0  0  0  0  0  0  0  0
  148.9532  138.5853  155.3219 H   0  0  0  0  0  0  0  0  0  0  0  0
  149.6149  140.9594  153.5353 H   0  0  0  0  0  0  0  0  0  0  0  0
  148.3785  140.9001  154.7719 H   0  0  0  0  0  0  0  0  0  0  0  0
  150.4664  142.0382  155.5764 H   0  0  0  0  0  0  0  0  0  0  0  0
  150.1202  140.6158  156.5399 H   0  0  0  0  0  0  0  0  0  0  0  0
  152.7344  138.6800  154.9658 H   0  0  0  0  0  0  0  0  0  0  0  0
  151.4700  138.6199  156.1779 H   0  0  0  0  0  0  0  0  0  0  0  0
  150.7646  137.3702  154.1362 H   0  0  0  0  0  0  0  0  0  0  0  0
  151.0881  138.7686  153.1388 H   0  0  0  0  0  0  0  0  0  0  0  0
  143.2548  135.0061  150.1539 H   0  0  0  0  0  0  0  0  0  0  0  0
  145.6483  136.8626  151.0889 H   0  0  0  0  0  0  0  0  0  0  0  0
  1  2  1  0  0  0  0
  1 22  1  0  0  0  0
  1 23  1  0  0  0  0
  1 24  1  0  0  0  0
  2 21  2  0  0  0  0
  2  3  1  0  0  0  0
  3  4  2  0  0  0  0
  3 25  1  0  0  0  0
  4  5  1  0  0  0  0
  5  6  1  0  0  0  0
  5 21  1  0  0  0  0
  6  7  1  0  0  0  0
  6  8  1  0  0  0  0
  6 26  1  0  0  0  0
  7 27  1  0  0  0  0
  7 28  1  0  0  0  0
  7 29  1  0  0  0  0
  8  9  1  0  0  0  0
  8 10  1  0  0  0  0
  8 30  1  0  0  0  0
  9 31  1  0  0  0  0
  9 32  1  0  0  0  0
  9 33  1  0  0  0  0
 10 11  1  0  0  0  0
 10 34  1  0  0  0  0
 10 48  1  0  0  0  0
 11 12  1  0  0  0  0
 11 35  1  0  0  0  0
 11 36  1  0  0  0  0
 12 13  2  0  0  0  0
 12 14  1  0  0  0  0
 14 15  1  0  0  0  0
 14 37  1  0  0  0  0
 15 20  1  0  0  0  0
 15 16  1  0  0  0  0
 15 38  1  0  0  0  0
 16 17  1  0  0  0  0
 16 39  1  0  0  0  0
 16 40  1  0  0  0  0
 17 18  1  0  0  0  0
 17 41  1  0  0  0  0
 17 42  1  0  0  0  0
 18 19  1  0  0  0  0
 19 20  1  0  0  0  0
 19 43  1  0  0  0  0
 19 44  1  0  0  0  0
 20 45  1  0  0  0  0
 20 46  1  0  0  0  0
 21 47  1  0  0  0  0
M  CHG  1  10   1
M  END
> <s_m_source_file>
AV-unprocessed.smi

> <i_m_source_file_index>
3028

> <i_lp_mmshare_version>
43012

> <i_f3d_flags>
0

> <s_epik_input>
W0NIM11jMVtjSF1ubihbY0hdMSlbQ0BIXShbQ0gzXSlbQ0BIXShbQ0gzXSlbTkhdW0NIMl1DKD1PKVtOSF1bQ0hdMltDSDJdW0NIMl1PW0NIMl1bQ0gyXTI=

> <s_epik_cmdline>
J2VwaWtfcHl0aG9uJywgJy1waCcsICc3LjAnLCAnLXRuJywgJzgnLCAnLW1hJywgJzIwMCcsICctbWV0YWxfYmluZGluZycsICctaW1hZScsICc8aW5maWxlLm1hZT4nLCAnLW9tYWUnLCAnPG91dGZpbGUubWFlPic=

> <r_lp_tautomer_probability>
1

> <r_epik_Ionization_Penalty>
0.151514

> <r_epik_Ionization_Penalty_Charging>
0.151494

> <r_epik_Ionization_Penalty_Neutral>
1.95502e-05

> <r_epik_State_Penalty>
0.141395

> <r_epik_Charging_Adjusted_Penalty>
0.292889

> <i_epik_Tot_Q>
1

> <i_epik_Tot_abs_Q>
1

> <r_epik_Metal_State_Penalty>
0.141632

> <b_epik_Metal_Only>
0

> <s_lp_Force_Field>
OPLS_2005

> <r_lp_Energy>
16.118

> <b_lp_Chiralities_Consistent>
1

> <s_lp_Variant>
AV-unprocessed.smi:3028-4

> <Gold.Version>
5.8.1

> <Gold.Id.Protein>
6NUR|6NUR_protein|mol2

> <Gold.PLP.Fitness>
52.3256

> <Gold.PLP.PLP>
-40.3132

> <Gold.PLP.part.hbond>
-4.0000

> <Gold.PLP.part.metal>
0.0000

> <Gold.PLP.part.buried>
-3.4338

> <Gold.PLP.part.nonpolar>
-33.1391

> <Gold.PLP.part.repulsive>
0.3920

> <Gold.PLP.ligand.clash>
0.0000

> <Gold.PLP.ligand.torsion>
1.1731

> <Gold.PLP.Chemscore.Hbond>
3.8000

> <Gold.PLP.Chemscore.CHOScore>
0.9174

> <Gold.PLP.Chemscore.Metal>
0.0000

> <Gold.Chemscore.Hbonds>
donor molecule, donor type, donor heavy atom, donor atom, acceptor molecule, acceptor atom, score
      L1  H    10    34       P1  7948  2.00
      L1  H    14    37       P1  7948  1.00
      P1  H  7989  7998       L1    18  0.69
      L1  C    21    47       P1 10186  0.94

> <Gold.PLP.Chemscore.Internal.Correction>
0.2065

> <Gold.Rescore>
     Score         DG    S(hbond)    S(metal)    S(lipo)     H(rot)  DE(clash)    DE(int)     intcor
     14.38     -18.17       2.08        0.00      92.57       1.99       0.06       3.73       ----

> <Gold.Chemscore.Fitness>
14.3784

> <Gold.Chemscore.DG>
-18.1661

> <Gold.Chemscore.ZeroCoef>
-5.4800

> <Gold.Chemscore.Hbond>
2.0804

> <Gold.Chemscore.Metal>
0.0000

> <Gold.Chemscore.Lipo>
92.5749

> <Gold.Chemscore.Internal_Hbond>
0.0000

> <Gold.Chemscore.DEClash>
0.0552

> <Gold.Chemscore.DEInternal>
3.7325

> <Gold.Chemscore.Rot>
1.9897

> <Gold.Chemscore.Internal.Correction>
   9.000000E+99

> <Gold.Chemscore.Hbonds>
donor molecule, donor type, donor heavy atom, donor atom, acceptor molecule, acceptor atom, score
      L1  H    10    34       P1  7948  1.00
      L1  H    14    37       P1  7948  1.00
      P1  H  7989  7998       L1    18  0.06

> <Gold.Chemscore.Hbond.Weighted>
-6.9484

> <Gold.Chemscore.Metal.Weighted>
-0.0000

> <Gold.Chemscore.Lipo.Weighted>
-10.8313

> <Gold.Chemscore.Internal_Hbond.Weighted>
0.0000

> <Gold.Chemscore.DEClash.Weighted>
0.0552

> <Gold.Chemscore.DEInternal.Weighted>
3.7325

> <Gold.Chemscore.Rot.Weighted>
5.0936

> <Gold.Chemscore.Internal.Correction.Weighted>
   9.000000E+99

> <Gold.Protein.RotatedTorsions>
[ 6907 6896 6895 6894 ] final -149.05 input  -60.11 | X-H torsion
[ 7974 7965 7964 7962 ] final -138.76 input  175.53 | X-H torsion
[ 8008 7997 7996 7995 ] final  117.00 input   59.86 | X-H torsion
[ 10167 10162 10161 10158 ] final  160.73 input  -65.29 | X-H torsion
[ 10718 10713 10712 10709 ] final  -43.90 input   66.30 | X-H torsion
[ 10763 10752 10751 10750 ] final  133.29 input  -60.55 | X-H torsion
[ 11005 11000 10999 10996 ] final  170.12 input  -57.11 | X-H torsion

> <Gold.Protein.ActiveResidues>
 VAL166  LYS551  ARG553  GLY616  TRP617  ASP618  TYR619  PRO620  LYS621  CYS622 
 ASP623  PHE694  ASN695  SER759  ASP760  ASP761  ALA762  ILE779  LEU786  VAL792 
 PHE793  MET794  SER795  GLU796  ALA797  LYS798  CYS799  TRP800  GLU811  SER814 

> <Gold.Protein.RotatedAtoms>
  151.1786  133.4739  159.2593 H   0  0  0  0  0  0  0  0  0  0  0  0  # atno 6907 bound_to 6896
  151.1282  135.0116  159.8580 H   0  0  0  0  0  0  0  0  0  0  0  0  # atno 6908 bound_to 6896
  152.5459  134.1691  159.8642 H   0  0  0  0  0  0  0  0  0  0  0  0  # atno 6909 bound_to 6896
  144.8732  140.6398  143.5253 H   0  0  0  0  0  0  0  0  0  0  0  0  # atno 7974 bound_to 7965
  156.2470  140.2905  156.0610 H   0  0  0  0  0  0  0  0  0  0  0  0  # atno 8008 bound_to 7997
  155.1775  140.0403  157.2893 H   0  0  0  0  0  0  0  0  0  0  0  0  # atno 8009 bound_to 7997
  154.6282  140.2493  155.7472 H   0  0  0  0  0  0  0  0  0  0  0  0  # atno 8010 bound_to 7997
  139.4842  144.4606  151.8710 H   0  0  0  0  0  0  0  0  0  0  0  0  # atno 10167 bound_to 10162
  156.2442  130.4182  149.8725 H   0  0  0  0  0  0  0  0  0  0  0  0  # atno 10718 bound_to 10713
  153.8047  135.3137  155.3394 H   0  0  0  0  0  0  0  0  0  0  0  0  # atno 10763 bound_to 10752
  154.8075  135.4688  154.0433 H   0  0  0  0  0  0  0  0  0  0  0  0  # atno 10764 bound_to 10752
  153.1792  135.6891  153.8589 H   0  0  0  0  0  0  0  0  0  0  0  0  # atno 10765 bound_to 10752
  140.3050  134.7564  157.3946 H   0  0  0  0  0  0  0  0  0  0  0  0  # atno 11005 bound_to 11000
  145.4092  139.1583  143.4135 LP  0  0  0  0  0  0  0  0  0  0  0  0  # atno 17320 bound_to 7965
  146.2944  140.4194  142.8727 LP  0  0  0  0  0  0  0  0  0  0  0  0  # atno 17321 bound_to 7965
  140.4068  144.2421  150.5890 LP  0  0  0  0  0  0  0  0  0  0  0  0  # atno 17342 bound_to 10162
  140.5005  143.2319  151.8686 LP  0  0  0  0  0  0  0  0  0  0  0  0  # atno 17343 bound_to 10162
  156.6296  130.8660  151.3492 LP  0  0  0  0  0  0  0  0  0  0  0  0  # atno 17370 bound_to 10713
  157.7188  130.9531  150.1357 LP  0  0  0  0  0  0  0  0  0  0  0  0  # atno 17371 bound_to 10713
  140.1075  134.5390  155.8296 LP  0  0  0  0  0  0  0  0  0  0  0  0  # atno 17394 bound_to 11000
  141.2120  133.6714  156.6627 LP  0  0  0  0  0  0  0  0  0  0  0  0  # atno 17395 bound_to 11000

$$$$
