AV-unprocessed.smi:3187|AV-procd|sdf|12182|dock10
  -GOLD-   2272018 23D 1   1.00000     0.00000
 Structure written by MMmdl.
 42 43  0  0  0  0  0  0  0  0  3 V2000
  153.1120  141.0158  160.0580 C   0  0  0  0  0  0  0  0  0  0  0  0
  152.6360  142.4562  159.9774 C   0  0  0  0  0  0  0  0  0  0  0  0
  152.5795  143.2362  161.0747 C   0  0  0  0  0  0  0  0  0  0  0  0
  152.1584  144.6942  161.0774 C   0  0  0  0  0  0  0  0  0  0  0  0
  151.5893  145.1559  159.7265 C   0  0  0  0  0  0  0  0  0  0  0  0
  152.3545  144.5278  158.5478 C   0  0  2  0  0  0  0  0  0  0  0  0
  151.9685  145.1760  157.2076 C   0  0  0  0  0  0  0  0  0  0  0  0
  152.2714  142.9709  158.5824 C   0  0  2  0  0  0  0  0  0  0  0  0
  150.9047  142.3850  158.1429 C   0  0  0  0  0  0  0  0  0  0  0  0
  150.7042  142.4555  156.6813 N   0  3  0  0  0  0  0  0  0  0  0  0
  149.8791  141.3621  156.1317 C   0  0  0  0  0  0  0  0  0  0  0  0
  149.4050  141.6902  154.7087 C   0  0  0  0  0  0  0  0  0  0  0  0
  148.7649  140.5395  154.0665 N   0  0  0  0  0  0  0  0  0  0  0  0
  147.5197  140.4957  153.4927 C   0  0  0  0  0  0  0  0  0  0  0  0
  147.3505  139.2185  153.0229 C   0  0  0  0  0  0  0  0  0  0  0  0
  148.4981  138.5371  153.3300 N   0  3  0  0  0  0  0  0  0  0  0  0
  149.3570  139.3419  153.9649 C   0  0  0  0  0  0  0  0  0  0  0  0
  153.9791  140.8679  159.4138 H   0  0  0  0  0  0  0  0  0  0  0  0
  152.3325  140.3207  159.7492 H   0  0  0  0  0  0  0  0  0  0  0  0
  153.4043  140.7526  161.0752 H   0  0  0  0  0  0  0  0  0  0  0  0
  152.8730  142.8328  162.0331 H   0  0  0  0  0  0  0  0  0  0  0  0
  151.4281  144.8610  161.8697 H   0  0  0  0  0  0  0  0  0  0  0  0
  153.0374  145.2883  161.3293 H   0  0  0  0  0  0  0  0  0  0  0  0
  150.5329  144.8950  159.6654 H   0  0  0  0  0  0  0  0  0  0  0  0
  151.6324  146.2445  159.6737 H   0  0  0  0  0  0  0  0  0  0  0  0
  153.4064  144.7796  158.6956 H   0  0  0  0  0  0  0  0  0  0  0  0
  150.8985  145.1024  157.0138 H   0  0  0  0  0  0  0  0  0  0  0  0
  152.5025  144.7151  156.3763 H   0  0  0  0  0  0  0  0  0  0  0  0
  152.2210  146.2369  157.2065 H   0  0  0  0  0  0  0  0  0  0  0  0
  153.0378  142.5891  157.9058 H   0  0  0  0  0  0  0  0  0  0  0  0
  150.8287  141.3340  158.4195 H   0  0  0  0  0  0  0  0  0  0  0  0
  150.0869  142.8929  158.6538 H   0  0  0  0  0  0  0  0  0  0  0  0
  150.2528  143.3339  156.4691 H   0  0  0  0  0  0  0  0  0  0  0  0
  150.4585  140.4378  156.1311 H   0  0  0  0  0  0  0  0  0  0  0  0
  149.0184  141.2037  156.7832 H   0  0  0  0  0  0  0  0  0  0  0  0
  148.6817  142.5071  154.7227 H   0  0  0  0  0  0  0  0  0  0  0  0
  150.2401  142.0106  154.0838 H   0  0  0  0  0  0  0  0  0  0  0  0
  146.8627  141.3534  153.4598 H   0  0  0  0  0  0  0  0  0  0  0  0
  146.5216  138.7562  152.5063 H   0  0  0  0  0  0  0  0  0  0  0  0
  150.3357  139.0746  154.3231 H   0  0  0  0  0  0  0  0  0  0  0  0
  151.6094  142.4421  156.2329 H   0  0  0  0  0  0  0  0  0  0  0  0
  148.6741  137.5650  153.1070 H   0  0  0  0  0  0  0  0  0  0  0  0
  1  2  1  0  0  0  0
  1 18  1  0  0  0  0
  1 19  1  0  0  0  0
  1 20  1  0  0  0  0
  2  8  1  0  0  0  0
  2  3  2  0  0  0  0
  3  4  1  0  0  0  0
  3 21  1  0  0  0  0
  4  5  1  0  0  0  0
  4 22  1  0  0  0  0
  4 23  1  0  0  0  0
  5  6  1  0  0  0  0
  5 24  1  0  0  0  0
  5 25  1  0  0  0  0
  6  7  1  0  0  0  0
  6  8  1  0  0  0  0
  6 26  1  0  0  0  0
  7 27  1  0  0  0  0
  7 28  1  0  0  0  0
  7 29  1  0  0  0  0
  8  9  1  0  0  0  0
  8 30  1  0  0  0  0
  9 10  1  0  0  0  0
  9 31  1  0  0  0  0
  9 32  1  0  0  0  0
 10 11  1  0  0  0  0
 10 33  1  0  0  0  0
 10 41  1  0  0  0  0
 11 12  1  0  0  0  0
 11 34  1  0  0  0  0
 11 35  1  0  0  0  0
 12 13  1  0  0  0  0
 12 36  1  0  0  0  0
 12 37  1  0  0  0  0
 13 17  1  0  0  0  0
 13 14  1  0  0  0  0
 14 15  2  0  0  0  0
 14 38  1  0  0  0  0
 15 16  1  0  0  0  0
 15 39  1  0  0  0  0
 16 17  2  0  0  0  0
 16 42  1  0  0  0  0
 17 40  1  0  0  0  0
M  CHG  1  10   1
M  CHG  1  16   1
M  END
> <s_m_source_file>
AV-unprocessed.smi

> <i_m_source_file_index>
3187

> <i_lp_mmshare_version>
43012

> <i_f3d_flags>
0

> <s_epik_input>
W0NIM11DMT1bQ0hdW0NIMl1bQ0gyXVtDQEBIXShbQ0gzXSlbQ0BIXTFbQ0gyXVtOSF1bQ0gyXVtDSDJdbjJbY0hdW2NIXW5bY0hdMg==

> <s_epik_cmdline>
J2VwaWtfcHl0aG9uJywgJy1waCcsICc3LjAnLCAnLXRuJywgJzgnLCAnLW1hJywgJzIwMCcsICctbWV0YWxfYmluZGluZycsICctaW1hZScsICc8aW5maWxlLm1hZT4nLCAnLW9tYWUnLCAnPG91dGZpbGUubWFlPic=

> <r_lp_tautomer_probability>
1

> <r_epik_Ionization_Penalty>
1.51066

> <r_epik_Ionization_Penalty_Charging>
0.0026721

> <r_epik_Ionization_Penalty_Neutral>
1.50798

> <r_epik_State_Penalty>
1.12593

> <r_epik_Charging_Adjusted_Penalty>
1.12861

> <i_epik_Tot_Q>
2

> <i_epik_Tot_abs_Q>
2

> <r_epik_Metal_State_Penalty>
5.12155

> <b_epik_Metal_Only>
0

> <s_lp_Force_Field>
OPLS_2005

> <r_lp_Energy>
26.0631

> <b_lp_Chiralities_Consistent>
1

> <s_lp_Variant>
AV-unprocessed.smi:3187-8

> <Gold.Version>
5.8.1

> <Gold.Id.Protein>
6NUR|6NUR_protein|mol2

> <Gold.PLP.Fitness>
55.7194

> <Gold.PLP.PLP>
-44.5822

> <Gold.PLP.part.hbond>
-3.0000

> <Gold.PLP.part.metal>
0.0000

> <Gold.PLP.part.buried>
-0.3562

> <Gold.PLP.part.nonpolar>
-40.7607

> <Gold.PLP.part.repulsive>
0.0960

> <Gold.PLP.ligand.clash>
0.0000

> <Gold.PLP.ligand.torsion>
0.4512

> <Gold.PLP.Chemscore.Hbond>
4.0000

> <Gold.PLP.Chemscore.CHOScore>
0.0000

> <Gold.PLP.Chemscore.Metal>
0.0000

> <Gold.Chemscore.Hbonds>
donor molecule, donor type, donor heavy atom, donor atom, acceptor molecule, acceptor atom, score
      L1  H    10    33       P1  8028  1.62
      L1  H    16    42       P1  7948  1.98

> <Gold.PLP.Chemscore.Internal.Correction>
0.0396

> <Gold.Rescore>
     Score         DG    S(hbond)    S(metal)    S(lipo)     H(rot)  DE(clash)    DE(int)     intcor
     19.36     -21.75       1.83        0.00     129.95       1.97       1.89       0.50       ----

> <Gold.Chemscore.Fitness>
19.3595

> <Gold.Chemscore.DG>
-21.7524

> <Gold.Chemscore.ZeroCoef>
-5.4800

> <Gold.Chemscore.Hbond>
1.8321

> <Gold.Chemscore.Metal>
0.0000

> <Gold.Chemscore.Lipo>
129.9547

> <Gold.Chemscore.Internal_Hbond>
0.0000

> <Gold.Chemscore.DEClash>
1.8914

> <Gold.Chemscore.DEInternal>
0.5016

> <Gold.Chemscore.Rot>
1.9732

> <Gold.Chemscore.Internal.Correction>
   9.000000E+99

> <Gold.Chemscore.Hbonds>
donor molecule, donor type, donor heavy atom, donor atom, acceptor molecule, acceptor atom, score
      L1  H    10    33       P1  8028  0.80
      L1  H    16    42       P1  7948  0.93

> <Gold.Chemscore.Hbond.Weighted>
-6.1191

> <Gold.Chemscore.Metal.Weighted>
-0.0000

> <Gold.Chemscore.Lipo.Weighted>
-15.2047

> <Gold.Chemscore.Internal_Hbond.Weighted>
0.0000

> <Gold.Chemscore.DEClash.Weighted>
1.8914

> <Gold.Chemscore.DEInternal.Weighted>
0.5016

> <Gold.Chemscore.Rot.Weighted>
5.0514

> <Gold.Chemscore.Internal.Correction.Weighted>
   9.000000E+99

> <Gold.Protein.RotatedTorsions>
[ 6907 6896 6895 6894 ] final  -72.98 input  -60.11 | X-H torsion
[ 7974 7965 7964 7962 ] final   91.43 input  175.53 | X-H torsion
[ 8008 7997 7996 7995 ] final -111.74 input   59.86 | X-H torsion
[ 10167 10162 10161 10158 ] final   25.71 input  -65.29 | X-H torsion
[ 10718 10713 10712 10709 ] final  167.06 input   66.30 | X-H torsion
[ 10763 10752 10751 10750 ] final -151.89 input  -60.55 | X-H torsion
[ 11005 11000 10999 10996 ] final  126.84 input  -57.11 | X-H torsion

> <Gold.Protein.ActiveResidues>
 VAL166  LYS551  ARG553  GLY616  TRP617  ASP618  TYR619  PRO620  LYS621  CYS622 
 ASP623  PHE694  ASN695  SER759  ASP760  ASP761  ALA762  ILE779  LEU786  VAL792 
 PHE793  MET794  SER795  GLU796  ALA797  LYS798  CYS799  TRP800  GLU811  SER814 

> <Gold.Protein.RotatedAtoms>
  150.7148  134.5084  159.5594 H   0  0  0  0  0  0  0  0  0  0  0  0  # atno 6907 bound_to 6896
  152.2666  134.7975  160.0430 H   0  0  0  0  0  0  0  0  0  0  0  0  # atno 6908 bound_to 6896
  151.8670  133.3433  159.3759 H   0  0  0  0  0  0  0  0  0  0  0  0  # atno 6909 bound_to 6896
  145.5057  139.2276  143.2752 H   0  0  0  0  0  0  0  0  0  0  0  0  # atno 7974 bound_to 7965
  154.9944  140.0395  157.2333 H   0  0  0  0  0  0  0  0  0  0  0  0  # atno 8008 bound_to 7997
  154.7600  140.2782  155.6199 H   0  0  0  0  0  0  0  0  0  0  0  0  # atno 8009 bound_to 7997
  156.2902  140.2630  156.2375 H   0  0  0  0  0  0  0  0  0  0  0  0  # atno 8010 bound_to 7997
  140.5083  144.0202  150.6361 H   0  0  0  0  0  0  0  0  0  0  0  0  # atno 10167 bound_to 10162
  157.0569  131.0329  151.2661 H   0  0  0  0  0  0  0  0  0  0  0  0  # atno 10718 bound_to 10713
  154.8029  135.3249  154.7504 H   0  0  0  0  0  0  0  0  0  0  0  0  # atno 10763 bound_to 10752
  153.8169  135.6891  153.4837 H   0  0  0  0  0  0  0  0  0  0  0  0  # atno 10764 bound_to 10752
  153.1757  135.4606  154.9905 H   0  0  0  0  0  0  0  0  0  0  0  0  # atno 10765 bound_to 10752
  139.9477  134.9627  156.8767 H   0  0  0  0  0  0  0  0  0  0  0  0  # atno 11005 bound_to 11000
  146.2198  140.5861  142.9022 LP  0  0  0  0  0  0  0  0  0  0  0  0  # atno 17320 bound_to 7965
  144.7755  140.5730  143.6641 LP  0  0  0  0  0  0  0  0  0  0  0  0  # atno 17321 bound_to 7965
  140.3517  143.2959  152.0479 LP  0  0  0  0  0  0  0  0  0  0  0  0  # atno 17342 bound_to 10162
  139.4889  144.6369  151.6958 LP  0  0  0  0  0  0  0  0  0  0  0  0  # atno 17343 bound_to 10162
  157.4986  130.7866  149.7581 LP  0  0  0  0  0  0  0  0  0  0  0  0  # atno 17370 bound_to 10713
  155.9990  130.3891  150.2680 LP  0  0  0  0  0  0  0  0  0  0  0  0  # atno 17371 bound_to 10713
  140.5795  134.0366  155.7459 LP  0  0  0  0  0  0  0  0  0  0  0  0  # atno 17394 bound_to 11000
  141.1132  133.9583  157.2872 LP  0  0  0  0  0  0  0  0  0  0  0  0  # atno 17395 bound_to 11000

$$$$
