AV-unprocessed.smi:1202|AV-procd|sdf|5029|dock3
  -GOLD-   22720 4 53D 1   1.00000     0.00000
 Structure written by MMmdl.
 45 46  0  0  0  0  0  0  0  0  2 V2000
  147.7795  133.0867  152.4515 C   0  0  0  0  0  0  0  0  0  0  0  0
  147.1026  134.3046  152.0329 N   0  0  0  0  0  0  0  0  0  0  0  0
  145.9098  134.3316  151.4220 C   0  0  0  0  0  0  0  0  0  0  0  0
  145.2625  133.3171  151.1602 O   0  0  0  0  0  0  0  0  0  0  0  0
  145.3609  135.7184  151.0706 C   0  0  0  0  0  0  0  0  0  0  0  0
  146.1861  136.8274  151.6155 N   0  3  2  0  0  0  0  0  0  0  0  0
  146.0732  136.9700  153.0921 C   0  0  0  0  0  0  0  0  0  0  0  0
  147.0509  138.0315  153.6224 C   0  0  0  0  0  0  0  0  0  0  0  0
  146.8267  139.3884  152.9297 C   0  0  1  0  0  0  0  0  0  0  0  0
  147.8203  140.3666  153.3613 N   0  0  0  0  0  0  0  0  0  0  0  0
  147.8945  140.9047  154.5883 C   0  0  0  0  0  0  0  0  0  0  0  0
  147.1288  140.6010  155.5042 O   0  0  0  0  0  0  0  0  0  0  0  0
  149.0202  141.9256  154.8072 C   0  0  0  0  0  0  0  0  0  0  0  0
  149.9186  141.5751  155.9201 N   0  0  0  0  0  0  0  0  0  0  0  0
  149.7668  142.2979  157.1203 C   0  0  0  0  0  0  0  0  0  0  0  0
  150.5329  142.0568  158.1959 C   0  0  0  0  0  0  0  0  0  0  0  0
  151.5361  141.0228  158.1018 C   0  0  0  0  0  0  0  0  0  0  0  0
  151.6923  140.3279  156.9575 C   0  0  0  0  0  0  0  0  0  0  0  0
  150.8589  140.5902  155.7783 C   0  0  0  0  0  0  0  0  0  0  0  0
  150.9970  139.9633  154.7275 O   0  0  0  0  0  0  0  0  0  0  0  0
  146.9041  139.2065  151.4054 C   0  0  0  0  0  0  0  0  0  0  0  0
  145.9320  138.1167  150.9235 C   0  0  0  0  0  0  0  0  0  0  0  0
  148.7206  133.3344  152.9424 H   0  0  0  0  0  0  0  0  0  0  0  0
  147.9998  132.4505  151.5932 H   0  0  0  0  0  0  0  0  0  0  0  0
  147.1665  132.5223  153.1552 H   0  0  0  0  0  0  0  0  0  0  0  0
  147.5707  135.1795  152.2220 H   0  0  0  0  0  0  0  0  0  0  0  0
  145.3407  135.7763  149.9815 H   0  0  0  0  0  0  0  0  0  0  0  0
  144.3280  135.8184  151.4086 H   0  0  0  0  0  0  0  0  0  0  0  0
  145.0493  137.2403  153.3555 H   0  0  0  0  0  0  0  0  0  0  0  0
  146.2818  136.0174  153.5800 H   0  0  0  0  0  0  0  0  0  0  0  0
  146.9286  138.1329  154.7014 H   0  0  0  0  0  0  0  0  0  0  0  0
  148.0757  137.6946  153.4582 H   0  0  0  0  0  0  0  0  0  0  0  0
  145.8299  139.7575  153.1799 H   0  0  0  0  0  0  0  0  0  0  0  0
  148.4933  140.6699  152.6721 H   0  0  0  0  0  0  0  0  0  0  0  0
  149.5806  142.0168  153.8757 H   0  0  0  0  0  0  0  0  0  0  0  0
  148.5871  142.9134  154.9768 H   0  0  0  0  0  0  0  0  0  0  0  0
  148.9990  143.0579  157.1068 H   0  0  0  0  0  0  0  0  0  0  0  0
  150.4045  142.6238  159.1063 H   0  0  0  0  0  0  0  0  0  0  0  0
  152.1651  140.8059  158.9527 H   0  0  0  0  0  0  0  0  0  0  0  0
  152.4485  139.5586  156.9050 H   0  0  0  0  0  0  0  0  0  0  0  0
  146.6785  140.1488  150.9046 H   0  0  0  0  0  0  0  0  0  0  0  0
  147.9205  138.9372  151.1137 H   0  0  0  0  0  0  0  0  0  0  0  0
  146.0485  137.9868  149.8468 H   0  0  0  0  0  0  0  0  0  0  0  0
  144.9002  138.4269  151.0967 H   0  0  0  0  0  0  0  0  0  0  0  0
  147.1462  136.5830  151.4164 H   0  0  0  0  0  0  0  0  0  0  0  0
  1  2  1  0  0  0  0
  1 23  1  0  0  0  0
  1 24  1  0  0  0  0
  1 25  1  0  0  0  0
  2  3  1  0  0  0  0
  2 26  1  0  0  0  0
  3  4  2  0  0  0  0
  3  5  1  0  0  0  0
  5  6  1  0  0  0  0
  5 27  1  0  0  0  0
  5 28  1  0  0  0  0
  6 22  1  0  0  0  0
  6  7  1  0  0  0  0
  6 45  1  0  0  0  0
  7  8  1  0  0  0  0
  7 29  1  0  0  0  0
  7 30  1  0  0  0  0
  8  9  1  0  0  0  0
  8 31  1  0  0  0  0
  8 32  1  0  0  0  0
  9 10  1  0  0  0  0
  9 21  1  0  0  0  0
  9 33  1  0  0  0  0
 10 11  1  0  0  0  0
 10 34  1  0  0  0  0
 11 12  2  0  0  0  0
 11 13  1  0  0  0  0
 13 14  1  0  0  0  0
 13 35  1  0  0  0  0
 13 36  1  0  0  0  0
 14 19  1  0  0  0  0
 14 15  1  0  0  0  0
 15 16  2  0  0  0  0
 15 37  1  0  0  0  0
 16 17  1  0  0  0  0
 16 38  1  0  0  0  0
 17 18  2  0  0  0  0
 17 39  1  0  0  0  0
 18 19  1  0  0  0  0
 18 40  1  0  0  0  0
 19 20  2  0  0  0  0
 21 22  1  0  0  0  0
 21 41  1  0  0  0  0
 21 42  1  0  0  0  0
 22 43  1  0  0  0  0
 22 44  1  0  0  0  0
M  CHG  1   6   1
M  END
> <s_m_source_file>
AV-unprocessed.smi

> <i_m_source_file_index>
1202

> <i_lp_mmshare_version>
43012

> <i_f3d_flags>
0

> <s_epik_input>
W0NIM11bTkhdQyg9TylbQ0gyXU4xW0NIMl1bQ0gyXVtDSF0oW0NIMl1bQ0gyXTEpW05IXUMoPU8pW0NIMl1uMltjSF1bY0hdW2NIXVtjSF1jMj1P

> <s_epik_cmdline>
J2VwaWtfcHl0aG9uJywgJy1waCcsICc3LjAnLCAnLXRuJywgJzgnLCAnLW1hJywgJzIwMCcsICctbWV0YWxfYmluZGluZycsICctaW1hZScsICc8aW5maWxlLm1hZT4nLCAnLW9tYWUnLCAnPG91dGZpbGUubWFlPic=

> <r_lp_tautomer_probability>
1

> <r_epik_Ionization_Penalty>
0.983979

> <r_epik_Ionization_Penalty_Charging>
0.983957

> <r_epik_Ionization_Penalty_Neutral>
2.18432e-05

> <r_epik_State_Penalty>
1.03106

> <r_epik_Charging_Adjusted_Penalty>
2.01502

> <i_epik_Tot_Q>
1

> <i_epik_Tot_abs_Q>
1

> <r_epik_Metal_State_Penalty>
1.03477

> <b_epik_Metal_Only>
0

> <s_lp_Force_Field>
OPLS_2005

> <r_lp_Energy>
22.8296

> <b_lp_Chiralities_Consistent>
1

> <s_lp_Variant>
AV-unprocessed.smi:1202-2

> <Gold.Version>
5.8.1

> <Gold.Id.Protein>
6NUR|6NUR_protein|mol2

> <Gold.PLP.Fitness>
53.2841

> <Gold.PLP.PLP>
-36.1916

> <Gold.PLP.part.hbond>
-4.0000

> <Gold.PLP.part.metal>
0.0000

> <Gold.PLP.part.buried>
6.8018

> <Gold.PLP.part.nonpolar>
-38.5210

> <Gold.PLP.part.repulsive>
0.4124

> <Gold.PLP.ligand.clash>
0.0000

> <Gold.PLP.ligand.torsion>
0.4743

> <Gold.PLP.Chemscore.Hbond>
4.9920

> <Gold.PLP.Chemscore.CHOScore>
1.0000

> <Gold.PLP.Chemscore.Metal>
0.0000

> <Gold.Chemscore.Hbonds>
donor molecule, donor type, donor heavy atom, donor atom, acceptor molecule, acceptor atom, score
      L1  H     2    26       P1  7948  0.90
      L1  H     6    45       P1  7948  2.00
      L1  H    10    34       P1  7957  0.86
      P1  H  7989  7998       L1    20  1.00
      L1  C    15    37       P1  8028  0.92

> <Gold.PLP.Chemscore.Internal.Correction>
0.0653

> <Gold.Rescore>
     Score         DG    S(hbond)    S(metal)    S(lipo)     H(rot)  DE(clash)    DE(int)     intcor
     17.32     -20.78       3.74        0.00      72.84       2.23       2.44       1.02       ----

> <Gold.Chemscore.Fitness>
17.3228

> <Gold.Chemscore.DG>
-20.7756

> <Gold.Chemscore.ZeroCoef>
-5.4800

> <Gold.Chemscore.Hbond>
3.7408

> <Gold.Chemscore.Metal>
0.0000

> <Gold.Chemscore.Lipo>
72.8357

> <Gold.Chemscore.Internal_Hbond>
0.0000

> <Gold.Chemscore.DEClash>
2.4375

> <Gold.Chemscore.DEInternal>
1.0153

> <Gold.Chemscore.Rot>
2.2346

> <Gold.Chemscore.Internal.Correction>
   9.000000E+99

> <Gold.Chemscore.Hbonds>
donor molecule, donor type, donor heavy atom, donor atom, acceptor molecule, acceptor atom, score
      L1  H     2    26       P1  7948  0.87
      L1  H     6    45       P1  7948  0.99
      L1  H    10    34       P1  7957  0.85
      P1  H  7989  7998       L1    20  0.88

> <Gold.Chemscore.Hbond.Weighted>
-12.4943

> <Gold.Chemscore.Metal.Weighted>
-0.0000

> <Gold.Chemscore.Lipo.Weighted>
-8.5218

> <Gold.Chemscore.Internal_Hbond.Weighted>
0.0000

> <Gold.Chemscore.DEClash.Weighted>
2.4375

> <Gold.Chemscore.DEInternal.Weighted>
1.0153

> <Gold.Chemscore.Rot.Weighted>
5.7205

> <Gold.Chemscore.Internal.Correction.Weighted>
   9.000000E+99

> <Gold.Protein.RotatedTorsions>
[ 6907 6896 6895 6894 ] final   79.23 input  -60.11 | X-H torsion
[ 7974 7965 7964 7962 ] final -156.35 input  175.53 | X-H torsion
[ 8008 7997 7996 7995 ] final  115.75 input   59.86 | X-H torsion
[ 10167 10162 10161 10158 ] final   94.55 input  -65.29 | X-H torsion
[ 10718 10713 10712 10709 ] final  -15.07 input   66.30 | X-H torsion
[ 10763 10752 10751 10750 ] final   -3.65 input  -60.55 | X-H torsion
[ 11005 11000 10999 10996 ] final   75.95 input  -57.11 | X-H torsion

> <Gold.Protein.ActiveResidues>
 VAL166  LYS551  ARG553  GLY616  TRP617  ASP618  TYR619  PRO620  LYS621  CYS622 
 ASP623  PHE694  ASN695  SER759  ASP760  ASP761  ALA762  ILE779  LEU786  VAL792 
 PHE793  MET794  SER795  GLU796  ALA797  LYS798  CYS799  TRP800  GLU811  SER814 

> <Gold.Protein.RotatedAtoms>
  152.5190  134.3543  159.9262 H   0  0  0  0  0  0  0  0  0  0  0  0  # atno 6907 bound_to 6896
  151.3495  133.3925  159.2686 H   0  0  0  0  0  0  0  0  0  0  0  0  # atno 6908 bound_to 6896
  150.9739  134.9125  159.7862 H   0  0  0  0  0  0  0  0  0  0  0  0  # atno 6909 bound_to 6896
  144.7597  140.4122  143.5985 H   0  0  0  0  0  0  0  0  0  0  0  0  # atno 7974 bound_to 7965
  156.2400  140.2932  156.0417 H   0  0  0  0  0  0  0  0  0  0  0  0  # atno 8008 bound_to 7997
  155.1980  140.0409  157.2929 H   0  0  0  0  0  0  0  0  0  0  0  0  # atno 8009 bound_to 7997
  154.6150  140.2461  155.7628 H   0  0  0  0  0  0  0  0  0  0  0  0  # atno 8010 bound_to 7997
  139.8073  144.6788  150.9686 H   0  0  0  0  0  0  0  0  0  0  0  0  # atno 10167 bound_to 10162
  156.6070  130.4839  149.6217 H   0  0  0  0  0  0  0  0  0  0  0  0  # atno 10718 bound_to 10713
  153.3743  135.6996  153.6614 H   0  0  0  0  0  0  0  0  0  0  0  0  # atno 10763 bound_to 10752
  153.5251  135.3604  155.2650 H   0  0  0  0  0  0  0  0  0  0  0  0  # atno 10764 bound_to 10752
  154.8685  135.4167  154.3027 H   0  0  0  0  0  0  0  0  0  0  0  0  # atno 10765 bound_to 10752
  139.9320  134.7560  156.1335 H   0  0  0  0  0  0  0  0  0  0  0  0  # atno 11005 bound_to 11000
  145.6659  139.1590  143.2782 LP  0  0  0  0  0  0  0  0  0  0  0  0  # atno 17320 bound_to 7965
  146.1647  140.6735  142.9261 LP  0  0  0  0  0  0  0  0  0  0  0  0  # atno 17321 bound_to 7965
  140.7819  143.4220  151.0826 LP  0  0  0  0  0  0  0  0  0  0  0  0  # atno 17342 bound_to 10162
  139.7889  143.8247  152.3149 LP  0  0  0  0  0  0  0  0  0  0  0  0  # atno 17343 bound_to 10162
  156.2421  130.6857  151.1566 LP  0  0  0  0  0  0  0  0  0  0  0  0  # atno 17370 bound_to 10713
  157.7264  131.0646  150.5909 LP  0  0  0  0  0  0  0  0  0  0  0  0  # atno 17371 bound_to 10713
  141.0914  133.6713  156.2549 LP  0  0  0  0  0  0  0  0  0  0  0  0  # atno 17394 bound_to 11000
  140.6176  134.5394  157.5543 LP  0  0  0  0  0  0  0  0  0  0  0  0  # atno 17395 bound_to 11000

$$$$
