#       Name:                AV-unprocessed.smi:744
#       Creating user name   scv26
#       Creation time:       Fri Mar 27 00:56:25 2020


#       File generated by GOLD software.
#

@<TRIPOS>MOLECULE
AV-unprocessed.smi:744
    39    40     1
SMALL
NO_CHARGES


@<TRIPOS>ATOM
      1 ****         0.0483   1.5184   0.7970 O.2            1 S1                 0.0000
      2 ****        -0.4665   0.4248   1.0317 C.2            1 S1                 0.0000
      3 ****         0.2353  -0.7090   1.1731 N.am           1 S1                 0.0000
      4 ****         1.6871  -0.8267   1.0765 C.3            1 S1                 0.0000
      5 ****         2.1420  -1.3948  -0.2842 C.3            1 S1                 0.0000
      6 ****         3.6557  -1.6779  -0.3238 C.3            1 S1                 0.0000
      7 ****         4.1477  -1.3111  -1.7323 C.3            1 S1                 0.0000
      8 ****         2.8952  -0.9747  -2.5409 C.3            1 S1                 0.0000
      9 ****         1.8946  -0.4818  -1.4972 C.3            1 S1                 0.0000
     10 ****         0.5756  -0.5726  -1.9953 O.3            1 S1                 0.0000
     11 ****        -1.7848   0.1979   1.1675 N.am           1 S1                 0.0000
     12 ****        -2.8519   1.1300   1.0712 C.ar           1 S1                 0.0000
     13 ****        -4.1411   0.5847   1.2655 C.ar           1 S1                 0.0000
     14 ****        -5.2679   1.4261   1.1908 C.ar           1 S1                 0.0000
     15 ****        -5.0761   2.7931   0.9225 C.ar           1 S1                 0.0000
     16 ****        -3.7595   3.2547   0.7407 C.ar           1 S1                 0.0000
     17 ****        -2.6781   2.4501   0.8123 N.ar           1 S1                 0.0000
     18 ****        -0.2738  -1.5604   1.3603 H              1 S1                 0.0000
     19 ****         2.1744   0.1298   1.2741 H              1 S1                 0.0000
     20 ****         2.0093  -1.4980   1.8729 H              1 S1                 0.0000
     21 ****         1.6313  -2.3436  -0.4602 H              1 S1                 0.0000
     22 ****         4.1910  -1.0806   0.4156 H              1 S1                 0.0000
     23 ****         3.8562  -2.7248  -0.0934 H              1 S1                 0.0000
     24 ****         4.7947  -0.4347  -1.6759 H              1 S1                 0.0000
     25 ****         4.7245  -2.1143  -2.1916 H              1 S1                 0.0000
     26 ****         3.0837  -0.2399  -3.3243 H              1 S1                 0.0000
     27 ****         2.5217  -1.8817  -3.0192 H              1 S1                 0.0000
     28 ****         2.1155   0.5554  -1.2403 H              1 S1                 0.0000
     29 ****        -0.0118  -0.2101  -1.3496 H              1 S1                 0.0000
     30 ****        -2.0581  -0.7547   1.3576 H              1 S1                 0.0000
     31 ****        -4.2702  -0.4681   1.4705 H              1 S1                 0.0000
     32 ****        -6.2614   1.0287   1.3371 H              1 S1                 0.0000
     33 ****        -5.9150   3.4700   0.8576 H              1 S1                 0.0000
     34 ****        -3.5687   4.2972   0.5327 H              1 S1                 0.0000
     35 ****         1.0409   1.5936   0.7019 LP             1 S1                 0.0000
     36 ****        -0.5262   2.3313   0.7015 LP             1 S1                 0.0000
     37 ****         0.3432  -1.5306  -2.1637 LP             1 S1                 0.0000
     38 ****         0.5003  -0.0564  -2.8484 LP             1 S1                 0.0000
     39 ****        -1.7601   2.8226   0.6762 LP             1 S1                 0.0000
@<TRIPOS>BOND
    1    1    2 2     
    2    2    3 am    
    3    2   11 am    
    4    3    4 1     
    5    3   18 1     
    6    4    5 1     
    7    4   19 1     
    8    4   20 1     
    9    5    9 1     
   10    5    6 1     
   11    5   21 1     
   12    6    7 1     
   13    6   22 1     
   14    6   23 1     
   15    7    8 1     
   16    7   24 1     
   17    7   25 1     
   18    8    9 1     
   19    8   26 1     
   20    8   27 1     
   21    9   10 1     
   22    9   28 1     
   23   10   29 1     
   24   11   12 1     
   25   11   30 1     
   26   12   17 ar    
   27   12   13 ar    
   28   13   14 ar    
   29   13   31 1     
   30   14   15 ar    
   31   14   32 1     
   32   15   16 ar    
   33   15   33 1     
   34   16   17 ar    
   35   16   34 1     
   36    1   35 1     
   37    1   36 1     
   38   10   37 1     
   39   10   38 1     
   40   17   39 1     
@<TRIPOS>SUBSTRUCTURE
      1 S1             1
@<TRIPOS>SET
LONE_PAIRS      STATIC     ATOMS    <user>   **** ""
5 35 36 37 38 39
DONOR_HYDROGENS      STATIC     ATOMS    <user>   **** ""
3 18 29 30
ATOM$BLUE        STATIC     ATOMS    COLORGROUP SYSTEM
5 35 36 37 38 39
ATOM$RED        STATIC     ATOMS    COLORGROUP SYSTEM
3 18 29 30
