AV-unprocessed.smi:961|AV-procd|sdf|4274|dock9
  -GOLD-   22720 2183D 1   1.00000     0.00000
 Structure written by MMmdl.
 37 38  0  0  0  0  0  0  0  0  1 V2000
  150.8636  145.2256  159.5954 C   0  0  0  0  0  0  0  0  0  0  0  0
  151.7671  144.1046  159.0449 C   0  0  0  0  0  0  0  0  0  0  0  0
  150.9318  143.1265  158.1955 C   0  0  0  0  0  0  0  0  0  0  0  0
  152.8228  144.7530  158.1235 C   0  0  0  0  0  0  0  0  0  0  0  0
  152.4243  143.3620  160.1915 C   0  0  0  0  0  0  0  0  0  0  0  0
  152.2584  143.5682  161.5423 C   0  0  0  0  0  0  0  0  0  0  0  0
  153.2202  142.4788  162.5023 S   0  0  0  0  0  0  0  0  0  0  0  0
  153.8184  141.7521  161.0191 C   0  0  0  0  0  0  0  0  0  0  0  0
  154.8230  140.6502  160.9967 C   0  0  0  0  0  0  0  0  0  0  0  0
  154.2173  139.3176  160.5278 C   0  0  0  0  0  0  0  0  0  0  0  0
  154.2895  138.2982  161.5681 N   0  0  0  0  0  0  0  0  0  0  0  0
  154.0380  136.9929  161.3866 C   0  0  0  0  0  0  0  0  0  0  0  0
  153.7133  136.5176  160.2974 O   0  0  0  0  0  0  0  0  0  0  0  0
  154.1916  136.1681  162.6223 C   0  0  0  0  0  0  0  0  0  0  0  0
  154.3758  136.9015  163.9354 C   0  0  0  0  0  0  0  0  0  0  0  0
  155.5412  136.1755  163.3114 C   0  0  0  0  0  0  0  0  0  0  0  0
  153.3262  142.3245  159.9183 N   0  0  0  0  0  0  0  0  0  0  0  0
  150.3887  145.7859  158.7892 H   0  0  0  0  0  0  0  0  0  0  0  0
  151.4340  145.9343  160.1970 H   0  0  0  0  0  0  0  0  0  0  0  0
  150.0669  144.8280  160.2251 H   0  0  0  0  0  0  0  0  0  0  0  0
  150.1334  142.6672  158.7792 H   0  0  0  0  0  0  0  0  0  0  0  0
  151.5501  142.3219  157.7958 H   0  0  0  0  0  0  0  0  0  0  0  0
  150.4639  143.6329  157.3505 H   0  0  0  0  0  0  0  0  0  0  0  0
  152.3530  145.2877  157.2972 H   0  0  0  0  0  0  0  0  0  0  0  0
  153.4876  144.0058  157.6880 H   0  0  0  0  0  0  0  0  0  0  0  0
  153.4397  145.4720  158.6640 H   0  0  0  0  0  0  0  0  0  0  0  0
  151.6315  144.2953  162.0363 H   0  0  0  0  0  0  0  0  0  0  0  0
  155.6428  140.9478  160.3420 H   0  0  0  0  0  0  0  0  0  0  0  0
  155.2463  140.5404  161.9962 H   0  0  0  0  0  0  0  0  0  0  0  0
  153.1689  139.4594  160.2644 H   0  0  0  0  0  0  0  0  0  0  0  0
  154.7198  138.9659  159.6250 H   0  0  0  0  0  0  0  0  0  0  0  0
  154.5501  138.6077  162.4933 H   0  0  0  0  0  0  0  0  0  0  0  0
  153.6296  135.2357  162.6584 H   0  0  0  0  0  0  0  0  0  0  0  0
  154.4007  137.9900  163.9244 H   0  0  0  0  0  0  0  0  0  0  0  0
  153.9104  136.4619  164.8151 H   0  0  0  0  0  0  0  0  0  0  0  0
  155.8667  135.2431  163.7682 H   0  0  0  0  0  0  0  0  0  0  0  0
  156.3397  136.7829  162.8881 H   0  0  0  0  0  0  0  0  0  0  0  0
  1  2  1  0  0  0  0
  1 18  1  0  0  0  0
  1 19  1  0  0  0  0
  1 20  1  0  0  0  0
  2  3  1  0  0  0  0
  2  4  1  0  0  0  0
  2  5  1  0  0  0  0
  3 21  1  0  0  0  0
  3 22  1  0  0  0  0
  3 23  1  0  0  0  0
  4 24  1  0  0  0  0
  4 25  1  0  0  0  0
  4 26  1  0  0  0  0
  5 17  1  0  0  0  0
  5  6  2  0  0  0  0
  6  7  1  0  0  0  0
  6 27  1  0  0  0  0
  7  8  1  0  0  0  0
  8  9  1  0  0  0  0
  8 17  2  0  0  0  0
  9 10  1  0  0  0  0
  9 28  1  0  0  0  0
  9 29  1  0  0  0  0
 10 11  1  0  0  0  0
 10 30  1  0  0  0  0
 10 31  1  0  0  0  0
 11 12  1  0  0  0  0
 11 32  1  0  0  0  0
 12 13  2  0  0  0  0
 12 14  1  0  0  0  0
 14 16  1  0  0  0  0
 14 15  1  0  0  0  0
 14 33  1  0  0  0  0
 15 16  1  0  0  0  0
 15 34  1  0  0  0  0
 15 35  1  0  0  0  0
 16 36  1  0  0  0  0
 16 37  1  0  0  0  0
M  END
> <s_m_source_file>
AV-unprocessed.smi

> <i_m_source_file_index>
961

> <i_lp_mmshare_version>
43012

> <i_f3d_flags>
0

> <s_epik_input>
W0NIM11DKFtDSDNdKShbQ0gzXSljMVtjSF1zYyhuMSlbQ0gyXVtDSDJdW05IXUMoPU8pW0NIXTJbQ0gyXVtDSDJdMg==

> <s_epik_cmdline>
J2VwaWtfcHl0aG9uJywgJy1waCcsICc3LjAnLCAnLXRuJywgJzgnLCAnLW1hJywgJzIwMCcsICctbWV0YWxfYmluZGluZycsICctaW1hZScsICc8aW5maWxlLm1hZT4nLCAnLW9tYWUnLCAnPG91dGZpbGUubWFlPic=

> <r_epik_Ionization_Penalty>
0.000842111

> <r_epik_Ionization_Penalty_Charging>
0

> <r_epik_Ionization_Penalty_Neutral>
0.000842111

> <r_epik_State_Penalty>
0.000542609

> <r_epik_Charging_Adjusted_Penalty>
0.000542609

> <i_epik_Tot_Q>
0

> <i_epik_Tot_abs_Q>
0

> <r_epik_Metal_State_Penalty>
-0

> <b_epik_Metal_Only>
0

> <s_lp_Force_Field>
OPLS_2005

> <r_lp_Energy>
-3.24501

> <b_lp_Chiralities_Consistent>
1

> <s_lp_Variant>
AV-unprocessed.smi:961-1

> <Gold.Version>
5.8.1

> <Gold.Id.Protein>
6NUR|6NUR_protein|mol2

> <Gold.PLP.Fitness>
49.3146

> <Gold.PLP.PLP>
-47.4849

> <Gold.PLP.part.hbond>
-1.0000

> <Gold.PLP.part.metal>
0.0000

> <Gold.PLP.part.buried>
-6.0420

> <Gold.PLP.part.nonpolar>
-41.0111

> <Gold.PLP.part.repulsive>
0.0112

> <Gold.PLP.ligand.clash>
0.0009

> <Gold.PLP.ligand.torsion>
0.6344

> <Gold.PLP.Chemscore.Hbond>
1.0000

> <Gold.PLP.Chemscore.CHOScore>
0.0000

> <Gold.PLP.Chemscore.Metal>
0.0000

> <Gold.Chemscore.Hbonds>
donor molecule, donor type, donor heavy atom, donor atom, acceptor molecule, acceptor atom, score
      P1  H  6896  6909       L1    13  0.55

> <Gold.PLP.Chemscore.Internal.Correction>
0.0994

> <Gold.Rescore>
     Score         DG    S(hbond)    S(metal)    S(lipo)     H(rot)  DE(clash)    DE(int)     intcor
     19.86     -20.52       0.99        0.00     133.81       1.54       0.09       0.57       ----

> <Gold.Chemscore.Fitness>
19.8605

> <Gold.Chemscore.DG>
-20.5217

> <Gold.Chemscore.ZeroCoef>
-5.4800

> <Gold.Chemscore.Hbond>
0.9936

> <Gold.Chemscore.Metal>
0.0000

> <Gold.Chemscore.Lipo>
133.8147

> <Gold.Chemscore.Internal_Hbond>
0.0000

> <Gold.Chemscore.DEClash>
0.0918

> <Gold.Chemscore.DEInternal>
0.5694

> <Gold.Chemscore.Rot>
1.5364

> <Gold.Chemscore.Internal.Correction>
   9.000000E+99

> <Gold.Chemscore.Hbonds>
donor molecule, donor type, donor heavy atom, donor atom, acceptor molecule, acceptor atom, score
      P1  H  6896  6909       L1    13  0.54

> <Gold.Chemscore.Hbond.Weighted>
-3.3186

> <Gold.Chemscore.Metal.Weighted>
-0.0000

> <Gold.Chemscore.Lipo.Weighted>
-15.6563

> <Gold.Chemscore.Internal_Hbond.Weighted>
0.0000

> <Gold.Chemscore.DEClash.Weighted>
0.0918

> <Gold.Chemscore.DEInternal.Weighted>
0.5694

> <Gold.Chemscore.Rot.Weighted>
3.9332

> <Gold.Chemscore.Internal.Correction.Weighted>
   9.000000E+99

> <Gold.Protein.RotatedTorsions>
[ 6907 6896 6895 6894 ] final  151.84 input  -60.11 | X-H torsion
[ 7974 7965 7964 7962 ] final    3.65 input  175.53 | X-H torsion
[ 8008 7997 7996 7995 ] final   -0.13 input   59.86 | X-H torsion
[ 10167 10162 10161 10158 ] final   89.52 input  -65.29 | X-H torsion
[ 10718 10713 10712 10709 ] final  177.25 input   66.30 | X-H torsion
[ 10763 10752 10751 10750 ] final -169.43 input  -60.55 | X-H torsion
[ 11005 11000 10999 10996 ] final  -87.46 input  -57.11 | X-H torsion

> <Gold.Protein.ActiveResidues>
 VAL166  LYS551  ARG553  GLY616  TRP617  ASP618  TYR619  PRO620  LYS621  CYS622 
 ASP623  PHE694  ASN695  SER759  ASP760  ASP761  ALA762  ILE779  LEU786  VAL792 
 PHE793  MET794  SER795  GLU796  ALA797  LYS798  CYS799  TRP800  GLU811  SER814 

> <Gold.Protein.RotatedAtoms>
  152.0951  133.4220  159.4561 H   0  0  0  0  0  0  0  0  0  0  0  0  # atno 6907 bound_to 6896
  150.6863  134.2826  159.4643 H   0  0  0  0  0  0  0  0  0  0  0  0  # atno 6908 bound_to 6896
  152.0681  134.9550  160.0625 H   0  0  0  0  0  0  0  0  0  0  0  0  # atno 6909 bound_to 6896
  146.2445  140.0653  142.8366 H   0  0  0  0  0  0  0  0  0  0  0  0  # atno 7974 bound_to 7965
  154.6615  140.2591  155.7104 H   0  0  0  0  0  0  0  0  0  0  0  0  # atno 8008 bound_to 7997
  156.2620  140.2847  156.1011 H   0  0  0  0  0  0  0  0  0  0  0  0  # atno 8009 bound_to 7997
  155.1301  140.0378  157.2763 H   0  0  0  0  0  0  0  0  0  0  0  0  # atno 8010 bound_to 7997
  139.8565  144.6566  150.9108 H   0  0  0  0  0  0  0  0  0  0  0  0  # atno 10167 bound_to 10162
  156.9082  130.9901  151.3025 H   0  0  0  0  0  0  0  0  0  0  0  0  # atno 10718 bound_to 10713
  154.6523  135.2913  154.9971 H   0  0  0  0  0  0  0  0  0  0  0  0  # atno 10763 bound_to 10752
  154.1059  135.6570  153.4880 H   0  0  0  0  0  0  0  0  0  0  0  0  # atno 10764 bound_to 10752
  153.0383  135.5253  154.7437 H   0  0  0  0  0  0  0  0  0  0  0  0  # atno 10765 bound_to 10752
  141.1616  133.7512  156.9309 H   0  0  0  0  0  0  0  0  0  0  0  0  # atno 11005 bound_to 11000
  145.0864  140.9255  143.4795 LP  0  0  0  0  0  0  0  0  0  0  0  0  # atno 17320 bound_to 7965
  145.0816  139.2955  143.5780 LP  0  0  0  0  0  0  0  0  0  0  0  0  # atno 17321 bound_to 7965
  140.7781  143.3782  151.1525 LP  0  0  0  0  0  0  0  0  0  0  0  0  # atno 17342 bound_to 10162
  139.7415  143.8917  152.3051 LP  0  0  0  0  0  0  0  0  0  0  0  0  # atno 17343 bound_to 10162
  157.5984  130.8494  149.8764 LP  0  0  0  0  0  0  0  0  0  0  0  0  # atno 17370 bound_to 10713
  156.0549  130.3710  150.1115 LP  0  0  0  0  0  0  0  0  0  0  0  0  # atno 17371 bound_to 10713
  140.1387  134.9308  157.2437 LP  0  0  0  0  0  0  0  0  0  0  0  0  # atno 17394 bound_to 11000
  140.2864  134.3291  155.7328 LP  0  0  0  0  0  0  0  0  0  0  0  0  # atno 17395 bound_to 11000

$$$$
