AV-unprocessed.smi:1381|AV-procd|sdf|5603|dock9
  -GOLD-   22720 5213D 1   1.00000     0.00000
 Structure written by MMmdl.
 42 43  0  0  0  0  0  0  0  0  1 V2000
  138.3378  136.7050  154.1076 C   0  0  0  0  0  0  0  0  0  0  0  0
  139.8233  136.7768  154.0135 C   0  0  0  0  0  0  0  0  0  0  0  0
  140.6825  137.7490  153.5841 C   0  0  0  0  0  0  0  0  0  0  0  0
  141.9582  137.1518  153.7662 C   0  0  0  0  0  0  0  0  0  0  0  0
  143.1442  137.8523  153.4295 N   0  0  0  0  0  0  0  0  0  0  0  0
  144.4109  137.4150  153.5315 C   0  0  0  0  0  0  0  0  0  0  0  0
  144.7476  136.3036  153.9409 O   0  0  0  0  0  0  0  0  0  0  0  0
  145.2825  138.3506  153.1285 N   0  0  0  0  0  0  0  0  0  0  0  0
  146.7342  138.2000  153.1187 C   0  0  0  0  0  0  0  0  0  0  0  0
  147.4614  139.4790  153.5811 C   0  0  0  0  0  0  0  0  0  0  0  0
  148.7015  139.2544  154.3225 N   0  0  0  0  0  0  0  0  0  0  0  0
  149.1771  140.4908  154.9299 C   0  0  0  0  0  0  0  0  0  0  0  0
  150.4586  140.2715  155.7537 C   0  0  2  0  0  0  0  0  0  0  0  0
  151.0057  141.5820  156.3288 C   0  0  0  0  0  0  0  0  0  0  0  0
  151.4636  139.6992  154.9189 O   0  0  0  0  0  0  0  0  0  0  0  0
  151.0849  138.4958  154.2485 C   0  0  1  0  0  0  0  0  0  0  0  0
  151.0538  137.2942  155.2082 C   0  0  0  0  0  0  0  0  0  0  0  0
  149.7615  138.6999  153.4834 C   0  0  0  0  0  0  0  0  0  0  0  0
  141.8847  135.9270  154.2644 N   0  0  0  0  0  0  0  0  0  0  0  0
  140.5161  135.6804  154.4255 O   0  0  0  0  0  0  0  0  0  0  0  0
  137.8756  137.5782  153.6468 H   0  0  0  0  0  0  0  0  0  0  0  0
  138.0182  136.6631  155.1489 H   0  0  0  0  0  0  0  0  0  0  0  0
  137.9606  135.8165  153.6010 H   0  0  0  0  0  0  0  0  0  0  0  0
  140.4352  138.7277  153.2008 H   0  0  0  0  0  0  0  0  0  0  0  0
  143.0142  138.7869  153.0720 H   0  0  0  0  0  0  0  0  0  0  0  0
  144.9175  139.2350  152.8071 H   0  0  0  0  0  0  0  0  0  0  0  0
  147.0003  137.3727  153.7789 H   0  0  0  0  0  0  0  0  0  0  0  0
  147.0627  137.9047  152.1218 H   0  0  0  0  0  0  0  0  0  0  0  0
  147.6353  140.1545  152.7420 H   0  0  0  0  0  0  0  0  0  0  0  0
  146.7704  140.0093  154.2382 H   0  0  0  0  0  0  0  0  0  0  0  0
  149.3644  141.2347  154.1538 H   0  0  0  0  0  0  0  0  0  0  0  0
  148.4028  140.9048  155.5769 H   0  0  0  0  0  0  0  0  0  0  0  0
  150.2479  139.5951  156.5828 H   0  0  0  0  0  0  0  0  0  0  0  0
  150.2776  142.0545  156.9891 H   0  0  0  0  0  0  0  0  0  0  0  0
  151.2493  142.2900  155.5363 H   0  0  0  0  0  0  0  0  0  0  0  0
  151.9123  141.4043  156.9076 H   0  0  0  0  0  0  0  0  0  0  0  0
  151.8667  138.2957  153.5155 H   0  0  0  0  0  0  0  0  0  0  0  0
  150.8836  136.3662  154.6621 H   0  0  0  0  0  0  0  0  0  0  0  0
  150.2623  137.3831  155.9521 H   0  0  0  0  0  0  0  0  0  0  0  0
  152.0013  137.1963  155.7382 H   0  0  0  0  0  0  0  0  0  0  0  0
  149.4499  137.7466  153.0575 H   0  0  0  0  0  0  0  0  0  0  0  0
  149.9416  139.3694  152.6407 H   0  0  0  0  0  0  0  0  0  0  0  0
  1  2  1  0  0  0  0
  1 21  1  0  0  0  0
  1 22  1  0  0  0  0
  1 23  1  0  0  0  0
  2 20  1  0  0  0  0
  2  3  2  0  0  0  0
  3  4  1  0  0  0  0
  3 24  1  0  0  0  0
  4  5  1  0  0  0  0
  4 19  2  0  0  0  0
  5  6  1  0  0  0  0
  5 25  1  0  0  0  0
  6  7  2  0  0  0  0
  6  8  1  0  0  0  0
  8  9  1  0  0  0  0
  8 26  1  0  0  0  0
  9 10  1  0  0  0  0
  9 27  1  0  0  0  0
  9 28  1  0  0  0  0
 10 11  1  0  0  0  0
 10 29  1  0  0  0  0
 10 30  1  0  0  0  0
 11 18  1  0  0  0  0
 11 12  1  0  0  0  0
 12 13  1  0  0  0  0
 12 31  1  0  0  0  0
 12 32  1  0  0  0  0
 13 14  1  0  0  0  0
 13 15  1  0  0  0  0
 13 33  1  0  0  0  0
 14 34  1  0  0  0  0
 14 35  1  0  0  0  0
 14 36  1  0  0  0  0
 15 16  1  0  0  0  0
 16 17  1  0  0  0  0
 16 18  1  0  0  0  0
 16 37  1  0  0  0  0
 17 38  1  0  0  0  0
 17 39  1  0  0  0  0
 17 40  1  0  0  0  0
 18 41  1  0  0  0  0
 18 42  1  0  0  0  0
 19 20  1  0  0  0  0
M  END
> <s_m_source_file>
AV-unprocessed.smi

> <i_m_source_file_index>
1381

> <i_lp_mmshare_version>
43012

> <i_f3d_flags>
0

> <s_epik_input>
W0NIM11jMVtjSF1jKG5vMSlbTkhdQyg9TylbTkhdW0NIMl1bQ0gyXU4yW0NIMl1bQ0BASF0oW0NIM10pT1tDQEBIXShbQ0gzXSlbQ0gyXTI=

> <s_epik_cmdline>
J2VwaWtfcHl0aG9uJywgJy1waCcsICc3LjAnLCAnLXRuJywgJzgnLCAnLW1hJywgJzIwMCcsICctbWV0YWxfYmluZGluZycsICctaW1hZScsICc8aW5maWxlLm1hZT4nLCAnLW9tYWUnLCAnPG91dGZpbGUubWFlPic=

> <r_epik_Ionization_Penalty>
0.214073

> <r_epik_Ionization_Penalty_Charging>
0

> <r_epik_Ionization_Penalty_Neutral>
0.214073

> <r_epik_State_Penalty>
0.204211

> <r_epik_Charging_Adjusted_Penalty>
0.204211

> <i_epik_Tot_Q>
0

> <i_epik_Tot_abs_Q>
0

> <r_epik_Metal_State_Penalty>
0.217067

> <b_epik_Metal_Only>
0

> <s_lp_Force_Field>
OPLS_2005

> <r_lp_Energy>
25.417

> <b_lp_Chiralities_Consistent>
1

> <s_lp_Variant>
AV-unprocessed.smi:1381-2

> <Gold.Version>
5.8.1

> <Gold.Id.Protein>
6NUR|6NUR_protein|mol2

> <Gold.PLP.Fitness>
41.8572

> <Gold.PLP.PLP>
-30.6927

> <Gold.PLP.part.hbond>
-4.0000

> <Gold.PLP.part.metal>
0.0000

> <Gold.PLP.part.buried>
-1.5850

> <Gold.PLP.part.nonpolar>
-25.6059

> <Gold.PLP.part.repulsive>
0.3794

> <Gold.PLP.ligand.clash>
0.0000

> <Gold.PLP.ligand.torsion>
0.4095

> <Gold.PLP.Chemscore.Hbond>
3.9920

> <Gold.PLP.Chemscore.CHOScore>
0.0000

> <Gold.PLP.Chemscore.Metal>
0.0000

> <Gold.Chemscore.Hbonds>
donor molecule, donor type, donor heavy atom, donor atom, acceptor molecule, acceptor atom, score
      L1  H     5    25       P1 10175  1.00
      L1  H     8    26       P1 10175  1.00
      P1  H  7989  7998       L1    15  1.00
      P1  H 11000 11005       L1    20  0.99

> <Gold.PLP.Chemscore.Internal.Correction>
0.0074

> <Gold.Rescore>
     Score         DG    S(hbond)    S(metal)    S(lipo)     H(rot)  DE(clash)    DE(int)     intcor
     17.60     -20.07       3.00        0.00      73.42       1.57       0.77       1.70       ----

> <Gold.Chemscore.Fitness>
17.5997

> <Gold.Chemscore.DG>
-20.0743

> <Gold.Chemscore.ZeroCoef>
-5.4800

> <Gold.Chemscore.Hbond>
3.0008

> <Gold.Chemscore.Metal>
0.0000

> <Gold.Chemscore.Lipo>
73.4195

> <Gold.Chemscore.Internal_Hbond>
0.0000

> <Gold.Chemscore.DEClash>
0.7732

> <Gold.Chemscore.DEInternal>
1.7014

> <Gold.Chemscore.Rot>
1.5697

> <Gold.Chemscore.Internal.Correction>
   9.000000E+99

> <Gold.Chemscore.Hbonds>
donor molecule, donor type, donor heavy atom, donor atom, acceptor molecule, acceptor atom, score
      L1  H     5    25       P1 10175  0.98
      L1  H     8    26       P1 10175  0.99
      P1  H  7989  7998       L1    15  0.17
      P1  H 11000 11005       L1    20  0.85

> <Gold.Chemscore.Hbond.Weighted>
-10.0227

> <Gold.Chemscore.Metal.Weighted>
-0.0000

> <Gold.Chemscore.Lipo.Weighted>
-8.5901

> <Gold.Chemscore.Internal_Hbond.Weighted>
0.0000

> <Gold.Chemscore.DEClash.Weighted>
0.7732

> <Gold.Chemscore.DEInternal.Weighted>
1.7014

> <Gold.Chemscore.Rot.Weighted>
4.0185

> <Gold.Chemscore.Internal.Correction.Weighted>
   9.000000E+99

> <Gold.Protein.RotatedTorsions>
[ 6907 6896 6895 6894 ] final  168.25 input  -60.11 | X-H torsion
[ 7974 7965 7964 7962 ] final  -44.36 input  175.53 | X-H torsion
[ 8008 7997 7996 7995 ] final  149.83 input   59.86 | X-H torsion
[ 10167 10162 10161 10158 ] final  -30.73 input  -65.29 | X-H torsion
[ 10718 10713 10712 10709 ] final -111.78 input   66.30 | X-H torsion
[ 10763 10752 10751 10750 ] final -173.12 input  -60.55 | X-H torsion
[ 11005 11000 10999 10996 ] final   55.95 input  -57.11 | X-H torsion

> <Gold.Protein.ActiveResidues>
 VAL166  LYS551  ARG553  GLY616  TRP617  ASP618  TYR619  PRO620  LYS621  CYS622 
 ASP623  PHE694  ASN695  SER759  ASP760  ASP761  ALA762  ILE779  LEU786  VAL792 
 PHE793  MET794  SER795  GLU796  ALA797  LYS798  CYS799  TRP800  GLU811  SER814 

> <Gold.Protein.RotatedAtoms>
  151.8506  133.3439  159.3671 H   0  0  0  0  0  0  0  0  0  0  0  0  # atno 6907 bound_to 6896
  150.7207  134.5303  159.5706 H   0  0  0  0  0  0  0  0  0  0  0  0  # atno 6908 bound_to 6896
  152.2796  134.7844  160.0450 H   0  0  0  0  0  0  0  0  0  0  0  0  # atno 6909 bound_to 6896
  145.9928  140.7162  142.9308 H   0  0  0  0  0  0  0  0  0  0  0  0  # atno 7974 bound_to 7965
  156.2739  140.2091  156.5921 H   0  0  0  0  0  0  0  0  0  0  0  0  # atno 8008 bound_to 7997
  154.6974  140.0524  157.0447 H   0  0  0  0  0  0  0  0  0  0  0  0  # atno 8009 bound_to 7997
  155.0782  140.3184  155.4612 H   0  0  0  0  0  0  0  0  0  0  0  0  # atno 8010 bound_to 7997
  140.7245  143.3826  151.1574 H   0  0  0  0  0  0  0  0  0  0  0  0  # atno 10167 bound_to 10162
  156.0667  130.5885  150.8420 H   0  0  0  0  0  0  0  0  0  0  0  0  # atno 10718 bound_to 10713
  154.6115  135.2865  155.0426 H   0  0  0  0  0  0  0  0  0  0  0  0  # atno 10763 bound_to 10752
  154.1654  135.6481  153.5000 H   0  0  0  0  0  0  0  0  0  0  0  0  # atno 10764 bound_to 10752
  153.0197  135.5388  154.6871 H   0  0  0  0  0  0  0  0  0  0  0  0  # atno 10765 bound_to 10752
  140.0567  134.5660  155.9199 H   0  0  0  0  0  0  0  0  0  0  0  0  # atno 11005 bound_to 11000
  144.6894  140.3099  143.7250 LP  0  0  0  0  0  0  0  0  0  0  0  0  # atno 17320 bound_to 7965
  145.7604  139.1823  143.2270 LP  0  0  0  0  0  0  0  0  0  0  0  0  # atno 17321 bound_to 7965
  139.7417  143.8914  152.3052 LP  0  0  0  0  0  0  0  0  0  0  0  0  # atno 17342 bound_to 10162
  139.8737  144.7054  150.8957 LP  0  0  0  0  0  0  0  0  0  0  0  0  # atno 17343 bound_to 10162
  157.5713  131.0946  150.9413 LP  0  0  0  0  0  0  0  0  0  0  0  0  # atno 17370 bound_to 10713
  156.9629  130.5462  149.5286 LP  0  0  0  0  0  0  0  0  0  0  0  0  # atno 17371 bound_to 10713
  141.1955  133.6587  156.5646 LP  0  0  0  0  0  0  0  0  0  0  0  0  # atno 17394 bound_to 11000
  140.3833  134.7504  157.4675 LP  0  0  0  0  0  0  0  0  0  0  0  0  # atno 17395 bound_to 11000

$$$$
