AV-unprocessed.smi:2130|AV-procd|sdf|8686|dock9
  -GOLD-   2272011443D 1   1.00000     0.00000
 Structure written by MMmdl.
 32 33  0  0  0  0  0  0  0  0  1 V2000
  148.5386  140.8347  154.3544 C   0  0  0  0  0  0  0  0  0  0  0  0
  149.7206  139.9260  154.6452 C   0  0  0  0  0  0  0  0  0  0  0  0
  149.8766  138.6807  154.1842 C   0  0  0  0  0  0  0  0  0  0  0  0
  151.3420  137.9256  154.7613 S   0  0  0  0  0  0  0  0  0  0  0  0
  151.7528  139.4121  155.6903 C   0  0  0  0  0  0  0  0  0  0  0  0
  152.7697  139.5103  156.3753 O   0  0  0  0  0  0  0  0  0  0  0  0
  150.7550  140.3644  155.4840 N   0  0  0  0  0  0  0  0  0  0  0  0
  150.7976  141.7044  156.0841 C   0  0  0  0  0  0  0  0  0  0  0  0
  150.9022  141.6857  157.6148 C   0  0  0  0  0  0  0  0  0  0  0  0
  150.1233  141.0193  158.2980 O   0  0  0  0  0  0  0  0  0  0  0  0
  151.8801  142.4402  158.1387 N   0  0  0  0  0  0  0  0  0  0  0  0
  152.1518  142.6063  159.5628 C   0  0  1  0  0  0  0  0  0  0  0  0
  153.5093  141.9650  159.8817 C   0  0  0  0  0  0  0  0  0  0  0  0
  152.1195  144.0564  160.0166 C   0  0  0  0  0  0  0  0  0  0  0  0
  150.9268  144.9359  159.7233 C   0  0  0  0  0  0  0  0  0  0  0  0
  152.2456  145.1949  159.0317 C   0  0  0  0  0  0  0  0  0  0  0  0
  147.7014  140.2543  153.9655 H   0  0  0  0  0  0  0  0  0  0  0  0
  148.8087  141.5814  153.6075 H   0  0  0  0  0  0  0  0  0  0  0  0
  148.1915  141.3449  155.2529 H   0  0  0  0  0  0  0  0  0  0  0  0
  149.1969  138.1485  153.5351 H   0  0  0  0  0  0  0  0  0  0  0  0
  151.6552  142.2531  155.6912 H   0  0  0  0  0  0  0  0  0  0  0  0
  149.9241  142.2850  155.7866 H   0  0  0  0  0  0  0  0  0  0  0  0
  152.4748  142.9509  157.5022 H   0  0  0  0  0  0  0  0  0  0  0  0
  151.3951  142.0579  160.1272 H   0  0  0  0  0  0  0  0  0  0  0  0
  153.7296  142.0222  160.9480 H   0  0  0  0  0  0  0  0  0  0  0  0
  154.3196  142.4635  159.3487 H   0  0  0  0  0  0  0  0  0  0  0  0
  153.5232  140.9114  159.6007 H   0  0  0  0  0  0  0  0  0  0  0  0
  152.5886  144.2164  160.9859 H   0  0  0  0  0  0  0  0  0  0  0  0
  150.1212  144.5167  159.1236 H   0  0  0  0  0  0  0  0  0  0  0  0
  150.6171  145.6366  160.4960 H   0  0  0  0  0  0  0  0  0  0  0  0
  152.8172  146.0661  159.3449 H   0  0  0  0  0  0  0  0  0  0  0  0
  152.3126  144.9492  157.9738 H   0  0  0  0  0  0  0  0  0  0  0  0
  1  2  1  0  0  0  0
  1 17  1  0  0  0  0
  1 18  1  0  0  0  0
  1 19  1  0  0  0  0
  2  7  1  0  0  0  0
  2  3  2  0  0  0  0
  3  4  1  0  0  0  0
  3 20  1  0  0  0  0
  4  5  1  0  0  0  0
  5  6  2  0  0  0  0
  5  7  1  0  0  0  0
  7  8  1  0  0  0  0
  8  9  1  0  0  0  0
  8 21  1  0  0  0  0
  8 22  1  0  0  0  0
  9 10  2  0  0  0  0
  9 11  1  0  0  0  0
 11 12  1  0  0  0  0
 11 23  1  0  0  0  0
 12 13  1  0  0  0  0
 12 14  1  0  0  0  0
 12 24  1  0  0  0  0
 13 25  1  0  0  0  0
 13 26  1  0  0  0  0
 13 27  1  0  0  0  0
 14 16  1  0  0  0  0
 14 15  1  0  0  0  0
 14 28  1  0  0  0  0
 15 16  1  0  0  0  0
 15 29  1  0  0  0  0
 15 30  1  0  0  0  0
 16 31  1  0  0  0  0
 16 32  1  0  0  0  0
M  END
> <s_m_source_file>
AV-unprocessed.smi

> <i_m_source_file_index>
2130

> <i_lp_mmshare_version>
43012

> <i_f3d_flags>
0

> <s_epik_input>
W0NIM11jMVtjSF1zYyg9TyluMVtDSDJdQyg9TylbTkhdW0NASF0oW0NIM10pW0NIXTJbQ0gyXVtDSDJdMg==

> <s_epik_cmdline>
J2VwaWtfcHl0aG9uJywgJy1waCcsICc3LjAnLCAnLXRuJywgJzgnLCAnLW1hJywgJzIwMCcsICctbWV0YWxfYmluZGluZycsICctaW1hZScsICc8aW5maWxlLm1hZT4nLCAnLW9tYWUnLCAnPG91dGZpbGUubWFlPic=

> <r_lp_tautomer_probability>
1

> <r_epik_Ionization_Penalty>
1.32882e-06

> <r_epik_Ionization_Penalty_Charging>
1.22222e-06

> <r_epik_Ionization_Penalty_Neutral>
1.066e-07

> <r_epik_State_Penalty>
-0

> <r_epik_Charging_Adjusted_Penalty>
1.22222e-06

> <i_epik_Tot_Q>
0

> <i_epik_Tot_abs_Q>
0

> <r_epik_Metal_State_Penalty>
-0

> <b_epik_Metal_Only>
0

> <s_lp_Force_Field>
OPLS_2005

> <r_lp_Energy>
16.4034

> <b_lp_Chiralities_Consistent>
1

> <s_lp_Variant>
AV-unprocessed.smi:2130-2

> <Gold.Version>
5.8.1

> <Gold.Id.Protein>
6NUR|6NUR_protein|mol2

> <Gold.PLP.Fitness>
48.1342

> <Gold.PLP.PLP>
-42.5417

> <Gold.PLP.part.hbond>
-1.0000

> <Gold.PLP.part.metal>
0.0000

> <Gold.PLP.part.buried>
-3.1775

> <Gold.PLP.part.nonpolar>
-37.7584

> <Gold.PLP.part.repulsive>
0.0664

> <Gold.PLP.ligand.clash>
0.0000

> <Gold.PLP.ligand.torsion>
0.7377

> <Gold.PLP.Chemscore.Hbond>
1.0000

> <Gold.PLP.Chemscore.CHOScore>
1.0000

> <Gold.PLP.Chemscore.Metal>
0.0000

> <Gold.Chemscore.Hbonds>
donor molecule, donor type, donor heavy atom, donor atom, acceptor molecule, acceptor atom, score
      P1  H  7997  8009       L1     6  0.98
      L1  C     3    20       P1  7948  1.00

> <Gold.PLP.Chemscore.Internal.Correction>
1.0679

> <Gold.Rescore>
     Score         DG    S(hbond)    S(metal)    S(lipo)     H(rot)  DE(clash)    DE(int)     intcor
     14.92     -15.96       0.99        0.00      96.06       1.59       0.31       0.73       ----

> <Gold.Chemscore.Fitness>
14.9229

> <Gold.Chemscore.DG>
-15.9590

> <Gold.Chemscore.ZeroCoef>
-5.4800

> <Gold.Chemscore.Hbond>
0.9932

> <Gold.Chemscore.Metal>
0.0000

> <Gold.Chemscore.Lipo>
96.0587

> <Gold.Chemscore.Internal_Hbond>
0.0000

> <Gold.Chemscore.DEClash>
0.3084

> <Gold.Chemscore.DEInternal>
0.7277

> <Gold.Chemscore.Rot>
1.5926

> <Gold.Chemscore.Internal.Correction>
   9.000000E+99

> <Gold.Chemscore.Hbonds>
donor molecule, donor type, donor heavy atom, donor atom, acceptor molecule, acceptor atom, score
      P1  H  7997  8009       L1     6  0.93

> <Gold.Chemscore.Hbond.Weighted>
-3.3172

> <Gold.Chemscore.Metal.Weighted>
-0.0000

> <Gold.Chemscore.Lipo.Weighted>
-11.2389

> <Gold.Chemscore.Internal_Hbond.Weighted>
0.0000

> <Gold.Chemscore.DEClash.Weighted>
0.3084

> <Gold.Chemscore.DEInternal.Weighted>
0.7277

> <Gold.Chemscore.Rot.Weighted>
4.0771

> <Gold.Chemscore.Internal.Correction.Weighted>
   9.000000E+99

> <Gold.Protein.RotatedTorsions>
[ 6907 6896 6895 6894 ] final  -79.03 input  -60.11 | X-H torsion
[ 7974 7965 7964 7962 ] final  137.48 input  175.53 | X-H torsion
[ 8008 7997 7996 7995 ] final -144.75 input   59.86 | X-H torsion
[ 10167 10162 10161 10158 ] final   13.45 input  -65.29 | X-H torsion
[ 10718 10713 10712 10709 ] final   75.60 input   66.30 | X-H torsion
[ 10763 10752 10751 10750 ] final -130.32 input  -60.55 | X-H torsion
[ 11005 11000 10999 10996 ] final -134.46 input  -57.11 | X-H torsion

> <Gold.Protein.ActiveResidues>
 VAL166  LYS551  ARG553  GLY616  TRP617  ASP618  TYR619  PRO620  LYS621  CYS622 
 ASP623  PHE694  ASN695  SER759  ASP760  ASP761  ALA762  ILE779  LEU786  VAL792 
 PHE793  MET794  SER795  GLU796  ALA797  LYS798  CYS799  TRP800  GLU811  SER814 

> <Gold.Protein.RotatedAtoms>
  150.6959  134.4182  159.5192 H   0  0  0  0  0  0  0  0  0  0  0  0  # atno 6907 bound_to 6896
  152.1929  134.8653  160.0525 H   0  0  0  0  0  0  0  0  0  0  0  0  # atno 6908 bound_to 6896
  151.9602  133.3658  159.4069 H   0  0  0  0  0  0  0  0  0  0  0  0  # atno 6909 bound_to 6896
  144.9463  139.4870  143.5547 H   0  0  0  0  0  0  0  0  0  0  0  0  # atno 7974 bound_to 7965
  155.5320  140.0600  157.2887 H   0  0  0  0  0  0  0  0  0  0  0  0  # atno 8008 bound_to 7997
  154.4481  140.1934  156.0548 H   0  0  0  0  0  0  0  0  0  0  0  0  # atno 8009 bound_to 7997
  156.0646  140.3268  155.7506 H   0  0  0  0  0  0  0  0  0  0  0  0  # atno 8010 bound_to 7997
  140.6002  143.8621  150.6957 H   0  0  0  0  0  0  0  0  0  0  0  0  # atno 10167 bound_to 10162
  157.6640  130.9734  150.1377 H   0  0  0  0  0  0  0  0  0  0  0  0  # atno 10718 bound_to 10713
  154.8756  135.3866  154.4064 H   0  0  0  0  0  0  0  0  0  0  0  0  # atno 10763 bound_to 10752
  153.4783  135.7030  153.5958 H   0  0  0  0  0  0  0  0  0  0  0  0  # atno 10764 bound_to 10752
  153.4385  135.3862  155.2181 H   0  0  0  0  0  0  0  0  0  0  0  0  # atno 10765 bound_to 10752
  140.8988  134.1717  157.4475 H   0  0  0  0  0  0  0  0  0  0  0  0  # atno 11005 bound_to 11000
  146.3305  139.8518  142.8871 LP  0  0  0  0  0  0  0  0  0  0  0  0  # atno 17320 bound_to 7965
  145.2912  141.0168  143.3662 LP  0  0  0  0  0  0  0  0  0  0  0  0  # atno 17321 bound_to 7965
  140.2164  143.3843  152.1677 LP  0  0  0  0  0  0  0  0  0  0  0  0  # atno 17342 bound_to 10162
  139.5285  144.7132  151.5140 LP  0  0  0  0  0  0  0  0  0  0  0  0  # atno 17343 bound_to 10162
  156.2208  130.3674  149.8559 LP  0  0  0  0  0  0  0  0  0  0  0  0  # atno 17370 bound_to 10713
  156.6412  130.8705  151.3514 LP  0  0  0  0  0  0  0  0  0  0  0  0  # atno 17371 bound_to 10713
  139.8739  134.9889  156.5434 LP  0  0  0  0  0  0  0  0  0  0  0  0  # atno 17394 bound_to 11000
  140.8256  133.8319  155.8936 LP  0  0  0  0  0  0  0  0  0  0  0  0  # atno 17395 bound_to 11000

$$$$
