AV-unprocessed.smi:3338|AV-procd|sdf|12869|dock9
  -GOLD-   2272019273D 1   1.00000     0.00000
 Structure written by MMmdl.
 44 45  0  0  0  0  0  0  0  0  2 V2000
  143.9643  135.1265  151.5658 C   0  0  0  0  0  0  0  0  0  0  0  0
  145.4183  134.7132  151.8337 C   0  0  2  0  0  0  0  0  0  0  0  0
  145.6492  133.2278  151.5096 C   0  0  0  0  0  0  0  0  0  0  0  0
  147.1016  132.8385  151.8101 C   0  0  0  0  0  0  0  0  0  0  0  0
  147.4749  133.1835  153.2603 C   0  0  0  0  0  0  0  0  0  0  0  0
  147.2454  134.6238  153.5450 N   0  3  2  0  0  0  0  0  0  0  0  0
  147.7239  135.0097  154.8963 C   0  0  0  0  0  0  0  0  0  0  0  0
  149.2598  134.9593  155.0151 C   0  0  0  0  0  0  0  0  0  0  0  0
  149.8677  136.1957  154.5393 N   0  0  0  0  0  0  0  0  0  0  0  0
  150.6422  137.0063  155.2789 C   0  0  0  0  0  0  0  0  0  0  0  0
  150.9474  136.7546  156.4456 O   0  0  0  0  0  0  0  0  0  0  0  0
  151.1364  138.2915  154.5917 C   0  0  2  0  0  0  0  0  0  0  0  0
  152.6736  138.3820  154.5115 C   0  0  0  0  0  0  0  0  0  0  0  0
  150.5634  139.4719  155.2295 N   0  0  0  0  0  0  0  0  0  0  0  0
  149.7984  139.5308  156.3767 C   0  0  0  0  0  0  0  0  0  0  0  0
  149.5035  140.8439  156.6070 C   0  0  0  0  0  0  0  0  0  0  0  0
  150.1415  141.5265  155.5345 C   0  0  0  0  0  0  0  0  0  0  0  0
  150.7780  140.7057  154.7154 N   0  0  0  0  0  0  0  0  0  0  0  0
  145.8323  135.0129  153.2888 C   0  0  0  0  0  0  0  0  0  0  0  0
  143.2702  134.5693  152.1957 H   0  0  0  0  0  0  0  0  0  0  0  0
  143.6894  134.9445  150.5265 H   0  0  0  0  0  0  0  0  0  0  0  0
  143.8145  136.1884  151.7639 H   0  0  0  0  0  0  0  0  0  0  0  0
  146.0541  135.3058  151.1739 H   0  0  0  0  0  0  0  0  0  0  0  0
  144.9736  132.6073  152.1003 H   0  0  0  0  0  0  0  0  0  0  0  0
  145.4209  133.0279  150.4620 H   0  0  0  0  0  0  0  0  0  0  0  0
  147.2456  131.7725  151.6316 H   0  0  0  0  0  0  0  0  0  0  0  0
  147.7710  133.3602  151.1247 H   0  0  0  0  0  0  0  0  0  0  0  0
  146.8925  132.5764  153.9553 H   0  0  0  0  0  0  0  0  0  0  0  0
  148.5244  132.9358  153.4249 H   0  0  0  0  0  0  0  0  0  0  0  0
  147.3457  135.9998  155.1557 H   0  0  0  0  0  0  0  0  0  0  0  0
  147.3018  134.3204  155.6293 H   0  0  0  0  0  0  0  0  0  0  0  0
  149.5588  134.7692  156.0475 H   0  0  0  0  0  0  0  0  0  0  0  0
  149.6717  134.1471  154.4174 H   0  0  0  0  0  0  0  0  0  0  0  0
  149.6669  136.4698  153.5881 H   0  0  0  0  0  0  0  0  0  0  0  0
  150.7604  138.2636  153.5677 H   0  0  0  0  0  0  0  0  0  0  0  0
  153.0924  137.5275  153.9789 H   0  0  0  0  0  0  0  0  0  0  0  0
  153.1325  138.4140  155.5006 H   0  0  0  0  0  0  0  0  0  0  0  0
  152.9817  139.2809  153.9765 H   0  0  0  0  0  0  0  0  0  0  0  0
  149.5298  138.6424  156.9291 H   0  0  0  0  0  0  0  0  0  0  0  0
  148.9200  141.2546  157.4180 H   0  0  0  0  0  0  0  0  0  0  0  0
  150.1629  142.5867  155.3296 H   0  0  0  0  0  0  0  0  0  0  0  0
  145.6971  136.0768  153.4804 H   0  0  0  0  0  0  0  0  0  0  0  0
  145.1786  134.4832  153.9840 H   0  0  0  0  0  0  0  0  0  0  0  0
  147.8166  135.1324  152.8852 H   0  0  0  0  0  0  0  0  0  0  0  0
  1  2  1  0  0  0  0
  1 20  1  0  0  0  0
  1 21  1  0  0  0  0
  1 22  1  0  0  0  0
  2 19  1  0  0  0  0
  2  3  1  0  0  0  0
  2 23  1  0  0  0  0
  3  4  1  0  0  0  0
  3 24  1  0  0  0  0
  3 25  1  0  0  0  0
  4  5  1  0  0  0  0
  4 26  1  0  0  0  0
  4 27  1  0  0  0  0
  5  6  1  0  0  0  0
  5 28  1  0  0  0  0
  5 29  1  0  0  0  0
  6  7  1  0  0  0  0
  6 19  1  0  0  0  0
  6 44  1  0  0  0  0
  7  8  1  0  0  0  0
  7 30  1  0  0  0  0
  7 31  1  0  0  0  0
  8  9  1  0  0  0  0
  8 32  1  0  0  0  0
  8 33  1  0  0  0  0
  9 10  1  0  0  0  0
  9 34  1  0  0  0  0
 10 11  2  0  0  0  0
 10 12  1  0  0  0  0
 12 13  1  0  0  0  0
 12 14  1  0  0  0  0
 12 35  1  0  0  0  0
 13 36  1  0  0  0  0
 13 37  1  0  0  0  0
 13 38  1  0  0  0  0
 14 18  1  0  0  0  0
 14 15  1  0  0  0  0
 15 16  2  0  0  0  0
 15 39  1  0  0  0  0
 16 17  1  0  0  0  0
 16 40  1  0  0  0  0
 17 18  2  0  0  0  0
 17 41  1  0  0  0  0
 19 42  1  0  0  0  0
 19 43  1  0  0  0  0
M  CHG  1   6   1
M  END
> <s_m_source_file>
AV-unprocessed.smi

> <i_m_source_file_index>
3338

> <i_lp_mmshare_version>
43012

> <i_f3d_flags>
0

> <s_epik_input>
W0NIM11bQ0BASF0xW0NIMl1bQ0gyXVtDSDJdTihbQ0gyXTEpW0NIMl1bQ0gyXVtOSF1DKD1PKVtDQEhdKFtDSDNdKW4yW2NIXVtjSF1bY0hdbjI=

> <s_epik_cmdline>
J2VwaWtfcHl0aG9uJywgJy1waCcsICc3LjAnLCAnLXRuJywgJzgnLCAnLW1hJywgJzIwMCcsICctbWV0YWxfYmluZGluZycsICctaW1hZScsICc8aW5maWxlLm1hZT4nLCAnLW9tYWUnLCAnPG91dGZpbGUubWFlPic=

> <r_lp_tautomer_probability>
1

> <r_epik_Ionization_Penalty>
0.00225707

> <r_epik_Ionization_Penalty_Charging>
0.00223709

> <r_epik_Ionization_Penalty_Neutral>
1.99775e-05

> <r_epik_State_Penalty>
0.00153978

> <r_epik_Charging_Adjusted_Penalty>
0.00377687

> <i_epik_Tot_Q>
1

> <i_epik_Tot_abs_Q>
1

> <r_epik_Metal_State_Penalty>
-0

> <b_epik_Metal_Only>
0

> <s_lp_Force_Field>
OPLS_2005

> <r_lp_Energy>
19.7834

> <b_lp_Chiralities_Consistent>
1

> <s_lp_Variant>
AV-unprocessed.smi:3338-1

> <Gold.Version>
5.8.1

> <Gold.Id.Protein>
6NUR|6NUR_protein|mol2

> <Gold.PLP.Fitness>
44.0387

> <Gold.PLP.PLP>
-30.3398

> <Gold.PLP.part.hbond>
-2.9075

> <Gold.PLP.part.metal>
0.0000

> <Gold.PLP.part.buried>
-2.7341

> <Gold.PLP.part.nonpolar>
-25.1898

> <Gold.PLP.part.repulsive>
0.1252

> <Gold.PLP.ligand.clash>
0.0000

> <Gold.PLP.ligand.torsion>
0.2840

> <Gold.PLP.Chemscore.Hbond>
3.7120

> <Gold.PLP.Chemscore.CHOScore>
1.0000

> <Gold.PLP.Chemscore.Metal>
0.0000

> <Gold.Chemscore.Hbonds>
donor molecule, donor type, donor heavy atom, donor atom, acceptor molecule, acceptor atom, score
      L1  H     6    44       P1  7948  2.00
      L1  H     9    34       P1  7948  1.00
      P1  H  7989  7998       L1    18  0.83
      L1  C    17    41       P1  8028  1.00

> <Gold.PLP.Chemscore.Internal.Correction>
0.1310

> <Gold.Rescore>
     Score         DG    S(hbond)    S(metal)    S(lipo)     H(rot)  DE(clash)    DE(int)     intcor
     16.36     -17.06       2.47        0.00      66.87       1.76       0.05       0.65       ----

> <Gold.Chemscore.Fitness>
16.3560

> <Gold.Chemscore.DG>
-17.0576

> <Gold.Chemscore.ZeroCoef>
-5.4800

> <Gold.Chemscore.Hbond>
2.4707

> <Gold.Chemscore.Metal>
0.0000

> <Gold.Chemscore.Lipo>
66.8661

> <Gold.Chemscore.Internal_Hbond>
0.0000

> <Gold.Chemscore.DEClash>
0.0485

> <Gold.Chemscore.DEInternal>
0.6531

> <Gold.Chemscore.Rot>
1.7570

> <Gold.Chemscore.Internal.Correction>
   9.000000E+99

> <Gold.Chemscore.Hbonds>
donor molecule, donor type, donor heavy atom, donor atom, acceptor molecule, acceptor atom, score
      L1  H     6    44       P1  7948  1.00
      L1  H     9    34       P1  7948  0.49
      P1  H  7989  7998       L1    18  0.77

> <Gold.Chemscore.Hbond.Weighted>
-8.2522

> <Gold.Chemscore.Metal.Weighted>
-0.0000

> <Gold.Chemscore.Lipo.Weighted>
-7.8233

> <Gold.Chemscore.Internal_Hbond.Weighted>
0.0000

> <Gold.Chemscore.DEClash.Weighted>
0.0485

> <Gold.Chemscore.DEInternal.Weighted>
0.6531

> <Gold.Chemscore.Rot.Weighted>
4.4979

> <Gold.Chemscore.Internal.Correction.Weighted>
   9.000000E+99

> <Gold.Protein.RotatedTorsions>
[ 6907 6896 6895 6894 ] final  -54.52 input  -60.11 | X-H torsion
[ 7974 7965 7964 7962 ] final  103.90 input  175.53 | X-H torsion
[ 8008 7997 7996 7995 ] final  103.40 input   59.86 | X-H torsion
[ 10167 10162 10161 10158 ] final   11.08 input  -65.29 | X-H torsion
[ 10718 10713 10712 10709 ] final -109.84 input   66.30 | X-H torsion
[ 10763 10752 10751 10750 ] final  -73.57 input  -60.55 | X-H torsion
[ 11005 11000 10999 10996 ] final   30.29 input  -57.11 | X-H torsion

> <Gold.Protein.ActiveResidues>
 VAL166  LYS551  ARG553  GLY616  TRP617  ASP618  TYR619  PRO620  LYS621  CYS622 
 ASP623  PHE694  ASN695  SER759  ASP760  ASP761  ALA762  ILE779  LEU786  VAL792 
 PHE793  MET794  SER795  GLU796  ALA797  LYS798  CYS799  TRP800  GLU811  SER814 

> <Gold.Protein.RotatedAtoms>
  150.8331  134.7592  159.6869 H   0  0  0  0  0  0  0  0  0  0  0  0  # atno 6907 bound_to 6896
  152.4432  134.5545  159.9886 H   0  0  0  0  0  0  0  0  0  0  0  0  # atno 6908 bound_to 6896
  151.5702  133.3353  159.3024 H   0  0  0  0  0  0  0  0  0  0  0  0  # atno 6909 bound_to 6896
  145.3399  139.2465  143.3615 H   0  0  0  0  0  0  0  0  0  0  0  0  # atno 7974 bound_to 7965
  156.1480  140.3165  155.8602 H   0  0  0  0  0  0  0  0  0  0  0  0  # atno 8008 bound_to 7997
  155.4026  140.0500  157.3053 H   0  0  0  0  0  0  0  0  0  0  0  0  # atno 8009 bound_to 7997
  154.5033  140.2137  155.9313 H   0  0  0  0  0  0  0  0  0  0  0  0  # atno 8010 bound_to 7997
  140.6154  143.8318  150.7113 H   0  0  0  0  0  0  0  0  0  0  0  0  # atno 10167 bound_to 10162
  156.0558  130.5784  150.8155 H   0  0  0  0  0  0  0  0  0  0  0  0  # atno 10718 bound_to 10713
  154.4613  135.5893  153.6257 H   0  0  0  0  0  0  0  0  0  0  0  0  # atno 10763 bound_to 10752
  152.9823  135.6044  154.3483 H   0  0  0  0  0  0  0  0  0  0  0  0  # atno 10764 bound_to 10752
  154.3355  135.2842  155.2429 H   0  0  0  0  0  0  0  0  0  0  0  0  # atno 10765 bound_to 10752
  140.2959  134.2811  155.7765 H   0  0  0  0  0  0  0  0  0  0  0  0  # atno 11005 bound_to 11000
  146.3012  140.3994  142.8703 LP  0  0  0  0  0  0  0  0  0  0  0  0  # atno 17320 bound_to 7965
  144.8798  140.7386  143.5993 LP  0  0  0  0  0  0  0  0  0  0  0  0  # atno 17321 bound_to 7965
  140.1896  143.4047  152.1873 LP  0  0  0  0  0  0  0  0  0  0  0  0  # atno 17342 bound_to 10162
  139.5395  144.7242  151.4782 LP  0  0  0  0  0  0  0  0  0  0  0  0  # atno 17343 bound_to 10162
  157.5527  131.0944  150.9673 LP  0  0  0  0  0  0  0  0  0  0  0  0  # atno 17370 bound_to 10713
  156.9929  130.5570  149.5305 LP  0  0  0  0  0  0  0  0  0  0  0  0  # atno 17371 bound_to 10713
  141.2137  133.7615  156.9694 LP  0  0  0  0  0  0  0  0  0  0  0  0  # atno 17394 bound_to 11000
  140.1153  134.9451  157.2125 LP  0  0  0  0  0  0  0  0  0  0  0  0  # atno 17395 bound_to 11000

$$$$
