AV-unprocessed.smi:754|AV-procd|sdf|3608|dock6
  -GOLD-   22720 1 03D 1   1.00000     0.00000
 Structure written by MMmdl.
 37 38  0  0  0  0  0  0  0  0  1 V2000
  152.4506  144.6743  158.7143 C   0  0  0  0  0  0  0  0  0  0  0  0
  152.6376  143.1668  158.8982 C   0  0  0  0  0  0  0  0  0  0  0  0
  151.7876  142.4882  157.9894 O   0  0  0  0  0  0  0  0  0  0  0  0
  152.0473  141.0950  157.9233 C   0  0  1  0  0  0  0  0  0  0  0  0
  151.4237  140.2744  159.0565 C   0  0  0  0  0  0  0  0  0  0  0  0
  151.1388  139.2183  157.9875 C   0  0  1  0  0  0  0  0  0  0  0  0
  149.8597  138.5462  158.1906 N   0  0  0  0  0  0  0  0  0  0  0  0
  149.6909  137.4438  158.9354 C   0  0  0  0  0  0  0  0  0  0  0  0
  150.6136  136.8790  159.5236 O   0  0  0  0  0  0  0  0  0  0  0  0
  148.2660  136.8909  159.0222 C   0  0  0  0  0  0  0  0  0  0  0  0
  148.0202  136.2524  160.3019 N   0  0  0  0  0  0  0  0  0  0  0  0
  147.9042  134.9646  160.6320 C   0  0  0  0  0  0  0  0  0  0  0  0
  147.6878  134.8098  161.9293 N   0  0  0  0  0  0  0  0  0  0  0  0
  147.6767  136.1111  162.4037 N   0  0  0  0  0  0  0  0  0  0  0  0
  147.8738  136.9715  161.4425 N   0  0  0  0  0  0  0  0  0  0  0  0
  151.1244  140.3520  156.9259 C   0  0  0  0  0  0  0  0  0  0  0  0
  149.7725  141.0250  156.6300 C   0  0  0  0  0  0  0  0  0  0  0  0
  151.7538  140.0081  155.5760 C   0  0  0  0  0  0  0  0  0  0  0  0
  153.0922  145.2328  159.3960 H   0  0  0  0  0  0  0  0  0  0  0  0
  151.4186  144.9663  158.9102 H   0  0  0  0  0  0  0  0  0  0  0  0
  152.6981  144.9774  157.6968 H   0  0  0  0  0  0  0  0  0  0  0  0
  153.6781  142.8954  158.7141 H   0  0  0  0  0  0  0  0  0  0  0  0
  152.3988  142.8853  159.9246 H   0  0  0  0  0  0  0  0  0  0  0  0
  153.1029  140.8610  157.7646 H   0  0  0  0  0  0  0  0  0  0  0  0
  152.1243  139.9631  159.8317 H   0  0  0  0  0  0  0  0  0  0  0  0
  150.5281  140.7334  159.4791 H   0  0  0  0  0  0  0  0  0  0  0  0
  151.9829  138.5352  157.8651 H   0  0  0  0  0  0  0  0  0  0  0  0
  149.0518  138.9478  157.7370 H   0  0  0  0  0  0  0  0  0  0  0  0
  147.5303  137.6832  158.8732 H   0  0  0  0  0  0  0  0  0  0  0  0
  148.1158  136.1574  158.2294 H   0  0  0  0  0  0  0  0  0  0  0  0
  147.9808  134.1486  159.9285 H   0  0  0  0  0  0  0  0  0  0  0  0
  149.1107  140.3674  156.0656 H   0  0  0  0  0  0  0  0  0  0  0  0
  149.9013  141.9346  156.0426 H   0  0  0  0  0  0  0  0  0  0  0  0
  149.2454  141.3077  157.5414 H   0  0  0  0  0  0  0  0  0  0  0  0
  151.1212  139.3328  154.9993 H   0  0  0  0  0  0  0  0  0  0  0  0
  152.7197  139.5172  155.6980 H   0  0  0  0  0  0  0  0  0  0  0  0
  151.9198  140.9013  154.9732 H   0  0  0  0  0  0  0  0  0  0  0  0
  1  2  1  0  0  0  0
  1 19  1  0  0  0  0
  1 20  1  0  0  0  0
  1 21  1  0  0  0  0
  2  3  1  0  0  0  0
  2 22  1  0  0  0  0
  2 23  1  0  0  0  0
  3  4  1  0  0  0  0
  4 16  1  0  0  0  0
  4  5  1  0  0  0  0
  4 24  1  0  0  0  0
  5  6  1  0  0  0  0
  5 25  1  0  0  0  0
  5 26  1  0  0  0  0
  6  7  1  0  0  0  0
  6 16  1  0  0  0  0
  6 27  1  0  0  0  0
  7  8  1  0  0  0  0
  7 28  1  0  0  0  0
  8  9  2  0  0  0  0
  8 10  1  0  0  0  0
 10 11  1  0  0  0  0
 10 29  1  0  0  0  0
 10 30  1  0  0  0  0
 11 15  1  0  0  0  0
 11 12  1  0  0  0  0
 12 13  2  0  0  0  0
 12 31  1  0  0  0  0
 13 14  1  0  0  0  0
 14 15  2  0  0  0  0
 16 17  1  0  0  0  0
 16 18  1  0  0  0  0
 17 32  1  0  0  0  0
 17 33  1  0  0  0  0
 17 34  1  0  0  0  0
 18 35  1  0  0  0  0
 18 36  1  0  0  0  0
 18 37  1  0  0  0  0
M  END
> <s_m_source_file>
AV-unprocessed.smi

> <i_m_source_file_index>
754

> <i_lp_mmshare_version>
43012

> <i_f3d_flags>
0

> <s_epik_input>
W0NIM11bQ0gyXU9bQ0BASF0oQzEoW0NIM10pW0NIM10pW0NIMl1bQ0BIXTFbTkhdQyg9TylbQ0gyXW4yW2NIXW5ubjI=

> <s_epik_cmdline>
J2VwaWtfcHl0aG9uJywgJy1waCcsICc3LjAnLCAnLXRuJywgJzgnLCAnLW1hJywgJzIwMCcsICctbWV0YWxfYmluZGluZycsICctaW1hZScsICc8aW5maWxlLm1hZT4nLCAnLW9tYWUnLCAnPG91dGZpbGUubWFlPic=

> <r_lp_tautomer_probability>
1

> <r_epik_Ionization_Penalty>
8.28422e-07

> <r_epik_Ionization_Penalty_Charging>
0

> <r_epik_Ionization_Penalty_Neutral>
8.28422e-07

> <r_epik_State_Penalty>
-0

> <r_epik_Charging_Adjusted_Penalty>
0

> <i_epik_Tot_Q>
0

> <i_epik_Tot_abs_Q>
0

> <r_epik_Metal_State_Penalty>
-0

> <b_epik_Metal_Only>
0

> <s_lp_Force_Field>
OPLS_2005

> <r_lp_Energy>
20.8169

> <b_lp_Chiralities_Consistent>
1

> <s_lp_Variant>
AV-unprocessed.smi:754-2

> <Gold.Version>
5.8.1

> <Gold.Id.Protein>
6NUR|6NUR_protein|mol2

> <Gold.PLP.Fitness>
38.3150

> <Gold.PLP.PLP>
-31.3466

> <Gold.PLP.part.hbond>
-3.0000

> <Gold.PLP.part.metal>
0.0000

> <Gold.PLP.part.buried>
-4.3019

> <Gold.PLP.part.nonpolar>
-24.0535

> <Gold.PLP.part.repulsive>
0.1780

> <Gold.PLP.ligand.clash>
0.0000

> <Gold.PLP.ligand.torsion>
0.8623

> <Gold.PLP.Chemscore.Hbond>
2.7840

> <Gold.PLP.Chemscore.CHOScore>
0.0000

> <Gold.PLP.Chemscore.Metal>
0.0000

> <Gold.Chemscore.Hbonds>
donor molecule, donor type, donor heavy atom, donor atom, acceptor molecule, acceptor atom, score
      P1  H  6896  6907       L1     9  1.00
      P1  H  6931  6943       L1    15  1.00
      P1  H  6934  6947       L1    15  0.40

> <Gold.PLP.Chemscore.Internal.Correction>
0.3410

> <Gold.Rescore>
     Score         DG    S(hbond)    S(metal)    S(lipo)     H(rot)  DE(clash)    DE(int)     intcor
     14.13     -14.90       2.49        0.00      63.36       2.46       0.01       0.77       ----

> <Gold.Chemscore.Fitness>
14.1312

> <Gold.Chemscore.DG>
-14.9043

> <Gold.Chemscore.ZeroCoef>
-5.4800

> <Gold.Chemscore.Hbond>
2.4890

> <Gold.Chemscore.Metal>
0.0000

> <Gold.Chemscore.Lipo>
63.3572

> <Gold.Chemscore.Internal_Hbond>
0.0000

> <Gold.Chemscore.DEClash>
0.0052

> <Gold.Chemscore.DEInternal>
0.7679

> <Gold.Chemscore.Rot>
2.4616

> <Gold.Chemscore.Internal.Correction>
   9.000000E+99

> <Gold.Chemscore.Hbonds>
donor molecule, donor type, donor heavy atom, donor atom, acceptor molecule, acceptor atom, score
      P1  H  6896  6907       L1     9  0.99
      P1  H  6931  6943       L1    15  0.81
      P1  H  6934  6947       L1    15  0.31

> <Gold.Chemscore.Hbond.Weighted>
-8.3131

> <Gold.Chemscore.Metal.Weighted>
-0.0000

> <Gold.Chemscore.Lipo.Weighted>
-7.4128

> <Gold.Chemscore.Internal_Hbond.Weighted>
0.0000

> <Gold.Chemscore.DEClash.Weighted>
0.0052

> <Gold.Chemscore.DEInternal.Weighted>
0.7679

> <Gold.Chemscore.Rot.Weighted>
6.3016

> <Gold.Chemscore.Internal.Correction.Weighted>
   9.000000E+99

> <Gold.Protein.RotatedTorsions>
[ 6907 6896 6895 6894 ] final  -36.39 input  -60.11 | X-H torsion
[ 7974 7965 7964 7962 ] final  147.62 input  175.53 | X-H torsion
[ 8008 7997 7996 7995 ] final -152.38 input   59.86 | X-H torsion
[ 10167 10162 10161 10158 ] final  144.55 input  -65.29 | X-H torsion
[ 10718 10713 10712 10709 ] final  161.64 input   66.30 | X-H torsion
[ 10763 10752 10751 10750 ] final  178.92 input  -60.55 | X-H torsion
[ 11005 11000 10999 10996 ] final  -36.14 input  -57.11 | X-H torsion

> <Gold.Protein.ActiveResidues>
 VAL166  LYS551  ARG553  GLY616  TRP617  ASP618  TYR619  PRO620  LYS621  CYS622 
 ASP623  PHE694  ASN695  SER759  ASP760  ASP761  ALA762  ILE779  LEU786  VAL792 
 PHE793  MET794  SER795  GLU796  ALA797  LYS798  CYS799  TRP800  GLU811  SER814 

> <Gold.Protein.RotatedAtoms>
  151.0278  134.9517  159.8094 H   0  0  0  0  0  0  0  0  0  0  0  0  # atno 6907 bound_to 6896
  152.5339  134.2820  159.9021 H   0  0  0  0  0  0  0  0  0  0  0  0  # atno 6908 bound_to 6896
  151.2828  133.4159  159.2662 H   0  0  0  0  0  0  0  0  0  0  0  0  # atno 6909 bound_to 6896
  144.8577  139.6051  143.5945 H   0  0  0  0  0  0  0  0  0  0  0  0  # atno 7974 bound_to 7965
  155.6542  140.0715  157.2576 H   0  0  0  0  0  0  0  0  0  0  0  0  # atno 8008 bound_to 7997
  154.4156  140.1728  156.1757 H   0  0  0  0  0  0  0  0  0  0  0  0  # atno 8009 bound_to 7997
  155.9751  140.3358  155.6615 H   0  0  0  0  0  0  0  0  0  0  0  0  # atno 8010 bound_to 7997
  139.4944  144.5964  151.6574 H   0  0  0  0  0  0  0  0  0  0  0  0  # atno 10167 bound_to 10162
  157.1337  131.0523  151.2359 H   0  0  0  0  0  0  0  0  0  0  0  0  # atno 10718 bound_to 10713
  154.5139  135.2790  155.1319 H   0  0  0  0  0  0  0  0  0  0  0  0  # atno 10763 bound_to 10752
  154.2904  135.6268  153.5386 H   0  0  0  0  0  0  0  0  0  0  0  0  # atno 10764 bound_to 10752
  152.9924  135.5672  154.5611 H   0  0  0  0  0  0  0  0  0  0  0  0  # atno 10765 bound_to 10752
  140.9852  133.7035  156.1752 H   0  0  0  0  0  0  0  0  0  0  0  0  # atno 11005 bound_to 11000
  146.2836  139.6944  142.9211 LP  0  0  0  0  0  0  0  0  0  0  0  0  # atno 17320 bound_to 7965
  145.4373  141.0420  143.2877 LP  0  0  0  0  0  0  0  0  0  0  0  0  # atno 17321 bound_to 7965
  140.5603  144.0280  150.6166 LP  0  0  0  0  0  0  0  0  0  0  0  0  # atno 17342 bound_to 10162
  140.3364  143.3046  152.0634 LP  0  0  0  0  0  0  0  0  0  0  0  0  # atno 17343 bound_to 10162
  157.4369  130.7522  149.7036 LP  0  0  0  0  0  0  0  0  0  0  0  0  # atno 17370 bound_to 10713
  155.9802  130.4031  150.3540 LP  0  0  0  0  0  0  0  0  0  0  0  0  # atno 17371 bound_to 10713
  140.7126  134.4445  157.5580 LP  0  0  0  0  0  0  0  0  0  0  0  0  # atno 17394 bound_to 11000
  139.8967  134.8653  156.2075 LP  0  0  0  0  0  0  0  0  0  0  0  0  # atno 17395 bound_to 11000

$$$$
