AV-unprocessed.smi:1321|AV-procd|sdf|5462|dock4
  -GOLD-   22720 5 33D 1   1.00000     0.00000
 Structure written by MMmdl.
 43 44  0  0  0  0  0  0  0  0  1 V2000
  151.2672  138.5238  154.0455 C   0  0  0  0  0  0  0  0  0  0  0  0
  150.6223  139.2821  155.2299 C   0  0  0  0  0  0  0  0  0  0  0  0
  150.0075  140.5946  154.6996 C   0  0  0  0  0  0  0  0  0  0  0  0
  149.5048  138.4131  155.8413 C   0  0  0  0  0  0  0  0  0  0  0  0
  151.6431  139.6155  156.3443 C   0  0  0  0  0  0  0  0  0  0  0  0
  152.8318  139.3373  156.1817 O   0  0  0  0  0  0  0  0  0  0  0  0
  151.1908  140.2202  157.4561 N   0  0  0  0  0  0  0  0  0  0  0  0
  152.0071  140.7050  158.5637 C   0  0  0  0  0  0  0  0  0  0  0  0
  151.9582  142.2230  158.6808 C   0  0  0  0  0  0  0  0  0  0  0  0
  151.4659  142.9820  157.5977 C   0  0  0  0  0  0  0  0  0  0  0  0
  151.4505  144.3853  157.6908 C   0  0  0  0  0  0  0  0  0  0  0  0
  151.9333  144.9797  158.8705 C   0  0  0  0  0  0  0  0  0  0  0  0
  152.4080  144.2691  159.9142 N   0  0  0  0  0  0  0  0  0  0  0  0
  152.4256  142.9162  159.8293 C   0  0  0  0  0  0  0  0  0  0  0  0
  152.9101  142.2073  160.9420 N   0  0  0  0  0  0  0  0  0  0  0  0
  154.0919  141.3828  160.7140 C   0  0  0  0  0  0  0  0  0  0  0  0
  154.3922  140.5416  161.9662 C   0  0  0  0  0  0  0  0  0  0  0  0
  154.5396  141.4009  163.0935 O   0  0  0  0  0  0  0  0  0  0  0  0
  153.3556  142.1493  163.3555 C   0  0  0  0  0  0  0  0  0  0  0  0
  153.0184  143.0300  162.1396 C   0  0  0  0  0  0  0  0  0  0  0  0
  150.5371  138.3331  153.2583 H   0  0  0  0  0  0  0  0  0  0  0  0
  151.6655  137.5548  154.3502 H   0  0  0  0  0  0  0  0  0  0  0  0
  152.0809  139.0952  153.5963 H   0  0  0  0  0  0  0  0  0  0  0  0
  150.7728  141.2601  154.2981 H   0  0  0  0  0  0  0  0  0  0  0  0
  149.4730  141.1388  155.4797 H   0  0  0  0  0  0  0  0  0  0  0  0
  149.2928  140.4000  153.8994 H   0  0  0  0  0  0  0  0  0  0  0  0
  148.7505  138.1592  155.0957 H   0  0  0  0  0  0  0  0  0  0  0  0
  148.9930  138.9252  156.6573 H   0  0  0  0  0  0  0  0  0  0  0  0
  149.9000  137.4767  156.2379 H   0  0  0  0  0  0  0  0  0  0  0  0
  150.2000  140.4045  157.5143 H   0  0  0  0  0  0  0  0  0  0  0  0
  151.6222  140.2590  159.4811 H   0  0  0  0  0  0  0  0  0  0  0  0
  153.0414  140.3685  158.4877 H   0  0  0  0  0  0  0  0  0  0  0  0
  151.1093  142.4968  156.7010 H   0  0  0  0  0  0  0  0  0  0  0  0
  151.0808  144.9911  156.8771 H   0  0  0  0  0  0  0  0  0  0  0  0
  151.9390  146.0541  158.9795 H   0  0  0  0  0  0  0  0  0  0  0  0
  153.9277  140.7322  159.8542 H   0  0  0  0  0  0  0  0  0  0  0  0
  154.9494  142.0169  160.4851 H   0  0  0  0  0  0  0  0  0  0  0  0
  153.5982  139.8166  162.1497 H   0  0  0  0  0  0  0  0  0  0  0  0
  155.3136  139.9761  161.8269 H   0  0  0  0  0  0  0  0  0  0  0  0
  152.5307  141.4746  163.5896 H   0  0  0  0  0  0  0  0  0  0  0  0
  153.5157  142.7708  164.2366 H   0  0  0  0  0  0  0  0  0  0  0  0
  153.7987  143.7782  161.9931 H   0  0  0  0  0  0  0  0  0  0  0  0
  152.0871  143.5691  162.3156 H   0  0  0  0  0  0  0  0  0  0  0  0
  1  2  1  0  0  0  0
  1 21  1  0  0  0  0
  1 22  1  0  0  0  0
  1 23  1  0  0  0  0
  2  3  1  0  0  0  0
  2  4  1  0  0  0  0
  2  5  1  0  0  0  0
  3 24  1  0  0  0  0
  3 25  1  0  0  0  0
  3 26  1  0  0  0  0
  4 27  1  0  0  0  0
  4 28  1  0  0  0  0
  4 29  1  0  0  0  0
  5  6  2  0  0  0  0
  5  7  1  0  0  0  0
  7  8  1  0  0  0  0
  7 30  1  0  0  0  0
  8  9  1  0  0  0  0
  8 31  1  0  0  0  0
  8 32  1  0  0  0  0
  9 14  1  0  0  0  0
  9 10  2  0  0  0  0
 10 11  1  0  0  0  0
 10 33  1  0  0  0  0
 11 12  2  0  0  0  0
 11 34  1  0  0  0  0
 12 13  1  0  0  0  0
 12 35  1  0  0  0  0
 13 14  2  0  0  0  0
 14 15  1  0  0  0  0
 15 20  1  0  0  0  0
 15 16  1  0  0  0  0
 16 17  1  0  0  0  0
 16 36  1  0  0  0  0
 16 37  1  0  0  0  0
 17 18  1  0  0  0  0
 17 38  1  0  0  0  0
 17 39  1  0  0  0  0
 18 19  1  0  0  0  0
 19 20  1  0  0  0  0
 19 40  1  0  0  0  0
 19 41  1  0  0  0  0
 20 42  1  0  0  0  0
 20 43  1  0  0  0  0
M  END
> <s_m_source_file>
AV-unprocessed.smi

> <i_m_source_file_index>
1321

> <i_lp_mmshare_version>
43012

> <i_f3d_flags>
0

> <s_epik_input>
W0NIM11DKFtDSDNdKShbQ0gzXSlDKD1PKVtOSF1bQ0gyXWMxW2NIXVtjSF1bY0hdbmMxTjJbQ0gyXVtDSDJdT1tDSDJdW0NIMl0y

> <s_epik_cmdline>
J2VwaWtfcHl0aG9uJywgJy1waCcsICc3LjAnLCAnLXRuJywgJzgnLCAnLW1hJywgJzIwMCcsICctbWV0YWxfYmluZGluZycsICctaW1hZScsICc8aW5maWxlLm1hZT4nLCAnLW9tYWUnLCAnPG91dGZpbGUubWFlPic=

> <r_lp_tautomer_probability>
1

> <r_epik_Ionization_Penalty>
0.0052234

> <r_epik_Ionization_Penalty_Charging>
0

> <r_epik_Ionization_Penalty_Neutral>
0.0052234

> <r_epik_State_Penalty>
0.0038086

> <r_epik_Charging_Adjusted_Penalty>
0.0038086

> <i_epik_Tot_Q>
0

> <i_epik_Tot_abs_Q>
0

> <r_epik_Metal_State_Penalty>
-0

> <b_epik_Metal_Only>
0

> <s_lp_Force_Field>
OPLS_2005

> <r_lp_Energy>
23.2048

> <b_lp_Chiralities_Consistent>
1

> <s_lp_Variant>
AV-unprocessed.smi:1321-1

> <Gold.Version>
5.8.1

> <Gold.Id.Protein>
6NUR|6NUR_protein|mol2

> <Gold.PLP.Fitness>
45.7975

> <Gold.PLP.PLP>
-43.4503

> <Gold.PLP.part.hbond>
-2.0000

> <Gold.PLP.part.metal>
0.0000

> <Gold.PLP.part.buried>
-5.6475

> <Gold.PLP.part.nonpolar>
-35.0691

> <Gold.PLP.part.repulsive>
0.0822

> <Gold.PLP.ligand.clash>
0.0000

> <Gold.PLP.ligand.torsion>
0.4168

> <Gold.PLP.Chemscore.Hbond>
1.0000

> <Gold.PLP.Chemscore.CHOScore>
0.0000

> <Gold.PLP.Chemscore.Metal>
0.0000

> <Gold.Chemscore.Hbonds>
donor molecule, donor type, donor heavy atom, donor atom, acceptor molecule, acceptor atom, score
      P1  H  7997  8009       L1     6  1.00

> <Gold.PLP.Chemscore.Internal.Correction>
0.1809

> <Gold.Rescore>
     Score         DG    S(hbond)    S(metal)    S(lipo)     H(rot)  DE(clash)    DE(int)     intcor
     15.16     -17.55       0.98        0.00     108.46       1.52       1.83       0.56       ----

> <Gold.Chemscore.Fitness>
15.1642

> <Gold.Chemscore.DG>
-17.5528

> <Gold.Chemscore.ZeroCoef>
-5.4800

> <Gold.Chemscore.Hbond>
0.9781

> <Gold.Chemscore.Metal>
0.0000

> <Gold.Chemscore.Lipo>
108.4631

> <Gold.Chemscore.Internal_Hbond>
0.0000

> <Gold.Chemscore.DEClash>
1.8333

> <Gold.Chemscore.DEInternal>
0.5553

> <Gold.Chemscore.Rot>
1.5173

> <Gold.Chemscore.Internal.Correction>
   9.000000E+99

> <Gold.Chemscore.Hbonds>
donor molecule, donor type, donor heavy atom, donor atom, acceptor molecule, acceptor atom, score
      P1  H  7997  8009       L1     6  1.00

> <Gold.Chemscore.Hbond.Weighted>
-3.2670

> <Gold.Chemscore.Metal.Weighted>
-0.0000

> <Gold.Chemscore.Lipo.Weighted>
-12.6902

> <Gold.Chemscore.Internal_Hbond.Weighted>
0.0000

> <Gold.Chemscore.DEClash.Weighted>
1.8333

> <Gold.Chemscore.DEInternal.Weighted>
0.5553

> <Gold.Chemscore.Rot.Weighted>
3.8843

> <Gold.Chemscore.Internal.Correction.Weighted>
   9.000000E+99

> <Gold.Protein.RotatedTorsions>
[ 6907 6896 6895 6894 ] final  -12.57 input  -60.11 | X-H torsion
[ 7974 7965 7964 7962 ] final   38.27 input  175.53 | X-H torsion
[ 8008 7997 7996 7995 ] final -155.37 input   59.86 | X-H torsion
[ 10167 10162 10161 10158 ] final  -12.96 input  -65.29 | X-H torsion
[ 10718 10713 10712 10709 ] final  -20.04 input   66.30 | X-H torsion
[ 10763 10752 10751 10750 ] final -136.42 input  -60.55 | X-H torsion
[ 11005 11000 10999 10996 ] final  -59.01 input  -57.11 | X-H torsion

> <Gold.Protein.ActiveResidues>
 VAL166  LYS551  ARG553  GLY616  TRP617  ASP618  TYR619  PRO620  LYS621  CYS622 
 ASP623  PHE694  ASN695  SER759  ASP760  ASP761  ALA762  ILE779  LEU786  VAL792 
 PHE793  MET794  SER795  GLU796  ALA797  LYS798  CYS799  TRP800  GLU811  SER814 

> <Gold.Protein.RotatedAtoms>
  151.3684  135.0918  159.9457 H   0  0  0  0  0  0  0  0  0  0  0  0  # atno 6907 bound_to 6896
  152.5142  133.9189  159.7535 H   0  0  0  0  0  0  0  0  0  0  0  0  # atno 6908 bound_to 6896
  150.9597  133.6404  159.2786 H   0  0  0  0  0  0  0  0  0  0  0  0  # atno 6909 bound_to 6896
  146.1074  139.5792  142.9374 H   0  0  0  0  0  0  0  0  0  0  0  0  # atno 7974 bound_to 7965
  155.7008  140.0766  157.2411 H   0  0  0  0  0  0  0  0  0  0  0  0  # atno 8008 bound_to 7997
  154.4073  140.1647  156.2242 H   0  0  0  0  0  0  0  0  0  0  0  0  # atno 8009 bound_to 7997
  155.9369  140.3387  155.6298 H   0  0  0  0  0  0  0  0  0  0  0  0  # atno 8010 bound_to 7997
  140.7172  143.5477  150.9337 H   0  0  0  0  0  0  0  0  0  0  0  0  # atno 10167 bound_to 10162
  156.5373  130.4670  149.6516 H   0  0  0  0  0  0  0  0  0  0  0  0  # atno 10718 bound_to 10713
  154.8684  135.3673  154.5059 H   0  0  0  0  0  0  0  0  0  0  0  0  # atno 10763 bound_to 10752
  153.5697  135.7021  153.5515 H   0  0  0  0  0  0  0  0  0  0  0  0  # atno 10764 bound_to 10752
  153.3553  135.4061  155.1641 H   0  0  0  0  0  0  0  0  0  0  0  0  # atno 10765 bound_to 10752
  141.1231  133.6614  156.5007 H   0  0  0  0  0  0  0  0  0  0  0  0  # atno 11005 bound_to 11000
  145.5732  141.0391  143.2162 LP  0  0  0  0  0  0  0  0  0  0  0  0  # atno 17320 bound_to 7965
  144.7483  139.7262  143.7283 LP  0  0  0  0  0  0  0  0  0  0  0  0  # atno 17321 bound_to 7965
  139.9200  143.6617  152.3098 LP  0  0  0  0  0  0  0  0  0  0  0  0  # atno 17342 bound_to 10162
  139.7031  144.7632  151.1240 LP  0  0  0  0  0  0  0  0  0  0  0  0  # atno 17343 bound_to 10162
  156.3004  130.7173  151.2043 LP  0  0  0  0  0  0  0  0  0  0  0  0  # atno 17370 bound_to 10713
  157.7411  131.0508  150.5118 LP  0  0  0  0  0  0  0  0  0  0  0  0  # atno 17371 bound_to 10713
  140.4448  134.6982  157.5010 LP  0  0  0  0  0  0  0  0  0  0  0  0  # atno 17394 bound_to 11000
  140.0205  134.6555  155.9247 LP  0  0  0  0  0  0  0  0  0  0  0  0  # atno 17395 bound_to 11000

$$$$
