AV-unprocessed.smi:182|AV-procd|sdf|1455|dock2
  -GOLD-   2262019253D 1   1.00000     0.00000
 Structure written by MMmdl.
 56 59  0  0  0  0  0  0  0  0  1 V2000
  148.6976  140.6771  153.9485 N   0  0  0  0  0  0  0  0  0  0  0  0
  149.7619  140.3228  154.6724 C   0  0  0  0  0  0  0  0  0  0  0  0
  150.6659  139.6306  154.2078 O   0  0  0  0  0  0  0  0  0  0  0  0
  149.8028  140.8147  156.1226 C   0  0  0  0  0  0  0  0  0  0  0  0
  151.2187  141.2052  156.5925 C   0  0  0  0  0  0  0  0  0  0  0  0
  151.2555  141.8568  157.9892 C   0  0  2  0  0  0  0  0  0  0  0  0
  151.0987  143.3867  157.8857 C   0  0  0  0  0  0  0  0  0  0  0  0
  151.1645  144.0376  159.2750 C   0  0  0  0  0  0  0  0  0  0  0  0
  152.4579  143.6439  160.0027 C   0  0  0  0  0  0  0  0  0  0  0  0
  152.5979  142.1897  160.0588 N   0  0  0  0  0  0  0  0  0  0  0  0
  153.5022  141.7427  160.9682 C   0  0  0  0  0  0  0  0  0  0  0  0
  154.2357  140.6275  160.7046 N   0  0  0  0  0  0  0  0  0  0  0  0
  155.1320  140.1820  161.5892 C   0  0  0  0  0  0  0  0  0  0  0  0
  155.4537  140.6918  162.7791 N   0  0  0  0  0  0  0  0  0  0  0  0
  154.7215  141.8092  163.0530 C   0  0  0  0  0  0  0  0  0  0  0  0
  153.7287  142.3926  162.2151 C   0  0  0  0  0  0  0  0  0  0  0  0
  153.1734  143.5007  162.8444 N   0  0  0  0  0  0  0  0  0  0  0  0
  153.8070  143.5730  163.9830 C   0  0  0  0  0  0  0  0  0  0  0  0
  154.7763  142.6150  164.1770 N   0  0  0  0  0  0  0  0  0  0  0  0
  155.5892  142.4413  165.3448 C   0  0  0  0  0  0  0  0  0  0  0  0
  155.5673  141.1317  166.1368 C   0  0  0  0  0  0  0  0  0  0  0  0
  155.8196  141.9234  167.4403 C   0  0  0  0  0  0  0  0  0  0  0  0
  155.0025  141.4693  168.6613 C   0  0  0  0  0  0  0  0  0  0  0  0
  155.6183  140.3762  169.3114 O   0  0  0  0  0  0  0  0  0  0  0  0
  157.2998  142.0691  167.8467 C   0  0  0  0  0  0  0  0  0  0  0  0
  157.8569  140.8255  168.2214 O   0  0  0  0  0  0  0  0  0  0  0  0
  155.2308  143.1236  166.6670 C   0  0  0  0  0  0  0  0  0  0  0  0
  152.5481  141.5119  158.7611 C   0  0  0  0  0  0  0  0  0  0  0  0
  148.6240  140.3748  152.9879 H   0  0  0  0  0  0  0  0  0  0  0  0
  147.9697  141.2420  154.3616 H   0  0  0  0  0  0  0  0  0  0  0  0
  149.1366  141.6726  156.2240 H   0  0  0  0  0  0  0  0  0  0  0  0
  149.3968  140.0240  156.7534 H   0  0  0  0  0  0  0  0  0  0  0  0
  151.8675  140.3278  156.5870 H   0  0  0  0  0  0  0  0  0  0  0  0
  151.6464  141.9016  155.8693 H   0  0  0  0  0  0  0  0  0  0  0  0
  150.4075  141.4767  158.5613 H   0  0  0  0  0  0  0  0  0  0  0  0
  151.8865  143.7979  157.2527 H   0  0  0  0  0  0  0  0  0  0  0  0
  150.1517  143.6388  157.4073 H   0  0  0  0  0  0  0  0  0  0  0  0
  151.1043  145.1223  159.1841 H   0  0  0  0  0  0  0  0  0  0  0  0
  150.3032  143.7271  159.8678 H   0  0  0  0  0  0  0  0  0  0  0  0
  153.3197  144.0572  159.4768 H   0  0  0  0  0  0  0  0  0  0  0  0
  152.4591  144.0877  160.9973 H   0  0  0  0  0  0  0  0  0  0  0  0
  155.6702  139.2911  161.3012 H   0  0  0  0  0  0  0  0  0  0  0  0
  153.5853  144.3367  164.7146 H   0  0  0  0  0  0  0  0  0  0  0  0
  156.6072  142.6939  165.0435 H   0  0  0  0  0  0  0  0  0  0  0  0
  154.5885  140.6485  166.1158 H   0  0  0  0  0  0  0  0  0  0  0  0
  156.3529  140.4280  165.8606 H   0  0  0  0  0  0  0  0  0  0  0  0
  154.9108  142.2772  169.3878 H   0  0  0  0  0  0  0  0  0  0  0  0
  153.9854  141.1910  168.3848 H   0  0  0  0  0  0  0  0  0  0  0  0
  154.9531  139.8863  169.7702 H   0  0  0  0  0  0  0  0  0  0  0  0
  157.8971  142.4662  167.0257 H   0  0  0  0  0  0  0  0  0  0  0  0
  157.4200  142.7703  168.6729 H   0  0  0  0  0  0  0  0  0  0  0  0
  157.8314  140.7569  169.1636 H   0  0  0  0  0  0  0  0  0  0  0  0
  155.7399  144.0728  166.8378 H   0  0  0  0  0  0  0  0  0  0  0  0
  154.1526  143.2303  166.8019 H   0  0  0  0  0  0  0  0  0  0  0  0
  152.6037  140.4343  158.9185 H   0  0  0  0  0  0  0  0  0  0  0  0
  153.4223  141.7984  158.1743 H   0  0  0  0  0  0  0  0  0  0  0  0
  1  2  1  0  0  0  0
  1 29  1  0  0  0  0
  1 30  1  0  0  0  0
  2  3  2  0  0  0  0
  2  4  1  0  0  0  0
  4  5  1  0  0  0  0
  4 31  1  0  0  0  0
  4 32  1  0  0  0  0
  5  6  1  0  0  0  0
  5 33  1  0  0  0  0
  5 34  1  0  0  0  0
  6 28  1  0  0  0  0
  6  7  1  0  0  0  0
  6 35  1  0  0  0  0
  7  8  1  0  0  0  0
  7 36  1  0  0  0  0
  7 37  1  0  0  0  0
  8  9  1  0  0  0  0
  8 38  1  0  0  0  0
  8 39  1  0  0  0  0
  9 10  1  0  0  0  0
  9 40  1  0  0  0  0
  9 41  1  0  0  0  0
 10 11  1  0  0  0  0
 10 28  1  0  0  0  0
 11 16  1  0  0  0  0
 11 12  2  0  0  0  0
 12 13  1  0  0  0  0
 13 14  2  0  0  0  0
 13 42  1  0  0  0  0
 14 15  1  0  0  0  0
 15 19  1  0  0  0  0
 15 16  2  0  0  0  0
 16 17  1  0  0  0  0
 17 18  2  0  0  0  0
 18 19  1  0  0  0  0
 18 43  1  0  0  0  0
 19 20  1  0  0  0  0
 20 27  1  0  0  0  0
 20 21  1  0  0  0  0
 20 44  1  0  0  0  0
 21 22  1  0  0  0  0
 21 45  1  0  0  0  0
 21 46  1  0  0  0  0
 22 23  1  0  0  0  0
 22 25  1  0  0  0  0
 22 27  1  0  0  0  0
 23 24  1  0  0  0  0
 23 47  1  0  0  0  0
 23 48  1  0  0  0  0
 24 49  1  0  0  0  0
 25 26  1  0  0  0  0
 25 50  1  0  0  0  0
 25 51  1  0  0  0  0
 26 52  1  0  0  0  0
 27 53  1  0  0  0  0
 27 54  1  0  0  0  0
 28 55  1  0  0  0  0
 28 56  1  0  0  0  0
M  END
> <s_m_source_file>
AV-unprocessed.smi

> <i_m_source_file_index>
182

> <i_lp_mmshare_version>
43012

> <i_f3d_flags>
0

> <s_epik_input>
W05IMl1DKD1PKVtDSDJdW0NIMl1bQ0BASF0xW0NIMl1bQ0gyXVtDSDJdTihbQ0gyXTEpYyhuW2NIXW4yKWMoYzIzKW5bY0hdbjNbQ0hdKFtDSDJdNClbQ0gyXUM0KFtDSDJdW09IXSlbQ0gyXVtPSF0=

> <s_epik_cmdline>
J2VwaWtfcHl0aG9uJywgJy1waCcsICc3LjAnLCAnLXRuJywgJzgnLCAnLW1hJywgJzIwMCcsICctbWV0YWxfYmluZGluZycsICctaW1hZScsICc8aW5maWxlLm1hZT4nLCAnLW9tYWUnLCAnPG91dGZpbGUubWFlPic=

> <r_lp_tautomer_probability>
1

> <r_epik_Ionization_Penalty>
0.00186057

> <r_epik_Ionization_Penalty_Charging>
0

> <r_epik_Ionization_Penalty_Neutral>
0.00186057

> <r_epik_State_Penalty>
0.00110736

> <r_epik_Charging_Adjusted_Penalty>
0.00110736

> <i_epik_Tot_Q>
0

> <i_epik_Tot_abs_Q>
0

> <r_epik_Metal_State_Penalty>
-0

> <b_epik_Metal_Only>
0

> <s_lp_Force_Field>
OPLS_2005

> <r_lp_Energy>
36.2346

> <b_lp_Chiralities_Consistent>
1

> <s_lp_Variant>
AV-unprocessed.smi:182-1

> <Gold.Version>
5.8.1

> <Gold.Id.Protein>
6NUR|6NUR_protein|mol2

> <Gold.PLP.Fitness>
55.1088

> <Gold.PLP.PLP>
-51.3642

> <Gold.PLP.part.hbond>
-5.0000

> <Gold.PLP.part.metal>
0.0000

> <Gold.PLP.part.buried>
0.4801

> <Gold.PLP.part.nonpolar>
-45.7640

> <Gold.PLP.part.repulsive>
0.4713

> <Gold.PLP.ligand.clash>
0.0000

> <Gold.PLP.ligand.torsion>
1.6049

> <Gold.PLP.Chemscore.Hbond>
1.9920

> <Gold.PLP.Chemscore.CHOScore>
0.0000

> <Gold.PLP.Chemscore.Metal>
0.0000

> <Gold.Chemscore.Hbonds>
donor molecule, donor type, donor heavy atom, donor atom, acceptor molecule, acceptor atom, score
      L1  H     1    29       P1  7957  0.78
      P1  H  7989  7998       L1     3  1.00

> <Gold.PLP.Chemscore.Internal.Correction>
0.9785

> <Gold.Rescore>
     Score         DG    S(hbond)    S(metal)    S(lipo)     H(rot)  DE(clash)    DE(int)     intcor
      4.84      -8.17       1.00        0.00      99.47       4.79       0.53       2.80       ----

> <Gold.Chemscore.Fitness>
4.8432

> <Gold.Chemscore.DG>
-8.1746

> <Gold.Chemscore.ZeroCoef>
-5.4800

> <Gold.Chemscore.Hbond>
0.9953

> <Gold.Chemscore.Metal>
0.0000

> <Gold.Chemscore.Lipo>
99.4737

> <Gold.Chemscore.Internal_Hbond>
0.0000

> <Gold.Chemscore.DEClash>
0.5332

> <Gold.Chemscore.DEInternal>
2.7982

> <Gold.Chemscore.Rot>
4.7922

> <Gold.Chemscore.Internal.Correction>
   9.000000E+99

> <Gold.Chemscore.Hbonds>
donor molecule, donor type, donor heavy atom, donor atom, acceptor molecule, acceptor atom, score
      L1  H     1    29       P1  7957  0.74
      P1  H  7989  7998       L1     3  0.26

> <Gold.Chemscore.Hbond.Weighted>
-3.3242

> <Gold.Chemscore.Metal.Weighted>
-0.0000

> <Gold.Chemscore.Lipo.Weighted>
-11.6384

> <Gold.Chemscore.Internal_Hbond.Weighted>
0.0000

> <Gold.Chemscore.DEClash.Weighted>
0.5332

> <Gold.Chemscore.DEInternal.Weighted>
2.7982

> <Gold.Chemscore.Rot.Weighted>
12.2680

> <Gold.Chemscore.Internal.Correction.Weighted>
   9.000000E+99

> <Gold.Protein.RotatedTorsions>
[ 6907 6896 6895 6894 ] final   -9.68 input  -60.11 | X-H torsion
[ 7974 7965 7964 7962 ] final   24.63 input  175.53 | X-H torsion
[ 8008 7997 7996 7995 ] final  112.93 input   59.86 | X-H torsion
[ 10167 10162 10161 10158 ] final   94.61 input  -65.29 | X-H torsion
[ 10718 10713 10712 10709 ] final   49.12 input   66.30 | X-H torsion
[ 10763 10752 10751 10750 ] final   78.08 input  -60.55 | X-H torsion
[ 11005 11000 10999 10996 ] final  -62.65 input  -57.11 | X-H torsion

> <Gold.Protein.ActiveResidues>
 VAL166  LYS551  ARG553  GLY616  TRP617  ASP618  TYR619  PRO620  LYS621  CYS622 
 ASP623  PHE694  ASN695  SER759  ASP760  ASP761  ALA762  ILE779  LEU786  VAL792 
 PHE793  MET794  SER795  GLU796  ALA797  LYS798  CYS799  TRP800  GLU811  SER814 

> <Gold.Protein.RotatedAtoms>
  151.4139  135.0989  159.9593 H   0  0  0  0  0  0  0  0  0  0  0  0  # atno 6907 bound_to 6896
  152.5011  133.8771  159.7338 H   0  0  0  0  0  0  0  0  0  0  0  0  # atno 6908 bound_to 6896
  150.9272  133.6752  159.2847 H   0  0  0  0  0  0  0  0  0  0  0  0  # atno 6909 bound_to 6896
  146.1928  139.7578  142.8819 H   0  0  0  0  0  0  0  0  0  0  0  0  # atno 7974 bound_to 7965
  156.2225  140.2989  155.9987 H   0  0  0  0  0  0  0  0  0  0  0  0  # atno 8008 bound_to 7997
  155.2444  140.0423  157.2996 H   0  0  0  0  0  0  0  0  0  0  0  0  # atno 8009 bound_to 7997
  154.5863  140.2389  155.7991 H   0  0  0  0  0  0  0  0  0  0  0  0  # atno 8010 bound_to 7997
  139.8067  144.6791  150.9693 H   0  0  0  0  0  0  0  0  0  0  0  0  # atno 10167 bound_to 10162
  157.4755  130.8282  149.8035 H   0  0  0  0  0  0  0  0  0  0  0  0  # atno 10718 bound_to 10713
  153.0847  135.4890  154.8573 H   0  0  0  0  0  0  0  0  0  0  0  0  # atno 10763 bound_to 10752
  154.7196  135.3036  154.9071 H   0  0  0  0  0  0  0  0  0  0  0  0  # atno 10764 bound_to 10752
  153.9740  135.6798  153.4801 H   0  0  0  0  0  0  0  0  0  0  0  0  # atno 10765 bound_to 10752
  141.1367  133.6642  156.5560 H   0  0  0  0  0  0  0  0  0  0  0  0  # atno 11005 bound_to 11000
  145.3738  141.0347  143.3216 LP  0  0  0  0  0  0  0  0  0  0  0  0  # atno 17320 bound_to 7965
  144.8521  139.5306  143.6852 LP  0  0  0  0  0  0  0  0  0  0  0  0  # atno 17321 bound_to 7965
  140.7819  143.4226  151.0818 LP  0  0  0  0  0  0  0  0  0  0  0  0  # atno 17342 bound_to 10162
  139.7895  143.8239  152.3149 LP  0  0  0  0  0  0  0  0  0  0  0  0  # atno 17343 bound_to 10162
  156.0095  130.3840  150.2315 LP  0  0  0  0  0  0  0  0  0  0  0  0  # atno 17370 bound_to 10713
  157.0499  131.0059  151.3257 LP  0  0  0  0  0  0  0  0  0  0  0  0  # atno 17371 bound_to 10713
  140.4026  134.7343  157.4788 LP  0  0  0  0  0  0  0  0  0  0  0  0  # atno 17394 bound_to 11000
  140.0485  134.6164  155.8891 LP  0  0  0  0  0  0  0  0  0  0  0  0  # atno 17395 bound_to 11000

$$$$
