AV-unprocessed.smi:2086|AV-procd|sdf|8519|dock4
  -GOLD-   2272011233D 1   1.00000     0.00000
 Structure written by MMmdl.
 33 34  0  0  0  0  0  0  0  0  2 V2000
  152.8528  140.3640  158.0038 O   0  0  0  0  0  0  0  0  0  0  0  0
  151.7922  140.9715  157.8204 C   0  0  0  0  0  0  0  0  0  0  0  0
  151.2216  141.9691  158.5512 N   0  5  0  0  0  0  0  0  0  0  0  0
  151.9193  142.7157  159.5974 C   0  0  0  0  0  0  0  0  0  0  0  0
  151.7427  144.2318  159.3927 C   0  0  0  0  0  0  0  0  0  0  0  0
  152.4447  144.6134  158.3255 F   0  0  0  0  0  0  0  0  0  0  0  0
  150.4605  144.5360  159.1856 F   0  0  0  0  0  0  0  0  0  0  0  0
  152.1878  144.9064  160.4540 F   0  0  0  0  0  0  0  0  0  0  0  0
  151.0008  140.6395  156.5803 C   0  0  0  0  0  0  0  0  0  0  0  0
  150.2269  141.6623  155.9880 C   0  0  0  0  0  0  0  0  0  0  0  0
  149.4692  141.3855  154.8365 C   0  0  0  0  0  0  0  0  0  0  0  0
  149.5178  140.0847  154.3082 C   0  0  0  0  0  0  0  0  0  0  0  0
  150.2659  139.0990  154.8423 N   0  0  0  0  0  0  0  0  0  0  0  0
  151.0061  139.3559  155.9505 C   0  0  0  0  0  0  0  0  0  0  0  0
  151.8158  138.2992  156.4163 N   0  0  0  0  0  0  0  0  0  0  0  0
  151.3087  136.9387  156.2778 C   0  0  0  0  0  0  0  0  0  0  0  0
  152.1850  135.9728  157.0931 C   0  0  0  0  0  0  0  0  0  0  0  0
  153.5450  136.0976  156.6852 O   0  0  0  0  0  0  0  0  0  0  0  0
  154.0493  137.4139  156.8983 C   0  0  0  0  0  0  0  0  0  0  0  0
  153.2278  138.4230  156.0784 C   0  0  0  0  0  0  0  0  0  0  0  0
  151.5531  142.4540  160.5916 H   0  0  0  0  0  0  0  0  0  0  0  0
  152.9848  142.4814  159.6053 H   0  0  0  0  0  0  0  0  0  0  0  0
  150.2010  142.6529  156.4188 H   0  0  0  0  0  0  0  0  0  0  0  0
  148.8632  142.1502  154.3742 H   0  0  0  0  0  0  0  0  0  0  0  0
  148.9475  139.8304  153.4271 H   0  0  0  0  0  0  0  0  0  0  0  0
  150.2755  136.8901  156.6239 H   0  0  0  0  0  0  0  0  0  0  0  0
  151.3170  136.6488  155.2263 H   0  0  0  0  0  0  0  0  0  0  0  0
  152.0952  136.1753  158.1616 H   0  0  0  0  0  0  0  0  0  0  0  0
  151.8587  134.9450  156.9350 H   0  0  0  0  0  0  0  0  0  0  0  0
  154.0167  137.6605  157.9609 H   0  0  0  0  0  0  0  0  0  0  0  0
  155.0957  137.4474  156.5956 H   0  0  0  0  0  0  0  0  0  0  0  0
  153.3565  138.2334  155.0120 H   0  0  0  0  0  0  0  0  0  0  0  0
  153.5873  139.4343  156.2674 H   0  0  0  0  0  0  0  0  0  0  0  0
  1  2  2  0  0  0  0
  2  3  1  0  0  0  0
  2  9  1  0  0  0  0
  3  4  1  0  0  0  0
  4  5  1  0  0  0  0
  4 21  1  0  0  0  0
  4 22  1  0  0  0  0
  5  6  1  0  0  0  0
  5  7  1  0  0  0  0
  5  8  1  0  0  0  0
  9 14  1  0  0  0  0
  9 10  2  0  0  0  0
 10 11  1  0  0  0  0
 10 23  1  0  0  0  0
 11 12  2  0  0  0  0
 11 24  1  0  0  0  0
 12 13  1  0  0  0  0
 12 25  1  0  0  0  0
 13 14  2  0  0  0  0
 14 15  1  0  0  0  0
 15 20  1  0  0  0  0
 15 16  1  0  0  0  0
 16 17  1  0  0  0  0
 16 26  1  0  0  0  0
 16 27  1  0  0  0  0
 17 18  1  0  0  0  0
 17 28  1  0  0  0  0
 17 29  1  0  0  0  0
 18 19  1  0  0  0  0
 19 20  1  0  0  0  0
 19 30  1  0  0  0  0
 19 31  1  0  0  0  0
 20 32  1  0  0  0  0
 20 33  1  0  0  0  0
M  CHG  1   3  -1
M  END
> <s_m_source_file>
AV-unprocessed.smi

> <i_m_source_file_index>
2086

> <i_lp_mmshare_version>
43012

> <i_f3d_flags>
0

> <s_epik_input>
RkMoRikoRilbQ0gyXVtOSF1DKD1PKWMxW2NIXVtjSF1bY0hdbmMxTjJbQ0gyXVtDSDJdT1tDSDJdW0NIMl0y

> <s_epik_cmdline>
J2VwaWtfcHl0aG9uJywgJy1waCcsICc3LjAnLCAnLXRuJywgJzgnLCAnLW1hJywgJzIwMCcsICctbWV0YWxfYmluZGluZycsICctaW1hZScsICc8aW5maWxlLm1hZT4nLCAnLW9tYWUnLCAnPG91dGZpbGUubWFlPic=

> <r_lp_tautomer_probability>
1

> <r_epik_Ionization_Penalty>
6.70774

> <r_epik_Ionization_Penalty_Charging>
6.70732

> <r_epik_Ionization_Penalty_Neutral>
0.000422769

> <r_epik_State_Penalty>
6.70731

> <r_epik_Charging_Adjusted_Penalty>
13.4146

> <i_epik_Tot_Q>
-1

> <i_epik_Tot_abs_Q>
1

> <r_epik_Metal_State_Penalty>
2.62875

> <b_epik_Metal_Only>
1

> <s_lp_Force_Field>
OPLS_2005

> <r_lp_Energy>
34.3175

> <b_lp_Chiralities_Consistent>
1

> <s_lp_Variant>
AV-unprocessed.smi:2086-2

> <Gold.Version>
5.8.1

> <Gold.Id.Protein>
6NUR|6NUR_protein|mol2

> <Gold.PLP.Fitness>
43.3408

> <Gold.PLP.PLP>
-36.4285

> <Gold.PLP.part.hbond>
-1.8557

> <Gold.PLP.part.metal>
0.0000

> <Gold.PLP.part.buried>
-0.3401

> <Gold.PLP.part.nonpolar>
-33.8371

> <Gold.PLP.part.repulsive>
0.1296

> <Gold.PLP.ligand.clash>
0.0000

> <Gold.PLP.ligand.torsion>
1.1187

> <Gold.PLP.Chemscore.Hbond>
1.8089

> <Gold.PLP.Chemscore.CHOScore>
0.9462

> <Gold.PLP.Chemscore.Metal>
0.0000

> <Gold.Chemscore.Hbonds>
donor molecule, donor type, donor heavy atom, donor atom, acceptor molecule, acceptor atom, score
      P1  H  7997  8009       L1     1  0.82
      P1  H 10752 10763       L1    18  1.00
      L1  C    12    25       P1  7957  0.96

> <Gold.PLP.Chemscore.Internal.Correction>
0.8846

> <Gold.Rescore>
     Score         DG    S(hbond)    S(metal)    S(lipo)     H(rot)  DE(clash)    DE(int)     intcor
     11.22     -15.26       1.61        0.00      66.33       1.32       0.23       3.81       ----

> <Gold.Chemscore.Fitness>
11.2157

> <Gold.Chemscore.DG>
-15.2618

> <Gold.Chemscore.ZeroCoef>
-5.4800

> <Gold.Chemscore.Hbond>
1.6134

> <Gold.Chemscore.Metal>
0.0000

> <Gold.Chemscore.Lipo>
66.3298

> <Gold.Chemscore.Internal_Hbond>
0.0000

> <Gold.Chemscore.DEClash>
0.2350

> <Gold.Chemscore.DEInternal>
3.8111

> <Gold.Chemscore.Rot>
1.3154

> <Gold.Chemscore.Internal.Correction>
   9.000000E+99

> <Gold.Chemscore.Hbonds>
donor molecule, donor type, donor heavy atom, donor atom, acceptor molecule, acceptor atom, score
      P1  H  7997  8009       L1     1  0.76
      P1  H 10752 10763       L1    18  0.80

> <Gold.Chemscore.Hbond.Weighted>
-5.3888

> <Gold.Chemscore.Metal.Weighted>
-0.0000

> <Gold.Chemscore.Lipo.Weighted>
-7.7606

> <Gold.Chemscore.Internal_Hbond.Weighted>
0.0000

> <Gold.Chemscore.DEClash.Weighted>
0.2350

> <Gold.Chemscore.DEInternal.Weighted>
3.8111

> <Gold.Chemscore.Rot.Weighted>
3.3675

> <Gold.Chemscore.Internal.Correction.Weighted>
   9.000000E+99

> <Gold.Protein.RotatedTorsions>
[ 6907 6896 6895 6894 ] final  149.24 input  -60.11 | X-H torsion
[ 7974 7965 7964 7962 ] final  143.24 input  175.53 | X-H torsion
[ 8008 7997 7996 7995 ] final  151.61 input   59.86 | X-H torsion
[ 10167 10162 10161 10158 ] final   83.19 input  -65.29 | X-H torsion
[ 10718 10713 10712 10709 ] final   39.71 input   66.30 | X-H torsion
[ 10763 10752 10751 10750 ] final  141.13 input  -60.55 | X-H torsion
[ 11005 11000 10999 10996 ] final -124.88 input  -57.11 | X-H torsion

> <Gold.Protein.ActiveResidues>
 VAL166  LYS551  ARG553  GLY616  TRP617  ASP618  TYR619  PRO620  LYS621  CYS622 
 ASP623  PHE694  ASN695  SER759  ASP760  ASP761  ALA762  ILE779  LEU786  VAL792 
 PHE793  MET794  SER795  GLU796  ALA797  LYS798  CYS799  TRP800  GLU811  SER814 

> <Gold.Protein.RotatedAtoms>
  152.1306  133.4405  159.4718 H   0  0  0  0  0  0  0  0  0  0  0  0  # atno 6907 bound_to 6896
  150.6878  134.2425  159.4487 H   0  0  0  0  0  0  0  0  0  0  0  0  # atno 6908 bound_to 6896
  152.0308  134.9768  160.0623 H   0  0  0  0  0  0  0  0  0  0  0  0  # atno 6909 bound_to 6896
  144.8938  139.5520  143.5786 H   0  0  0  0  0  0  0  0  0  0  0  0  # atno 7974 bound_to 7965
  156.2666  140.2043  156.6202 H   0  0  0  0  0  0  0  0  0  0  0  0  # atno 8008 bound_to 7997
  154.6763  140.0545  157.0243 H   0  0  0  0  0  0  0  0  0  0  0  0  # atno 8009 bound_to 7997
  155.1065  140.3211  155.4536 H   0  0  0  0  0  0  0  0  0  0  0  0  # atno 8010 bound_to 7997
  139.9210  144.6212  150.8440 H   0  0  0  0  0  0  0  0  0  0  0  0  # atno 10167 bound_to 10162
  157.3737  130.7715  149.7138 H   0  0  0  0  0  0  0  0  0  0  0  0  # atno 10718 bound_to 10713
  153.9341  135.2987  155.3445 H   0  0  0  0  0  0  0  0  0  0  0  0  # atno 10763 bound_to 10752
  154.7511  135.4979  153.9294 H   0  0  0  0  0  0  0  0  0  0  0  0  # atno 10764 bound_to 10752
  153.1076  135.6751  153.9663 H   0  0  0  0  0  0  0  0  0  0  0  0  # atno 10765 bound_to 10752
  140.9806  134.0678  157.3769 H   0  0  0  0  0  0  0  0  0  0  0  0  # atno 11005 bound_to 11000
  146.3069  139.7611  142.9049 LP  0  0  0  0  0  0  0  0  0  0  0  0  # atno 17320 bound_to 7965
  145.3737  141.0347  143.3217 LP  0  0  0  0  0  0  0  0  0  0  0  0  # atno 17321 bound_to 7965
  140.7662  143.3297  151.2438 LP  0  0  0  0  0  0  0  0  0  0  0  0  # atno 17342 bound_to 10162
  139.6862  143.9770  152.2835 LP  0  0  0  0  0  0  0  0  0  0  0  0  # atno 17343 bound_to 10162
  155.9761  130.4080  150.3805 LP  0  0  0  0  0  0  0  0  0  0  0  0  # atno 17370 bound_to 10713
  157.1899  131.0413  151.2705 LP  0  0  0  0  0  0  0  0  0  0  0  0  # atno 17371 bound_to 10713
  139.8949  135.0138  156.6972 LP  0  0  0  0  0  0  0  0  0  0  0  0  # atno 17394 bound_to 11000
  140.7192  133.9155  155.8135 LP  0  0  0  0  0  0  0  0  0  0  0  0  # atno 17395 bound_to 11000

$$$$
