AV-unprocessed.smi:1406|AV-procd|sdf|5720|dock3
  -GOLD-   22720 5353D 1   1.00000     0.00000
 Structure written by MMmdl.
 41 43  0  0  0  0  0  0  0  0  2 V2000
  147.2890  136.7895  154.9282 C   0  0  0  0  0  0  0  0  0  0  0  0
  148.3506  135.8864  155.5884 C   0  0  1  0  0  0  0  0  0  0  0  0
  148.3100  134.4395  155.0705 C   0  0  0  0  0  0  0  0  0  0  0  0
  148.0009  133.5105  155.8175 O   0  0  0  0  0  0  0  0  0  0  0  0
  148.6299  134.2621  153.7787 N   0  0  0  0  0  0  0  0  0  0  0  0
  148.6317  132.9805  153.0801 C   0  0  1  0  0  0  0  0  0  0  0  0
  149.1788  131.8299  153.9431 C   0  0  0  0  0  0  0  0  0  0  0  0
  148.3164  130.6036  153.5836 C   0  0  0  0  0  0  0  0  0  0  0  0
  147.4169  131.0601  152.5071 N   0  3  1  0  0  0  0  0  0  0  0  0
  146.1452  130.3250  152.3341 C   0  0  0  0  0  0  0  0  0  0  0  0
  145.3935  130.8916  151.1129 C   0  0  0  0  0  0  0  0  0  0  0  0
  145.2135  132.4202  151.2111 C   0  0  0  0  0  0  0  0  0  0  0  0
  146.5569  133.1230  151.4859 C   0  0  0  0  0  0  0  0  0  0  0  0
  147.2211  132.5013  152.7265 C   0  0  2  0  0  0  0  0  0  0  0  0
  149.6946  136.4347  155.4543 N   0  0  0  0  0  0  0  0  0  0  0  0
  150.8647  135.9532  155.8799 C   0  0  0  0  0  0  0  0  0  0  0  0
  151.9084  136.6973  155.5425 N   0  0  0  0  0  0  0  0  0  0  0  0
  151.2685  137.6896  154.8554 C   0  0  0  0  0  0  0  0  0  0  0  0
  149.9436  137.5755  154.7640 N   0  0  0  0  0  0  0  0  0  0  0  0
  146.2844  136.3947  155.0841 H   0  0  0  0  0  0  0  0  0  0  0  0
  147.4433  136.8851  153.8526 H   0  0  0  0  0  0  0  0  0  0  0  0
  147.3142  137.7929  155.3544 H   0  0  0  0  0  0  0  0  0  0  0  0
  148.1241  135.8514  156.6554 H   0  0  0  0  0  0  0  0  0  0  0  0
  148.8713  135.0788  153.2359 H   0  0  0  0  0  0  0  0  0  0  0  0
  149.2339  133.0407  152.1709 H   0  0  0  0  0  0  0  0  0  0  0  0
  150.2364  131.6567  153.7410 H   0  0  0  0  0  0  0  0  0  0  0  0
  149.0811  132.0481  155.0077 H   0  0  0  0  0  0  0  0  0  0  0  0
  148.9160  129.7557  153.2516 H   0  0  0  0  0  0  0  0  0  0  0  0
  147.7345  130.2883  154.4510 H   0  0  0  0  0  0  0  0  0  0  0  0
  146.3516  129.2639  152.1898 H   0  0  0  0  0  0  0  0  0  0  0  0
  145.5364  130.4166  153.2349 H   0  0  0  0  0  0  0  0  0  0  0  0
  145.9504  130.6540  150.2054 H   0  0  0  0  0  0  0  0  0  0  0  0
  144.4222  130.4064  151.0130 H   0  0  0  0  0  0  0  0  0  0  0  0
  144.7686  132.8062  150.2932 H   0  0  0  0  0  0  0  0  0  0  0  0
  144.5128  132.6511  152.0147 H   0  0  0  0  0  0  0  0  0  0  0  0
  147.2124  133.0261  150.6191 H   0  0  0  0  0  0  0  0  0  0  0  0
  146.3914  134.1900  151.6364 H   0  0  0  0  0  0  0  0  0  0  0  0
  146.5692  132.6359  153.5932 H   0  0  0  0  0  0  0  0  0  0  0  0
  150.9556  135.0368  156.4447 H   0  0  0  0  0  0  0  0  0  0  0  0
  151.7954  138.5169  154.4034 H   0  0  0  0  0  0  0  0  0  0  0  0
  147.9349  130.9718  151.6443 H   0  0  0  0  0  0  0  0  0  0  0  0
  1  2  1  0  0  0  0
  1 20  1  0  0  0  0
  1 21  1  0  0  0  0
  1 22  1  0  0  0  0
  2  3  1  0  0  0  0
  2 15  1  0  0  0  0
  2 23  1  0  0  0  0
  3  4  2  0  0  0  0
  3  5  1  0  0  0  0
  5  6  1  0  0  0  0
  5 24  1  0  0  0  0
  6 14  1  0  0  0  0
  6  7  1  0  0  0  0
  6 25  1  0  0  0  0
  7  8  1  0  0  0  0
  7 26  1  0  0  0  0
  7 27  1  0  0  0  0
  8  9  1  0  0  0  0
  8 28  1  0  0  0  0
  8 29  1  0  0  0  0
  9 14  1  0  0  0  0
  9 10  1  0  0  0  0
  9 41  1  0  0  0  0
 10 11  1  0  0  0  0
 10 30  1  0  0  0  0
 10 31  1  0  0  0  0
 11 12  1  0  0  0  0
 11 32  1  0  0  0  0
 11 33  1  0  0  0  0
 12 13  1  0  0  0  0
 12 34  1  0  0  0  0
 12 35  1  0  0  0  0
 13 14  1  0  0  0  0
 13 36  1  0  0  0  0
 13 37  1  0  0  0  0
 14 38  1  0  0  0  0
 15 19  1  0  0  0  0
 15 16  1  0  0  0  0
 16 17  2  0  0  0  0
 16 39  1  0  0  0  0
 17 18  1  0  0  0  0
 18 19  2  0  0  0  0
 18 40  1  0  0  0  0
M  CHG  1   9   1
M  END
> <s_m_source_file>
AV-unprocessed.smi

> <i_m_source_file_index>
1406

> <i_lp_mmshare_version>
43012

> <i_f3d_flags>
0

> <s_epik_input>
bjFbY0hdbltjSF1uMVtDQEhdKFtDSDNdKUMoPU8pW05IXVtDQEhdKFtDSDJdW0NIMl0yKVtDQEBIXShOMjMpW0NIMl1bQ0gyXVtDSDJdW0NIMl0z

> <s_epik_cmdline>
J2VwaWtfcHl0aG9uJywgJy1waCcsICc3LjAnLCAnLXRuJywgJzgnLCAnLW1hJywgJzIwMCcsICctbWV0YWxfYmluZGluZycsICctaW1hZScsICc8aW5maWxlLm1hZT4nLCAnLW9tYWUnLCAnPG91dGZpbGUubWFlPic=

> <r_lp_tautomer_probability>
1

> <r_epik_Ionization_Penalty>
0.00197066

> <r_epik_Ionization_Penalty_Charging>
0.00196223

> <r_epik_Ionization_Penalty_Neutral>
8.43107e-06

> <r_epik_State_Penalty>
0.00133866

> <r_epik_Charging_Adjusted_Penalty>
0.00330089

> <i_epik_Tot_Q>
1

> <i_epik_Tot_abs_Q>
1

> <r_epik_Metal_State_Penalty>
-0

> <b_epik_Metal_Only>
0

> <s_lp_Force_Field>
OPLS_2005

> <r_lp_Energy>
39.8871

> <b_lp_Chiralities_Consistent>
1

> <s_lp_Variant>
AV-unprocessed.smi:1406-12

> <Gold.Version>
5.8.1

> <Gold.Id.Protein>
6NUR|6NUR_protein|mol2

> <Gold.PLP.Fitness>
38.8466

> <Gold.PLP.PLP>
-30.3766

> <Gold.PLP.part.hbond>
-3.0000

> <Gold.PLP.part.metal>
0.0000

> <Gold.PLP.part.buried>
-4.6758

> <Gold.PLP.part.nonpolar>
-23.6385

> <Gold.PLP.part.repulsive>
0.2804

> <Gold.PLP.ligand.clash>
0.0000

> <Gold.PLP.ligand.torsion>
0.3188

> <Gold.PLP.Chemscore.Hbond>
3.0000

> <Gold.PLP.Chemscore.CHOScore>
0.0000

> <Gold.PLP.Chemscore.Metal>
0.0000

> <Gold.Chemscore.Hbonds>
donor molecule, donor type, donor heavy atom, donor atom, acceptor molecule, acceptor atom, score
      L1  H     5    24       P1  7948  1.00
      L1  H     9    41       P1 10747  1.00
      P1  H 10752 10763       L1    17  1.00

> <Gold.PLP.Chemscore.Internal.Correction>
0.1075

> <Gold.Rescore>
     Score         DG    S(hbond)    S(metal)    S(lipo)     H(rot)  DE(clash)    DE(int)     intcor
     13.38     -15.11       2.29        0.00      58.14       1.89       0.02       1.71       ----

> <Gold.Chemscore.Fitness>
13.3839

> <Gold.Chemscore.DG>
-15.1140

> <Gold.Chemscore.ZeroCoef>
-5.4800

> <Gold.Chemscore.Hbond>
2.2937

> <Gold.Chemscore.Metal>
0.0000

> <Gold.Chemscore.Lipo>
58.1419

> <Gold.Chemscore.Internal_Hbond>
0.0000

> <Gold.Chemscore.DEClash>
0.0202

> <Gold.Chemscore.DEInternal>
1.7098

> <Gold.Chemscore.Rot>
1.8865

> <Gold.Chemscore.Internal.Correction>
   9.000000E+99

> <Gold.Chemscore.Hbonds>
donor molecule, donor type, donor heavy atom, donor atom, acceptor molecule, acceptor atom, score
      L1  H     5    24       P1  7948  0.39
      L1  H     9    41       P1 10747  1.00
      P1  H 10752 10763       L1    17  0.43

> <Gold.Chemscore.Hbond.Weighted>
-7.6609

> <Gold.Chemscore.Metal.Weighted>
-0.0000

> <Gold.Chemscore.Lipo.Weighted>
-6.8026

> <Gold.Chemscore.Internal_Hbond.Weighted>
0.0000

> <Gold.Chemscore.DEClash.Weighted>
0.0202

> <Gold.Chemscore.DEInternal.Weighted>
1.7098

> <Gold.Chemscore.Rot.Weighted>
4.8295

> <Gold.Chemscore.Internal.Correction.Weighted>
   9.000000E+99

> <Gold.Protein.RotatedTorsions>
[ 6907 6896 6895 6894 ] final  -98.25 input  -60.11 | X-H torsion
[ 7974 7965 7964 7962 ] final   93.41 input  175.53 | X-H torsion
[ 8008 7997 7996 7995 ] final  -20.10 input   59.86 | X-H torsion
[ 10167 10162 10161 10158 ] final   18.23 input  -65.29 | X-H torsion
[ 10718 10713 10712 10709 ] final   32.52 input   66.30 | X-H torsion
[ 10763 10752 10751 10750 ] final   64.00 input  -60.55 | X-H torsion
[ 11005 11000 10999 10996 ] final  -71.91 input  -57.11 | X-H torsion

> <Gold.Protein.ActiveResidues>
 VAL166  LYS551  ARG553  GLY616  TRP617  ASP618  TYR619  PRO620  LYS621  CYS622 
 ASP623  PHE694  ASN695  SER759  ASP760  ASP761  ALA762  ILE779  LEU786  VAL792 
 PHE793  MET794  SER795  GLU796  ALA797  LYS798  CYS799  TRP800  GLU811  SER814 

> <Gold.Protein.RotatedAtoms>
  150.7041  134.1224  159.4039 H   0  0  0  0  0  0  0  0  0  0  0  0  # atno 6907 bound_to 6896
  151.9210  135.0296  160.0531 H   0  0  0  0  0  0  0  0  0  0  0  0  # atno 6908 bound_to 6896
  152.2256  133.4982  159.5223 H   0  0  0  0  0  0  0  0  0  0  0  0  # atno 6909 bound_to 6896
  145.4794  139.2279  143.2891 H   0  0  0  0  0  0  0  0  0  0  0  0  # atno 7974 bound_to 7965
  154.4792  140.2071  155.9804 H   0  0  0  0  0  0  0  0  0  0  0  0  # atno 8008 bound_to 7997
  156.1138  140.3224  155.8080 H   0  0  0  0  0  0  0  0  0  0  0  0  # atno 8009 bound_to 7997
  155.4588  140.0522  157.2984 H   0  0  0  0  0  0  0  0  0  0  0  0  # atno 8010 bound_to 7997
  140.5668  143.9235  150.6683 H   0  0  0  0  0  0  0  0  0  0  0  0  # atno 10167 bound_to 10162
  157.2862  130.7280  149.6585 H   0  0  0  0  0  0  0  0  0  0  0  0  # atno 10718 bound_to 10713
  153.0039  135.5409  154.6441 H   0  0  0  0  0  0  0  0  0  0  0  0  # atno 10763 bound_to 10752
  154.5689  135.2840  155.0849 H   0  0  0  0  0  0  0  0  0  0  0  0  # atno 10764 bound_to 10752
  154.2023  135.6482  153.5143 H   0  0  0  0  0  0  0  0  0  0  0  0  # atno 10765 bound_to 10752
  141.1600  133.6831  156.6978 H   0  0  0  0  0  0  0  0  0  0  0  0  # atno 11005 bound_to 11000
  146.2350  140.5579  142.8959 LP  0  0  0  0  0  0  0  0  0  0  0  0  # atno 17320 bound_to 7965
  144.7898  140.6009  143.6549 LP  0  0  0  0  0  0  0  0  0  0  0  0  # atno 17321 bound_to 7965
  140.2700  143.3463  152.1246 LP  0  0  0  0  0  0  0  0  0  0  0  0  # atno 17342 bound_to 10162
  139.5097  144.6872  151.5856 LP  0  0  0  0  0  0  0  0  0  0  0  0  # atno 17343 bound_to 10162
  155.9665  130.4323  150.4956 LP  0  0  0  0  0  0  0  0  0  0  0  0  # atno 17370 bound_to 10713
  157.2910  131.0626  151.2134 LP  0  0  0  0  0  0  0  0  0  0  0  0  # atno 17371 bound_to 10713
  140.2981  134.8186  157.4074 LP  0  0  0  0  0  0  0  0  0  0  0  0  # atno 17394 bound_to 11000
  140.1286  134.5125  155.8124 LP  0  0  0  0  0  0  0  0  0  0  0  0  # atno 17395 bound_to 11000

$$$$
