#       Name:                AV-unprocessed.smi:1216
#       Creating user name   scv26
#       Creation time:       Fri Mar 27 04:15:34 2020


#       File generated by GOLD software.
#

@<TRIPOS>MOLECULE
AV-unprocessed.smi:1216
    47    48     1
SMALL
NO_CHARGES


@<TRIPOS>ATOM
      1 ****        -3.7702  -2.0457  -1.6334 C.3            1 S1                 0.0000
      2 ****        -3.0801  -1.3650  -0.4437 C.3            1 S1                 0.0000
      3 ****        -3.3979  -2.0911   0.8807 C.3            1 S1                 0.0000
      4 ****        -2.8835  -1.3902   2.0431 N.pl3          1 S1                 0.0000
      5 ****        -1.7982  -1.7544   2.8296 C.2            1 S1                 0.0000
      6 ****        -1.6822  -0.7935   3.8082 C.2            1 S1                 0.0000
      7 ****        -2.6833   0.1616   3.6488 N.2            1 S1                 0.0000
      8 ****        -3.3561  -0.2596   2.5857 C.2            1 S1                 0.0000
      9 ****        -1.6382  -1.3321  -0.6863 N.am           1 S1                 0.0000
     10 ****        -0.8244  -0.2943  -0.4360 C.2            1 S1                 0.0000
     11 ****        -1.2155   0.7723   0.0405 O.2            1 S1                 0.0000
     12 ****         0.6601  -0.5187  -0.7539 C.3            1 S1                 0.0000
     13 ****         1.4491   0.7224  -0.7492 N.am           1 S1                 0.0000
     14 ****         2.1099   1.0787   0.5166 C.3            1 S1                 0.0000
     15 ****         3.6515   0.9717   0.4684 C.3            1 S1                 0.0000
     16 ****         4.3094   1.2364  -0.9001 C.3            1 S1                 0.0000
     17 ****         3.8948   2.5584  -1.5791 C.3            1 S1                 0.0000
     18 ****         2.3766   2.7945  -1.7636 C.3            1 S1                 0.0000
     19 ****         1.5363   1.5097  -1.8508 C.2            1 S1                 0.0000
     20 ****         0.9722   1.2430  -2.9124 O.2            1 S1                 0.0000
     21 ****        -4.8536  -2.0446  -1.5110 H              1 S1                 0.0000
     22 ****        -3.4486  -3.0821  -1.7411 H              1 S1                 0.0000
     23 ****        -3.5454  -1.5278  -2.5664 H              1 S1                 0.0000
     24 ****        -3.4703  -0.3470  -0.3880 H              1 S1                 0.0000
     25 ****        -4.4770  -2.1919   1.0036 H              1 S1                 0.0000
     26 ****        -2.9898  -3.1028   0.8713 H              1 S1                 0.0000
     27 ****        -1.2117  -2.6388   2.6301 H              1 S1                 0.0000
     28 ****        -0.9622  -0.7174   4.6096 H              1 S1                 0.0000
     29 ****        -4.2097   0.2699   2.1882 H              1 S1                 0.0000
     30 ****        -1.2256  -2.1687  -1.0728 H              1 S1                 0.0000
     31 ****         1.0659  -1.2198  -0.0235 H              1 S1                 0.0000
     32 ****         0.7505  -1.0235  -1.7177 H              1 S1                 0.0000
     33 ****         1.8175   2.0895   0.8017 H              1 S1                 0.0000
     34 ****         1.7353   0.4587   1.3322 H              1 S1                 0.0000
     35 ****         4.0741   1.6457   1.2142 H              1 S1                 0.0000
     36 ****         3.9385  -0.0317   0.7843 H              1 S1                 0.0000
     37 ****         5.3927   1.2295  -0.7759 H              1 S1                 0.0000
     38 ****         4.0981   0.4018  -1.5700 H              1 S1                 0.0000
     39 ****         4.3079   3.3922  -1.0104 H              1 S1                 0.0000
     40 ****         4.3772   2.6050  -2.5561 H              1 S1                 0.0000
     41 ****         1.9922   3.4127  -0.9525 H              1 S1                 0.0000
     42 ****         2.2152   3.3881  -2.6643 H              1 S1                 0.0000
     43 ****        -2.8549   0.9745   4.2054 LP             1 S1                 0.0000
     44 ****        -2.1830   0.8966   0.2608 LP             1 S1                 0.0000
     45 ****        -0.5655   1.5137   0.2071 LP             1 S1                 0.0000
     46 ****         0.4190   0.4135  -2.9900 LP             1 S1                 0.0000
     47 ****         1.0673   1.8558  -3.6968 LP             1 S1                 0.0000
@<TRIPOS>BOND
    1    1    2 1     
    2    1   21 1     
    3    1   22 1     
    4    1   23 1     
    5    2    3 1     
    6    2    9 1     
    7    2   24 1     
    8    3    4 1     
    9    3   25 1     
   10    3   26 1     
   11    4    8 1     
   12    4    5 1     
   13    5    6 2     
   14    5   27 1     
   15    6    7 1     
   16    6   28 1     
   17    7    8 2     
   18    8   29 1     
   19    9   10 am    
   20    9   30 1     
   21   10   11 2     
   22   10   12 1     
   23   12   13 1     
   24   12   31 1     
   25   12   32 1     
   26   13   19 am    
   27   13   14 1     
   28   14   15 1     
   29   14   33 1     
   30   14   34 1     
   31   15   16 1     
   32   15   35 1     
   33   15   36 1     
   34   16   17 1     
   35   16   37 1     
   36   16   38 1     
   37   17   18 1     
   38   17   39 1     
   39   17   40 1     
   40   18   19 1     
   41   18   41 1     
   42   18   42 1     
   43   19   20 2     
   44    7   43 1     
   45   11   44 1     
   46   11   45 1     
   47   20   46 1     
   48   20   47 1     
@<TRIPOS>SUBSTRUCTURE
      1 S1             1
@<TRIPOS>SET
LONE_PAIRS      STATIC     ATOMS    <user>   **** ""
5 43 44 45 46 47
DONOR_HYDROGENS      STATIC     ATOMS    <user>   **** ""
1 30
ATOM$BLUE        STATIC     ATOMS    COLORGROUP SYSTEM
5 43 44 45 46 47
ATOM$RED        STATIC     ATOMS    COLORGROUP SYSTEM
1 30
