AV-unprocessed.smi:290|AV-procd|sdf|2245|dock6
  -GOLD-   2262022123D 1   1.00000     0.00000
 Structure written by MMmdl.
 59 62  0  0  0  0  0  0  0  0  2 V2000
  149.7066  138.6271  154.8279 C   0  0  0  0  0  0  0  0  0  0  0  0
  149.5547  140.0582  155.3667 C   0  0  2  0  0  0  0  0  0  0  0  0
  150.8252  140.6327  155.6710 O   0  0  0  0  0  0  0  0  0  0  0  0
  150.7966  141.2517  156.9516 C   0  0  0  0  0  0  0  0  0  0  0  0
  149.3179  141.4579  157.2608 C   0  0  0  0  0  0  0  0  0  0  0  0
  148.6754  140.2317  156.6265 C   0  0  2  0  0  0  0  0  0  0  0  0
  148.8470  139.1303  157.5030 O   0  0  0  0  0  0  0  0  0  0  0  0
  147.1498  140.3377  156.3672 C   0  0  0  0  0  0  0  0  0  0  0  0
  146.5757  139.2384  155.6065 N   0  0  0  0  0  0  0  0  0  0  0  0
  145.7787  138.2280  156.0912 C   0  0  0  0  0  0  0  0  0  0  0  0
  145.3849  137.3583  155.2026 N   0  0  0  0  0  0  0  0  0  0  0  0
  145.9297  137.8104  154.0049 C   0  0  0  0  0  0  0  0  0  0  0  0
  145.9004  137.3558  152.6513 C   0  0  0  0  0  0  0  0  0  0  0  0
  145.2491  136.2437  152.2141 N   0  0  0  0  0  0  0  0  0  0  0  0
  143.8629  135.9641  152.5720 C   0  0  0  0  0  0  0  0  0  0  0  0
  143.5844  134.5399  152.0742 C   0  0  0  0  0  0  0  0  0  0  0  0
  144.7370  134.2540  151.0951 C   0  0  2  0  0  0  0  0  0  0  0  0
  145.0211  132.8134  150.8192 N   0  3  2  0  0  0  0  0  0  0  0  0
  146.4034  132.6129  150.3114 C   0  0  0  0  0  0  0  0  0  0  0  0
  144.0076  132.1606  149.9421 C   0  0  0  0  0  0  0  0  0  0  0  0
  144.0140  132.7012  148.5006 C   0  0  0  0  0  0  0  0  0  0  0  0
  142.9794  132.0984  147.7518 O   0  0  0  0  0  0  0  0  0  0  0  0
  145.9042  135.0335  151.7383 C   0  0  2  0  0  0  0  0  0  0  0  0
  146.5921  134.2822  152.9024 C   0  0  0  0  0  0  0  0  0  0  0  0
  146.5921  138.0891  151.7391 N   0  0  0  0  0  0  0  0  0  0  0  0
  147.2509  139.1914  152.1060 C   0  0  0  0  0  0  0  0  0  0  0  0
  147.3562  139.7328  153.3192 N   0  0  0  0  0  0  0  0  0  0  0  0
  146.6788  138.9991  154.2472 C   0  0  0  0  0  0  0  0  0  0  0  0
  144.4875  134.7326  150.1456 H   0  0  0  0  0  0  0  0  0  0  0  0
  146.6320  135.2783  150.9664 H   0  0  0  0  0  0  0  0  0  0  0  0
  148.7345  138.1894  154.5995 H   0  0  0  0  0  0  0  0  0  0  0  0
  150.2107  137.9779  155.5441 H   0  0  0  0  0  0  0  0  0  0  0  0
  150.2960  138.6212  153.9111 H   0  0  0  0  0  0  0  0  0  0  0  0
  149.1599  140.6801  154.5649 H   0  0  0  0  0  0  0  0  0  0  0  0
  151.2500  140.5768  157.6786 H   0  0  0  0  0  0  0  0  0  0  0  0
  151.3607  142.1844  156.9579 H   0  0  0  0  0  0  0  0  0  0  0  0
  149.1110  141.5615  158.3266 H   0  0  0  0  0  0  0  0  0  0  0  0
  148.9897  142.3719  156.7669 H   0  0  0  0  0  0  0  0  0  0  0  0
  149.5769  139.3127  158.0747 H   0  0  0  0  0  0  0  0  0  0  0  0
  146.6162  140.4035  157.3165 H   0  0  0  0  0  0  0  0  0  0  0  0
  146.9282  141.2632  155.8335 H   0  0  0  0  0  0  0  0  0  0  0  0
  145.5035  138.1514  157.1333 H   0  0  0  0  0  0  0  0  0  0  0  0
  143.6974  136.0453  153.6473 H   0  0  0  0  0  0  0  0  0  0  0  0
  143.2125  136.6814  152.0700 H   0  0  0  0  0  0  0  0  0  0  0  0
  143.6143  133.8442  152.9139 H   0  0  0  0  0  0  0  0  0  0  0  0
  142.6006  134.4636  151.6103 H   0  0  0  0  0  0  0  0  0  0  0  0
  146.5238  133.0613  149.3246 H   0  0  0  0  0  0  0  0  0  0  0  0
  146.6578  131.5569  150.2377 H   0  0  0  0  0  0  0  0  0  0  0  0
  147.1471  133.0572  150.9715 H   0  0  0  0  0  0  0  0  0  0  0  0
  144.1792  131.0878  149.8754 H   0  0  0  0  0  0  0  0  0  0  0  0
  143.0176  132.2805  150.3845 H   0  0  0  0  0  0  0  0  0  0  0  0
  143.8376  133.7770  148.5151 H   0  0  0  0  0  0  0  0  0  0  0  0
  144.9699  132.5540  148.0003 H   0  0  0  0  0  0  0  0  0  0  0  0
  142.6629  132.7232  147.1163 H   0  0  0  0  0  0  0  0  0  0  0  0
  147.0781  133.3686  152.5618 H   0  0  0  0  0  0  0  0  0  0  0  0
  145.8853  134.0072  153.6855 H   0  0  0  0  0  0  0  0  0  0  0  0
  147.3639  134.8949  153.3674 H   0  0  0  0  0  0  0  0  0  0  0  0
  147.7688  139.7128  151.3144 H   0  0  0  0  0  0  0  0  0  0  0  0
  144.9613  132.3425  151.7112 H   0  0  0  0  0  0  0  0  0  0  0  0
  1  2  1  0  0  0  0
  1 31  1  0  0  0  0
  1 32  1  0  0  0  0
  1 33  1  0  0  0  0
  2  6  1  0  0  0  0
  2  3  1  0  0  0  0
  2 34  1  0  0  0  0
  3  4  1  0  0  0  0
  4  5  1  0  0  0  0
  4 35  1  0  0  0  0
  4 36  1  0  0  0  0
  5  6  1  0  0  0  0
  5 37  1  0  0  0  0
  5 38  1  0  0  0  0
  6  7  1  0  0  0  0
  6  8  1  0  0  0  0
  7 39  1  0  0  0  0
  8  9  1  0  0  0  0
  8 40  1  0  0  0  0
  8 41  1  0  0  0  0
  9 28  1  0  0  0  0
  9 10  1  0  0  0  0
 10 11  2  0  0  0  0
 10 42  1  0  0  0  0
 11 12  1  0  0  0  0
 12 28  2  0  0  0  0
 12 13  1  0  0  0  0
 13 14  1  0  0  0  0
 13 25  2  0  0  0  0
 14 23  1  0  0  0  0
 14 15  1  0  0  0  0
 15 16  1  0  0  0  0
 15 43  1  0  0  0  0
 15 44  1  0  0  0  0
 16 17  1  0  0  0  0
 16 45  1  0  0  0  0
 16 46  1  0  0  0  0
 17 29  1  0  0  0  0
 17 18  1  0  0  0  0
 17 23  1  0  0  0  0
 18 19  1  0  0  0  0
 18 20  1  0  0  0  0
 18 59  1  0  0  0  0
 19 47  1  0  0  0  0
 19 48  1  0  0  0  0
 19 49  1  0  0  0  0
 20 21  1  0  0  0  0
 20 50  1  0  0  0  0
 20 51  1  0  0  0  0
 21 22  1  0  0  0  0
 21 52  1  0  0  0  0
 21 53  1  0  0  0  0
 22 54  1  0  0  0  0
 23 30  1  0  0  0  0
 23 24  1  0  0  0  0
 24 55  1  0  0  0  0
 24 56  1  0  0  0  0
 24 57  1  0  0  0  0
 25 26  1  0  0  0  0
 26 27  2  0  0  0  0
 26 58  1  0  0  0  0
 27 28  1  0  0  0  0
M  CHG  1  18   1
M  END
> <s_m_source_file>
AV-unprocessed.smi

> <i_m_source_file_index>
290

> <i_lp_mmshare_version>
43012

> <i_f3d_flags>
0

> <s_epik_input>
W0NIMl0xW0NIMl1PW0NAQEhdKFtDSDNdKVtDQEBdMShbT0hdKVtDSDJdbihbY0hdbjIpYyhjMjMpbltjSF1uYzNONFtDSDJdW0NIMl1bQ0BIXShbQ0BIXTRbQ0gzXSlOKFtDSDNdKVtDSDJdW0NIMl1bT0hd

> <s_epik_cmdline>
J2VwaWtfcHl0aG9uJywgJy1waCcsICc3LjAnLCAnLXRuJywgJzgnLCAnLW1hJywgJzIwMCcsICctbWV0YWxfYmluZGluZycsICctaW1hZScsICc8aW5maWxlLm1hZT4nLCAnLW9tYWUnLCAnPG91dGZpbGUubWFlPic=

> <r_lp_tautomer_probability>
1

> <r_epik_Ionization_Penalty>
0.0036983

> <r_epik_Ionization_Penalty_Charging>
0.0032725

> <r_epik_Ionization_Penalty_Neutral>
0.000425798

> <r_epik_State_Penalty>
-0

> <r_epik_Charging_Adjusted_Penalty>
0.0032725

> <i_epik_Tot_Q>
1

> <i_epik_Tot_abs_Q>
1

> <r_epik_Metal_State_Penalty>
-0

> <b_epik_Metal_Only>
0

> <s_lp_Force_Field>
OPLS_2005

> <r_lp_Energy>
66.7181

> <b_lp_Chiralities_Consistent>
1

> <s_lp_Variant>
AV-unprocessed.smi:290-31

> <Gold.Version>
5.8.1

> <Gold.Id.Protein>
6NUR|6NUR_protein|mol2

> <Gold.PLP.Fitness>
48.5460

> <Gold.PLP.PLP>
-43.0655

> <Gold.PLP.part.hbond>
-4.3075

> <Gold.PLP.part.metal>
0.0000

> <Gold.PLP.part.buried>
-5.6274

> <Gold.PLP.part.nonpolar>
-35.7737

> <Gold.PLP.part.repulsive>
1.5763

> <Gold.PLP.ligand.clash>
0.0000

> <Gold.PLP.ligand.torsion>
1.5802

> <Gold.PLP.Chemscore.Hbond>
2.0539

> <Gold.PLP.Chemscore.CHOScore>
0.7475

> <Gold.PLP.Chemscore.Metal>
0.0000

> <Gold.Chemscore.Hbonds>
donor molecule, donor type, donor heavy atom, donor atom, acceptor molecule, acceptor atom, score
      L1  H    22    54       P1 10195  1.00
      P1  H  7989  7998       L1     3  0.23
      P1  H 10785 10796       L1    22  0.24
      L1  C    26    58       P1  7957  0.49

> <Gold.PLP.Chemscore.Internal.Correction>
0.2365

> <Gold.Rescore>
     Score         DG    S(hbond)    S(metal)    S(lipo)     H(rot)  DE(clash)    DE(int)     intcor
      7.69     -10.29       1.06        0.00      84.14       3.35       0.84       1.77       ----

> <Gold.Chemscore.Fitness>
7.6867

> <Gold.Chemscore.DG>
-10.2939

> <Gold.Chemscore.ZeroCoef>
-5.4800

> <Gold.Chemscore.Hbond>
1.0628

> <Gold.Chemscore.Metal>
0.0000

> <Gold.Chemscore.Lipo>
84.1439

> <Gold.Chemscore.Internal_Hbond>
0.0000

> <Gold.Chemscore.DEClash>
0.8414

> <Gold.Chemscore.DEInternal>
1.7658

> <Gold.Chemscore.Rot>
3.3518

> <Gold.Chemscore.Internal.Correction>
   9.000000E+99

> <Gold.Chemscore.Hbonds>
donor molecule, donor type, donor heavy atom, donor atom, acceptor molecule, acceptor atom, score
      L1  H    22    54       P1 10195  0.97
      P1  H  7989  7998       L1     3  0.05
      P1  H 10785 10796       L1    22  0.03

> <Gold.Chemscore.Hbond.Weighted>
-3.5497

> <Gold.Chemscore.Metal.Weighted>
-0.0000

> <Gold.Chemscore.Lipo.Weighted>
-9.8448

> <Gold.Chemscore.Internal_Hbond.Weighted>
0.0000

> <Gold.Chemscore.DEClash.Weighted>
0.8414

> <Gold.Chemscore.DEInternal.Weighted>
1.7658

> <Gold.Chemscore.Rot.Weighted>
8.5806

> <Gold.Chemscore.Internal.Correction.Weighted>
   9.000000E+99

> <Gold.Protein.RotatedTorsions>
[ 6907 6896 6895 6894 ] final  157.46 input  -60.11 | X-H torsion
[ 7974 7965 7964 7962 ] final -100.31 input  175.53 | X-H torsion
[ 8008 7997 7996 7995 ] final   58.13 input   59.86 | X-H torsion
[ 10167 10162 10161 10158 ] final  178.04 input  -65.29 | X-H torsion
[ 10718 10713 10712 10709 ] final  157.34 input   66.30 | X-H torsion
[ 10763 10752 10751 10750 ] final -101.14 input  -60.55 | X-H torsion
[ 11005 11000 10999 10996 ] final  -93.00 input  -57.11 | X-H torsion

> <Gold.Protein.ActiveResidues>
 VAL166  LYS551  ARG553  GLY616  TRP617  ASP618  TYR619  PRO620  LYS621  CYS622 
 ASP623  PHE694  ASN695  SER759  ASP760  ASP761  ALA762  ILE779  LEU786  VAL792 
 PHE793  MET794  SER795  GLU796  ALA797  LYS798  CYS799  TRP800  GLU811  SER814 

> <Gold.Protein.RotatedAtoms>
  152.0148  133.3875  159.4233 H   0  0  0  0  0  0  0  0  0  0  0  0  # atno 6907 bound_to 6896
  150.6896  134.3691  159.4993 H   0  0  0  0  0  0  0  0  0  0  0  0  # atno 6908 bound_to 6896
  152.1456  134.9028  160.0602 H   0  0  0  0  0  0  0  0  0  0  0  0  # atno 6909 bound_to 6896
  145.2962  140.9365  143.2849 H   0  0  0  0  0  0  0  0  0  0  0  0  # atno 7974 bound_to 7965
  155.5449  140.3485  155.4455 H   0  0  0  0  0  0  0  0  0  0  0  0  # atno 8008 bound_to 7997
  156.0624  140.1343  156.9951 H   0  0  0  0  0  0  0  0  0  0  0  0  # atno 8009 bound_to 7997
  154.4486  140.0982  156.6522 H   0  0  0  0  0  0  0  0  0  0  0  0  # atno 8010 bound_to 7997
  139.5278  144.2726  152.0614 H   0  0  0  0  0  0  0  0  0  0  0  0  # atno 10167 bound_to 10162
  157.1927  131.0658  151.2070 H   0  0  0  0  0  0  0  0  0  0  0  0  # atno 10718 bound_to 10713
  154.7634  135.4909  153.9508 H   0  0  0  0  0  0  0  0  0  0  0  0  # atno 10763 bound_to 10752
  153.1279  135.6746  153.9234 H   0  0  0  0  0  0  0  0  0  0  0  0  # atno 10764 bound_to 10752
  153.8947  135.3117  155.3426 H   0  0  0  0  0  0  0  0  0  0  0  0  # atno 10765 bound_to 10752
  141.1508  133.7858  157.0099 H   0  0  0  0  0  0  0  0  0  0  0  0  # atno 11005 bound_to 11000
  144.9131  139.4503  143.6577 LP  0  0  0  0  0  0  0  0  0  0  0  0  # atno 17320 bound_to 7965
  146.3168  139.7950  142.8977 LP  0  0  0  0  0  0  0  0  0  0  0  0  # atno 17321 bound_to 7965
  140.2185  144.4490  150.6352 LP  0  0  0  0  0  0  0  0  0  0  0  0  # atno 17342 bound_to 10162
  140.6434  143.2208  151.6240 LP  0  0  0  0  0  0  0  0  0  0  0  0  # atno 17343 bound_to 10162
  157.3844  130.7248  149.6653 LP  0  0  0  0  0  0  0  0  0  0  0  0  # atno 17370 bound_to 10713
  155.9709  130.4163  150.4226 LP  0  0  0  0  0  0  0  0  0  0  0  0  # atno 17371 bound_to 10713
  140.0884  134.9607  157.1737 LP  0  0  0  0  0  0  0  0  0  0  0  0  # atno 17394 bound_to 11000
  140.3479  134.2631  155.7202 LP  0  0  0  0  0  0  0  0  0  0  0  0  # atno 17395 bound_to 11000

$$$$
