AV-unprocessed.smi:702|AV-procd|sdf|3417|dock1
  -GOLD-   22720 0403D 1   1.00000     0.00000
 Structure written by MMmdl.
 50 52  0  0  0  0  0  0  0  0  2 V2000
  149.3245  140.1353  154.1182 C   0  0  0  0  0  0  0  0  0  0  0  0
  148.2396  140.6611  155.0781 C   0  0  1  0  0  0  0  0  0  0  0  0
  148.8016  141.7820  155.8416 N   0  0  0  0  0  0  0  0  0  0  0  0
  149.7859  141.7199  156.7517 C   0  0  0  0  0  0  0  0  0  0  0  0
  150.3668  140.6789  157.0561 O   0  0  0  0  0  0  0  0  0  0  0  0
  150.0420  142.9361  157.2648 N   0  0  0  0  0  0  0  0  0  0  0  0
  150.9846  143.3082  158.2622 C   0  0  0  0  0  0  0  0  0  0  0  0
  151.6593  142.2715  158.9400 C   0  0  0  0  0  0  0  0  0  0  0  0
  152.6097  142.6081  159.9243 C   0  0  0  0  0  0  0  0  0  0  0  0
  152.9188  143.8799  160.2524 N   0  0  0  0  0  0  0  0  0  0  0  0
  152.2825  144.8714  159.5940 C   0  0  0  0  0  0  0  0  0  0  0  0
  151.3163  144.6446  158.5932 C   0  0  0  0  0  0  0  0  0  0  0  0
  146.8949  141.0445  154.3566 C   0  0  0  0  0  0  0  0  0  0  0  0
  146.3067  139.8378  153.6571 N   0  3  0  0  0  0  0  0  0  0  0  0
  146.9773  139.4437  152.3830 C   0  0  0  0  0  0  0  0  0  0  0  0
  146.2035  138.3159  151.6793 C   0  0  0  0  0  0  0  0  0  0  0  0
  146.0773  137.2001  152.5475 O   0  0  0  0  0  0  0  0  0  0  0  0
  145.3476  137.5336  153.7182 C   0  0  0  0  0  0  0  0  0  0  0  0
  146.1009  138.6209  154.5009 C   0  0  0  0  0  0  0  0  0  0  0  0
  145.8803  141.6491  155.3753 C   0  0  0  0  0  0  0  0  0  0  0  0
  145.8300  143.1557  155.1158 C   0  0  0  0  0  0  0  0  0  0  0  0
  146.0998  143.2809  153.6219 C   0  0  0  0  0  0  0  0  0  0  0  0
  147.1616  142.2135  153.3530 C   0  0  0  0  0  0  0  0  0  0  0  0
  148.9925  139.2473  153.5809 H   0  0  0  0  0  0  0  0  0  0  0  0
  150.2255  139.8572  154.6666 H   0  0  0  0  0  0  0  0  0  0  0  0
  149.6105  140.8832  153.3786 H   0  0  0  0  0  0  0  0  0  0  0  0
  148.0429  139.8647  155.7928 H   0  0  0  0  0  0  0  0  0  0  0  0
  148.3940  142.6883  155.6635 H   0  0  0  0  0  0  0  0  0  0  0  0
  149.5234  143.7025  156.8615 H   0  0  0  0  0  0  0  0  0  0  0  0
  151.4530  141.2348  158.7170 H   0  0  0  0  0  0  0  0  0  0  0  0
  153.1373  141.8334  160.4612 H   0  0  0  0  0  0  0  0  0  0  0  0
  152.5560  145.8792  159.8692 H   0  0  0  0  0  0  0  0  0  0  0  0
  150.8666  145.4928  158.1015 H   0  0  0  0  0  0  0  0  0  0  0  0
  147.0354  140.2708  151.6804 H   0  0  0  0  0  0  0  0  0  0  0  0
  147.9998  139.1193  152.5788 H   0  0  0  0  0  0  0  0  0  0  0  0
  145.2174  138.6595  151.3620 H   0  0  0  0  0  0  0  0  0  0  0  0
  146.7335  138.0020  150.7799 H   0  0  0  0  0  0  0  0  0  0  0  0
  144.3407  137.8642  153.4577 H   0  0  0  0  0  0  0  0  0  0  0  0
  145.2396  136.6383  154.3307 H   0  0  0  0  0  0  0  0  0  0  0  0
  147.0557  138.2168  154.8351 H   0  0  0  0  0  0  0  0  0  0  0  0
  145.5234  138.8307  155.3977 H   0  0  0  0  0  0  0  0  0  0  0  0
  144.8755  141.2554  155.2356 H   0  0  0  0  0  0  0  0  0  0  0  0
  146.1344  141.4286  156.4123 H   0  0  0  0  0  0  0  0  0  0  0  0
  144.8780  143.5996  155.4084 H   0  0  0  0  0  0  0  0  0  0  0  0
  146.6176  143.6585  155.6787 H   0  0  0  0  0  0  0  0  0  0  0  0
  145.1906  143.0604  153.0619 H   0  0  0  0  0  0  0  0  0  0  0  0
  146.4303  144.2809  153.3394 H   0  0  0  0  0  0  0  0  0  0  0  0
  148.1288  142.6824  153.5286 H   0  0  0  0  0  0  0  0  0  0  0  0
  147.2056  141.9079  152.3085 H   0  0  0  0  0  0  0  0  0  0  0  0
  145.3774  140.1291  153.3893 H   0  0  0  0  0  0  0  0  0  0  0  0
  1  2  1  0  0  0  0
  1 24  1  0  0  0  0
  1 25  1  0  0  0  0
  1 26  1  0  0  0  0
  2  3  1  0  0  0  0
  2 13  1  0  0  0  0
  2 27  1  0  0  0  0
  3  4  1  0  0  0  0
  3 28  1  0  0  0  0
  4  5  2  0  0  0  0
  4  6  1  0  0  0  0
  6  7  1  0  0  0  0
  6 29  1  0  0  0  0
  7 12  1  0  0  0  0
  7  8  2  0  0  0  0
  8  9  1  0  0  0  0
  8 30  1  0  0  0  0
  9 10  2  0  0  0  0
  9 31  1  0  0  0  0
 10 11  1  0  0  0  0
 11 12  2  0  0  0  0
 11 32  1  0  0  0  0
 12 33  1  0  0  0  0
 13 23  1  0  0  0  0
 13 14  1  0  0  0  0
 13 20  1  0  0  0  0
 14 19  1  0  0  0  0
 14 15  1  0  0  0  0
 14 50  1  0  0  0  0
 15 16  1  0  0  0  0
 15 34  1  0  0  0  0
 15 35  1  0  0  0  0
 16 17  1  0  0  0  0
 16 36  1  0  0  0  0
 16 37  1  0  0  0  0
 17 18  1  0  0  0  0
 18 19  1  0  0  0  0
 18 38  1  0  0  0  0
 18 39  1  0  0  0  0
 19 40  1  0  0  0  0
 19 41  1  0  0  0  0
 20 21  1  0  0  0  0
 20 42  1  0  0  0  0
 20 43  1  0  0  0  0
 21 22  1  0  0  0  0
 21 44  1  0  0  0  0
 21 45  1  0  0  0  0
 22 23  1  0  0  0  0
 22 46  1  0  0  0  0
 22 47  1  0  0  0  0
 23 48  1  0  0  0  0
 23 49  1  0  0  0  0
M  CHG  1  14   1
M  END
> <s_m_source_file>
AV-unprocessed.smi

> <i_m_source_file_index>
702

> <i_lp_mmshare_version>
43012

> <i_f3d_flags>
0

> <s_epik_input>
W0NIMl0xW0NIMl1PW0NIMl1bQ0gyXU4xQzIoW0NIMl1bQ0gyXVtDSDJdW0NIMl0yKVtDQEhdKFtDSDNdKVtOSF1DKD1PKVtOSF1jM1tjSF1bY0hdbltjSF1bY0hdMw==

> <s_epik_cmdline>
J2VwaWtfcHl0aG9uJywgJy1waCcsICc3LjAnLCAnLXRuJywgJzgnLCAnLW1hJywgJzIwMCcsICctbWV0YWxfYmluZGluZycsICctaW1hZScsICc8aW5maWxlLm1hZT4nLCAnLW9tYWUnLCAnPG91dGZpbGUubWFlPic=

> <r_epik_Ionization_Penalty>
0.42559

> <r_epik_Ionization_Penalty_Charging>
0.324387

> <r_epik_Ionization_Penalty_Neutral>
0.101203

> <r_epik_State_Penalty>
0.407162

> <r_epik_Charging_Adjusted_Penalty>
0.731549

> <i_epik_Tot_Q>
1

> <i_epik_Tot_abs_Q>
1

> <r_epik_Metal_State_Penalty>
0.398289

> <b_epik_Metal_Only>
0

> <s_lp_Force_Field>
OPLS_2005

> <r_lp_Energy>
55.6583

> <b_lp_Chiralities_Consistent>
1

> <s_lp_Variant>
AV-unprocessed.smi:702-2

> <Gold.Version>
5.8.1

> <Gold.Id.Protein>
6NUR|6NUR_protein|mol2

> <Gold.PLP.Fitness>
49.9343

> <Gold.PLP.PLP>
-39.6280

> <Gold.PLP.part.hbond>
-3.0000

> <Gold.PLP.part.metal>
0.0000

> <Gold.PLP.part.buried>
-1.9206

> <Gold.PLP.part.nonpolar>
-35.1876

> <Gold.PLP.part.repulsive>
0.5435

> <Gold.PLP.ligand.clash>
0.0064

> <Gold.PLP.ligand.torsion>
0.3698

> <Gold.PLP.Chemscore.Hbond>
3.6365

> <Gold.PLP.Chemscore.CHOScore>
0.0000

> <Gold.PLP.Chemscore.Metal>
0.0000

> <Gold.Chemscore.Hbonds>
donor molecule, donor type, donor heavy atom, donor atom, acceptor molecule, acceptor atom, score
      L1  H     3    28       P1  8028  0.74
      L1  H     6    29       P1  8028  1.00
      L1  H    14    50       P1 10175  2.00

> <Gold.PLP.Chemscore.Internal.Correction>
0.1428

> <Gold.Rescore>
     Score         DG    S(hbond)    S(metal)    S(lipo)     H(rot)  DE(clash)    DE(int)     intcor
     18.93     -24.87       2.70        0.00     120.33       1.45       3.05       2.89       ----

> <Gold.Chemscore.Fitness>
18.9328

> <Gold.Chemscore.DG>
-24.8694

> <Gold.Chemscore.ZeroCoef>
-5.4800

> <Gold.Chemscore.Hbond>
2.7018

> <Gold.Chemscore.Metal>
0.0000

> <Gold.Chemscore.Lipo>
120.3266

> <Gold.Chemscore.Internal_Hbond>
0.0000

> <Gold.Chemscore.DEClash>
3.0494

> <Gold.Chemscore.DEInternal>
2.8873

> <Gold.Chemscore.Rot>
1.4504

> <Gold.Chemscore.Internal.Correction>
   9.000000E+99

> <Gold.Chemscore.Hbonds>
donor molecule, donor type, donor heavy atom, donor atom, acceptor molecule, acceptor atom, score
      L1  H     3    28       P1  8028  0.71
      L1  H     6    29       P1  8028  0.94
      L1  H    14    50       P1 10175  0.99

> <Gold.Chemscore.Hbond.Weighted>
-9.0241

> <Gold.Chemscore.Metal.Weighted>
-0.0000

> <Gold.Chemscore.Lipo.Weighted>
-14.0782

> <Gold.Chemscore.Internal_Hbond.Weighted>
0.0000

> <Gold.Chemscore.DEClash.Weighted>
3.0494

> <Gold.Chemscore.DEInternal.Weighted>
2.8873

> <Gold.Chemscore.Rot.Weighted>
3.7129

> <Gold.Chemscore.Internal.Correction.Weighted>
   9.000000E+99

> <Gold.Protein.RotatedTorsions>
[ 6907 6896 6895 6894 ] final  -52.77 input  -60.11 | X-H torsion
[ 7974 7965 7964 7962 ] final  107.78 input  175.53 | X-H torsion
[ 8008 7997 7996 7995 ] final  171.32 input   59.86 | X-H torsion
[ 10167 10162 10161 10158 ] final  -94.01 input  -65.29 | X-H torsion
[ 10718 10713 10712 10709 ] final  113.11 input   66.30 | X-H torsion
[ 10763 10752 10751 10750 ] final   55.36 input  -60.55 | X-H torsion
[ 11005 11000 10999 10996 ] final  128.57 input  -57.11 | X-H torsion

> <Gold.Protein.ActiveResidues>
 VAL166  LYS551  ARG553  GLY616  TRP617  ASP618  TYR619  PRO620  LYS621  CYS622 
 ASP623  PHE694  ASN695  SER759  ASP760  ASP761  ALA762  ILE779  LEU786  VAL792 
 PHE793  MET794  SER795  GLU796  ALA797  LYS798  CYS799  TRP800  GLU811  SER814 

> <Gold.Protein.RotatedAtoms>
  150.8488  134.7805  159.6991 H   0  0  0  0  0  0  0  0  0  0  0  0  # atno 6907 bound_to 6896
  152.4558  134.5292  159.9815 H   0  0  0  0  0  0  0  0  0  0  0  0  # atno 6908 bound_to 6896
  151.5417  133.3394  159.2972 H   0  0  0  0  0  0  0  0  0  0  0  0  # atno 6909 bound_to 6896
  145.2891  139.2606  143.3874 H   0  0  0  0  0  0  0  0  0  0  0  0  # atno 7974 bound_to 7965
  156.1282  140.1515  156.9104 H   0  0  0  0  0  0  0  0  0  0  0  0  # atno 8008 bound_to 7997
  154.4888  140.0857  156.7589 H   0  0  0  0  0  0  0  0  0  0  0  0  # atno 8009 bound_to 7997
  155.4304  140.3427  155.4282 H   0  0  0  0  0  0  0  0  0  0  0  0  # atno 8010 bound_to 7997
  140.3188  143.3061  152.0069 H   0  0  0  0  0  0  0  0  0  0  0  0  # atno 10167 bound_to 10162
  157.6356  131.0978  150.6993 H   0  0  0  0  0  0  0  0  0  0  0  0  # atno 10718 bound_to 10713
  152.9816  135.5713  154.5054 H   0  0  0  0  0  0  0  0  0  0  0  0  # atno 10763 bound_to 10752
  154.4566  135.2780  155.1745 H   0  0  0  0  0  0  0  0  0  0  0  0  # atno 10764 bound_to 10752
  154.3350  135.6241  153.5622 H   0  0  0  0  0  0  0  0  0  0  0  0  # atno 10765 bound_to 10752
  139.9567  134.9611  156.9021 H   0  0  0  0  0  0  0  0  0  0  0  0  # atno 11005 bound_to 11000
  146.3191  140.3378  142.8645 LP  0  0  0  0  0  0  0  0  0  0  0  0  # atno 17320 bound_to 7965
  144.9188  140.7843  143.5761 LP  0  0  0  0  0  0  0  0  0  0  0  0  # atno 17321 bound_to 7965
  139.4878  144.6327  151.7038 LP  0  0  0  0  0  0  0  0  0  0  0  0  # atno 17342 bound_to 10162
  140.5502  144.0438  150.6124 LP  0  0  0  0  0  0  0  0  0  0  0  0  # atno 17343 bound_to 10162
  156.7325  130.4714  149.5496 LP  0  0  0  0  0  0  0  0  0  0  0  0  # atno 17370 bound_to 10713
  156.1593  130.6363  151.0697 LP  0  0  0  0  0  0  0  0  0  0  0  0  # atno 17371 bound_to 10713
  140.5592  134.0552  155.7393 LP  0  0  0  0  0  0  0  0  0  0  0  0  # atno 17394 bound_to 11000
  141.1240  133.9414  157.2673 LP  0  0  0  0  0  0  0  0  0  0  0  0  # atno 17395 bound_to 11000

$$$$
