#       Name:                AV-unprocessed.smi:865
#       Creating user name   scv26
#       Creation time:       Fri Mar 27 01:46:52 2020


#       File generated by GOLD software.
#

@<TRIPOS>MOLECULE
AV-unprocessed.smi:865
    43    43     1
SMALL
NO_CHARGES


@<TRIPOS>ATOM
      1 ****        -4.3825  -0.6275   0.2319 C.3            1 S1                 0.0000
      2 ****        -3.0003  -0.6032  -0.4379 C.3            1 S1                 0.0000
      3 ****        -1.9482   0.2719   0.2921 C.3            1 S1                 0.0000
      4 ****        -2.2948   1.7797   0.1919 C.3            1 S1                 0.0000
      5 ****        -1.4496   2.6946   1.0912 C.3            1 S1                 0.0000
      6 ****        -0.4970  -0.0328  -0.1760 C.3            1 S1                 0.0000
      7 ****        -0.3961   0.2220  -1.5643 O.3            1 S1                 0.0000
      8 ****        -0.0506  -1.4863   0.1019 C.3            1 S1                 0.0000
      9 ****         1.3920  -1.5729   0.2967 N.am           1 S1                 0.0000
     10 ****         2.2918  -1.7853  -0.6757 C.2            1 S1                 0.0000
     11 ****         1.9903  -1.9977  -1.8497 O.2            1 S1                 0.0000
     12 ****         3.7623  -1.7338  -0.2635 C.3            1 S1                 0.0000
     13 ****         4.1926  -0.3614  -0.0738 N.pl3          1 S1                 0.0000
     14 ****         4.5414   0.5782  -0.9553 C.2            1 S1                 0.0000
     15 ****         4.8559   1.7169  -0.3566 N.2            1 S1                 0.0000
     16 ****         4.6784   1.4265   0.9859 N.2            1 S1                 0.0000
     17 ****         4.2844   0.1949   1.1599 N.2            1 S1                 0.0000
     18 ****        -5.0386  -1.3371  -0.2726 H              1 S1                 0.0000
     19 ****        -4.8735   0.3442   0.1959 H              1 S1                 0.0000
     20 ****        -4.3099  -0.9319   1.2762 H              1 S1                 0.0000
     21 ****        -2.6545  -1.6348  -0.4860 H              1 S1                 0.0000
     22 ****        -3.1048  -0.2770  -1.4732 H              1 S1                 0.0000
     23 ****        -1.9959   0.0085   1.3498 H              1 S1                 0.0000
     24 ****        -2.2204   2.1162  -0.8425 H              1 S1                 0.0000
     25 ****        -3.3346   1.9333   0.4761 H              1 S1                 0.0000
     26 ****        -1.8337   3.7146   1.0670 H              1 S1                 0.0000
     27 ****        -0.4095   2.7376   0.7696 H              1 S1                 0.0000
     28 ****        -1.4713   2.3590   2.1283 H              1 S1                 0.0000
     29 ****         0.1901   0.6355   0.3422 H              1 S1                 0.0000
     30 ****        -0.6182   1.1272  -1.7200 H              1 S1                 0.0000
     31 ****        -0.4989  -1.8340   1.0329 H              1 S1                 0.0000
     32 ****        -0.3910  -2.1744  -0.6741 H              1 S1                 0.0000
     33 ****         1.7351  -1.4112   1.2327 H              1 S1                 0.0000
     34 ****         3.9168  -2.2974   0.6580 H              1 S1                 0.0000
     35 ****         4.3844  -2.1930  -1.0329 H              1 S1                 0.0000
     36 ****         4.5593   0.4303  -2.0249 H              1 S1                 0.0000
     37 ****        -1.0284  -0.3710  -2.0629 LP             1 S1                 0.0000
     38 ****         0.5389   0.0463  -1.8724 LP             1 S1                 0.0000
     39 ****         1.0286  -2.0188  -2.1230 LP             1 S1                 0.0000
     40 ****         2.7070  -2.1491  -2.5305 LP             1 S1                 0.0000
     41 ****         5.1500   2.5773  -0.7728 LP             1 S1                 0.0000
     42 ****         4.8327   2.0785   1.7282 LP             1 S1                 0.0000
     43 ****         4.0883  -0.2519   2.0327 LP             1 S1                 0.0000
@<TRIPOS>BOND
    1    1    2 1     
    2    1   18 1     
    3    1   19 1     
    4    1   20 1     
    5    2    3 1     
    6    2   21 1     
    7    2   22 1     
    8    3    4 1     
    9    3    6 1     
   10    3   23 1     
   11    4    5 1     
   12    4   24 1     
   13    4   25 1     
   14    5   26 1     
   15    5   27 1     
   16    5   28 1     
   17    6    7 1     
   18    6    8 1     
   19    6   29 1     
   20    7   30 1     
   21    8    9 1     
   22    8   31 1     
   23    8   32 1     
   24    9   10 am    
   25    9   33 1     
   26   10   11 2     
   27   10   12 1     
   28   12   13 1     
   29   12   34 1     
   30   12   35 1     
   31   13   17 1     
   32   13   14 1     
   33   14   15 2     
   34   14   36 1     
   35   15   16 1     
   36   16   17 2     
   37    7   37 1     
   38    7   38 1     
   39   11   39 1     
   40   11   40 1     
   41   15   41 1     
   42   16   42 1     
   43   17   43 1     
@<TRIPOS>SUBSTRUCTURE
      1 S1             1
@<TRIPOS>SET
LONE_PAIRS      STATIC     ATOMS    <user>   **** ""
7 37 38 39 40 41 42 43
DONOR_HYDROGENS      STATIC     ATOMS    <user>   **** ""
2 30 33
ATOM$BLUE        STATIC     ATOMS    COLORGROUP SYSTEM
7 37 38 39 40 41 42 43
ATOM$RED        STATIC     ATOMS    COLORGROUP SYSTEM
2 30 33
