#       Name:                AV-unprocessed.smi:1234
#       Creating user name   scv26
#       Creation time:       Fri Mar 27 04:25:01 2020


#       File generated by GOLD software.
#

@<TRIPOS>MOLECULE
AV-unprocessed.smi:1234
    39    40     1
SMALL
NO_CHARGES


@<TRIPOS>ATOM
      1 ****        -1.8880   3.0707   1.4782 O.2            1 S1                 0.0000
      2 ****        -2.3903   2.1483   0.8319 C.2            1 S1                 0.0000
      3 ****        -1.6273   1.1237   0.4284 N.am           1 S1                 0.0000
      4 ****        -0.1981   0.9893   0.6805 C.3            1 S1                 0.0000
      5 ****         0.3691  -0.2238  -0.0782 C.3            1 S1                 0.0000
      6 ****         1.8783  -0.4365   0.1296 C.2            1 S1                 0.0000
      7 ****         2.5303   0.3778   0.7852 O.2            1 S1                 0.0000
      8 ****         2.4483  -1.5280  -0.4224 N.am           1 S1                 0.0000
      9 ****         3.8661  -1.8557  -0.2848 C.3            1 S1                 0.0000
     10 ****         4.0162  -3.2799  -0.8194 C.3            1 S1                 0.0000
     11 ****         2.8587  -3.4350  -1.7960 C.3            1 S1                 0.0000
     12 ****         1.7590  -2.5406  -1.2220 C.3            1 S1                 0.0000
     13 ****        -3.6869   2.0414   0.4618 N.pl3          1 S1                -1.0000
     14 ****        -4.5585   3.0122   0.7815 C.2            1 S1                 0.0000
     15 ****        -4.9166   3.9699  -0.0892 N.2            1 S1                 0.0000
     16 ****        -5.8301   4.8730   0.4374 N.2            1 S1                 0.0000
     17 ****        -6.1453   4.5668   1.6958 C.2            1 S1                 0.0000
     18 ****        -5.3584   3.1460   2.3503 S.3            1 S1                 0.0000
     19 ****        -2.0746   0.3872  -0.0973 H              1 S1                 0.0000
     20 ****         0.3101   1.9028   0.3664 H              1 S1                 0.0000
     21 ****        -0.0367   0.8782   1.7541 H              1 S1                 0.0000
     22 ****        -0.1603  -1.1237   0.2375 H              1 S1                 0.0000
     23 ****         0.1809  -0.1000  -1.1453 H              1 S1                 0.0000
     24 ****         4.4509  -1.1567  -0.8849 H              1 S1                 0.0000
     25 ****         4.2068  -1.7826   0.7492 H              1 S1                 0.0000
     26 ****         4.9876  -3.4577  -1.2817 H              1 S1                 0.0000
     27 ****         3.9004  -3.9920  -0.0011 H              1 S1                 0.0000
     28 ****         3.1580  -3.0628  -2.7768 H              1 S1                 0.0000
     29 ****         2.5418  -4.4714  -1.9150 H              1 S1                 0.0000
     30 ****         1.0984  -3.1182  -0.5741 H              1 S1                 0.0000
     31 ****         1.1580  -2.1018  -2.0195 H              1 S1                 0.0000
     32 ****        -6.8476   5.1796   2.2407 H              1 S1                 0.0000
     33 ****        -0.9131   3.0528   1.7000 LP             1 S1                 0.0000
     34 ****        -2.4556   3.8365   1.7804 LP             1 S1                 0.0000
     35 ****         2.0783   1.1767   1.1820 LP             1 S1                 0.0000
     36 ****         3.5114   0.2398   0.9205 LP             1 S1                 0.0000
     37 ****        -3.9965   1.2398  -0.0497 LP             1 S1                 0.0000
     38 ****        -4.5613   4.0267  -1.0222 LP             1 S1                 0.0000
     39 ****        -6.2039   5.6536  -0.0635 LP             1 S1                 0.0000
@<TRIPOS>BOND
    1    1    2 2     
    2    2    3 am    
    3    2   13 1     
    4    3    4 1     
    5    3   19 1     
    6    4    5 1     
    7    4   20 1     
    8    4   21 1     
    9    5    6 1     
   10    5   22 1     
   11    5   23 1     
   12    6    7 2     
   13    6    8 am    
   14    8   12 1     
   15    8    9 1     
   16    9   10 1     
   17    9   24 1     
   18    9   25 1     
   19   10   11 1     
   20   10   26 1     
   21   10   27 1     
   22   11   12 1     
   23   11   28 1     
   24   11   29 1     
   25   12   30 1     
   26   12   31 1     
   27   13   14 1     
   28   14   18 1     
   29   14   15 2     
   30   15   16 1     
   31   16   17 2     
   32   17   18 1     
   33   17   32 1     
   34    1   33 1     
   35    1   34 1     
   36    7   35 1     
   37    7   36 1     
   38   13   37 1     
   39   15   38 1     
   40   16   39 1     
@<TRIPOS>SUBSTRUCTURE
      1 S1             1
@<TRIPOS>SET
LONE_PAIRS      STATIC     ATOMS    <user>   **** ""
7 33 34 35 36 37 38 39
DONOR_HYDROGENS      STATIC     ATOMS    <user>   **** ""
1 19
ATOM$BLUE        STATIC     ATOMS    COLORGROUP SYSTEM
7 33 34 35 36 37 38 39
ATOM$RED        STATIC     ATOMS    COLORGROUP SYSTEM
1 19
