AV-unprocessed.smi:72|AV-procd|sdf|713|dock3
  -GOLD-   2262017 33D 1   1.00000     0.00000
 Structure written by MMmdl.
 28 29  0  0  0  0  0  0  0  0  2 V2000
  152.9247  141.1650  158.9547 N   0  0  0  0  0  0  0  0  0  0  0  0
  152.2766  141.0531  157.8794 C   0  0  0  0  0  0  0  0  0  0  0  0
  151.2882  142.0458  157.5203 N   0  0  0  0  0  0  0  0  0  0  0  0
  150.6252  141.8690  156.4189 C   0  0  0  0  0  0  0  0  0  0  0  0
  150.8411  140.7044  155.5661 N   0  0  0  0  0  0  0  0  0  0  0  0
  150.0741  140.4824  154.2701 C   0  0  2  0  0  0  0  0  0  0  0  0
  149.2035  141.5537  154.0390 O   0  0  0  0  0  0  0  0  0  0  0  0
  147.8915  141.2135  154.4781 C   0  0  1  0  0  0  0  0  0  0  0  0
  146.8375  142.1593  153.8766 C   0  0  0  0  0  0  0  0  0  0  0  0
  145.5773  141.9169  154.4651 O   0  0  0  0  0  0  0  0  0  0  0  0
  147.7898  139.7458  154.0533 C   0  0  1  0  0  0  0  0  0  0  0  0
  147.4597  139.6481  152.6768 O   0  0  0  0  0  0  0  0  0  0  0  0
  149.1907  139.2177  154.3617 C   0  0  1  0  0  0  0  0  0  0  0  0
  149.5886  138.1879  153.4756 O   0  0  0  0  0  0  0  0  0  0  0  0
  151.8538  139.7731  155.9232 C   0  0  0  0  0  0  0  0  0  0  0  0
  152.0622  138.8244  155.1666 O   0  0  0  0  0  0  0  0  0  0  0  0
  152.5486  139.9667  157.0787 N   0  5  0  0  0  0  0  0  0  0  0  0
  150.8342  140.4531  153.4874 H   0  0  0  0  0  0  0  0  0  0  0  0
  147.8484  141.2537  155.5682 H   0  0  0  0  0  0  0  0  0  0  0  0
  147.0276  139.2123  154.6221 H   0  0  0  0  0  0  0  0  0  0  0  0
  149.2100  138.8362  155.3839 H   0  0  0  0  0  0  0  0  0  0  0  0
  153.5820  140.4098  159.0855 H   0  0  0  0  0  0  0  0  0  0  0  0
  149.8751  142.5802  156.0736 H   0  0  0  0  0  0  0  0  0  0  0  0
  147.1194  143.2046  154.0061 H   0  0  0  0  0  0  0  0  0  0  0  0
  146.7376  141.9778  152.8061 H   0  0  0  0  0  0  0  0  0  0  0  0
  145.0074  141.5440  153.8101 H   0  0  0  0  0  0  0  0  0  0  0  0
  148.1600  140.0423  152.1789 H   0  0  0  0  0  0  0  0  0  0  0  0
  149.7438  138.5746  152.6266 H   0  0  0  0  0  0  0  0  0  0  0  0
  1  2  2  0  0  0  0
  1 22  1  0  0  0  0
  2 17  1  0  0  0  0
  2  3  1  0  0  0  0
  3  4  2  0  0  0  0
  4  5  1  0  0  0  0
  4 23  1  0  0  0  0
  5  6  1  0  0  0  0
  5 15  1  0  0  0  0
  6 18  1  0  0  0  0
  6 13  1  0  0  0  0
  6  7  1  0  0  0  0
  7  8  1  0  0  0  0
  8 19  1  0  0  0  0
  8  9  1  0  0  0  0
  8 11  1  0  0  0  0
  9 10  1  0  0  0  0
  9 24  1  0  0  0  0
  9 25  1  0  0  0  0
 10 26  1  0  0  0  0
 11 20  1  0  0  0  0
 11 12  1  0  0  0  0
 11 13  1  0  0  0  0
 12 27  1  0  0  0  0
 13 21  1  0  0  0  0
 13 14  1  0  0  0  0
 14 28  1  0  0  0  0
 15 16  2  0  0  0  0
 15 17  1  0  0  0  0
M  CHG  1  17  -1
M  END
> <s_m_source_file>
AV-unprocessed.smi

> <i_m_source_file_index>
72

> <i_lp_mmshare_version>
43012

> <i_f3d_flags>
0

> <s_epik_input>
W05IMl1jMW5bY0hdbihjKD1PKW4xKVtDQEBIXTJPW0NASF0oW0NIMl1bT0hdKVtDQEBIXShbT0hdKVtDQEhdMltPSF0=

> <s_epik_cmdline>
J2VwaWtfcHl0aG9uJywgJy1waCcsICc3LjAnLCAnLXRuJywgJzgnLCAnLW1hJywgJzIwMCcsICctbWV0YWxfYmluZGluZycsICctaW1hZScsICc8aW5maWxlLm1hZT4nLCAnLW9tYWUnLCAnPG91dGZpbGUubWFlPic=

> <r_lp_tautomer_probability>
7.17554e-07

> <r_epik_Ionization_Penalty>
12.8705

> <r_epik_Ionization_Penalty_Charging>
5.64144

> <r_epik_Ionization_Penalty_Neutral>
7.22905

> <r_epik_State_Penalty>
3.30104

> <r_epik_Charging_Adjusted_Penalty>
8.94249

> <i_epik_Tot_Q>
-1

> <i_epik_Tot_abs_Q>
1

> <r_epik_Metal_State_Penalty>
0.529074

> <b_epik_Metal_Only>
1

> <s_epik_Chemistry_Notes>
This compound contains an acetal/aminal-like group ( X-CH(R)-Y where X, Y are N, S, or O) that may be acid/base labile, releasing an aldehyde.

> <s_lp_Force_Field>
OPLS_2005

> <r_lp_Energy>
36.0241

> <b_lp_Chiralities_Consistent>
1

> <s_lp_Variant>
AV-unprocessed.smi:72-51

> <Gold.Version>
5.8.1

> <Gold.Id.Protein>
6NUR|6NUR_protein|mol2

> <Gold.PLP.Fitness>
48.6307

> <Gold.PLP.PLP>
-28.8960

> <Gold.PLP.part.hbond>
-6.9421

> <Gold.PLP.part.metal>
0.0000

> <Gold.PLP.part.buried>
-1.6561

> <Gold.PLP.part.nonpolar>
-20.3104

> <Gold.PLP.part.repulsive>
0.2490

> <Gold.PLP.ligand.clash>
0.0000

> <Gold.PLP.ligand.torsion>
0.1041

> <Gold.PLP.Chemscore.Hbond>
5.6400

> <Gold.PLP.Chemscore.CHOScore>
1.0000

> <Gold.PLP.Chemscore.Metal>
0.0000

> <Gold.Chemscore.Hbonds>
donor molecule, donor type, donor heavy atom, donor atom, acceptor molecule, acceptor atom, score
      L1  H    10    26       P1 10175  0.66
      L1  H    12    27       P1  7957  1.00
      L1  H    14    28       P1  7957  0.94
      P1  H  7997  8008       L1    17  2.00
      P1  H  8011  8017       L1     7  0.66
      L1  C     4    23       P1  8028  1.00

> <Gold.PLP.Chemscore.Internal.Correction>
0.0229

> <Gold.Rescore>
     Score         DG    S(hbond)    S(metal)    S(lipo)     H(rot)  DE(clash)    DE(int)     intcor
      6.83      -8.14       3.10        0.00      22.53       4.04       1.00       0.31       ----

> <Gold.Chemscore.Fitness>
6.8272

> <Gold.Chemscore.DG>
-8.1396

> <Gold.Chemscore.ZeroCoef>
-5.4800

> <Gold.Chemscore.Hbond>
3.1038

> <Gold.Chemscore.Metal>
0.0000

> <Gold.Chemscore.Lipo>
22.5309

> <Gold.Chemscore.Internal_Hbond>
0.0000

> <Gold.Chemscore.DEClash>
1.0014

> <Gold.Chemscore.DEInternal>
0.3111

> <Gold.Chemscore.Rot>
4.0403

> <Gold.Chemscore.Internal.Correction>
   9.000000E+99

> <Gold.Chemscore.Hbonds>
donor molecule, donor type, donor heavy atom, donor atom, acceptor molecule, acceptor atom, score
      L1  H    10    26       P1 10175  0.13
      L1  H    12    27       P1  7957  0.98
      L1  H    14    28       P1  7957  0.44
      P1  H  7997  8008       L1    17  0.30
      P1  H  8011  8017       L1     7  0.38

> <Gold.Chemscore.Hbond.Weighted>
-10.3666

> <Gold.Chemscore.Metal.Weighted>
-0.0000

> <Gold.Chemscore.Lipo.Weighted>
-2.6361

> <Gold.Chemscore.Internal_Hbond.Weighted>
0.0000

> <Gold.Chemscore.DEClash.Weighted>
1.0014

> <Gold.Chemscore.DEInternal.Weighted>
0.3111

> <Gold.Chemscore.Rot.Weighted>
10.3431

> <Gold.Chemscore.Internal.Correction.Weighted>
   9.000000E+99

> <Gold.Protein.RotatedTorsions>
[ 6907 6896 6895 6894 ] final   71.05 input  -60.11 | X-H torsion
[ 7974 7965 7964 7962 ] final -119.80 input  175.53 | X-H torsion
[ 8008 7997 7996 7995 ] final  -54.49 input   59.86 | X-H torsion
[ 10167 10162 10161 10158 ] final   33.85 input  -65.29 | X-H torsion
[ 10718 10713 10712 10709 ] final  -12.39 input   66.30 | X-H torsion
[ 10763 10752 10751 10750 ] final  -17.03 input  -60.55 | X-H torsion
[ 11005 11000 10999 10996 ] final  -57.82 input  -57.11 | X-H torsion

> <Gold.Protein.ActiveResidues>
 VAL166  LYS551  ARG553  GLY616  TRP617  ASP618  TYR619  PRO620  LYS621  CYS622 
 ASP623  PHE694  ASN695  SER759  ASP760  ASP761  ALA762  ILE779  LEU786  VAL792 
 PHE793  MET794  SER795  GLU796  ALA797  LYS798  CYS799  TRP800  GLU811  SER814 

> <Gold.Protein.RotatedAtoms>
  152.4786  134.4778  159.9655 H   0  0  0  0  0  0  0  0  0  0  0  0  # atno 6907 bound_to 6896
  151.4789  133.3545  159.2843 H   0  0  0  0  0  0  0  0  0  0  0  0  # atno 6908 bound_to 6896
  150.8843  134.8264  159.7308 H   0  0  0  0  0  0  0  0  0  0  0  0  # atno 6909 bound_to 6896
  145.0585  140.8272  143.4166 H   0  0  0  0  0  0  0  0  0  0  0  0  # atno 7974 bound_to 7965
  154.4164  140.1175  156.5323 H   0  0  0  0  0  0  0  0  0  0  0  0  # atno 8008 bound_to 7997
  155.6592  140.3496  155.4757 H   0  0  0  0  0  0  0  0  0  0  0  0  # atno 8009 bound_to 7997
  155.9727  140.1144  157.0787 H   0  0  0  0  0  0  0  0  0  0  0  0  # atno 8010 bound_to 7997
  140.4369  144.1243  150.6168 H   0  0  0  0  0  0  0  0  0  0  0  0  # atno 10167 bound_to 10162
  156.6453  130.4939  149.6080 H   0  0  0  0  0  0  0  0  0  0  0  0  # atno 10718 bound_to 10713
  153.5677  135.7008  153.5519 H   0  0  0  0  0  0  0  0  0  0  0  0  # atno 10763 bound_to 10752
  153.3373  135.4031  155.1543 H   0  0  0  0  0  0  0  0  0  0  0  0  # atno 10764 bound_to 10752
  154.8638  135.3733  154.5198 H   0  0  0  0  0  0  0  0  0  0  0  0  # atno 10765 bound_to 10752
  141.1181  133.6611  156.4828 H   0  0  0  0  0  0  0  0  0  0  0  0  # atno 11005 bound_to 11000
  145.1438  139.2556  143.5476 LP  0  0  0  0  0  0  0  0  0  0  0  0  # atno 17320 bound_to 7965
  146.3523  140.1123  142.8603 LP  0  0  0  0  0  0  0  0  0  0  0  0  # atno 17321 bound_to 7965
  140.4363  143.2546  151.9531 LP  0  0  0  0  0  0  0  0  0  0  0  0  # atno 17342 bound_to 10162
  139.4787  144.5697  151.8108 LP  0  0  0  0  0  0  0  0  0  0  0  0  # atno 17343 bound_to 10162
  156.2127  130.6688  151.1286 LP  0  0  0  0  0  0  0  0  0  0  0  0  # atno 17370 bound_to 10713
  157.7158  131.0710  150.6331 LP  0  0  0  0  0  0  0  0  0  0  0  0  # atno 17371 bound_to 10713
  140.4587  134.6861  157.5075 LP  0  0  0  0  0  0  0  0  0  0  0  0  # atno 17394 bound_to 11000
  140.0118  134.6679  155.9369 LP  0  0  0  0  0  0  0  0  0  0  0  0  # atno 17395 bound_to 11000

$$$$
