AV-unprocessed.smi:2451|AV-procd|sdf|9677|dock3
  -GOLD-   2272013313D 1   1.00000     0.00000
 Structure written by MMmdl.
 37 38  0  0  0  0  0  0  0  0  2 V2000
  151.3665  144.7406  158.9844 C   0  0  0  0  0  0  0  0  0  0  0  0
  151.7078  143.3241  159.4827 C   0  0  2  0  0  0  0  0  0  0  0  0
  152.8158  143.4196  160.5621 C   0  0  0  0  0  0  0  0  0  0  0  0
  153.2042  142.0185  161.0724 C   0  0  0  0  0  0  0  0  0  0  0  0
  153.5957  141.0534  159.9263 C   0  0  0  0  0  0  0  0  0  0  0  0
  152.5182  140.9241  158.8236 C   0  0  1  0  0  0  0  0  0  0  0  0
  151.3641  140.2067  159.3528 N   0  5  0  0  0  0  0  0  0  0  0  0
  150.7476  138.9453  158.5410 S   0  0  0  0  0  0  0  0  0  0  0  0
  150.8603  137.6768  159.2802 O   0  0  0  0  0  0  0  0  0  0  0  0
  149.4394  139.2617  157.9455 O   0  0  0  0  0  0  0  0  0  0  0  0
  151.9339  138.8342  157.1299 C   0  0  0  0  0  0  0  0  0  0  0  0
  151.2094  138.9743  155.8182 C   0  0  0  0  0  0  0  0  0  0  0  0
  151.0310  137.9986  154.7977 C   0  0  0  0  0  0  0  0  0  0  0  0
  150.3057  138.6577  153.8481 C   0  0  0  0  0  0  0  0  0  0  0  0
  150.0644  139.9353  154.2364 O   0  0  0  0  0  0  0  0  0  0  0  0
  150.6492  140.1296  155.4930 N   0  0  0  0  0  0  0  0  0  0  0  0
  152.1052  142.3473  158.3209 C   0  0  1  0  0  0  0  0  0  0  0  0
  151.0578  142.2951  157.1797 C   0  0  0  0  0  0  0  0  0  0  0  0
  152.1842  145.1626  158.3992 H   0  0  0  0  0  0  0  0  0  0  0  0
  151.1745  145.4138  159.8204 H   0  0  0  0  0  0  0  0  0  0  0  0
  150.4694  144.7463  158.3663 H   0  0  0  0  0  0  0  0  0  0  0  0
  150.8065  142.9431  159.9682 H   0  0  0  0  0  0  0  0  0  0  0  0
  153.6966  143.9098  160.1450 H   0  0  0  0  0  0  0  0  0  0  0  0
  152.4825  144.0360  161.3974 H   0  0  0  0  0  0  0  0  0  0  0  0
  154.0380  142.1073  161.7691 H   0  0  0  0  0  0  0  0  0  0  0  0
  152.3788  141.6016  161.6531 H   0  0  0  0  0  0  0  0  0  0  0  0
  154.5173  141.4160  159.4696 H   0  0  0  0  0  0  0  0  0  0  0  0
  153.8355  140.0706  160.3344 H   0  0  0  0  0  0  0  0  0  0  0  0
  152.9666  140.3859  157.9873 H   0  0  0  0  0  0  0  0  0  0  0  0
  152.6668  139.6314  157.2537 H   0  0  0  0  0  0  0  0  0  0  0  0
  152.4680  137.8867  157.1957 H   0  0  0  0  0  0  0  0  0  0  0  0
  151.3714  136.9739  154.7752 H   0  0  0  0  0  0  0  0  0  0  0  0
  149.9059  138.3697  152.8872 H   0  0  0  0  0  0  0  0  0  0  0  0
  153.0041  142.7685  157.8680 H   0  0  0  0  0  0  0  0  0  0  0  0
  150.0738  141.9906  157.5398 H   0  0  0  0  0  0  0  0  0  0  0  0
  151.3461  141.6084  156.3809 H   0  0  0  0  0  0  0  0  0  0  0  0
  150.9405  143.2680  156.7045 H   0  0  0  0  0  0  0  0  0  0  0  0
  1  2  1  0  0  0  0
  1 19  1  0  0  0  0
  1 20  1  0  0  0  0
  1 21  1  0  0  0  0
  2 17  1  0  0  0  0
  2  3  1  0  0  0  0
  2 22  1  0  0  0  0
  3  4  1  0  0  0  0
  3 23  1  0  0  0  0
  3 24  1  0  0  0  0
  4  5  1  0  0  0  0
  4 25  1  0  0  0  0
  4 26  1  0  0  0  0
  5  6  1  0  0  0  0
  5 27  1  0  0  0  0
  5 28  1  0  0  0  0
  6  7  1  0  0  0  0
  6 17  1  0  0  0  0
  6 29  1  0  0  0  0
  7  8  1  0  0  0  0
  8  9  2  0  0  0  0
  8 10  2  0  0  0  0
  8 11  1  0  0  0  0
 11 12  1  0  0  0  0
 11 30  1  0  0  0  0
 11 31  1  0  0  0  0
 12 16  2  0  0  0  0
 12 13  1  0  0  0  0
 13 14  2  0  0  0  0
 13 32  1  0  0  0  0
 14 15  1  0  0  0  0
 14 33  1  0  0  0  0
 15 16  1  0  0  0  0
 17 18  1  0  0  0  0
 17 34  1  0  0  0  0
 18 35  1  0  0  0  0
 18 36  1  0  0  0  0
 18 37  1  0  0  0  0
M  CHG  1   7  -1
M  END
> <s_m_source_file>
AV-unprocessed.smi

> <i_m_source_file_index>
2451

> <i_lp_mmshare_version>
43012

> <i_f3d_flags>
0

> <s_epik_input>
W0NIM11bQ0BASF0xW0NIMl1bQ0gyXVtDSDJdW0NASF0oW0NASF0xW0NIM10pW05IXVMoPU8pKD1PKVtDSDJdYzJbY0hdW2NIXW9uMg==

> <s_epik_cmdline>
J2VwaWtfcHl0aG9uJywgJy1waCcsICc3LjAnLCAnLXRuJywgJzgnLCAnLW1hJywgJzIwMCcsICctbWV0YWxfYmluZGluZycsICctaW1hZScsICc8aW5maWxlLm1hZT4nLCAnLW9tYWUnLCAnPG91dGZpbGUubWFlPic=

> <r_lp_tautomer_probability>
1

> <r_epik_Ionization_Penalty>
5.22693

> <r_epik_Ionization_Penalty_Charging>
5.22693

> <r_epik_Ionization_Penalty_Neutral>
2.67702e-10

> <r_epik_State_Penalty>
5.22685

> <r_epik_Charging_Adjusted_Penalty>
10.4538

> <i_epik_Tot_Q>
-1

> <i_epik_Tot_abs_Q>
1

> <r_epik_Metal_State_Penalty>
1.28716

> <b_epik_Metal_Only>
1

> <s_lp_Force_Field>
OPLS_2005

> <r_lp_Energy>
15.2767

> <b_lp_Chiralities_Consistent>
1

> <s_lp_Variant>
AV-unprocessed.smi:2451-9

> <Gold.Version>
5.8.1

> <Gold.Id.Protein>
6NUR|6NUR_protein|mol2

> <Gold.PLP.Fitness>
40.4465

> <Gold.PLP.PLP>
-34.3065

> <Gold.PLP.part.hbond>
-1.1781

> <Gold.PLP.part.metal>
0.0000

> <Gold.PLP.part.buried>
-6.2518

> <Gold.PLP.part.nonpolar>
-27.8353

> <Gold.PLP.part.repulsive>
0.1566

> <Gold.PLP.ligand.clash>
0.0000

> <Gold.PLP.ligand.torsion>
0.7971

> <Gold.PLP.Chemscore.Hbond>
0.4500

> <Gold.PLP.Chemscore.CHOScore>
1.7976

> <Gold.PLP.Chemscore.Metal>
0.0000

> <Gold.Chemscore.Hbonds>
donor molecule, donor type, donor heavy atom, donor atom, acceptor molecule, acceptor atom, score
      P1  H  7989  7998       L1    15  0.35
      L1  C    14    33       P1  7948  1.00
      L1  C    14    33       P1  7957  0.81

> <Gold.PLP.Chemscore.Internal.Correction>
0.9914

> <Gold.Rescore>
     Score         DG    S(hbond)    S(metal)    S(lipo)     H(rot)  DE(clash)    DE(int)     intcor
     13.84     -16.16       0.63        0.00     104.06       1.40       0.15       2.17       ----

> <Gold.Chemscore.Fitness>
13.8404

> <Gold.Chemscore.DG>
-16.1638

> <Gold.Chemscore.ZeroCoef>
-5.4800

> <Gold.Chemscore.Hbond>
0.6257

> <Gold.Chemscore.Metal>
0.0000

> <Gold.Chemscore.Lipo>
104.0553

> <Gold.Chemscore.Internal_Hbond>
0.0000

> <Gold.Chemscore.DEClash>
0.1484

> <Gold.Chemscore.DEInternal>
2.1750

> <Gold.Chemscore.Rot>
1.3986

> <Gold.Chemscore.Internal.Correction>
   9.000000E+99

> <Gold.Chemscore.Hbond.Weighted>
-2.0897

> <Gold.Chemscore.Metal.Weighted>
-0.0000

> <Gold.Chemscore.Lipo.Weighted>
-12.1745

> <Gold.Chemscore.Internal_Hbond.Weighted>
0.0000

> <Gold.Chemscore.DEClash.Weighted>
0.1484

> <Gold.Chemscore.DEInternal.Weighted>
2.1750

> <Gold.Chemscore.Rot.Weighted>
3.5804

> <Gold.Chemscore.Internal.Correction.Weighted>
   9.000000E+99

> <Gold.Protein.RotatedTorsions>
[ 6907 6896 6895 6894 ] final -134.07 input  -60.11 | X-H torsion
[ 7974 7965 7964 7962 ] final -169.12 input  175.53 | X-H torsion
[ 8008 7997 7996 7995 ] final  131.84 input   59.86 | X-H torsion
[ 10167 10162 10161 10158 ] final  131.53 input  -65.29 | X-H torsion
[ 10718 10713 10712 10709 ] final   97.32 input   66.30 | X-H torsion
[ 10763 10752 10751 10750 ] final  122.60 input  -60.55 | X-H torsion
[ 11005 11000 10999 10996 ] final  -90.19 input  -57.11 | X-H torsion

> <Gold.Protein.ActiveResidues>
 VAL166  LYS551  ARG553  GLY616  TRP617  ASP618  TYR619  PRO620  LYS621  CYS622 
 ASP623  PHE694  ASN695  SER759  ASP760  ASP761  ALA762  ILE779  LEU786  VAL792 
 PHE793  MET794  SER795  GLU796  ALA797  LYS798  CYS799  TRP800  GLU811  SER814 

> <Gold.Protein.RotatedAtoms>
  150.9814  133.6241  159.2721 H   0  0  0  0  0  0  0  0  0  0  0  0  # atno 6907 bound_to 6896
  151.3495  135.0880  159.9408 H   0  0  0  0  0  0  0  0  0  0  0  0  # atno 6908 bound_to 6896
  152.5217  133.9410  159.7681 H   0  0  0  0  0  0  0  0  0  0  0  0  # atno 6909 bound_to 6896
  144.7191  140.2269  143.6309 H   0  0  0  0  0  0  0  0  0  0  0  0  # atno 7974 bound_to 7965
  156.2975  140.2561  156.2991 H   0  0  0  0  0  0  0  0  0  0  0  0  # atno 8008 bound_to 7997
  154.9435  140.0395  157.2127 H   0  0  0  0  0  0  0  0  0  0  0  0  # atno 8009 bound_to 7997
  154.8104  140.2843  155.5862 H   0  0  0  0  0  0  0  0  0  0  0  0  # atno 8010 bound_to 7997
  139.5380  144.6702  151.4721 H   0  0  0  0  0  0  0  0  0  0  0  0  # atno 10167 bound_to 10162
  157.6914  131.0605  150.4625 H   0  0  0  0  0  0  0  0  0  0  0  0  # atno 10718 bound_to 10713
  153.6323  135.3394  155.3045 H   0  0  0  0  0  0  0  0  0  0  0  0  # atno 10763 bound_to 10752
  154.8577  135.4298  154.2092 H   0  0  0  0  0  0  0  0  0  0  0  0  # atno 10764 bound_to 10752
  153.2991  135.7023  153.7293 H   0  0  0  0  0  0  0  0  0  0  0  0  # atno 10765 bound_to 10752
  141.1570  133.7676  156.9702 H   0  0  0  0  0  0  0  0  0  0  0  0  # atno 11005 bound_to 11000
  145.8448  139.2147  143.1806 LP  0  0  0  0  0  0  0  0  0  0  0  0  # atno 17320 bound_to 7965
  146.0314  140.8254  142.9874 LP  0  0  0  0  0  0  0  0  0  0  0  0  # atno 17321 bound_to 7965
  140.6596  143.8527  150.6873 LP  0  0  0  0  0  0  0  0  0  0  0  0  # atno 17342 bound_to 10162
  140.1917  143.4031  152.1858 LP  0  0  0  0  0  0  0  0  0  0  0  0  # atno 17343 bound_to 10162
  156.4968  130.4108  149.6375 LP  0  0  0  0  0  0  0  0  0  0  0  0  # atno 17370 bound_to 10713
  156.3365  130.7359  151.2297 LP  0  0  0  0  0  0  0  0  0  0  0  0  # atno 17371 bound_to 10713
  140.1134  134.9462  157.2099 LP  0  0  0  0  0  0  0  0  0  0  0  0  # atno 17394 bound_to 11000
  140.3164  134.2966  155.7255 LP  0  0  0  0  0  0  0  0  0  0  0  0  # atno 17395 bound_to 11000

$$$$
