#       Name:                AV-unprocessed.smi:3332
#       Creating user name   scv26
#       Creation time:       Fri Mar 27 19:21:04 2020


#       File generated by GOLD software.
#

@<TRIPOS>MOLECULE
AV-unprocessed.smi:3332
    44    45     1
SMALL
NO_CHARGES


@<TRIPOS>ATOM
      1 ****        -3.1768  -1.6289  -1.8882 C.3            1 S1                 0.0000
      2 ****        -2.3405  -0.8638  -0.8571 C.3            1 S1                 0.0000
      3 ****        -1.3087   0.0157  -1.4995 C.2            1 S1                 0.0000
      4 ****        -0.1210  -0.5533  -1.9668 N.2            1 S1                 0.0000
      5 ****         0.7026   0.3437  -2.5138 C.2            1 S1                 0.0000
      6 ****         2.0646   0.0040  -3.0307 C.3            1 S1                 0.0000
      7 ****         3.2009   0.2669  -2.0236 C.3            1 S1                 0.0000
      8 ****         2.9208  -0.3240  -0.7163 N.am           1 S1                 0.0000
      9 ****         2.5839   0.3569   0.3905 C.2            1 S1                 0.0000
     10 ****         2.5831   1.5867   0.4552 O.2            1 S1                 0.0000
     11 ****         2.1629  -0.4889   1.5987 C.3            1 S1                 0.0000
     12 ****         1.1505   0.2014   2.5420 C.3            1 S1                 0.0000
     13 ****        -0.1430   0.5992   1.8710 C.2            1 S1                 0.0000
     14 ****        -1.2167   0.1238   2.4966 C.2            1 S1                 0.0000
     15 ****        -0.8622  -0.6911   3.7088 C.3            1 S1                 0.0000
     16 ****         0.6833  -0.7135   3.7035 C.3            1 S1                 0.0000
     17 ****         0.0636   1.9802  -2.4741 S.3            1 S1                 0.0000
     18 ****        -1.3763   1.3757  -1.6943 C.2            1 S1                 0.0000
     19 ****        -2.4854   2.2993  -1.3149 C.3            1 S1                 0.0000
     20 ****        -3.9195  -2.2572  -1.3965 H              1 S1                 0.0000
     21 ****        -2.5497  -2.2745  -2.5039 H              1 S1                 0.0000
     22 ****        -3.7058  -0.9431  -2.5508 H              1 S1                 0.0000
     23 ****        -3.0040  -0.2720  -0.2263 H              1 S1                 0.0000
     24 ****        -1.8563  -1.5759  -0.1875 H              1 S1                 0.0000
     25 ****         2.0691  -1.0489  -3.3157 H              1 S1                 0.0000
     26 ****         2.2421   0.5685  -3.9462 H              1 S1                 0.0000
     27 ****         4.1354  -0.1463  -2.4035 H              1 S1                 0.0000
     28 ****         3.3611   1.3426  -1.9348 H              1 S1                 0.0000
     29 ****         2.9040  -1.3324  -0.6702 H              1 S1                 0.0000
     30 ****         1.7352  -1.4254   1.2359 H              1 S1                 0.0000
     31 ****         3.0614  -0.7548   2.1565 H              1 S1                 0.0000
     32 ****         1.5950   1.1076   2.9565 H              1 S1                 0.0000
     33 ****        -0.1688   1.2230   0.9897 H              1 S1                 0.0000
     34 ****        -2.2396   0.2986   2.1970 H              1 S1                 0.0000
     35 ****        -1.2563  -0.2130   4.6061 H              1 S1                 0.0000
     36 ****        -1.2835  -1.6941   3.6329 H              1 S1                 0.0000
     37 ****         1.0334  -1.7367   3.5603 H              1 S1                 0.0000
     38 ****         1.0858  -0.3722   4.6579 H              1 S1                 0.0000
     39 ****        -3.4282   1.9711  -1.7530 H              1 S1                 0.0000
     40 ****        -2.2902   3.3150  -1.6598 H              1 S1                 0.0000
     41 ****        -2.6074   2.3298  -0.2317 H              1 S1                 0.0000
     42 ****         0.0896  -1.5285  -1.8987 LP             1 S1                 0.0000
     43 ****         2.8427   2.1296  -0.3435 LP             1 S1                 0.0000
     44 ****         2.3229   2.0424   1.3064 LP             1 S1                 0.0000
@<TRIPOS>BOND
    1    1    2 1     
    2    1   20 1     
    3    1   21 1     
    4    1   22 1     
    5    2    3 1     
    6    2   23 1     
    7    2   24 1     
    8    3   18 2     
    9    3    4 1     
   10    4    5 2     
   11    5    6 1     
   12    5   17 1     
   13    6    7 1     
   14    6   25 1     
   15    6   26 1     
   16    7    8 1     
   17    7   27 1     
   18    7   28 1     
   19    8    9 am    
   20    8   29 1     
   21    9   10 2     
   22    9   11 1     
   23   11   12 1     
   24   11   30 1     
   25   11   31 1     
   26   12   16 1     
   27   12   13 1     
   28   12   32 1     
   29   13   14 2     
   30   13   33 1     
   31   14   15 1     
   32   14   34 1     
   33   15   16 1     
   34   15   35 1     
   35   15   36 1     
   36   16   37 1     
   37   16   38 1     
   38   17   18 1     
   39   18   19 1     
   40   19   39 1     
   41   19   40 1     
   42   19   41 1     
   43    4   42 1     
   44   10   43 1     
   45   10   44 1     
@<TRIPOS>SUBSTRUCTURE
      1 S1             1
@<TRIPOS>SET
LONE_PAIRS      STATIC     ATOMS    <user>   **** ""
3 42 43 44
DONOR_HYDROGENS      STATIC     ATOMS    <user>   **** ""
1 29
ATOM$BLUE        STATIC     ATOMS    COLORGROUP SYSTEM
3 42 43 44
ATOM$RED        STATIC     ATOMS    COLORGROUP SYSTEM
1 29
