#       Name:                AV-unprocessed.smi:1059
#       Creating user name   scv26
#       Creation time:       Fri Mar 27 03:16:25 2020


#       File generated by GOLD software.
#

@<TRIPOS>MOLECULE
AV-unprocessed.smi:1059
    60    61     1
SMALL
NO_CHARGES


@<TRIPOS>ATOM
      1 ****        -5.0501  -5.0508  -1.5190 C.3            1 S1                 0.0000
      2 ****        -5.0039  -4.4294  -0.1143 C.3            1 S1                 0.0000
      3 ****        -6.4105  -4.4392   0.5137 C.3            1 S1                 0.0000
      4 ****        -4.3822  -3.0118  -0.1674 C.3            1 S1                 0.0000
      5 ****        -3.9784  -2.4072   1.1923 C.2            1 S1                 0.0000
      6 ****        -4.0582  -3.1031   2.2059 O.2            1 S1                 0.0000
      7 ****        -3.5386  -1.1251   1.2357 N.am           1 S1                 0.0000
      8 ****        -3.1147  -0.4751   2.4821 C.3            1 S1                 0.0000
      9 ****        -1.5853  -0.3039   2.4622 C.3            1 S1                 0.0000
     10 ****        -1.1227   0.4823   1.2171 C.3            1 S1                 0.0000
     11 ****         0.3353   0.4642   1.1437 N.am           1 S1                 0.0000
     12 ****         1.0914   1.3581   0.4902 C.2            1 S1                 0.0000
     13 ****         0.6285   2.3048  -0.1459 O.2            1 S1                 0.0000
     14 ****         2.3996   1.0920   0.6451 N.am           1 S1                 0.0000
     15 ****         3.5098   1.7886   0.0969 C.ar           1 S1                 0.0000
     16 ****         4.7566   1.6648   0.7423 C.ar           1 S1                 0.0000
     17 ****         5.8761   2.3296   0.2073 C.ar           1 S1                 0.0000
     18 ****         5.7142   3.0894  -0.9692 C.ar           1 S1                 0.0000
     19 ****         6.8224   3.7559  -1.5104 N.3            1 S1                 0.0000
     20 ****         7.2154   3.2460  -2.8155 C.3            1 S1                 0.0000
     21 ****         6.7237   5.2029  -1.3932 C.3            1 S1                 0.0000
     22 ****         4.5247   3.2025  -1.6062 N.ar           1 S1                 0.0000
     23 ****         3.4536   2.5659  -1.0855 C.ar           1 S1                 0.0000
     24 ****        -1.7473  -0.0943  -0.0747 C.3            1 S1                 0.0000
     25 ****        -3.2694  -0.2719   0.0704 C.3            1 S1                 0.0000
     26 ****        -5.6765  -4.4640  -2.1919 H              1 S1                 0.0000
     27 ****        -5.4528  -6.0638  -1.4879 H              1 S1                 0.0000
     28 ****        -4.0537  -5.1094  -1.9582 H              1 S1                 0.0000
     29 ****        -4.3611  -5.0695   0.4919 H              1 S1                 0.0000
     30 ****        -7.1005  -3.8149  -0.0544 H              1 S1                 0.0000
     31 ****        -6.4039  -4.0749   1.5405 H              1 S1                 0.0000
     32 ****        -6.8214  -5.4489   0.5347 H              1 S1                 0.0000
     33 ****        -3.4838  -3.0389  -0.7853 H              1 S1                 0.0000
     34 ****        -5.0889  -2.3445  -0.6623 H              1 S1                 0.0000
     35 ****        -3.6007   0.4982   2.5657 H              1 S1                 0.0000
     36 ****        -3.4137  -1.0298   3.3725 H              1 S1                 0.0000
     37 ****        -1.2563   0.2038   3.3696 H              1 S1                 0.0000
     38 ****        -1.1179  -1.2901   2.4728 H              1 S1                 0.0000
     39 ****        -1.4597   1.5144   1.3328 H              1 S1                 0.0000
     40 ****         0.8036  -0.2801   1.6397 H              1 S1                 0.0000
     41 ****         2.6292   0.3368   1.2742 H              1 S1                 0.0000
     42 ****         4.8566   1.0728   1.6403 H              1 S1                 0.0000
     43 ****         6.8394   2.2553   0.6906 H              1 S1                 0.0000
     44 ****         7.2877   2.1578  -2.8010 H              1 S1                 0.0000
     45 ****         8.1905   3.6440  -3.0972 H              1 S1                 0.0000
     46 ****         6.4945   3.5345  -3.5815 H              1 S1                 0.0000
     47 ****         6.4408   5.4930  -0.3806 H              1 S1                 0.0000
     48 ****         5.9815   5.6004  -2.0863 H              1 S1                 0.0000
     49 ****         7.6844   5.6656  -1.6196 H              1 S1                 0.0000
     50 ****         2.5431   2.6738  -1.6542 H              1 S1                 0.0000
     51 ****        -1.5318   0.5575  -0.9222 H              1 S1                 0.0000
     52 ****        -1.2957  -1.0605  -0.3055 H              1 S1                 0.0000
     53 ****        -3.6811  -0.6526  -0.8622 H              1 S1                 0.0000
     54 ****        -3.7443   0.6987   0.2206 H              1 S1                 0.0000
     55 ****        -4.3816  -4.0471   2.1401 LP             1 S1                 0.0000
     56 ****        -3.7995  -2.7239   3.0944 LP             1 S1                 0.0000
     57 ****        -0.3613   2.4382  -0.1945 LP             1 S1                 0.0000
     58 ****         1.2424   2.9405  -0.6140 LP             1 S1                 0.0000
     59 ****         7.6089   3.5305  -0.9353 LP             1 S1                 0.0000
     60 ****         4.4414   3.7446  -2.4424 LP             1 S1                 0.0000
@<TRIPOS>BOND
    1    1    2 1     
    2    1   26 1     
    3    1   27 1     
    4    1   28 1     
    5    2    3 1     
    6    2    4 1     
    7    2   29 1     
    8    3   30 1     
    9    3   31 1     
   10    3   32 1     
   11    4    5 1     
   12    4   33 1     
   13    4   34 1     
   14    5    6 2     
   15    5    7 am    
   16    7   25 1     
   17    7    8 1     
   18    8    9 1     
   19    8   35 1     
   20    8   36 1     
   21    9   10 1     
   22    9   37 1     
   23    9   38 1     
   24   10   11 1     
   25   10   24 1     
   26   10   39 1     
   27   11   12 am    
   28   11   40 1     
   29   12   13 2     
   30   12   14 am    
   31   14   15 1     
   32   14   41 1     
   33   15   23 ar    
   34   15   16 ar    
   35   16   17 ar    
   36   16   42 1     
   37   17   18 ar    
   38   17   43 1     
   39   18   19 1     
   40   18   22 ar    
   41   19   20 1     
   42   19   21 1     
   43   20   44 1     
   44   20   45 1     
   45   20   46 1     
   46   21   47 1     
   47   21   48 1     
   48   21   49 1     
   49   22   23 ar    
   50   23   50 1     
   51   24   25 1     
   52   24   51 1     
   53   24   52 1     
   54   25   53 1     
   55   25   54 1     
   56    6   55 1     
   57    6   56 1     
   58   13   57 1     
   59   13   58 1     
   60   19   59 1     
   61   22   60 1     
@<TRIPOS>SUBSTRUCTURE
      1 S1             1
@<TRIPOS>SET
LONE_PAIRS      STATIC     ATOMS    <user>   **** ""
6 55 56 57 58 59 60
DONOR_HYDROGENS      STATIC     ATOMS    <user>   **** ""
2 40 41
ATOM$BLUE        STATIC     ATOMS    COLORGROUP SYSTEM
6 55 56 57 58 59 60
ATOM$RED        STATIC     ATOMS    COLORGROUP SYSTEM
2 40 41
