AV-unprocessed.smi:715|AV-procd|sdf|3485|dock4
  -GOLD-   22720 0483D 1   1.00000     0.00000
 Structure written by MMmdl.
 39 40  0  0  0  0  0  0  0  0  1 V2000
  145.9805  143.3368  153.7224 C   0  0  0  0  0  0  0  0  0  0  0  0
  146.7961  142.3107  154.3356 N   0  0  0  0  0  0  0  0  0  0  0  0
  148.1080  141.9813  154.0715 C   0  0  0  0  0  0  0  0  0  0  0  0
  148.4481  140.9485  154.9007 C   0  0  0  0  0  0  0  0  0  0  0  0
  149.7604  140.2206  155.0266 C   0  0  1  0  0  0  0  0  0  0  0  0
  150.1073  139.5887  153.8105 O   0  0  0  0  0  0  0  0  0  0  0  0
  150.8878  141.1984  155.4015 C   0  0  0  0  0  0  0  0  0  0  0  0
  150.9723  141.3718  156.8460 N   0  0  0  0  0  0  0  0  0  0  0  0
  151.7796  140.6645  157.6488 C   0  0  0  0  0  0  0  0  0  0  0  0
  152.5468  139.7951  157.2349 O   0  0  0  0  0  0  0  0  0  0  0  0
  151.7129  140.9960  159.1438 C   0  0  0  0  0  0  0  0  0  0  0  0
  152.2858  142.3849  159.4956 C   0  0  0  0  0  0  0  0  0  0  0  0
  152.2446  142.7398  160.9870 C   0  0  0  0  0  0  0  0  0  0  0  0
  152.3372  144.2694  161.0415 C   0  0  0  0  0  0  0  0  0  0  0  0
  151.9173  144.7788  159.6541 C   0  0  0  0  0  0  0  0  0  0  0  0
  151.5200  143.5396  158.8462 C   0  0  0  0  0  0  0  0  0  0  0  0
  147.2557  140.7207  155.6458 C   0  0  0  0  0  0  0  0  0  0  0  0
  146.2697  141.5341  155.3042 N   0  0  0  0  0  0  0  0  0  0  0  0
  146.5710  143.9036  153.0018 H   0  0  0  0  0  0  0  0  0  0  0  0
  145.6063  144.0178  154.4875 H   0  0  0  0  0  0  0  0  0  0  0  0
  145.1365  142.8775  153.2066 H   0  0  0  0  0  0  0  0  0  0  0  0
  148.6878  142.5033  153.3244 H   0  0  0  0  0  0  0  0  0  0  0  0
  149.6838  139.4472  155.7924 H   0  0  0  0  0  0  0  0  0  0  0  0
  149.5530  139.9316  153.1261 H   0  0  0  0  0  0  0  0  0  0  0  0
  151.8463  140.8690  154.9962 H   0  0  0  0  0  0  0  0  0  0  0  0
  150.6775  142.1757  154.9635 H   0  0  0  0  0  0  0  0  0  0  0  0
  150.3675  142.0654  157.2615 H   0  0  0  0  0  0  0  0  0  0  0  0
  150.6680  140.9444  159.4509 H   0  0  0  0  0  0  0  0  0  0  0  0
  152.2387  140.2266  159.7116 H   0  0  0  0  0  0  0  0  0  0  0  0
  153.3221  142.4445  159.1578 H   0  0  0  0  0  0  0  0  0  0  0  0
  151.2943  142.4201  161.4173 H   0  0  0  0  0  0  0  0  0  0  0  0
  153.0409  142.2578  161.5553 H   0  0  0  0  0  0  0  0  0  0  0  0
  151.7027  144.6730  161.8312 H   0  0  0  0  0  0  0  0  0  0  0  0
  153.3607  144.5800  161.2556 H   0  0  0  0  0  0  0  0  0  0  0  0
  151.1012  145.4996  159.7107 H   0  0  0  0  0  0  0  0  0  0  0  0
  152.7613  145.2786  159.1768 H   0  0  0  0  0  0  0  0  0  0  0  0
  151.7442  143.6457  157.7844 H   0  0  0  0  0  0  0  0  0  0  0  0
  150.4457  143.3746  158.9416 H   0  0  0  0  0  0  0  0  0  0  0  0
  147.0798  139.9909  156.4222 H   0  0  0  0  0  0  0  0  0  0  0  0
  1  2  1  0  0  0  0
  1 19  1  0  0  0  0
  1 20  1  0  0  0  0
  1 21  1  0  0  0  0
  2 18  1  0  0  0  0
  2  3  1  0  0  0  0
  3  4  2  0  0  0  0
  3 22  1  0  0  0  0
  4  5  1  0  0  0  0
  4 17  1  0  0  0  0
  5  6  1  0  0  0  0
  5  7  1  0  0  0  0
  5 23  1  0  0  0  0
  6 24  1  0  0  0  0
  7  8  1  0  0  0  0
  7 25  1  0  0  0  0
  7 26  1  0  0  0  0
  8  9  1  0  0  0  0
  8 27  1  0  0  0  0
  9 10  2  0  0  0  0
  9 11  1  0  0  0  0
 11 12  1  0  0  0  0
 11 28  1  0  0  0  0
 11 29  1  0  0  0  0
 12 16  1  0  0  0  0
 12 13  1  0  0  0  0
 12 30  1  0  0  0  0
 13 14  1  0  0  0  0
 13 31  1  0  0  0  0
 13 32  1  0  0  0  0
 14 15  1  0  0  0  0
 14 33  1  0  0  0  0
 14 34  1  0  0  0  0
 15 16  1  0  0  0  0
 15 35  1  0  0  0  0
 15 36  1  0  0  0  0
 16 37  1  0  0  0  0
 16 38  1  0  0  0  0
 17 18  2  0  0  0  0
 17 39  1  0  0  0  0
M  END
> <s_m_source_file>
AV-unprocessed.smi

> <i_m_source_file_index>
715

> <i_lp_mmshare_version>
43012

> <i_f3d_flags>
0

> <s_epik_input>
W0NIM11uMVtjSF1jKFtjSF1uMSlbQ0BIXShbT0hdKVtDSDJdW05IXUMoPU8pW0NIMl1bQ0hdMltDSDJdW0NIMl1bQ0gyXVtDSDJdMg==

> <s_epik_cmdline>
J2VwaWtfcHl0aG9uJywgJy1waCcsICc3LjAnLCAnLXRuJywgJzgnLCAnLW1hJywgJzIwMCcsICctbWV0YWxfYmluZGluZycsICctaW1hZScsICc8aW5maWxlLm1hZT4nLCAnLW9tYWUnLCAnPG91dGZpbGUubWFlPic=

> <r_lp_tautomer_probability>
1

> <r_epik_Ionization_Penalty>
4.45533e-05

> <r_epik_Ionization_Penalty_Charging>
0

> <r_epik_Ionization_Penalty_Neutral>
4.45533e-05

> <r_epik_State_Penalty>
-0

> <r_epik_Charging_Adjusted_Penalty>
0

> <i_epik_Tot_Q>
0

> <i_epik_Tot_abs_Q>
0

> <r_epik_Metal_State_Penalty>
-0

> <b_epik_Metal_Only>
0

> <s_lp_Force_Field>
OPLS_2005

> <r_lp_Energy>
19.2831

> <b_lp_Chiralities_Consistent>
1

> <s_lp_Variant>
AV-unprocessed.smi:715-2

> <Gold.Version>
5.8.1

> <Gold.Id.Protein>
6NUR|6NUR_protein|mol2

> <Gold.PLP.Fitness>
44.5183

> <Gold.PLP.PLP>
-39.0450

> <Gold.PLP.part.hbond>
-3.0000

> <Gold.PLP.part.metal>
0.0000

> <Gold.PLP.part.buried>
-2.3181

> <Gold.PLP.part.nonpolar>
-32.7199

> <Gold.PLP.part.repulsive>
0.1728

> <Gold.PLP.ligand.clash>
0.0002

> <Gold.PLP.ligand.torsion>
0.5947

> <Gold.PLP.Chemscore.Hbond>
2.2077

> <Gold.PLP.Chemscore.CHOScore>
0.0000

> <Gold.PLP.Chemscore.Metal>
0.0000

> <Gold.Chemscore.Hbonds>
donor molecule, donor type, donor heavy atom, donor atom, acceptor molecule, acceptor atom, score
      L1  H     6    24       P1  7957  0.72
      P1  H  7989  7998       L1     6  0.45
      P1  H  7997  8010       L1    10  1.00

> <Gold.PLP.Chemscore.Internal.Correction>
0.0398

> <Gold.Rescore>
     Score         DG    S(hbond)    S(metal)    S(lipo)     H(rot)  DE(clash)    DE(int)     intcor
     14.44     -17.30       1.79        0.00      99.93       2.29       1.30       1.55       ----

> <Gold.Chemscore.Fitness>
14.4418

> <Gold.Chemscore.DG>
-17.2975

> <Gold.Chemscore.ZeroCoef>
-5.4800

> <Gold.Chemscore.Hbond>
1.7902

> <Gold.Chemscore.Metal>
0.0000

> <Gold.Chemscore.Lipo>
99.9326

> <Gold.Chemscore.Internal_Hbond>
0.0000

> <Gold.Chemscore.DEClash>
1.3019

> <Gold.Chemscore.DEInternal>
1.5538

> <Gold.Chemscore.Rot>
2.2866

> <Gold.Chemscore.Internal.Correction>
   9.000000E+99

> <Gold.Chemscore.Hbonds>
donor molecule, donor type, donor heavy atom, donor atom, acceptor molecule, acceptor atom, score
      L1  H     6    24       P1  7957  0.71
      P1  H  7997  8010       L1    10  0.93

> <Gold.Chemscore.Hbond.Weighted>
-5.9792

> <Gold.Chemscore.Metal.Weighted>
-0.0000

> <Gold.Chemscore.Lipo.Weighted>
-11.6921

> <Gold.Chemscore.Internal_Hbond.Weighted>
0.0000

> <Gold.Chemscore.DEClash.Weighted>
1.3019

> <Gold.Chemscore.DEInternal.Weighted>
1.5538

> <Gold.Chemscore.Rot.Weighted>
5.8538

> <Gold.Chemscore.Internal.Correction.Weighted>
   9.000000E+99

> <Gold.Protein.RotatedTorsions>
[ 6907 6896 6895 6894 ] final -111.29 input  -60.11 | X-H torsion
[ 7974 7965 7964 7962 ] final   16.92 input  175.53 | X-H torsion
[ 8008 7997 7996 7995 ] final   42.88 input   59.86 | X-H torsion
[ 10167 10162 10161 10158 ] final  -49.33 input  -65.29 | X-H torsion
[ 10718 10713 10712 10709 ] final -128.05 input   66.30 | X-H torsion
[ 10763 10752 10751 10750 ] final  -30.92 input  -60.55 | X-H torsion
[ 11005 11000 10999 10996 ] final   49.95 input  -57.11 | X-H torsion

> <Gold.Protein.ActiveResidues>
 VAL166  LYS551  ARG553  GLY616  TRP617  ASP618  TYR619  PRO620  LYS621  CYS622 
 ASP623  PHE694  ASN695  SER759  ASP760  ASP761  ALA762  ILE779  LEU786  VAL792 
 PHE793  MET794  SER795  GLU796  ALA797  LYS798  CYS799  TRP800  GLU811  SER814 

> <Gold.Protein.RotatedAtoms>
  150.7680  133.9257  159.3411 H   0  0  0  0  0  0  0  0  0  0  0  0  # atno 6907 bound_to 6896
  151.7150  135.0903  160.0284 H   0  0  0  0  0  0  0  0  0  0  0  0  # atno 6908 bound_to 6896
  152.3685  133.6351  159.6105 H   0  0  0  0  0  0  0  0  0  0  0  0  # atno 6909 bound_to 6896
  146.2235  139.8678  142.8593 H   0  0  0  0  0  0  0  0  0  0  0  0  # atno 7974 bound_to 7965
  155.2935  140.3380  155.4251 H   0  0  0  0  0  0  0  0  0  0  0  0  # atno 8008 bound_to 7997
  156.2035  140.1742  156.7890 H   0  0  0  0  0  0  0  0  0  0  0  0  # atno 8009 bound_to 7997
  154.5589  140.0691  156.8772 H   0  0  0  0  0  0  0  0  0  0  0  0  # atno 8010 bound_to 7997
  140.6690  143.2702  151.4200 H   0  0  0  0  0  0  0  0  0  0  0  0  # atno 10167 bound_to 10162
  156.1914  130.6797  151.0428 H   0  0  0  0  0  0  0  0  0  0  0  0  # atno 10718 bound_to 10713
  153.7888  135.6899  153.4875 H   0  0  0  0  0  0  0  0  0  0  0  0  # atno 10763 bound_to 10752
  153.1763  135.4523  154.9968 H   0  0  0  0  0  0  0  0  0  0  0  0  # atno 10764 bound_to 10752
  154.8052  135.3354  154.7386 H   0  0  0  0  0  0  0  0  0  0  0  0  # atno 10765 bound_to 10752
  140.1059  134.5019  155.8720 H   0  0  0  0  0  0  0  0  0  0  0  0  # atno 11005 bound_to 11000
  145.2639  141.0086  143.3810 LP  0  0  0  0  0  0  0  0  0  0  0  0  # atno 17320 bound_to 7965
  144.9277  139.4336  143.6510 LP  0  0  0  0  0  0  0  0  0  0  0  0  # atno 17321 bound_to 7965
  139.5950  144.1417  152.2133 LP  0  0  0  0  0  0  0  0  0  0  0  0  # atno 17342 bound_to 10162
  140.0783  144.5722  150.7141 LP  0  0  0  0  0  0  0  0  0  0  0  0  # atno 17343 bound_to 10162
  157.6931  131.0803  150.7049 LP  0  0  0  0  0  0  0  0  0  0  0  0  # atno 17370 bound_to 10713
  156.7105  130.4650  149.5548 LP  0  0  0  0  0  0  0  0  0  0  0  0  # atno 17371 bound_to 10713
  141.2118  133.6711  156.6610 LP  0  0  0  0  0  0  0  0  0  0  0  0  # atno 17394 bound_to 11000
  140.3157  134.8050  157.4212 LP  0  0  0  0  0  0  0  0  0  0  0  0  # atno 17395 bound_to 11000

$$$$
