AV-unprocessed.smi:903|AV-procd|sdf|4096|dock3
  -GOLD-   22720 1583D 1   1.00000     0.00000
 Structure written by MMmdl.
 28 29  0  0  0  0  0  0  0  0  2 V2000
  153.6013  138.3613  156.6236 O   0  0  0  0  0  0  0  0  0  0  0  0
  152.6258  138.3830  155.8423 C   0  0  0  0  0  0  0  0  0  0  0  0
  152.4882  137.5054  154.9590 O   0  5  0  0  0  0  0  0  0  0  0  0
  151.5805  139.4741  155.9434 C   0  0  0  0  0  0  0  0  0  0  0  0
  151.7865  140.3754  156.9365 N   0  0  0  0  0  0  0  0  0  0  0  0
  150.9151  141.3945  157.1191 C   0  0  0  0  0  0  0  0  0  0  0  0
  151.1479  142.2986  158.1351 O   0  0  0  0  0  0  0  0  0  0  0  0
  152.4437  142.3349  158.7257 C   0  0  0  0  0  0  0  0  0  0  0  0
  152.5109  143.5185  159.6980 C   0  0  1  0  0  0  0  0  0  0  0  0
  152.2430  144.8684  159.0367 C   0  0  0  0  0  0  0  0  0  0  0  0
  151.8050  145.7031  160.2183 C   0  0  0  0  0  0  0  0  0  0  0  0
  150.9930  144.6994  161.0332 C   0  0  0  0  0  0  0  0  0  0  0  0
  151.4956  143.4091  160.6921 O   0  0  0  0  0  0  0  0  0  0  0  0
  149.7791  141.5660  156.3100 C   0  0  0  0  0  0  0  0  0  0  0  0
  149.5496  140.6427  155.2761 C   0  0  0  0  0  0  0  0  0  0  0  0
  150.4511  139.5780  155.0762 C   0  0  0  0  0  0  0  0  0  0  0  0
  150.1003  138.4811  153.7821 Cl  0  0  0  0  0  0  0  0  0  0  0  0
  152.6159  141.4069  159.2738 H   0  0  0  0  0  0  0  0  0  0  0  0
  153.2225  142.4268  157.9666 H   0  0  0  0  0  0  0  0  0  0  0  0
  153.4827  143.5508  160.1934 H   0  0  0  0  0  0  0  0  0  0  0  0
  153.1170  145.2734  158.5264 H   0  0  0  0  0  0  0  0  0  0  0  0
  151.4298  144.7884  158.3136 H   0  0  0  0  0  0  0  0  0  0  0  0
  152.6768  146.0302  160.7867 H   0  0  0  0  0  0  0  0  0  0  0  0
  151.2317  146.5856  159.9334 H   0  0  0  0  0  0  0  0  0  0  0  0
  151.0697  144.8832  162.1050 H   0  0  0  0  0  0  0  0  0  0  0  0
  149.9390  144.7433  160.7571 H   0  0  0  0  0  0  0  0  0  0  0  0
  149.0993  142.3882  156.4775 H   0  0  0  0  0  0  0  0  0  0  0  0
  148.6848  140.7517  154.6382 H   0  0  0  0  0  0  0  0  0  0  0  0
  1  2  2  0  0  0  0
  2  3  1  0  0  0  0
  2  4  1  0  0  0  0
  4 16  1  0  0  0  0
  4  5  2  0  0  0  0
  5  6  1  0  0  0  0
  6  7  1  0  0  0  0
  6 14  2  0  0  0  0
  7  8  1  0  0  0  0
  8  9  1  0  0  0  0
  8 18  1  0  0  0  0
  8 19  1  0  0  0  0
  9 13  1  0  0  0  0
  9 10  1  0  0  0  0
  9 20  1  0  0  0  0
 10 11  1  0  0  0  0
 10 21  1  0  0  0  0
 10 22  1  0  0  0  0
 11 12  1  0  0  0  0
 11 23  1  0  0  0  0
 11 24  1  0  0  0  0
 12 13  1  0  0  0  0
 12 25  1  0  0  0  0
 12 26  1  0  0  0  0
 14 15  1  0  0  0  0
 14 27  1  0  0  0  0
 15 16  2  0  0  0  0
 15 28  1  0  0  0  0
 16 17  1  0  0  0  0
M  CHG  1   3  -1
M  END
> <s_m_source_file>
AV-unprocessed.smi

> <i_m_source_file_index>
903

> <i_lp_mmshare_version>
43012

> <i_f3d_flags>
0

> <s_epik_input>
Tz1DKFtPSF0pYzFuYyhbY0hdW2NIXWMxQ2wpT1tDSDJdW0NAQEhdMltDSDJdW0NIMl1bQ0gyXU8y

> <s_epik_cmdline>
J2VwaWtfcHl0aG9uJywgJy1waCcsICc3LjAnLCAnLXRuJywgJzgnLCAnLW1hJywgJzIwMCcsICctbWV0YWxfYmluZGluZycsICctaW1hZScsICc8aW5maWxlLm1hZT4nLCAnLW9tYWUnLCAnPG91dGZpbGUubWFlPic=

> <r_lp_tautomer_probability>
1

> <r_epik_Ionization_Penalty>
1.22588e-05

> <r_epik_Ionization_Penalty_Charging>
1.01343e-05

> <r_epik_Ionization_Penalty_Neutral>
2.12445e-06

> <r_epik_State_Penalty>
-0

> <r_epik_Charging_Adjusted_Penalty>
1.01343e-05

> <i_epik_Tot_Q>
-1

> <i_epik_Tot_abs_Q>
1

> <r_epik_Metal_State_Penalty>
-0

> <b_epik_Metal_Only>
0

> <s_lp_Force_Field>
OPLS_2005

> <r_lp_Energy>
26.0246

> <b_lp_Chiralities_Consistent>
1

> <s_lp_Variant>
AV-unprocessed.smi:903-2

> <Gold.Version>
5.8.1

> <Gold.Id.Protein>
6NUR|6NUR_protein|mol2

> <Gold.PLP.Fitness>
42.8021

> <Gold.PLP.PLP>
-34.8706

> <Gold.PLP.part.hbond>
-2.1449

> <Gold.PLP.part.metal>
0.0000

> <Gold.PLP.part.buried>
-0.2568

> <Gold.PLP.part.nonpolar>
-32.9977

> <Gold.PLP.part.repulsive>
0.2103

> <Gold.PLP.ligand.clash>
0.0000

> <Gold.PLP.ligand.torsion>
0.2184

> <Gold.PLP.Chemscore.Hbond>
2.7840

> <Gold.PLP.Chemscore.CHOScore>
0.0000

> <Gold.PLP.Chemscore.Metal>
0.0000

> <Gold.Chemscore.Hbonds>
donor molecule, donor type, donor heavy atom, donor atom, acceptor molecule, acceptor atom, score
      P1  H  7997  8009       L1     1  1.54
      P1  H 10752 10763       L1     3  1.15

> <Gold.PLP.Chemscore.Internal.Correction>
0.0162

> <Gold.Rescore>
     Score         DG    S(hbond)    S(metal)    S(lipo)     H(rot)  DE(clash)    DE(int)     intcor
     15.29     -17.31       1.53        0.00      90.48       1.51       0.47       1.55       ----

> <Gold.Chemscore.Fitness>
15.2894

> <Gold.Chemscore.DG>
-17.3120

> <Gold.Chemscore.ZeroCoef>
-5.4800

> <Gold.Chemscore.Hbond>
1.5300

> <Gold.Chemscore.Metal>
0.0000

> <Gold.Chemscore.Lipo>
90.4791

> <Gold.Chemscore.Internal_Hbond>
0.0000

> <Gold.Chemscore.DEClash>
0.4734

> <Gold.Chemscore.DEInternal>
1.5492

> <Gold.Chemscore.Rot>
1.5094

> <Gold.Chemscore.Internal.Correction>
   9.000000E+99

> <Gold.Chemscore.Hbonds>
donor molecule, donor type, donor heavy atom, donor atom, acceptor molecule, acceptor atom, score
      P1  H  7997  8009       L1     1  0.42
      P1  H 10752 10763       L1     3  0.55

> <Gold.Chemscore.Hbond.Weighted>
-5.1100

> <Gold.Chemscore.Metal.Weighted>
-0.0000

> <Gold.Chemscore.Lipo.Weighted>
-10.5860

> <Gold.Chemscore.Internal_Hbond.Weighted>
0.0000

> <Gold.Chemscore.DEClash.Weighted>
0.4734

> <Gold.Chemscore.DEInternal.Weighted>
1.5492

> <Gold.Chemscore.Rot.Weighted>
3.8641

> <Gold.Chemscore.Internal.Correction.Weighted>
   9.000000E+99

> <Gold.Protein.RotatedTorsions>
[ 6907 6896 6895 6894 ] final  162.57 input  -60.11 | X-H torsion
[ 7974 7965 7964 7962 ] final  -46.87 input  175.53 | X-H torsion
[ 8008 7997 7996 7995 ] final -172.43 input   59.86 | X-H torsion
[ 10167 10162 10161 10158 ] final  -34.09 input  -65.29 | X-H torsion
[ 10718 10713 10712 10709 ] final  151.82 input   66.30 | X-H torsion
[ 10763 10752 10751 10750 ] final   46.88 input  -60.55 | X-H torsion
[ 11005 11000 10999 10996 ] final   75.38 input  -57.11 | X-H torsion

> <Gold.Protein.ActiveResidues>
 VAL166  LYS551  ARG553  GLY616  TRP617  ASP618  TYR619  PRO620  LYS621  CYS622 
 ASP623  PHE694  ASN695  SER759  ASP760  ASP761  ALA762  ILE779  LEU786  VAL792 
 PHE793  MET794  SER795  GLU796  ALA797  LYS798  CYS799  TRP800  GLU811  SER814 

> <Gold.Protein.RotatedAtoms>
  151.9384  133.3631  159.3955 H   0  0  0  0  0  0  0  0  0  0  0  0  # atno 6907 bound_to 6896
  150.7003  134.4465  159.5325 H   0  0  0  0  0  0  0  0  0  0  0  0  # atno 6908 bound_to 6896
  152.2118  134.8495  160.0547 H   0  0  0  0  0  0  0  0  0  0  0  0  # atno 6909 bound_to 6896
  145.9674  140.7418  142.9427 H   0  0  0  0  0  0  0  0  0  0  0  0  # atno 7974 bound_to 7965
  155.9445  140.1115  157.1028 H   0  0  0  0  0  0  0  0  0  0  0  0  # atno 8008 bound_to 7997
  154.4096  140.1212  156.5037 H   0  0  0  0  0  0  0  0  0  0  0  0  # atno 8009 bound_to 7997
  155.6920  140.3472  155.4900 H   0  0  0  0  0  0  0  0  0  0  0  0  # atno 8010 bound_to 7997
  140.7192  143.3572  151.2034 H   0  0  0  0  0  0  0  0  0  0  0  0  # atno 10167 bound_to 10162
  157.2658  131.0807  151.1634 H   0  0  0  0  0  0  0  0  0  0  0  0  # atno 10718 bound_to 10713
  152.9805  135.5994  154.3672 H   0  0  0  0  0  0  0  0  0  0  0  0  # atno 10763 bound_to 10752
  154.3349  135.2768  155.2455 H   0  0  0  0  0  0  0  0  0  0  0  0  # atno 10764 bound_to 10752
  154.4562  135.5977  153.6280 H   0  0  0  0  0  0  0  0  0  0  0  0  # atno 10765 bound_to 10752
  139.9346  134.7513  156.1264 H   0  0  0  0  0  0  0  0  0  0  0  0  # atno 11005 bound_to 11000
  144.6829  140.2692  143.7308 LP  0  0  0  0  0  0  0  0  0  0  0  0  # atno 17320 bound_to 7965
  145.7954  139.1943  143.2079 LP  0  0  0  0  0  0  0  0  0  0  0  0  # atno 17321 bound_to 7965
  139.7117  143.9366  152.2950 LP  0  0  0  0  0  0  0  0  0  0  0  0  # atno 17342 bound_to 10162
  139.9094  144.6865  150.8579 LP  0  0  0  0  0  0  0  0  0  0  0  0  # atno 17343 bound_to 10162
  157.3126  130.6897  149.6224 LP  0  0  0  0  0  0  0  0  0  0  0  0  # atno 17370 bound_to 10713
  155.9663  130.4359  150.5111 LP  0  0  0  0  0  0  0  0  0  0  0  0  # atno 17371 bound_to 10713
  141.0953  133.6698  156.2632 LP  0  0  0  0  0  0  0  0  0  0  0  0  # atno 17394 bound_to 11000
  140.6109  134.5459  157.5533 LP  0  0  0  0  0  0  0  0  0  0  0  0  # atno 17395 bound_to 11000

$$$$
