#       Name:                AV-unprocessed.smi:1699
#       Creating user name   scv26
#       Creation time:       Fri Mar 27 07:59:22 2020


#       File generated by GOLD software.
#

@<TRIPOS>MOLECULE
AV-unprocessed.smi:1699
    42    43     1
SMALL
NO_CHARGES


@<TRIPOS>ATOM
      1 ****        -4.0134  -0.6574  -0.1386 C.3            1 S1                 0.0000
      2 ****        -3.7877   0.8077  -0.4754 C.ar           1 S1                 0.0000
      3 ****        -4.8951   1.6803  -0.5357 C.ar           1 S1                 0.0000
      4 ****        -4.6848   3.0347  -0.8457 C.ar           1 S1                 0.0000
      5 ****        -3.3674   3.4615  -1.0851 C.ar           1 S1                 0.0000
      6 ****        -2.3037   2.6346  -1.0308 N.ar           1 S1                 0.0000
      7 ****        -2.4890   1.3241  -0.7318 C.ar           1 S1                 0.0000
      8 ****        -1.4137   0.3945  -0.6527 N.am           1 S1                 0.0000
      9 ****        -0.1004   0.6134  -0.8413 C.2            1 S1                 0.0000
     10 ****         0.4051   1.6918  -1.1528 O.2            1 S1                 0.0000
     11 ****         0.6063  -0.5092  -0.6435 N.am           1 S1                 0.0000
     12 ****         2.0590  -0.6375  -0.7461 C.3            1 S1                 0.0000
     13 ****         2.4086  -1.4176  -2.0223 C.3            1 S1                 0.0000
     14 ****         2.6150  -1.3181   0.5199 C.3            1 S1                 0.0000
     15 ****         2.2757  -0.6005   1.8291 C.3            1 S1                 0.0000
     16 ****         3.3963  -1.0605   2.7319 C.3            1 S1                 0.0000
     17 ****         4.5810  -1.0663   1.7719 C.3            1 S1                 0.0000
     18 ****         4.0408  -1.3575   0.4855 O.3            1 S1                 0.0000
     19 ****        -5.0676  -0.8644   0.0484 H              1 S1                 0.0000
     20 ****        -3.4547  -0.9351   0.7556 H              1 S1                 0.0000
     21 ****        -3.6879  -1.2920  -0.9634 H              1 S1                 0.0000
     22 ****        -5.8954   1.3192  -0.3467 H              1 S1                 0.0000
     23 ****        -5.5112   3.7280  -0.8984 H              1 S1                 0.0000
     24 ****        -3.1611   4.4937  -1.3264 H              1 S1                 0.0000
     25 ****        -1.6776  -0.5490  -0.4114 H              1 S1                 0.0000
     26 ****         0.0999  -1.3456  -0.3929 H              1 S1                 0.0000
     27 ****         2.5173   0.3503  -0.8197 H              1 S1                 0.0000
     28 ****         3.4880  -1.5148  -2.1410 H              1 S1                 0.0000
     29 ****         2.0270  -0.9107  -2.9092 H              1 S1                 0.0000
     30 ****         1.9849  -2.4223  -2.0031 H              1 S1                 0.0000
     31 ****         2.2592  -2.3481   0.5806 H              1 S1                 0.0000
     32 ****         2.3233   0.4818   1.6990 H              1 S1                 0.0000
     33 ****         1.2872  -0.8556   2.2120 H              1 S1                 0.0000
     34 ****         3.5489  -0.4114   3.5946 H              1 S1                 0.0000
     35 ****         3.1966  -2.0706   3.0921 H              1 S1                 0.0000
     36 ****         5.0463  -0.0806   1.7353 H              1 S1                 0.0000
     37 ****         5.3439  -1.7905   2.0583 H              1 S1                 0.0000
     38 ****        -1.3843   2.9849  -1.2097 LP             1 S1                 0.0000
     39 ****        -0.1744   2.4958  -1.2860 LP             1 S1                 0.0000
     40 ****         1.3953   1.7638  -1.2726 LP             1 S1                 0.0000
     41 ****         4.3727  -0.6805  -0.1714 LP             1 S1                 0.0000
     42 ****         4.3378  -2.2696   0.2029 LP             1 S1                 0.0000
@<TRIPOS>BOND
    1    1    2 1     
    2    1   19 1     
    3    1   20 1     
    4    1   21 1     
    5    2    7 ar    
    6    2    3 ar    
    7    3    4 ar    
    8    3   22 1     
    9    4    5 ar    
   10    4   23 1     
   11    5    6 ar    
   12    5   24 1     
   13    6    7 ar    
   14    7    8 1     
   15    8    9 am    
   16    8   25 1     
   17    9   10 2     
   18    9   11 am    
   19   11   12 1     
   20   11   26 1     
   21   12   13 1     
   22   12   14 1     
   23   12   27 1     
   24   13   28 1     
   25   13   29 1     
   26   13   30 1     
   27   14   18 1     
   28   14   15 1     
   29   14   31 1     
   30   15   16 1     
   31   15   32 1     
   32   15   33 1     
   33   16   17 1     
   34   16   34 1     
   35   16   35 1     
   36   17   18 1     
   37   17   36 1     
   38   17   37 1     
   39    6   38 1     
   40   10   39 1     
   41   10   40 1     
   42   18   41 1     
   43   18   42 1     
@<TRIPOS>SUBSTRUCTURE
      1 S1             1
@<TRIPOS>SET
LONE_PAIRS      STATIC     ATOMS    <user>   **** ""
5 38 39 40 41 42
DONOR_HYDROGENS      STATIC     ATOMS    <user>   **** ""
2 25 26
ATOM$BLUE        STATIC     ATOMS    COLORGROUP SYSTEM
5 38 39 40 41 42
ATOM$RED        STATIC     ATOMS    COLORGROUP SYSTEM
2 25 26
