AV-unprocessed.smi:2824|AV-procd|sdf|10887|dock9
  -GOLD-   2272015333D 1   1.00000     0.00000
 Structure written by MMmdl.
 38 39  0  0  0  0  0  0  0  0  1 V2000
  149.8479  142.0153  156.7661 C   0  0  0  0  0  0  0  0  0  0  0  0
  150.7607  142.4279  157.9057 C   0  0  0  0  0  0  0  0  0  0  0  0
  150.9529  143.7978  158.1833 C   0  0  0  0  0  0  0  0  0  0  0  0
  151.7949  144.1966  159.2369 C   0  0  0  0  0  0  0  0  0  0  0  0
  152.4467  143.2253  160.0173 C   0  0  0  0  0  0  0  0  0  0  0  0
  152.2581  141.8568  159.7448 C   0  0  0  0  0  0  0  0  0  0  0  0
  151.4121  141.4423  158.6842 C   0  0  0  0  0  0  0  0  0  0  0  0
  151.1798  140.1212  158.3609 O   0  0  0  0  0  0  0  0  0  0  0  0
  151.8017  139.1103  159.1430 C   0  0  0  0  0  0  0  0  0  0  0  0
  150.9535  137.8300  159.0623 C   0  0  1  0  0  0  0  0  0  0  0  0
  151.4671  136.9246  160.0204 O   0  0  0  0  0  0  0  0  0  0  0  0
  149.4726  138.0999  159.4093 C   0  0  0  0  0  0  0  0  0  0  0  0
  148.7278  136.8587  159.6537 N   0  0  0  0  0  0  0  0  0  0  0  0
  148.2496  136.7355  160.9465 N   0  0  0  0  0  0  0  0  0  0  0  0
  147.5846  135.6905  161.3214 C   0  0  0  0  0  0  0  0  0  0  0  0
  147.1128  135.6446  162.7537 C   0  0  0  0  0  0  0  0  0  0  0  0
  145.7852  135.7432  162.8257 F   0  0  0  0  0  0  0  0  0  0  0  0
  147.4835  134.4963  163.3210 F   0  0  0  0  0  0  0  0  0  0  0  0
  147.6504  136.6500  163.4455 F   0  0  0  0  0  0  0  0  0  0  0  0
  147.3313  134.6320  160.3579 C   0  0  0  0  0  0  0  0  0  0  0  0
  147.7976  134.7552  159.0967 C   0  0  0  0  0  0  0  0  0  0  0  0
  148.5550  135.9289  158.6690 C   0  0  0  0  0  0  0  0  0  0  0  0
  149.0001  136.0670  157.5300 O   0  0  0  0  0  0  0  0  0  0  0  0
  149.4580  142.8822  156.2321 H   0  0  0  0  0  0  0  0  0  0  0  0
  149.0022  141.4428  157.1477 H   0  0  0  0  0  0  0  0  0  0  0  0
  150.3890  141.3939  156.0520 H   0  0  0  0  0  0  0  0  0  0  0  0
  150.4546  144.5495  157.5889 H   0  0  0  0  0  0  0  0  0  0  0  0
  151.9396  145.2462  159.4466 H   0  0  0  0  0  0  0  0  0  0  0  0
  153.0927  143.5292  160.8278 H   0  0  0  0  0  0  0  0  0  0  0  0
  152.7752  141.1434  160.3678 H   0  0  0  0  0  0  0  0  0  0  0  0
  152.8264  138.9195  158.8180 H   0  0  0  0  0  0  0  0  0  0  0  0
  151.8382  139.4567  160.1771 H   0  0  0  0  0  0  0  0  0  0  0  0
  151.0382  137.4014  158.0628 H   0  0  0  0  0  0  0  0  0  0  0  0
  151.8107  137.4194  160.7484 H   0  0  0  0  0  0  0  0  0  0  0  0
  149.3961  138.7758  160.2636 H   0  0  0  0  0  0  0  0  0  0  0  0
  148.9906  138.6345  158.5887 H   0  0  0  0  0  0  0  0  0  0  0  0
  146.7744  133.7549  160.6520 H   0  0  0  0  0  0  0  0  0  0  0  0
  147.6069  133.9663  158.3840 H   0  0  0  0  0  0  0  0  0  0  0  0
  1  2  1  0  0  0  0
  1 24  1  0  0  0  0
  1 25  1  0  0  0  0
  1 26  1  0  0  0  0
  2  7  1  0  0  0  0
  2  3  2  0  0  0  0
  3  4  1  0  0  0  0
  3 27  1  0  0  0  0
  4  5  2  0  0  0  0
  4 28  1  0  0  0  0
  5  6  1  0  0  0  0
  5 29  1  0  0  0  0
  6  7  2  0  0  0  0
  6 30  1  0  0  0  0
  7  8  1  0  0  0  0
  8  9  1  0  0  0  0
  9 10  1  0  0  0  0
  9 31  1  0  0  0  0
  9 32  1  0  0  0  0
 10 11  1  0  0  0  0
 10 12  1  0  0  0  0
 10 33  1  0  0  0  0
 11 34  1  0  0  0  0
 12 13  1  0  0  0  0
 12 35  1  0  0  0  0
 12 36  1  0  0  0  0
 13 22  1  0  0  0  0
 13 14  1  0  0  0  0
 14 15  2  0  0  0  0
 15 16  1  0  0  0  0
 15 20  1  0  0  0  0
 16 17  1  0  0  0  0
 16 18  1  0  0  0  0
 16 19  1  0  0  0  0
 20 21  2  0  0  0  0
 20 37  1  0  0  0  0
 21 22  1  0  0  0  0
 21 38  1  0  0  0  0
 22 23  2  0  0  0  0
M  END
> <s_m_source_file>
AV-unprocessed.smi

> <i_m_source_file_index>
2824

> <i_lp_mmshare_version>
43012

> <i_f3d_flags>
0

> <s_epik_input>
W0NIM11jMVtjSF1bY0hdW2NIXVtjSF1jMU9bQ0gyXVtDQEhdKFtPSF0pW0NIMl1uMm5jKEMoRikoRilGKVtjSF1bY0hdYzI9Tw==

> <s_epik_cmdline>
J2VwaWtfcHl0aG9uJywgJy1waCcsICc3LjAnLCAnLXRuJywgJzgnLCAnLW1hJywgJzIwMCcsICctbWV0YWxfYmluZGluZycsICctaW1hZScsICc8aW5maWxlLm1hZT4nLCAnLW9tYWUnLCAnPG91dGZpbGUubWFlPic=

> <r_lp_tautomer_probability>
1

> <r_epik_Ionization_Penalty>
1.2156e-07

> <r_epik_Ionization_Penalty_Charging>
4.38548e-09

> <r_epik_Ionization_Penalty_Neutral>
1.17174e-07

> <r_epik_State_Penalty>
-0

> <r_epik_Charging_Adjusted_Penalty>
4.38548e-09

> <i_epik_Tot_Q>
0

> <i_epik_Tot_abs_Q>
0

> <r_epik_Metal_State_Penalty>
-0

> <b_epik_Metal_Only>
0

> <s_lp_Force_Field>
OPLS_2005

> <r_lp_Energy>
34.0789

> <b_lp_Chiralities_Consistent>
1

> <s_lp_Variant>
AV-unprocessed.smi:2824-2

> <Gold.Version>
5.8.1

> <Gold.Id.Protein>
6NUR|6NUR_protein|mol2

> <Gold.PLP.Fitness>
52.7701

> <Gold.PLP.PLP>
-48.1904

> <Gold.PLP.part.hbond>
-2.1313

> <Gold.PLP.part.metal>
0.0000

> <Gold.PLP.part.buried>
-4.1681

> <Gold.PLP.part.nonpolar>
-43.2739

> <Gold.PLP.part.repulsive>
0.0000

> <Gold.PLP.ligand.clash>
0.0000

> <Gold.PLP.ligand.torsion>
0.4995

> <Gold.PLP.Chemscore.Hbond>
1.8480

> <Gold.PLP.Chemscore.CHOScore>
0.0000

> <Gold.PLP.Chemscore.Metal>
0.0000

> <Gold.Chemscore.Hbonds>
donor molecule, donor type, donor heavy atom, donor atom, acceptor molecule, acceptor atom, score
      P1  H  6896  6907       L1    11  1.00
      P1  H  6931  6943       L1    14  1.00

> <Gold.PLP.Chemscore.Internal.Correction>
0.0348

> <Gold.Rescore>
     Score         DG    S(hbond)    S(metal)    S(lipo)     H(rot)  DE(clash)    DE(int)     intcor
     16.56     -17.64       1.80        0.00     109.37       2.60       0.40       0.68       ----

> <Gold.Chemscore.Fitness>
16.5638

> <Gold.Chemscore.DG>
-17.6438

> <Gold.Chemscore.ZeroCoef>
-5.4800

> <Gold.Chemscore.Hbond>
1.8017

> <Gold.Chemscore.Metal>
0.0000

> <Gold.Chemscore.Lipo>
109.3710

> <Gold.Chemscore.Internal_Hbond>
0.0000

> <Gold.Chemscore.DEClash>
0.4012

> <Gold.Chemscore.DEInternal>
0.6788

> <Gold.Chemscore.Rot>
2.5978

> <Gold.Chemscore.Internal.Correction>
   9.000000E+99

> <Gold.Chemscore.Hbonds>
donor molecule, donor type, donor heavy atom, donor atom, acceptor molecule, acceptor atom, score
      P1  H  6896  6907       L1    11  0.99
      P1  H  6931  6943       L1    14  0.44

> <Gold.Chemscore.Hbond.Weighted>
-6.0178

> <Gold.Chemscore.Metal.Weighted>
-0.0000

> <Gold.Chemscore.Lipo.Weighted>
-12.7964

> <Gold.Chemscore.Internal_Hbond.Weighted>
0.0000

> <Gold.Chemscore.DEClash.Weighted>
0.4012

> <Gold.Chemscore.DEInternal.Weighted>
0.6788

> <Gold.Chemscore.Rot.Weighted>
6.6504

> <Gold.Chemscore.Internal.Correction.Weighted>
   9.000000E+99

> <Gold.Protein.RotatedTorsions>
[ 6907 6896 6895 6894 ] final   -5.93 input  -60.11 | X-H torsion
[ 7974 7965 7964 7962 ] final -173.18 input  175.53 | X-H torsion
[ 8008 7997 7996 7995 ] final  152.54 input   59.86 | X-H torsion
[ 10167 10162 10161 10158 ] final   89.13 input  -65.29 | X-H torsion
[ 10718 10713 10712 10709 ] final    3.37 input   66.30 | X-H torsion
[ 10763 10752 10751 10750 ] final   55.88 input  -60.55 | X-H torsion
[ 11005 11000 10999 10996 ] final  174.12 input  -57.11 | X-H torsion

> <Gold.Protein.ActiveResidues>
 VAL166  LYS551  ARG553  GLY616  TRP617  ASP618  TYR619  PRO620  LYS621  CYS622 
 ASP623  PHE694  ASN695  SER759  ASP760  ASP761  ALA762  ILE779  LEU786  VAL792 
 PHE793  MET794  SER795  GLU796  ALA797  LYS798  CYS799  TRP800  GLU811  SER814 

> <Gold.Protein.RotatedAtoms>
  151.4737  135.1047  159.9758 H   0  0  0  0  0  0  0  0  0  0  0  0  # atno 6907 bound_to 6896
  152.4806  133.8242  159.7080 H   0  0  0  0  0  0  0  0  0  0  0  0  # atno 6908 bound_to 6896
  150.8876  133.7226  159.2940 H   0  0  0  0  0  0  0  0  0  0  0  0  # atno 6909 bound_to 6896
  144.7140  140.1661  143.6371 H   0  0  0  0  0  0  0  0  0  0  0  0  # atno 7974 bound_to 7965
  156.2624  140.2018  156.6349 H   0  0  0  0  0  0  0  0  0  0  0  0  # atno 8008 bound_to 7997
  154.6654  140.0556  157.0133 H   0  0  0  0  0  0  0  0  0  0  0  0  # atno 8009 bound_to 7997
  155.1214  140.3225  155.4499 H   0  0  0  0  0  0  0  0  0  0  0  0  # atno 8010 bound_to 7997
  139.8603  144.6547  150.9066 H   0  0  0  0  0  0  0  0  0  0  0  0  # atno 10167 bound_to 10162
  156.8769  130.5639  149.5655 H   0  0  0  0  0  0  0  0  0  0  0  0  # atno 10718 bound_to 10713
  152.9823  135.5695  154.5138 H   0  0  0  0  0  0  0  0  0  0  0  0  # atno 10763 bound_to 10752
  154.4638  135.2782  155.1695 H   0  0  0  0  0  0  0  0  0  0  0  0  # atno 10764 bound_to 10752
  154.3272  135.6257  153.5588 H   0  0  0  0  0  0  0  0  0  0  0  0  # atno 10765 bound_to 10752
  140.3479  134.7220  157.4248 H   0  0  0  0  0  0  0  0  0  0  0  0  # atno 11005 bound_to 11000
  145.8986  139.2417  143.1507 LP  0  0  0  0  0  0  0  0  0  0  0  0  # atno 17320 bound_to 7965
  145.9833  140.8664  143.0103 LP  0  0  0  0  0  0  0  0  0  0  0  0  # atno 17321 bound_to 7965
  140.7776  143.3750  151.1580 LP  0  0  0  0  0  0  0  0  0  0  0  0  # atno 17342 bound_to 10162
  139.7380  143.8969  152.3041 LP  0  0  0  0  0  0  0  0  0  0  0  0  # atno 17343 bound_to 10162
  156.0697  130.5733  150.9360 LP  0  0  0  0  0  0  0  0  0  0  0  0  # atno 17370 bound_to 10713
  157.6163  131.0933  150.8704 LP  0  0  0  0  0  0  0  0  0  0  0  0  # atno 17371 bound_to 10713
  140.0727  134.5840  155.8624 LP  0  0  0  0  0  0  0  0  0  0  0  0  # atno 17394 bound_to 11000
  141.2020  133.6622  156.5984 LP  0  0  0  0  0  0  0  0  0  0  0  0  # atno 17395 bound_to 11000

$$$$
