#       Name:                AV-unprocessed.smi:1697
#       Creating user name   scv26
#       Creation time:       Fri Mar 27 07:58:35 2020


#       File generated by GOLD software.
#

@<TRIPOS>MOLECULE
AV-unprocessed.smi:1697
    59    61     1
SMALL
NO_CHARGES


@<TRIPOS>ATOM
      1 ****        -4.8274   3.9938   4.0506 C.3            1 S1                 0.0000
      2 ****        -5.5003   3.2333   2.8998 C.3            1 S1                 0.0000
      3 ****        -4.5900   2.3734   2.2257 O.3            1 S1                 0.0000
      4 ****        -3.6300   3.0259   1.4004 C.3            1 S1                 0.0000
      5 ****        -3.7047   2.4227  -0.0107 C.3            1 S1                 0.0000
      6 ****        -3.2412   0.9559  -0.0295 C.3            1 S1                 0.0000
      7 ****        -1.8722   0.8175   0.5301 N.4            1 S1                 1.0000
      8 ****        -1.3390  -0.5621   0.3864 C.3            1 S1                 0.0000
      9 ****         0.2019  -0.5995   0.3521 C.3            1 S1                 0.0000
     10 ****         0.6483   0.0950  -0.7969 O.3            1 S1                 0.0000
     11 ****         0.7418  -2.0432   0.3262 C.3            1 S1                 0.0000
     12 ****         2.2110  -2.1004   0.3396 N.pl3          1 S1                 0.0000
     13 ****         3.0698  -2.0446   1.3940 C.2            1 S1                 0.0000
     14 ****         4.3353  -2.1307   0.8992 N.pl3          1 S1                 1.0000
     15 ****         4.2853  -2.2437  -0.4915 C.ar           1 S1                 0.0000
     16 ****         5.3033  -2.3547  -1.4311 C.ar           1 S1                 0.0000
     17 ****         4.9210  -2.4499  -2.7880 C.ar           1 S1                 0.0000
     18 ****         6.0095  -2.5679  -3.8413 C.3            1 S1                 0.0000
     19 ****         3.5527  -2.4345  -3.1633 C.ar           1 S1                 0.0000
     20 ****         3.1531  -2.5364  -4.6257 C.3            1 S1                 0.0000
     21 ****         2.5320  -2.3230  -2.1921 C.ar           1 S1                 0.0000
     22 ****         2.9253  -2.2276  -0.8587 C.ar           1 S1                 0.0000
     23 ****        -1.7990   1.3371   1.9216 C.3            1 S1                 0.0000
     24 ****        -2.2237   2.8143   1.9854 C.3            1 S1                 0.0000
     25 ****        -5.5588   4.5857   4.6011 H              1 S1                 0.0000
     26 ****        -4.0600   4.6776   3.6883 H              1 S1                 0.0000
     27 ****        -4.3599   3.3043   4.7538 H              1 S1                 0.0000
     28 ****        -6.2987   2.6126   3.3067 H              1 S1                 0.0000
     29 ****        -5.9725   3.9208   2.1964 H              1 S1                 0.0000
     30 ****        -3.8345   4.0959   1.3300 H              1 S1                 0.0000
     31 ****        -4.7220   2.4990  -0.3960 H              1 S1                 0.0000
     32 ****        -3.0773   3.0056  -0.6862 H              1 S1                 0.0000
     33 ****        -3.9333   0.3313   0.5378 H              1 S1                 0.0000
     34 ****        -3.2583   0.5932  -1.0580 H              1 S1                 0.0000
     35 ****        -1.7213  -1.1807   1.2000 H              1 S1                 0.0000
     36 ****        -1.7138  -1.0103  -0.5352 H              1 S1                 0.0000
     37 ****         0.6117  -0.0975   1.2280 H              1 S1                 0.0000
     38 ****         0.3492  -0.3657  -1.5661 H              1 S1                 0.0000
     39 ****         0.3958  -2.5826   1.2090 H              1 S1                 0.0000
     40 ****         0.3646  -2.5964  -0.5343 H              1 S1                 0.0000
     41 ****         2.7975  -1.9471   2.4351 H              1 S1                 0.0000
     42 ****         6.3429  -2.3656  -1.1376 H              1 S1                 0.0000
     43 ****         5.9055  -3.4999  -4.3976 H              1 S1                 0.0000
     44 ****         7.0030  -2.5568  -3.3918 H              1 S1                 0.0000
     45 ****         5.9533  -1.7364  -4.5443 H              1 S1                 0.0000
     46 ****         2.0696  -2.5196  -4.7462 H              1 S1                 0.0000
     47 ****         3.5208  -3.4666  -5.0590 H              1 S1                 0.0000
     48 ****         3.5645  -1.7022  -5.1944 H              1 S1                 0.0000
     49 ****         1.4924  -2.3089  -2.4824 H              1 S1                 0.0000
     50 ****        -2.4367   0.7348   2.5707 H              1 S1                 0.0000
     51 ****        -0.7855   1.2471   2.3102 H              1 S1                 0.0000
     52 ****        -1.5068   3.4184   1.4281 H              1 S1                 0.0000
     53 ****        -2.1843   3.1682   3.0158 H              1 S1                 0.0000
     54 ****        -1.2782   1.4063  -0.0368 H              1 S1                 0.0000
     55 ****         5.1703  -2.1125   1.4708 H              1 S1                 0.0000
     56 ****        -5.1214   1.7526   1.6492 LP             1 S1                 0.0000
     57 ****        -4.0954   1.8456   2.9162 LP             1 S1                 0.0000
     58 ****         1.6474   0.1369  -0.7974 LP             1 S1                 0.0000
     59 ****         0.2757   1.0230  -0.7947 LP             1 S1                 0.0000
@<TRIPOS>BOND
    1    1    2 1     
    2    1   25 1     
    3    1   26 1     
    4    1   27 1     
    5    2    3 1     
    6    2   28 1     
    7    2   29 1     
    8    3    4 1     
    9    4   24 1     
   10    4    5 1     
   11    4   30 1     
   12    5    6 1     
   13    5   31 1     
   14    5   32 1     
   15    6    7 1     
   16    6   33 1     
   17    6   34 1     
   18    7    8 1     
   19    7   23 1     
   20    7   54 1     
   21    8    9 1     
   22    8   35 1     
   23    8   36 1     
   24    9   10 1     
   25    9   11 1     
   26    9   37 1     
   27   10   38 1     
   28   11   12 1     
   29   11   39 1     
   30   11   40 1     
   31   12   22 1     
   32   12   13 1     
   33   13   14 2     
   34   13   41 1     
   35   14   15 1     
   36   14   55 1     
   37   15   22 ar    
   38   15   16 ar    
   39   16   17 ar    
   40   16   42 1     
   41   17   18 1     
   42   17   19 ar    
   43   18   43 1     
   44   18   44 1     
   45   18   45 1     
   46   19   20 1     
   47   19   21 ar    
   48   20   46 1     
   49   20   47 1     
   50   20   48 1     
   51   21   22 ar    
   52   21   49 1     
   53   23   24 1     
   54   23   50 1     
   55   23   51 1     
   56   24   52 1     
   57   24   53 1     
   58    3   56 1     
   59    3   57 1     
   60   10   58 1     
   61   10   59 1     
@<TRIPOS>SUBSTRUCTURE
      1 S1             1
@<TRIPOS>SET
LONE_PAIRS      STATIC     ATOMS    <user>   **** ""
4 56 57 58 59
DONOR_HYDROGENS      STATIC     ATOMS    <user>   **** ""
3 54 38 55
ATOM$BLUE        STATIC     ATOMS    COLORGROUP SYSTEM
4 56 57 58 59
ATOM$RED        STATIC     ATOMS    COLORGROUP SYSTEM
3 54 38 55
