AV-unprocessed.smi:1701|AV-procd|sdf|6837|dock2
  -GOLD-   22720 8 13D 1   1.00000     0.00000
 Structure written by MMmdl.
 54 56  0  0  0  0  0  0  0  0  4 V2000
  151.9219  141.4604  159.3606 C   0  0  0  0  0  0  0  0  0  0  0  0
  152.1695  141.1693  157.8722 C   0  0  0  0  0  0  0  0  0  0  0  0
  151.2950  141.9398  156.9889 N   0  0  0  0  0  0  0  0  0  0  0  0
  150.5783  143.0711  157.5817 C   0  0  0  0  0  0  0  0  0  0  0  0
  151.5137  144.1909  158.0655 C   0  0  0  0  0  0  0  0  0  0  0  0
  150.6526  141.1838  155.9830 C   0  0  0  0  0  0  0  0  0  0  0  0
  151.0529  139.8649  155.6636 C   0  0  0  0  0  0  0  0  0  0  0  0
  150.3700  139.1489  154.6596 C   0  0  0  0  0  0  0  0  0  0  0  0
  149.2978  139.7551  153.9735 C   0  0  0  0  0  0  0  0  0  0  0  0
  148.6249  138.9891  152.9843 N   0  0  0  0  0  0  0  0  0  0  0  0
  147.4194  139.2079  152.4031 C   0  0  0  0  0  0  0  0  0  0  0  0
  146.7902  140.2227  152.6970 O   0  0  0  0  0  0  0  0  0  0  0  0
  146.9360  138.3178  151.4842 N   0  5  0  0  0  0  0  0  0  0  0  0
  145.6586  137.5821  151.4820 C   0  0  2  0  0  0  0  0  0  0  0  0
  145.1806  137.3605  152.9295 C   0  0  0  0  0  0  0  0  0  0  0  0
  145.7386  135.9897  153.3529 C   0  0  0  0  0  0  0  0  0  0  0  0
  146.4390  135.4549  152.1661 N   0  3  1  0  0  0  0  0  0  0  0  0
  146.5642  133.9783  152.0688 C   0  0  0  0  0  0  0  0  0  0  0  0
  145.2807  133.3078  151.5512 C   0  0  0  0  0  0  0  0  0  0  0  0
  144.8254  133.9500  150.2361 C   0  0  0  0  0  0  0  0  0  0  0  0
  144.6037  135.4516  150.4509 C   0  0  0  0  0  0  0  0  0  0  0  0
  145.8927  136.1453  150.9747 C   0  0  1  0  0  0  0  0  0  0  0  0
  148.9235  141.0689  154.3410 C   0  0  0  0  0  0  0  0  0  0  0  0
  149.6047  141.7183  155.3093 N   0  3  0  0  0  0  0  0  0  0  0  0
  152.6056  140.8834  159.9835 H   0  0  0  0  0  0  0  0  0  0  0  0
  150.9059  141.1960  159.6554 H   0  0  0  0  0  0  0  0  0  0  0  0
  152.0755  142.5145  159.5924 H   0  0  0  0  0  0  0  0  0  0  0  0
  153.2046  141.4092  157.6274 H   0  0  0  0  0  0  0  0  0  0  0  0
  152.0669  140.1014  157.6831 H   0  0  0  0  0  0  0  0  0  0  0  0
  149.8544  143.4665  156.8683 H   0  0  0  0  0  0  0  0  0  0  0  0
  149.9964  142.7135  158.4320 H   0  0  0  0  0  0  0  0  0  0  0  0
  150.9416  144.9880  158.5402 H   0  0  0  0  0  0  0  0  0  0  0  0
  152.0803  144.6388  157.2496 H   0  0  0  0  0  0  0  0  0  0  0  0
  152.2267  143.8150  158.7998 H   0  0  0  0  0  0  0  0  0  0  0  0
  151.8847  139.3985  156.1698 H   0  0  0  0  0  0  0  0  0  0  0  0
  150.6758  138.1421  154.4141 H   0  0  0  0  0  0  0  0  0  0  0  0
  149.1373  138.1957  152.6279 H   0  0  0  0  0  0  0  0  0  0  0  0
  144.8937  138.0842  150.8880 H   0  0  0  0  0  0  0  0  0  0  0  0
  145.4862  138.1589  153.6077 H   0  0  0  0  0  0  0  0  0  0  0  0
  144.0906  137.3282  152.9527 H   0  0  0  0  0  0  0  0  0  0  0  0
  146.4355  136.0728  154.1877 H   0  0  0  0  0  0  0  0  0  0  0  0
  144.9263  135.3299  153.6607 H   0  0  0  0  0  0  0  0  0  0  0  0
  147.3825  133.7600  151.3818 H   0  0  0  0  0  0  0  0  0  0  0  0
  146.8538  133.5668  153.0364 H   0  0  0  0  0  0  0  0  0  0  0  0
  145.4546  132.2414  151.4041 H   0  0  0  0  0  0  0  0  0  0  0  0
  144.4886  133.3900  152.2961 H   0  0  0  0  0  0  0  0  0  0  0  0
  145.5750  133.7900  149.4599 H   0  0  0  0  0  0  0  0  0  0  0  0
  143.9050  133.4806  149.8872 H   0  0  0  0  0  0  0  0  0  0  0  0
  144.2846  135.9059  149.5111 H   0  0  0  0  0  0  0  0  0  0  0  0
  143.7677  135.5702  151.1443 H   0  0  0  0  0  0  0  0  0  0  0  0
  146.6387  136.1244  150.1782 H   0  0  0  0  0  0  0  0  0  0  0  0
  148.1014  141.6227  153.9127 H   0  0  0  0  0  0  0  0  0  0  0  0
  147.3791  135.8154  152.2527 H   0  0  0  0  0  0  0  0  0  0  0  0
  149.3092  142.6647  155.5491 H   0  0  0  0  0  0  0  0  0  0  0  0
  1  2  1  0  0  0  0
  1 25  1  0  0  0  0
  1 26  1  0  0  0  0
  1 27  1  0  0  0  0
  2  3  1  0  0  0  0
  2 28  1  0  0  0  0
  2 29  1  0  0  0  0
  3  4  1  0  0  0  0
  3  6  1  0  0  0  0
  4  5  1  0  0  0  0
  4 30  1  0  0  0  0
  4 31  1  0  0  0  0
  5 32  1  0  0  0  0
  5 33  1  0  0  0  0
  5 34  1  0  0  0  0
  6 24  1  0  0  0  0
  6  7  2  0  0  0  0
  7  8  1  0  0  0  0
  7 35  1  0  0  0  0
  8  9  2  0  0  0  0
  8 36  1  0  0  0  0
  9 10  1  0  0  0  0
  9 23  1  0  0  0  0
 10 11  1  0  0  0  0
 10 37  1  0  0  0  0
 11 12  2  0  0  0  0
 11 13  1  0  0  0  0
 13 14  1  0  0  0  0
 14 22  1  0  0  0  0
 14 15  1  0  0  0  0
 14 38  1  0  0  0  0
 15 16  1  0  0  0  0
 15 39  1  0  0  0  0
 15 40  1  0  0  0  0
 16 17  1  0  0  0  0
 16 41  1  0  0  0  0
 16 42  1  0  0  0  0
 17 22  1  0  0  0  0
 17 18  1  0  0  0  0
 17 53  1  0  0  0  0
 18 19  1  0  0  0  0
 18 43  1  0  0  0  0
 18 44  1  0  0  0  0
 19 20  1  0  0  0  0
 19 45  1  0  0  0  0
 19 46  1  0  0  0  0
 20 21  1  0  0  0  0
 20 47  1  0  0  0  0
 20 48  1  0  0  0  0
 21 22  1  0  0  0  0
 21 49  1  0  0  0  0
 21 50  1  0  0  0  0
 22 51  1  0  0  0  0
 23 24  2  0  0  0  0
 23 52  1  0  0  0  0
 24 54  1  0  0  0  0
M  CHG  1  13  -1
M  CHG  1  17   1
M  CHG  1  24   1
M  END
> <s_m_source_file>
AV-unprocessed.smi

> <i_m_source_file_index>
1701

> <i_lp_mmshare_version>
43012

> <i_f3d_flags>
0

> <s_epik_input>
W0NIM11bQ0gyXU4oW0NIMl1bQ0gzXSljMVtjSF1bY0hdYyhbY0hdbjEpW05IXUMoPU8pW05IXVtDQEhdKFtDSDJdW0NIMl0yKVtDQEBIXShOMjMpW0NIMl1bQ0gyXVtDSDJdW0NIMl0z

> <s_epik_cmdline>
J2VwaWtfcHl0aG9uJywgJy1waCcsICc3LjAnLCAnLXRuJywgJzgnLCAnLW1hJywgJzIwMCcsICctbWV0YWxfYmluZGluZycsICctaW1hZScsICc8aW5maWxlLm1hZT4nLCAnLW9tYWUnLCAnPG91dGZpbGUubWFlPic=

> <r_lp_tautomer_probability>
0.999994

> <r_epik_Ionization_Penalty>
7.37095

> <r_epik_Ionization_Penalty_Charging>
7.37095

> <r_epik_Ionization_Penalty_Neutral>
3.78969e-06

> <r_epik_State_Penalty>
6.83842

> <r_epik_Charging_Adjusted_Penalty>
14.2094

> <i_epik_Tot_Q>
1

> <i_epik_Tot_abs_Q>
3

> <r_epik_Metal_State_Penalty>
2.78552

> <b_epik_Metal_Only>
1

> <s_lp_Force_Field>
OPLS_2005

> <r_lp_Energy>
52.1931

> <b_lp_Chiralities_Consistent>
1

> <s_lp_Variant>
AV-unprocessed.smi:1701-17

> <Gold.Version>
5.8.1

> <Gold.Id.Protein>
6NUR|6NUR_protein|mol2

> <Gold.PLP.Fitness>
54.8043

> <Gold.PLP.PLP>
-40.0467

> <Gold.PLP.part.hbond>
-4.2056

> <Gold.PLP.part.metal>
0.0000

> <Gold.PLP.part.buried>
3.2532

> <Gold.PLP.part.nonpolar>
-41.7871

> <Gold.PLP.part.repulsive>
2.5101

> <Gold.PLP.ligand.clash>
0.0000

> <Gold.PLP.ligand.torsion>
1.3868

> <Gold.PLP.Chemscore.Hbond>
5.5145

> <Gold.PLP.Chemscore.CHOScore>
0.0000

> <Gold.PLP.Chemscore.Metal>
0.0000

> <Gold.Chemscore.Hbonds>
donor molecule, donor type, donor heavy atom, donor atom, acceptor molecule, acceptor atom, score
      L1  H    10    37       P1  7948  0.80
      L1  H    17    53       P1  7948  2.00
      L1  H    24    54       P1  8028  1.66
      P1  H  7954  7966       L1    13  0.93

> <Gold.PLP.Chemscore.Internal.Correction>
0.9878

> <Gold.Rescore>
     Score         DG    S(hbond)    S(metal)    S(lipo)     H(rot)  DE(clash)    DE(int)     intcor
     18.71     -25.88       3.30        0.00     108.15       1.28       4.33       2.83       ----

> <Gold.Chemscore.Fitness>
18.7143

> <Gold.Chemscore.DG>
-25.8784

> <Gold.Chemscore.ZeroCoef>
-5.4800

> <Gold.Chemscore.Hbond>
3.3028

> <Gold.Chemscore.Metal>
0.0000

> <Gold.Chemscore.Lipo>
108.1489

> <Gold.Chemscore.Internal_Hbond>
0.0000

> <Gold.Chemscore.DEClash>
4.3335

> <Gold.Chemscore.DEInternal>
2.8306

> <Gold.Chemscore.Rot>
1.2838

> <Gold.Chemscore.Internal.Correction>
   9.000000E+99

> <Gold.Chemscore.Hbonds>
donor molecule, donor type, donor heavy atom, donor atom, acceptor molecule, acceptor atom, score
      L1  H    10    37       P1  7948  0.74
      L1  H    17    53       P1  7948  0.99
      L1  H    24    54       P1  8028  0.82
      P1  H  7954  7966       L1    13  0.72

> <Gold.Chemscore.Hbond.Weighted>
-11.0315

> <Gold.Chemscore.Metal.Weighted>
-0.0000

> <Gold.Chemscore.Lipo.Weighted>
-12.6534

> <Gold.Chemscore.Internal_Hbond.Weighted>
0.0000

> <Gold.Chemscore.DEClash.Weighted>
4.3335

> <Gold.Chemscore.DEInternal.Weighted>
2.8306

> <Gold.Chemscore.Rot.Weighted>
3.2865

> <Gold.Chemscore.Internal.Correction.Weighted>
   9.000000E+99

> <Gold.Protein.RotatedTorsions>
[ 6907 6896 6895 6894 ] final -146.84 input  -60.11 | X-H torsion
[ 7974 7965 7964 7962 ] final -114.05 input  175.53 | X-H torsion
[ 8008 7997 7996 7995 ] final -114.02 input   59.86 | X-H torsion
[ 10167 10162 10161 10158 ] final  119.51 input  -65.29 | X-H torsion
[ 10718 10713 10712 10709 ] final -178.70 input   66.30 | X-H torsion
[ 10763 10752 10751 10750 ] final -142.37 input  -60.55 | X-H torsion
[ 11005 11000 10999 10996 ] final -125.57 input  -57.11 | X-H torsion

> <Gold.Protein.ActiveResidues>
 VAL166  LYS551  ARG553  GLY616  TRP617  ASP618  TYR619  PRO620  LYS621  CYS622 
 ASP623  PHE694  ASN695  SER759  ASP760  ASP761  ALA762  ILE779  LEU786  VAL792 
 PHE793  MET794  SER795  GLU796  ALA797  LYS798  CYS799  TRP800  GLU811  SER814 

> <Gold.Protein.RotatedAtoms>
  151.1473  133.4931  159.2595 H   0  0  0  0  0  0  0  0  0  0  0  0  # atno 6907 bound_to 6896
  151.1591  135.0264  159.8712 H   0  0  0  0  0  0  0  0  0  0  0  0  # atno 6908 bound_to 6896
  152.5463  134.1349  159.8508 H   0  0  0  0  0  0  0  0  0  0  0  0  # atno 6909 bound_to 6896
  145.1248  140.8690  143.3793 H   0  0  0  0  0  0  0  0  0  0  0  0  # atno 7974 bound_to 7965
  155.0299  140.0393  157.2470 H   0  0  0  0  0  0  0  0  0  0  0  0  # atno 8008 bound_to 7997
  154.7306  140.2730  155.6436 H   0  0  0  0  0  0  0  0  0  0  0  0  # atno 8009 bound_to 7997
  156.2840  140.2685  156.2004 H   0  0  0  0  0  0  0  0  0  0  0  0  # atno 8010 bound_to 7997
  139.6041  144.7065  151.2994 H   0  0  0  0  0  0  0  0  0  0  0  0  # atno 10167 bound_to 10162
  156.8481  130.9709  151.3094 H   0  0  0  0  0  0  0  0  0  0  0  0  # atno 10718 bound_to 10713
  154.8511  135.3498  154.6016 H   0  0  0  0  0  0  0  0  0  0  0  0  # atno 10763 bound_to 10752
  153.6625  135.6989  153.5177 H   0  0  0  0  0  0  0  0  0  0  0  0  # atno 10764 bound_to 10752
  153.2806  135.4265  155.1032 H   0  0  0  0  0  0  0  0  0  0  0  0  # atno 10765 bound_to 10752
  140.9751  134.0752  157.3827 H   0  0  0  0  0  0  0  0  0  0  0  0  # atno 11005 bound_to 11000
  145.0700  139.3038  143.5837 LP  0  0  0  0  0  0  0  0  0  0  0  0  # atno 17320 bound_to 7965
  146.3518  140.0172  142.8662 LP  0  0  0  0  0  0  0  0  0  0  0  0  # atno 17321 bound_to 7965
  140.7272  143.6970  150.7875 LP  0  0  0  0  0  0  0  0  0  0  0  0  # atno 17342 bound_to 10162
  140.0552  143.5209  152.2654 LP  0  0  0  0  0  0  0  0  0  0  0  0  # atno 17343 bound_to 10162
  157.6318  130.8735  149.9288 LP  0  0  0  0  0  0  0  0  0  0  0  0  # atno 17370 bound_to 10713
  156.0843  130.3669  150.0518 LP  0  0  0  0  0  0  0  0  0  0  0  0  # atno 17371 bound_to 10713
  139.8927  135.0126  156.6861 LP  0  0  0  0  0  0  0  0  0  0  0  0  # atno 17394 bound_to 11000
  140.7271  133.9091  155.8186 LP  0  0  0  0  0  0  0  0  0  0  0  0  # atno 17395 bound_to 11000

$$$$
