AV-unprocessed.smi:1381|AV-procd|sdf|5618|dock5
  -GOLD-   22720 5233D 1   1.00000     0.00000
 Structure written by MMmdl.
 42 43  0  0  0  0  0  0  0  0  3 V2000
  152.9722  142.9017  161.8292 C   0  0  0  0  0  0  0  0  0  0  0  0
  152.7629  142.0544  160.6212 C   0  0  0  0  0  0  0  0  0  0  0  0
  152.1038  142.2620  159.4426 C   0  0  0  0  0  0  0  0  0  0  0  0
  152.3038  141.0418  158.7434 C   0  0  0  0  0  0  0  0  0  0  0  0
  151.7615  140.8569  157.4442 N   0  0  0  0  0  0  0  0  0  0  0  0
  152.1641  140.0171  156.4728 C   0  0  0  0  0  0  0  0  0  0  0  0
  153.1209  139.2562  156.6613 O   0  0  0  0  0  0  0  0  0  0  0  0
  151.4078  140.1353  155.3471 N   0  5  0  0  0  0  0  0  0  0  0  0
  150.0357  139.6519  155.2154 C   0  0  0  0  0  0  0  0  0  0  0  0
  149.9562  138.6319  154.0631 C   0  0  0  0  0  0  0  0  0  0  0  0
  148.5573  138.2139  153.7805 N   0  3  1  0  0  0  0  0  0  0  0  0
  147.9575  137.4225  154.8803 C   0  0  0  0  0  0  0  0  0  0  0  0
  146.5646  136.9084  154.4748 C   0  0  1  0  0  0  0  0  0  0  0  0
  145.8732  136.1592  155.6194 C   0  0  0  0  0  0  0  0  0  0  0  0
  145.7369  138.0099  154.1090 O   0  0  0  0  0  0  0  0  0  0  0  0
  146.2488  138.8205  153.0509 C   0  0  2  0  0  0  0  0  0  0  0  0
  146.1873  138.1098  151.6871 C   0  0  0  0  0  0  0  0  0  0  0  0
  147.6552  139.3363  153.4102 C   0  0  0  0  0  0  0  0  0  0  0  0
  153.0216  140.1688  159.4345 N   0  0  0  0  0  0  0  0  0  0  0  0
  153.3193  140.8131  160.6410 O   0  0  0  0  0  0  0  0  0  0  0  0
  152.4673  143.8622  161.7239 H   0  0  0  0  0  0  0  0  0  0  0  0
  154.0336  143.0933  161.9870 H   0  0  0  0  0  0  0  0  0  0  0  0
  152.5798  142.4094  162.7192 H   0  0  0  0  0  0  0  0  0  0  0  0
  151.5659  143.1450  159.1318 H   0  0  0  0  0  0  0  0  0  0  0  0
  150.9700  141.4397  157.2164 H   0  0  0  0  0  0  0  0  0  0  0  0
  149.6820  139.1770  156.1314 H   0  0  0  0  0  0  0  0  0  0  0  0
  149.3395  140.4672  155.0146 H   0  0  0  0  0  0  0  0  0  0  0  0
  150.3839  139.0987  153.1740 H   0  0  0  0  0  0  0  0  0  0  0  0
  150.5739  137.7561  154.2699 H   0  0  0  0  0  0  0  0  0  0  0  0
  148.6013  136.5741  155.1176 H   0  0  0  0  0  0  0  0  0  0  0  0
  147.8928  138.0389  155.7785 H   0  0  0  0  0  0  0  0  0  0  0  0
  146.6588  136.2234  153.6319 H   0  0  0  0  0  0  0  0  0  0  0  0
  146.4617  135.2983  155.9377 H   0  0  0  0  0  0  0  0  0  0  0  0
  144.8930  135.7950  155.3105 H   0  0  0  0  0  0  0  0  0  0  0  0
  145.7298  136.8056  156.4858 H   0  0  0  0  0  0  0  0  0  0  0  0
  145.5860  139.6840  152.9855 H   0  0  0  0  0  0  0  0  0  0  0  0
  146.4544  138.7961  150.8831 H   0  0  0  0  0  0  0  0  0  0  0  0
  145.1813  137.7419  151.4849 H   0  0  0  0  0  0  0  0  0  0  0  0
  146.8716  137.2639  151.6289 H   0  0  0  0  0  0  0  0  0  0  0  0
  147.5864  140.0287  154.2509 H   0  0  0  0  0  0  0  0  0  0  0  0
  148.0650  139.9028  152.5733 H   0  0  0  0  0  0  0  0  0  0  0  0
  148.6095  137.5954  152.9835 H   0  0  0  0  0  0  0  0  0  0  0  0
  1  2  1  0  0  0  0
  1 21  1  0  0  0  0
  1 22  1  0  0  0  0
  1 23  1  0  0  0  0
  2 20  1  0  0  0  0
  2  3  2  0  0  0  0
  3  4  1  0  0  0  0
  3 24  1  0  0  0  0
  4  5  1  0  0  0  0
  4 19  2  0  0  0  0
  5  6  1  0  0  0  0
  5 25  1  0  0  0  0
  6  7  2  0  0  0  0
  6  8  1  0  0  0  0
  8  9  1  0  0  0  0
  9 10  1  0  0  0  0
  9 26  1  0  0  0  0
  9 27  1  0  0  0  0
 10 11  1  0  0  0  0
 10 28  1  0  0  0  0
 10 29  1  0  0  0  0
 11 18  1  0  0  0  0
 11 12  1  0  0  0  0
 11 42  1  0  0  0  0
 12 13  1  0  0  0  0
 12 30  1  0  0  0  0
 12 31  1  0  0  0  0
 13 14  1  0  0  0  0
 13 15  1  0  0  0  0
 13 32  1  0  0  0  0
 14 33  1  0  0  0  0
 14 34  1  0  0  0  0
 14 35  1  0  0  0  0
 15 16  1  0  0  0  0
 16 17  1  0  0  0  0
 16 18  1  0  0  0  0
 16 36  1  0  0  0  0
 17 37  1  0  0  0  0
 17 38  1  0  0  0  0
 17 39  1  0  0  0  0
 18 40  1  0  0  0  0
 18 41  1  0  0  0  0
 19 20  1  0  0  0  0
M  CHG  1   8  -1
M  CHG  1  11   1
M  END
> <s_m_source_file>
AV-unprocessed.smi

> <i_m_source_file_index>
1381

> <i_lp_mmshare_version>
43012

> <i_f3d_flags>
0

> <s_epik_input>
W0NIM11jMVtjSF1jKG5vMSlbTkhdQyg9TylbTkhdW0NIMl1bQ0gyXU4yW0NIMl1bQ0BASF0oW0NIM10pT1tDQEBIXShbQ0gzXSlbQ0gyXTI=

> <s_epik_cmdline>
J2VwaWtfcHl0aG9uJywgJy1waCcsICc3LjAnLCAnLXRuJywgJzgnLCAnLW1hJywgJzIwMCcsICctbWV0YWxfYmluZGluZycsICctaW1hZScsICc8aW5maWxlLm1hZT4nLCAnLW9tYWUnLCAnPG91dGZpbGUubWFlPic=

> <r_epik_Ionization_Penalty>
6.8073

> <r_epik_Ionization_Penalty_Charging>
6.80729

> <r_epik_Ionization_Penalty_Neutral>
5.65391e-06

> <r_epik_State_Penalty>
7.47323

> <r_epik_Charging_Adjusted_Penalty>
14.2805

> <i_epik_Tot_Q>
0

> <i_epik_Tot_abs_Q>
2

> <r_epik_Metal_State_Penalty>
3.40035

> <b_epik_Metal_Only>
1

> <s_lp_Force_Field>
OPLS_2005

> <r_lp_Energy>
14.8512

> <b_lp_Chiralities_Consistent>
1

> <s_lp_Variant>
AV-unprocessed.smi:1381-17

> <Gold.Version>
5.8.1

> <Gold.Id.Protein>
6NUR|6NUR_protein|mol2

> <Gold.PLP.Fitness>
38.5938

> <Gold.PLP.PLP>
-28.4832

> <Gold.PLP.part.hbond>
-2.9294

> <Gold.PLP.part.metal>
0.0000

> <Gold.PLP.part.buried>
-0.4138

> <Gold.PLP.part.nonpolar>
-25.8055

> <Gold.PLP.part.repulsive>
0.2416

> <Gold.PLP.ligand.clash>
0.0000

> <Gold.PLP.ligand.torsion>
0.8289

> <Gold.PLP.Chemscore.Hbond>
3.9088

> <Gold.PLP.Chemscore.CHOScore>
0.0000

> <Gold.PLP.Chemscore.Metal>
0.0000

> <Gold.Chemscore.Hbonds>
donor molecule, donor type, donor heavy atom, donor atom, acceptor molecule, acceptor atom, score
      L1  H    11    42       P1  7948  2.00
      P1  H  7989  7998       L1     8  0.95
      P1  H  7997  8009       L1     7  0.89

> <Gold.PLP.Chemscore.Internal.Correction>
0.0421

> <Gold.Rescore>
     Score         DG    S(hbond)    S(metal)    S(lipo)     H(rot)  DE(clash)    DE(int)     intcor
     16.82     -19.04       2.87        0.00      68.48       1.58       0.17       2.04       ----

> <Gold.Chemscore.Fitness>
16.8226

> <Gold.Chemscore.DG>
-19.0403

> <Gold.Chemscore.ZeroCoef>
-5.4800

> <Gold.Chemscore.Hbond>
2.8717

> <Gold.Chemscore.Metal>
0.0000

> <Gold.Chemscore.Lipo>
68.4757

> <Gold.Chemscore.Internal_Hbond>
0.0000

> <Gold.Chemscore.DEClash>
0.1728

> <Gold.Chemscore.DEInternal>
2.0449

> <Gold.Chemscore.Rot>
1.5792

> <Gold.Chemscore.Internal.Correction>
   9.000000E+99

> <Gold.Chemscore.Hbonds>
donor molecule, donor type, donor heavy atom, donor atom, acceptor molecule, acceptor atom, score
      L1  H    11    42       P1  7948  1.00
      P1  H  7989  7998       L1     8  0.20
      P1  H  7997  8009       L1     7  0.48

> <Gold.Chemscore.Hbond.Weighted>
-9.5914

> <Gold.Chemscore.Metal.Weighted>
-0.0000

> <Gold.Chemscore.Lipo.Weighted>
-8.0117

> <Gold.Chemscore.Internal_Hbond.Weighted>
0.0000

> <Gold.Chemscore.DEClash.Weighted>
0.1728

> <Gold.Chemscore.DEInternal.Weighted>
2.0449

> <Gold.Chemscore.Rot.Weighted>
4.0428

> <Gold.Chemscore.Internal.Correction.Weighted>
   9.000000E+99

> <Gold.Protein.RotatedTorsions>
[ 6907 6896 6895 6894 ] final   47.67 input  -60.11 | X-H torsion
[ 7974 7965 7964 7962 ] final   49.51 input  175.53 | X-H torsion
[ 8008 7997 7996 7995 ] final -171.87 input   59.86 | X-H torsion
[ 10167 10162 10161 10158 ] final   33.27 input  -65.29 | X-H torsion
[ 10718 10713 10712 10709 ] final    5.86 input   66.30 | X-H torsion
[ 10763 10752 10751 10750 ] final  103.65 input  -60.55 | X-H torsion
[ 11005 11000 10999 10996 ] final  -35.41 input  -57.11 | X-H torsion

> <Gold.Protein.ActiveResidues>
 VAL166  LYS551  ARG553  GLY616  TRP617  ASP618  TYR619  PRO620  LYS621  CYS622 
 ASP623  PHE694  ASN695  SER759  ASP760  ASP761  ALA762  ILE779  LEU786  VAL792 
 PHE793  MET794  SER795  GLU796  ALA797  LYS798  CYS799  TRP800  GLU811  SER814 

> <Gold.Protein.RotatedAtoms>
  152.2707  134.7935  160.0414 H   0  0  0  0  0  0  0  0  0  0  0  0  # atno 6907 bound_to 6896
  151.8549  133.3441  159.3693 H   0  0  0  0  0  0  0  0  0  0  0  0  # atno 6908 bound_to 6896
  150.7151  134.5191  159.5689 H   0  0  0  0  0  0  0  0  0  0  0  0  # atno 6909 bound_to 6896
  146.0101  139.4534  142.9961 H   0  0  0  0  0  0  0  0  0  0  0  0  # atno 7974 bound_to 7965
  155.9372  140.1102  157.1085 H   0  0  0  0  0  0  0  0  0  0  0  0  # atno 8008 bound_to 7997
  154.4082  140.1226  156.4945 H   0  0  0  0  0  0  0  0  0  0  0  0  # atno 8009 bound_to 7997
  155.7007  140.3472  155.4934 H   0  0  0  0  0  0  0  0  0  0  0  0  # atno 8010 bound_to 7997
  140.4423  144.1170  150.6176 H   0  0  0  0  0  0  0  0  0  0  0  0  # atno 10167 bound_to 10162
  156.9136  130.5765  149.5647 H   0  0  0  0  0  0  0  0  0  0  0  0  # atno 10718 bound_to 10713
  153.3555  135.3969  155.1679 H   0  0  0  0  0  0  0  0  0  0  0  0  # atno 10763 bound_to 10752
  154.8670  135.3667  154.5167 H   0  0  0  0  0  0  0  0  0  0  0  0  # atno 10764 bound_to 10752
  153.5622  135.7081  153.5602 H   0  0  0  0  0  0  0  0  0  0  0  0  # atno 10765 bound_to 10752
  140.9794  133.7065  156.1657 H   0  0  0  0  0  0  0  0  0  0  0  0  # atno 11005 bound_to 11000
  145.7355  141.0027  143.1329 LP  0  0  0  0  0  0  0  0  0  0  0  0  # atno 17320 bound_to 7965
  144.6950  139.9035  143.7460 LP  0  0  0  0  0  0  0  0  0  0  0  0  # atno 17321 bound_to 7965
  140.4304  143.2570  151.9602 LP  0  0  0  0  0  0  0  0  0  0  0  0  # atno 17342 bound_to 10162
  139.4790  144.5749  151.8029 LP  0  0  0  0  0  0  0  0  0  0  0  0  # atno 17343 bound_to 10162
  156.0524  130.5591  150.9018 LP  0  0  0  0  0  0  0  0  0  0  0  0  # atno 17370 bound_to 10713
  157.5952  131.0943  150.9053 LP  0  0  0  0  0  0  0  0  0  0  0  0  # atno 17371 bound_to 10713
  140.7210  134.4358  157.5575 LP  0  0  0  0  0  0  0  0  0  0  0  0  # atno 17394 bound_to 11000
  139.8944  134.8708  156.2180 LP  0  0  0  0  0  0  0  0  0  0  0  0  # atno 17395 bound_to 11000

$$$$
