#       Name:                AV-unprocessed.smi:1304
#       Creating user name   scv26
#       Creation time:       Fri Mar 27 04:59:29 2020


#       File generated by GOLD software.
#

@<TRIPOS>MOLECULE
AV-unprocessed.smi:1304
    54    55     1
SMALL
NO_CHARGES


@<TRIPOS>ATOM
      1 ****        -2.6273  -0.6833  -0.0011 C.3            1 S1                 0.0000
      2 ****        -1.1004  -0.4902  -0.0222 C.3            1 S1                 0.0000
      3 ****        -0.4922   0.2299   1.2211 C.3            1 S1                 0.0000
      4 ****        -0.9845   1.7012   1.1848 C.3            1 S1                 0.0000
      5 ****         1.0673   0.2199   1.1352 C.3            1 S1                 0.0000
      6 ****         1.5918   0.9318  -0.0293 N.am           1 S1                 0.0000
      7 ****         1.9881   0.3661  -1.1798 C.2            1 S1                 0.0000
      8 ****         1.9987  -0.8506  -1.3680 O.2            1 S1                 0.0000
      9 ****         2.4396   1.3270  -2.2869 C.3            1 S1                 0.0000
     10 ****         1.9085   0.9487  -3.6069 N.am           1 S1                 0.0000
     11 ****         2.7871   0.2933  -4.4926 C.2            1 S1                 0.0000
     12 ****         2.3992  -0.0985  -5.7166 C.2            1 S1                 0.0000
     13 ****         1.0388   0.1678  -6.1197 C.2            1 S1                 0.0000
     14 ****         0.1895   0.7929  -5.2800 C.2            1 S1                 0.0000
     15 ****         0.6087   1.2224  -3.9409 C.2            1 S1                 0.0000
     16 ****        -0.1612   1.7910  -3.1655 O.2            1 S1                 0.0000
     17 ****        -0.9594  -0.4512   2.4837 N.4            1 S1                 1.0000
     18 ****        -0.5628  -1.8802   2.6360 C.3            1 S1                 0.0000
     19 ****        -1.2760  -2.5113   3.8425 C.3            1 S1                 0.0000
     20 ****        -0.9588  -1.7790   5.0178 O.3            1 S1                 0.0000
     21 ****        -1.3988  -0.4308   4.9323 C.3            1 S1                 0.0000
     22 ****        -0.6981   0.2749   3.7587 C.3            1 S1                 0.0000
     23 ****        -2.9596  -1.1737  -0.9164 H              1 S1                 0.0000
     24 ****        -3.1564   0.2671   0.0648 H              1 S1                 0.0000
     25 ****        -2.9477  -1.3070   0.8332 H              1 S1                 0.0000
     26 ****        -0.6240  -1.4585  -0.1736 H              1 S1                 0.0000
     27 ****        -0.8616   0.0730  -0.9243 H              1 S1                 0.0000
     28 ****        -0.8595   2.1441   0.1958 H              1 S1                 0.0000
     29 ****        -0.4281   2.3361   1.8744 H              1 S1                 0.0000
     30 ****        -2.0411   1.7833   1.4406 H              1 S1                 0.0000
     31 ****         1.4983   0.7040   2.0108 H              1 S1                 0.0000
     32 ****         1.4559  -0.7986   1.1391 H              1 S1                 0.0000
     33 ****         1.6271   1.9392   0.0340 H              1 S1                 0.0000
     34 ****         2.1363   2.3478  -2.0451 H              1 S1                 0.0000
     35 ****         3.5301   1.3458  -2.2955 H              1 S1                 0.0000
     36 ****         3.7848   0.1253  -4.1139 H              1 S1                 0.0000
     37 ****         3.0857  -0.6027  -6.3809 H              1 S1                 0.0000
     38 ****         0.6999  -0.1365  -7.0990 H              1 S1                 0.0000
     39 ****        -0.8249   0.9832  -5.5990 H              1 S1                 0.0000
     40 ****        -0.8143  -2.4623   1.7517 H              1 S1                 0.0000
     41 ****         0.5146  -1.9628   2.7803 H              1 S1                 0.0000
     42 ****        -2.3562  -2.5351   3.6904 H              1 S1                 0.0000
     43 ****        -0.9494  -3.5431   3.9729 H              1 S1                 0.0000
     44 ****        -2.4833  -0.3957   4.8152 H              1 S1                 0.0000
     45 ****        -1.1641   0.0756   5.8688 H              1 S1                 0.0000
     46 ****         0.3737   0.3271   3.9510 H              1 S1                 0.0000
     47 ****        -1.0696   1.2975   3.7244 H              1 S1                 0.0000
     48 ****        -1.9658  -0.4657   2.3983 H              1 S1                 0.0000
     49 ****         1.7017  -1.4714  -0.6425 LP             1 S1                 0.0000
     50 ****         2.3044  -1.2180  -2.2464 LP             1 S1                 0.0000
     51 ****         0.1569   2.0685  -2.2590 LP             1 S1                 0.0000
     52 ****        -1.1042   1.9751  -3.4426 LP             1 S1                 0.0000
     53 ****         0.0327  -1.7886   5.1478 LP             1 S1                 0.0000
     54 ****        -1.4019  -2.2154   5.8009 LP             1 S1                 0.0000
@<TRIPOS>BOND
    1    1    2 1     
    2    1   23 1     
    3    1   24 1     
    4    1   25 1     
    5    2    3 1     
    6    2   26 1     
    7    2   27 1     
    8    3    4 1     
    9    3    5 1     
   10    3   17 1     
   11    4   28 1     
   12    4   29 1     
   13    4   30 1     
   14    5    6 1     
   15    5   31 1     
   16    5   32 1     
   17    6    7 am    
   18    6   33 1     
   19    7    8 2     
   20    7    9 1     
   21    9   10 1     
   22    9   34 1     
   23    9   35 1     
   24   10   15 am    
   25   10   11 1     
   26   11   12 2     
   27   11   36 1     
   28   12   13 1     
   29   12   37 1     
   30   13   14 2     
   31   13   38 1     
   32   14   15 1     
   33   14   39 1     
   34   15   16 2     
   35   17   22 1     
   36   17   18 1     
   37   17   48 1     
   38   18   19 1     
   39   18   40 1     
   40   18   41 1     
   41   19   20 1     
   42   19   42 1     
   43   19   43 1     
   44   20   21 1     
   45   21   22 1     
   46   21   44 1     
   47   21   45 1     
   48   22   46 1     
   49   22   47 1     
   50    8   49 1     
   51    8   50 1     
   52   16   51 1     
   53   16   52 1     
   54   20   53 1     
   55   20   54 1     
@<TRIPOS>SUBSTRUCTURE
      1 S1             1
@<TRIPOS>SET
LONE_PAIRS      STATIC     ATOMS    <user>   **** ""
6 49 50 51 52 53 54
DONOR_HYDROGENS      STATIC     ATOMS    <user>   **** ""
2 33 48
ATOM$BLUE        STATIC     ATOMS    COLORGROUP SYSTEM
6 49 50 51 52 53 54
ATOM$RED        STATIC     ATOMS    COLORGROUP SYSTEM
2 33 48
