AV-unprocessed.smi:49|AV-procd|sdf|479|dock1
  -GOLD-   2262016343D 1   1.00000     0.00000
 Structure written by MMmdl.
 28 29  0  0  0  0  0  0  0  0  2 V2000
  151.3661  145.1953  158.9682 C   0  0  0  0  0  0  0  0  0  0  0  0
  152.0433  144.3638  157.8735 C   0  0  0  0  0  0  0  0  0  0  0  0
  151.3881  143.0368  157.6718 C   0  0  0  0  0  0  0  0  0  0  0  0
  150.1659  142.9220  157.1326 N   0  0  0  0  0  0  0  0  0  0  0  0
  149.9506  141.5982  157.1483 C   0  0  0  0  0  0  0  0  0  0  0  0
  148.6695  141.0087  156.6309 C   0  0  2  0  0  0  0  0  0  0  0  0
  148.8652  139.9793  155.5075 C   0  0  0  0  0  0  0  0  0  0  0  0
  148.6723  140.7887  154.2263 C   0  0  1  0  0  0  0  0  0  0  0  0
  148.2377  139.9889  153.1469 O   0  0  0  0  0  0  0  0  0  0  0  0
  147.6355  141.8347  154.6349 C   0  0  0  0  0  0  0  0  0  0  0  0
  147.9503  142.1590  156.0380 N   0  3  0  0  0  0  0  0  0  0  0  0
  150.9737  140.9127  157.6751 N   0  0  0  0  0  0  0  0  0  0  0  0
  151.9198  141.8615  158.0194 N   0  0  0  0  0  0  0  0  0  0  0  0
  148.0956  140.5873  157.4573 H   0  0  0  0  0  0  0  0  0  0  0  0
  149.6078  141.2815  153.9569 H   0  0  0  0  0  0  0  0  0  0  0  0
  149.5568  143.6566  156.8017 H   0  0  0  0  0  0  0  0  0  0  0  0
  151.8667  146.1555  159.0922 H   0  0  0  0  0  0  0  0  0  0  0  0
  151.3939  144.6791  159.9283 H   0  0  0  0  0  0  0  0  0  0  0  0
  150.3220  145.3923  158.7234 H   0  0  0  0  0  0  0  0  0  0  0  0
  152.0348  144.9127  156.9312 H   0  0  0  0  0  0  0  0  0  0  0  0
  153.0910  144.2004  158.1281 H   0  0  0  0  0  0  0  0  0  0  0  0
  149.8215  139.4567  155.5550 H   0  0  0  0  0  0  0  0  0  0  0  0
  148.0777  139.2274  155.5804 H   0  0  0  0  0  0  0  0  0  0  0  0
  148.6225  140.3154  152.3477 H   0  0  0  0  0  0  0  0  0  0  0  0
  147.6531  142.7211  154.0004 H   0  0  0  0  0  0  0  0  0  0  0  0
  146.6304  141.4118  154.6008 H   0  0  0  0  0  0  0  0  0  0  0  0
  147.1120  142.3777  156.5567 H   0  0  0  0  0  0  0  0  0  0  0  0
  148.5762  142.9523  156.0518 H   0  0  0  0  0  0  0  0  0  0  0  0
  1  2  1  0  0  0  0
  1 17  1  0  0  0  0
  1 18  1  0  0  0  0
  1 19  1  0  0  0  0
  2 20  1  0  0  0  0
  2 21  1  0  0  0  0
  2  3  1  0  0  0  0
  3  4  1  0  0  0  0
  3 13  2  0  0  0  0
  4 16  1  0  0  0  0
  4  5  1  0  0  0  0
  5 12  2  0  0  0  0
  5  6  1  0  0  0  0
  6 14  1  0  0  0  0
  6 11  1  0  0  0  0
  6  7  1  0  0  0  0
  7  8  1  0  0  0  0
  7 22  1  0  0  0  0
  7 23  1  0  0  0  0
  8 15  1  0  0  0  0
  8  9  1  0  0  0  0
  8 10  1  0  0  0  0
  9 24  1  0  0  0  0
 10 11  1  0  0  0  0
 10 25  1  0  0  0  0
 10 26  1  0  0  0  0
 11 27  1  0  0  0  0
 11 28  1  0  0  0  0
 12 13  1  0  0  0  0
M  CHG  1  11   1
M  END
> <s_m_source_file>
AV-unprocessed.smi

> <i_m_source_file_index>
49

> <i_lp_mmshare_version>
43012

> <i_f3d_flags>
0

> <s_epik_input>
W0NIM11bQ0gyXWMxbmMobltuSF0xKVtDQEBIXTJbQ0gyXVtDQEBIXShbT0hdKVtDSDJdW05IXTI=

> <s_epik_cmdline>
J2VwaWtfcHl0aG9uJywgJy1waCcsICc3LjAnLCAnLXRuJywgJzgnLCAnLW1hJywgJzIwMCcsICctbWV0YWxfYmluZGluZycsICctaW1hZScsICc8aW5maWxlLm1hZT4nLCAnLW9tYWUnLCAnPG91dGZpbGUubWFlPic=

> <r_lp_tautomer_probability>
0.0517155

> <r_epik_Ionization_Penalty>
0.939819

> <r_epik_Ionization_Penalty_Charging>
0.0688988

> <r_epik_Ionization_Penalty_Neutral>
0.87092

> <r_epik_State_Penalty>
2.1224

> <r_epik_Charging_Adjusted_Penalty>
2.1913

> <i_epik_Tot_Q>
1

> <i_epik_Tot_abs_Q>
1

> <r_epik_Metal_State_Penalty>
2.39725

> <b_epik_Metal_Only>
0

> <s_lp_Force_Field>
OPLS_2005

> <r_lp_Energy>
21.4308

> <b_lp_Chiralities_Consistent>
1

> <s_lp_Variant>
AV-unprocessed.smi:49-17

> <Gold.Version>
5.8.1

> <Gold.Id.Protein>
6NUR|6NUR_protein|mol2

> <Gold.PLP.Fitness>
37.0627

> <Gold.PLP.PLP>
-25.3779

> <Gold.PLP.part.hbond>
-2.6238

> <Gold.PLP.part.metal>
0.0000

> <Gold.PLP.part.buried>
-4.4933

> <Gold.PLP.part.nonpolar>
-18.3541

> <Gold.PLP.part.repulsive>
0.0671

> <Gold.PLP.ligand.clash>
0.0000

> <Gold.PLP.ligand.torsion>
0.1421

> <Gold.PLP.Chemscore.Hbond>
3.9840

> <Gold.PLP.Chemscore.CHOScore>
0.0000

> <Gold.PLP.Chemscore.Metal>
0.0000

> <Gold.Chemscore.Hbonds>
donor molecule, donor type, donor heavy atom, donor atom, acceptor molecule, acceptor atom, score
      L1  H     4    16       P1  8028  1.00
      L1  H     9    24       P1  7957  0.94
      L1  H    11    28       P1  8028  1.92

> <Gold.PLP.Chemscore.Internal.Correction>
0.0169

> <Gold.Rescore>
     Score         DG    S(hbond)    S(metal)    S(lipo)     H(rot)  DE(clash)    DE(int)     intcor
     15.71     -15.99       2.90        0.00      48.32       1.89       0.04       0.24       ----

> <Gold.Chemscore.Fitness>
15.7068

> <Gold.Chemscore.DG>
-15.9883

> <Gold.Chemscore.ZeroCoef>
-5.4800

> <Gold.Chemscore.Hbond>
2.9010

> <Gold.Chemscore.Metal>
0.0000

> <Gold.Chemscore.Lipo>
48.3154

> <Gold.Chemscore.Internal_Hbond>
0.0000

> <Gold.Chemscore.DEClash>
0.0402

> <Gold.Chemscore.DEInternal>
0.2412

> <Gold.Chemscore.Rot>
1.8883

> <Gold.Chemscore.Internal.Correction>
   9.000000E+99

> <Gold.Chemscore.Hbonds>
donor molecule, donor type, donor heavy atom, donor atom, acceptor molecule, acceptor atom, score
      L1  H     4    16       P1  8028  0.97
      L1  H     9    24       P1  7957  0.89
      L1  H    11    28       P1  8028  0.91

> <Gold.Chemscore.Hbond.Weighted>
-9.6893

> <Gold.Chemscore.Metal.Weighted>
-0.0000

> <Gold.Chemscore.Lipo.Weighted>
-5.6529

> <Gold.Chemscore.Internal_Hbond.Weighted>
0.0000

> <Gold.Chemscore.DEClash.Weighted>
0.0402

> <Gold.Chemscore.DEInternal.Weighted>
0.2412

> <Gold.Chemscore.Rot.Weighted>
4.8340

> <Gold.Chemscore.Internal.Correction.Weighted>
   9.000000E+99

> <Gold.Protein.RotatedTorsions>
[ 6907 6896 6895 6894 ] final  -11.68 input  -60.11 | X-H torsion
[ 7974 7965 7964 7962 ] final  -94.36 input  175.53 | X-H torsion
[ 8008 7997 7996 7995 ] final  -21.62 input   59.86 | X-H torsion
[ 10167 10162 10161 10158 ] final  -26.59 input  -65.29 | X-H torsion
[ 10718 10713 10712 10709 ] final -130.27 input   66.30 | X-H torsion
[ 10763 10752 10751 10750 ] final  143.87 input  -60.55 | X-H torsion
[ 11005 11000 10999 10996 ] final  -63.24 input  -57.11 | X-H torsion

> <Gold.Protein.ActiveResidues>
 VAL166  LYS551  ARG553  GLY616  TRP617  ASP618  TYR619  PRO620  LYS621  CYS622 
 ASP623  PHE694  ASN695  SER759  ASP760  ASP761  ALA762  ILE779  LEU786  VAL792 
 PHE793  MET794  SER795  GLU796  ALA797  LYS798  CYS799  TRP800  GLU811  SER814 

> <Gold.Protein.RotatedAtoms>
  151.3824  135.0942  159.9500 H   0  0  0  0  0  0  0  0  0  0  0  0  # atno 6907 bound_to 6896
  152.5104  133.9059  159.7474 H   0  0  0  0  0  0  0  0  0  0  0  0  # atno 6908 bound_to 6896
  150.9495  133.6510  159.2803 H   0  0  0  0  0  0  0  0  0  0  0  0  # atno 6909 bound_to 6896
  145.3743  140.9509  143.2429 H   0  0  0  0  0  0  0  0  0  0  0  0  # atno 7974 bound_to 7965
  154.4694  140.2030  156.0033 H   0  0  0  0  0  0  0  0  0  0  0  0  # atno 8008 bound_to 7997
  156.0985  140.3247  155.7880 H   0  0  0  0  0  0  0  0  0  0  0  0  # atno 8009 bound_to 7997
  155.4838  140.0540  157.2954 H   0  0  0  0  0  0  0  0  0  0  0  0  # atno 8010 bound_to 7997
  140.7282  143.4165  151.1020 H   0  0  0  0  0  0  0  0  0  0  0  0  # atno 10167 bound_to 10162
  156.2128  130.6929  151.0669 H   0  0  0  0  0  0  0  0  0  0  0  0  # atno 10718 bound_to 10713
  153.9794  135.2943  155.3421 H   0  0  0  0  0  0  0  0  0  0  0  0  # atno 10763 bound_to 10752
  154.7277  135.5081  153.8917 H   0  0  0  0  0  0  0  0  0  0  0  0  # atno 10764 bound_to 10752
  153.0861  135.6694  154.0059 H   0  0  0  0  0  0  0  0  0  0  0  0  # atno 10765 bound_to 10752
  141.1387  133.6649  156.5651 H   0  0  0  0  0  0  0  0  0  0  0  0  # atno 11005 bound_to 11000
  144.8553  139.5258  143.6837 LP  0  0  0  0  0  0  0  0  0  0  0  0  # atno 17320 bound_to 7965
  146.2871  139.7034  142.9188 LP  0  0  0  0  0  0  0  0  0  0  0  0  # atno 17321 bound_to 7965
  139.7806  143.8361  152.3137 LP  0  0  0  0  0  0  0  0  0  0  0  0  # atno 17342 bound_to 10162
  139.8311  144.7253  150.9449 LP  0  0  0  0  0  0  0  0  0  0  0  0  # atno 17343 bound_to 10162
  157.7047  131.0761  150.6705 LP  0  0  0  0  0  0  0  0  0  0  0  0  # atno 17370 bound_to 10713
  156.6765  130.4555  149.5641 LP  0  0  0  0  0  0  0  0  0  0  0  0  # atno 17371 bound_to 10713
  140.3957  134.7401  157.4749 LP  0  0  0  0  0  0  0  0  0  0  0  0  # atno 17394 bound_to 11000
  140.0533  134.6100  155.8836 LP  0  0  0  0  0  0  0  0  0  0  0  0  # atno 17395 bound_to 11000

$$$$
