#       Name:                AV-unprocessed.smi:21
#       Creating user name   scv26
#       Creation time:       Thu Mar 26 15:39:53 2020


#       File generated by GOLD software.
#

@<TRIPOS>MOLECULE
AV-unprocessed.smi:21
    71    74     1
SMALL
NO_CHARGES


@<TRIPOS>ATOM
      1 ****        -3.7140  -1.4829   3.2248 C.3            1 S1                 0.0000
      2 ****        -4.2198  -2.0385   2.0214 O.3            1 S1                 0.0000
      3 ****        -4.6594  -1.0620   1.0872 C.3            1 S1                 0.0000
      4 ****        -3.4799  -0.3689   0.3821 C.3            1 S1                 0.0000
      5 ****        -3.8224  -0.4756  -1.1082 C.3            1 S1                 0.0000
      6 ****        -2.5927  -0.3539  -2.0335 C.3            1 S1                 0.0000
      7 ****        -1.9097   0.9347  -1.9110 N.pl3          1 S1                 0.0000
      8 ****        -2.5943   2.1172  -2.4304 C.3            1 S1                 0.0000
      9 ****        -0.5511   0.9130  -1.9851 C.ar           1 S1                 0.0000
     10 ****         0.0826   1.7316  -2.8687 N.ar           1 S1                 0.0000
     11 ****         1.4146   1.7249  -2.9690 C.ar           1 S1                 0.0000
     12 ****         2.2980   0.9939  -2.2885 N.ar           1 S1                 0.0000
     13 ****         1.6754   0.1801  -1.3896 C.ar           1 S1                 0.0000
     14 ****         0.2709   0.0752  -1.1749 C.ar           1 S1                 0.0000
     15 ****         0.0215  -0.8552  -0.1725 N.2            1 S1                 0.0000
     16 ****         1.2032  -1.2855   0.1733 C.2            1 S1                 0.0000
     17 ****         2.2553  -0.7016  -0.4943 N.pl3          1 S1                 0.0000
     18 ****         3.6666  -0.9902  -0.3126 C.3            1 S1                 0.0000
     19 ****         4.5020   0.1929   0.2432 C.3            1 S1                 0.0000
     20 ****         6.0052  -0.1577   0.1518 C.3            1 S1                 0.0000
     21 ****         6.3515  -1.2084   1.0314 O.3            1 S1                 0.0000
     22 ****         4.0813   0.6612   1.6671 C.3            1 S1                 0.0000
     23 ****         4.9966   1.7032   2.2913 C.3            1 S1                 0.0000
     24 ****         4.1210   2.2802   3.3929 C.3            1 S1                 0.0000
     25 ****         2.8267   2.3390   2.8150 O.3            1 S1                 0.0000
     26 ****         2.7272   1.3848   1.7613 C.3            1 S1                 0.0000
     27 ****        -4.5340  -1.7381  -1.2124 N.3            1 S1                 0.0000
     28 ****        -5.2584  -1.9090  -2.4644 C.3            1 S1                 0.0000
     29 ****        -5.4166  -1.7462  -0.0594 C.3            1 S1                 0.0000
     30 ****        -5.3174  -0.3378   1.5706 H              1 S1                 0.0000
     31 ****        -4.5242   0.3256  -1.3429 H              1 S1                 0.0000
     32 ****        -3.4046  -2.2854   3.8940 H              1 S1                 0.0000
     33 ****        -4.4760  -0.8948   3.7376 H              1 S1                 0.0000
     34 ****        -2.8467  -0.8476   3.0425 H              1 S1                 0.0000
     35 ****        -3.3430   0.6628   0.7073 H              1 S1                 0.0000
     36 ****        -2.5574  -0.9100   0.5904 H              1 S1                 0.0000
     37 ****        -1.9184  -1.1908  -1.8551 H              1 S1                 0.0000
     38 ****        -2.9070  -0.4519  -3.0726 H              1 S1                 0.0000
     39 ****        -2.1265   3.0312  -2.0627 H              1 S1                 0.0000
     40 ****        -3.6374   2.1399  -2.1180 H              1 S1                 0.0000
     41 ****        -2.5692   2.1287  -3.5206 H              1 S1                 0.0000
     42 ****         1.8320   2.4035  -3.6982 H              1 S1                 0.0000
     43 ****         1.3397  -2.0346   0.9399 H              1 S1                 0.0000
     44 ****         3.7591  -1.8572   0.3427 H              1 S1                 0.0000
     45 ****         4.0578  -1.2981  -1.2831 H              1 S1                 0.0000
     46 ****         4.3590   1.0399  -0.4285 H              1 S1                 0.0000
     47 ****         6.2644  -0.4559  -0.8645 H              1 S1                 0.0000
     48 ****         6.6258   0.7094   0.3775 H              1 S1                 0.0000
     49 ****         5.8608  -1.9784   0.7883 H              1 S1                 0.0000
     50 ****         4.0563  -0.2014   2.3349 H              1 S1                 0.0000
     51 ****         5.9261   1.2840   2.6780 H              1 S1                 0.0000
     52 ****         5.2447   2.4802   1.5669 H              1 S1                 0.0000
     53 ****         4.0963   1.6102   4.2533 H              1 S1                 0.0000
     54 ****         4.4563   3.2607   3.7308 H              1 S1                 0.0000
     55 ****         2.4975   1.9236   0.8415 H              1 S1                 0.0000
     56 ****         1.9086   0.6951   1.9625 H              1 S1                 0.0000
     57 ****        -5.8226  -2.8420  -2.4554 H              1 S1                 0.0000
     58 ****        -4.5725  -1.9490  -3.3102 H              1 S1                 0.0000
     59 ****        -5.9596  -1.0905  -2.6317 H              1 S1                 0.0000
     60 ****        -5.7337  -2.7590   0.1919 H              1 S1                 0.0000
     61 ****        -6.3164  -1.1684  -0.2781 H              1 S1                 0.0000
     62 ****        -4.9928  -2.6315   2.2469 LP             1 S1                 0.0000
     63 ****        -3.4965  -2.5816   1.5950 LP             1 S1                 0.0000
     64 ****        -0.4544   2.3442  -3.4486 LP             1 S1                 0.0000
     65 ****         3.2883   1.0371  -2.4204 LP             1 S1                 0.0000
     66 ****        -0.8644  -1.1322   0.1997 LP             1 S1                 0.0000
     67 ****         6.1279  -0.9489   1.9710 LP             1 S1                 0.0000
     68 ****         7.3311  -1.3971   0.9619 LP             1 S1                 0.0000
     69 ****         2.6674   3.2559   2.4492 LP             1 S1                 0.0000
     70 ****         2.1411   2.1352   3.5139 LP             1 S1                 0.0000
     71 ****        -3.8976  -2.5095  -1.2187 LP             1 S1                 0.0000
@<TRIPOS>BOND
    1    1    2 1     
    2    1   32 1     
    3    1   33 1     
    4    1   34 1     
    5    2    3 1     
    6    3   30 1     
    7    3   29 1     
    8    3    4 1     
    9    4    5 1     
   10    4   35 1     
   11    4   36 1     
   12    5   31 1     
   13    5    6 1     
   14    5   27 1     
   15    6    7 1     
   16    6   37 1     
   17    6   38 1     
   18    7    8 1     
   19    7    9 1     
   20    8   39 1     
   21    8   40 1     
   22    8   41 1     
   23    9   14 ar    
   24    9   10 ar    
   25   10   11 ar    
   26   11   12 ar    
   27   11   42 1     
   28   12   13 ar    
   29   13   17 1     
   30   13   14 ar    
   31   14   15 1     
   32   15   16 2     
   33   16   17 1     
   34   16   43 1     
   35   17   18 1     
   36   18   19 1     
   37   18   44 1     
   38   18   45 1     
   39   19   20 1     
   40   19   22 1     
   41   19   46 1     
   42   20   21 1     
   43   20   47 1     
   44   20   48 1     
   45   21   49 1     
   46   22   26 1     
   47   22   23 1     
   48   22   50 1     
   49   23   24 1     
   50   23   51 1     
   51   23   52 1     
   52   24   25 1     
   53   24   53 1     
   54   24   54 1     
   55   25   26 1     
   56   26   55 1     
   57   26   56 1     
   58   27   28 1     
   59   27   29 1     
   60   28   57 1     
   61   28   58 1     
   62   28   59 1     
   63   29   60 1     
   64   29   61 1     
   65    2   62 1     
   66    2   63 1     
   67   10   64 1     
   68   12   65 1     
   69   15   66 1     
   70   21   67 1     
   71   21   68 1     
   72   25   69 1     
   73   25   70 1     
   74   27   71 1     
@<TRIPOS>SUBSTRUCTURE
      1 S1             1
@<TRIPOS>SET
LONE_PAIRS      STATIC     ATOMS    <user>   **** ""
10 62 63 64 65 66 67 68 69 70 71
DONOR_HYDROGENS      STATIC     ATOMS    <user>   **** ""
1 49
ATOM$BLUE        STATIC     ATOMS    COLORGROUP SYSTEM
10 62 63 64 65 66 67 68 69 70 71
ATOM$RED        STATIC     ATOMS    COLORGROUP SYSTEM
1 49
