AV-unprocessed.smi:281|AV-procd|sdf|2111|dock5
  -GOLD-   2262021403D 1   1.00000     0.00000
 Structure written by MMmdl.
 55 59  0  0  0  0  0  0  0  0  1 V2000
  147.0922  142.2730  154.0673 C   0  0  0  0  0  0  0  0  0  0  0  0
  147.8608  140.9535  154.1872 C   0  0  2  0  0  0  0  0  0  0  0  0
  146.9227  139.7689  154.4772 C   0  0  0  0  0  0  0  0  0  0  0  0
  147.7001  138.5576  154.7081 N   0  0  0  0  0  0  0  0  0  0  0  0
  146.9877  137.4037  154.6612 C   0  0  0  0  0  0  0  0  0  0  0  0
  146.9721  136.5681  155.7343 N   0  0  0  0  0  0  0  0  0  0  0  0
  146.2640  135.4357  155.6978 C   0  0  0  0  0  0  0  0  0  0  0  0
  145.5133  134.9526  154.7063 N   0  0  0  0  0  0  0  0  0  0  0  0
  145.5285  135.7826  153.6245 C   0  0  0  0  0  0  0  0  0  0  0  0
  146.2365  137.0130  153.5170 C   0  0  0  0  0  0  0  0  0  0  0  0
  146.0327  137.5668  152.2587 N   0  0  0  0  0  0  0  0  0  0  0  0
  145.2413  136.7187  151.6617 C   0  0  0  0  0  0  0  0  0  0  0  0
  144.8727  135.6270  152.4152 N   0  0  0  0  0  0  0  0  0  0  0  0
  143.9947  134.5413  152.0047 C   0  0  0  0  0  0  0  0  0  0  0  0
  144.3694  133.8859  150.6487 C   0  0  2  0  0  0  0  0  0  0  0  0
  144.0336  134.8042  149.6271 O   0  0  0  0  0  0  0  0  0  0  0  0
  143.6753  132.5500  150.3833 C   0  0  0  0  0  0  0  0  0  0  0  0
  144.7217  131.4860  150.7363 C   0  0  0  0  0  0  0  0  0  0  0  0
  145.9027  132.1915  151.0960 O   0  0  0  0  0  0  0  0  0  0  0  0
  145.8449  133.4909  150.5297 C   0  0  0  0  0  0  0  0  0  0  0  0
  148.6918  138.7125  155.7683 C   0  0  0  0  0  0  0  0  0  0  0  0
  149.6106  139.9272  155.4820 C   0  0  2  0  0  0  0  0  0  0  0  0
  150.5796  139.6782  154.3293 C   0  0  0  0  0  0  0  0  0  0  0  0
  151.7420  138.9598  155.0040 C   0  0  0  0  0  0  0  0  0  0  0  0
  151.7924  139.4760  156.3281 O   0  0  0  0  0  0  0  0  0  0  0  0
  150.6196  140.2366  156.6064 C   0  0  2  0  0  0  0  0  0  0  0  0
  150.1465  140.0024  158.0484 C   0  0  0  0  0  0  0  0  0  0  0  0
  148.8076  141.0880  155.2475 O   0  0  0  0  0  0  0  0  0  0  0  0
  146.3636  142.2302  153.2577 H   0  0  0  0  0  0  0  0  0  0  0  0
  147.7702  143.1019  153.8623 H   0  0  0  0  0  0  0  0  0  0  0  0
  146.5557  142.5017  154.9886 H   0  0  0  0  0  0  0  0  0  0  0  0
  148.3867  140.7797  153.2476 H   0  0  0  0  0  0  0  0  0  0  0  0
  146.3219  139.9740  155.3643 H   0  0  0  0  0  0  0  0  0  0  0  0
  146.2269  139.6446  153.6481 H   0  0  0  0  0  0  0  0  0  0  0  0
  146.3034  134.8311  156.5919 H   0  0  0  0  0  0  0  0  0  0  0  0
  144.8968  136.8724  150.6495 H   0  0  0  0  0  0  0  0  0  0  0  0
  144.0004  133.7894  152.7953 H   0  0  0  0  0  0  0  0  0  0  0  0
  142.9750  134.9268  151.9639 H   0  0  0  0  0  0  0  0  0  0  0  0
  144.8136  134.9983  149.1301 H   0  0  0  0  0  0  0  0  0  0  0  0
  142.7503  132.4337  150.9478 H   0  0  0  0  0  0  0  0  0  0  0  0
  143.4158  132.4471  149.3282 H   0  0  0  0  0  0  0  0  0  0  0  0
  144.4003  130.8544  151.5648 H   0  0  0  0  0  0  0  0  0  0  0  0
  144.9237  130.8430  149.8790 H   0  0  0  0  0  0  0  0  0  0  0  0
  146.1479  133.4187  149.4835 H   0  0  0  0  0  0  0  0  0  0  0  0
  146.5223  134.1868  151.0241 H   0  0  0  0  0  0  0  0  0  0  0  0
  148.1570  138.8567  156.7077 H   0  0  0  0  0  0  0  0  0  0  0  0
  149.2842  137.8025  155.8711 H   0  0  0  0  0  0  0  0  0  0  0  0
  150.1528  139.1054  153.5052 H   0  0  0  0  0  0  0  0  0  0  0  0
  150.9296  140.6299  153.9264 H   0  0  0  0  0  0  0  0  0  0  0  0
  151.5534  137.8868  155.0535 H   0  0  0  0  0  0  0  0  0  0  0  0
  152.6859  139.1130  154.4803 H   0  0  0  0  0  0  0  0  0  0  0  0
  150.9174  141.2825  156.5119 H   0  0  0  0  0  0  0  0  0  0  0  0
  149.2357  140.5639  158.2581 H   0  0  0  0  0  0  0  0  0  0  0  0
  150.9067  140.3257  158.7596 H   0  0  0  0  0  0  0  0  0  0  0  0
  149.9486  138.9479  158.2412 H   0  0  0  0  0  0  0  0  0  0  0  0
  1  2  1  0  0  0  0
  1 29  1  0  0  0  0
  1 30  1  0  0  0  0
  1 31  1  0  0  0  0
  2 28  1  0  0  0  0
  2  3  1  0  0  0  0
  2 32  1  0  0  0  0
  3  4  1  0  0  0  0
  3 33  1  0  0  0  0
  3 34  1  0  0  0  0
  4  5  1  0  0  0  0
  4 21  1  0  0  0  0
  5 10  1  0  0  0  0
  5  6  2  0  0  0  0
  6  7  1  0  0  0  0
  7  8  2  0  0  0  0
  7 35  1  0  0  0  0
  8  9  1  0  0  0  0
  9 13  1  0  0  0  0
  9 10  2  0  0  0  0
 10 11  1  0  0  0  0
 11 12  2  0  0  0  0
 12 13  1  0  0  0  0
 12 36  1  0  0  0  0
 13 14  1  0  0  0  0
 14 15  1  0  0  0  0
 14 37  1  0  0  0  0
 14 38  1  0  0  0  0
 15 20  1  0  0  0  0
 15 16  1  0  0  0  0
 15 17  1  0  0  0  0
 16 39  1  0  0  0  0
 17 18  1  0  0  0  0
 17 40  1  0  0  0  0
 17 41  1  0  0  0  0
 18 19  1  0  0  0  0
 18 42  1  0  0  0  0
 18 43  1  0  0  0  0
 19 20  1  0  0  0  0
 20 44  1  0  0  0  0
 20 45  1  0  0  0  0
 21 22  1  0  0  0  0
 21 46  1  0  0  0  0
 21 47  1  0  0  0  0
 22 26  1  0  0  0  0
 22 23  1  0  0  0  0
 22 28  1  0  0  0  0
 23 24  1  0  0  0  0
 23 48  1  0  0  0  0
 23 49  1  0  0  0  0
 24 25  1  0  0  0  0
 24 50  1  0  0  0  0
 24 51  1  0  0  0  0
 25 26  1  0  0  0  0
 26 27  1  0  0  0  0
 26 52  1  0  0  0  0
 27 53  1  0  0  0  0
 27 54  1  0  0  0  0
 27 55  1  0  0  0  0
M  END
> <s_m_source_file>
AV-unprocessed.smi

> <i_m_source_file_index>
281

> <i_lp_mmshare_version>
43012

> <i_f3d_flags>
0

> <s_epik_input>
W0NIM11bQ0BASF0xT1tDSDJdW0NIMl1bQ0BAXTEyW0NIMl1OKFtDSDJdW0NASF0oTzIpW0NIM10pYyhuW2NIXW4zKWMoYzM0KW5bY0hdbjRbQ0gyXVtDQEBdNShbT0hdKVtDSDJdW0NIMl1PW0NIMl01

> <s_epik_cmdline>
J2VwaWtfcHl0aG9uJywgJy1waCcsICc3LjAnLCAnLXRuJywgJzgnLCAnLW1hJywgJzIwMCcsICctbWV0YWxfYmluZGluZycsICctaW1hZScsICc8aW5maWxlLm1hZT4nLCAnLW9tYWUnLCAnPG91dGZpbGUubWFlPic=

> <r_lp_tautomer_probability>
1

> <r_epik_Ionization_Penalty>
0.00571331

> <r_epik_Ionization_Penalty_Charging>
0

> <r_epik_Ionization_Penalty_Neutral>
0.00571331

> <r_epik_State_Penalty>
0.00399586

> <r_epik_Charging_Adjusted_Penalty>
0.00399586

> <i_epik_Tot_Q>
0

> <i_epik_Tot_abs_Q>
0

> <r_epik_Metal_State_Penalty>
-0

> <b_epik_Metal_Only>
0

> <s_lp_Force_Field>
OPLS_2005

> <r_lp_Energy>
56.9308

> <b_lp_Chiralities_Consistent>
1

> <s_lp_Variant>
AV-unprocessed.smi:281-11

> <Gold.Version>
5.8.1

> <Gold.Id.Protein>
6NUR|6NUR_protein|mol2

> <Gold.PLP.Fitness>
40.7150

> <Gold.PLP.PLP>
-35.3646

> <Gold.PLP.part.hbond>
-1.7384

> <Gold.PLP.part.metal>
0.0000

> <Gold.PLP.part.buried>
-4.3989

> <Gold.PLP.part.nonpolar>
-30.1053

> <Gold.PLP.part.repulsive>
0.6691

> <Gold.PLP.ligand.clash>
0.0000

> <Gold.PLP.ligand.torsion>
0.3801

> <Gold.PLP.Chemscore.Hbond>
1.0000

> <Gold.PLP.Chemscore.CHOScore>
0.9385

> <Gold.PLP.Chemscore.Metal>
0.0000

> <Gold.Chemscore.Hbonds>
donor molecule, donor type, donor heavy atom, donor atom, acceptor molecule, acceptor atom, score
      L1  H    16    39       P1  7921  1.00
      L1  C    12    36       P1 10171  0.99

> <Gold.PLP.Chemscore.Internal.Correction>
0.2951

> <Gold.Rescore>
     Score         DG    S(hbond)    S(metal)    S(lipo)     H(rot)  DE(clash)    DE(int)     intcor
     11.29     -13.94       1.00        0.00      89.58       2.09       2.21       0.45       ----

> <Gold.Chemscore.Fitness>
11.2865

> <Gold.Chemscore.DG>
-13.9432

> <Gold.Chemscore.ZeroCoef>
-5.4800

> <Gold.Chemscore.Hbond>
1.0000

> <Gold.Chemscore.Metal>
0.0000

> <Gold.Chemscore.Lipo>
89.5777

> <Gold.Chemscore.Internal_Hbond>
0.0000

> <Gold.Chemscore.DEClash>
2.2095

> <Gold.Chemscore.DEInternal>
0.4472

> <Gold.Chemscore.Rot>
2.0927

> <Gold.Chemscore.Internal.Correction>
   9.000000E+99

> <Gold.Chemscore.Hbonds>
donor molecule, donor type, donor heavy atom, donor atom, acceptor molecule, acceptor atom, score
      L1  H    16    39       P1  7921  0.95

> <Gold.Chemscore.Hbond.Weighted>
-3.3400

> <Gold.Chemscore.Metal.Weighted>
-0.0000

> <Gold.Chemscore.Lipo.Weighted>
-10.4806

> <Gold.Chemscore.Internal_Hbond.Weighted>
0.0000

> <Gold.Chemscore.DEClash.Weighted>
2.2095

> <Gold.Chemscore.DEInternal.Weighted>
0.4472

> <Gold.Chemscore.Rot.Weighted>
5.3573

> <Gold.Chemscore.Internal.Correction.Weighted>
   9.000000E+99

> <Gold.Protein.RotatedTorsions>
[ 6907 6896 6895 6894 ] final  124.20 input  -60.11 | X-H torsion
[ 7974 7965 7964 7962 ] final    5.68 input  175.53 | X-H torsion
[ 8008 7997 7996 7995 ] final  -23.71 input   59.86 | X-H torsion
[ 10167 10162 10161 10158 ] final   65.92 input  -65.29 | X-H torsion
[ 10718 10713 10712 10709 ] final    3.75 input   66.30 | X-H torsion
[ 10763 10752 10751 10750 ] final   58.44 input  -60.55 | X-H torsion
[ 11005 11000 10999 10996 ] final   84.29 input  -57.11 | X-H torsion

> <Gold.Protein.ActiveResidues>
 VAL166  LYS551  ARG553  GLY616  TRP617  ASP618  TYR619  PRO620  LYS621  CYS622 
 ASP623  PHE694  ASN695  SER759  ASP760  ASP761  ALA762  ILE779  LEU786  VAL792 
 PHE793  MET794  SER795  GLU796  ALA797  LYS798  CYS799  TRP800  GLU811  SER814 

> <Gold.Protein.RotatedAtoms>
  152.4098  133.6946  159.6387 H   0  0  0  0  0  0  0  0  0  0  0  0  # atno 6907 bound_to 6896
  150.7979  133.8644  159.3250 H   0  0  0  0  0  0  0  0  0  0  0  0  # atno 6908 bound_to 6896
  151.6389  135.1016  160.0189 H   0  0  0  0  0  0  0  0  0  0  0  0  # atno 6909 bound_to 6896
  146.2439  140.0348  142.8387 H   0  0  0  0  0  0  0  0  0  0  0  0  # atno 7974 bound_to 7965
  154.4569  140.1973  156.0353 H   0  0  0  0  0  0  0  0  0  0  0  0  # atno 8008 bound_to 7997
  156.0765  140.3277  155.7612 H   0  0  0  0  0  0  0  0  0  0  0  0  # atno 8009 bound_to 7997
  155.5181  140.0567  157.2902 H   0  0  0  0  0  0  0  0  0  0  0  0  # atno 8010 bound_to 7997
  140.1060  144.4861  150.7007 H   0  0  0  0  0  0  0  0  0  0  0  0  # atno 10167 bound_to 10162
  156.8825  130.5658  149.5652 H   0  0  0  0  0  0  0  0  0  0  0  0  # atno 10718 bound_to 10713
  152.9871  135.5606  154.5553 H   0  0  0  0  0  0  0  0  0  0  0  0  # atno 10763 bound_to 10752
  154.4982  135.2796  155.1444 H   0  0  0  0  0  0  0  0  0  0  0  0  # atno 10764 bound_to 10752
  154.2885  135.6331  153.5428 H   0  0  0  0  0  0  0  0  0  0  0  0  # atno 10765 bound_to 10752
  139.9005  134.8205  156.2424 H   0  0  0  0  0  0  0  0  0  0  0  0  # atno 11005 bound_to 11000
  145.1123  140.9412  143.4649 LP  0  0  0  0  0  0  0  0  0  0  0  0  # atno 17320 bound_to 7965
  145.0564  139.3140  143.5902 LP  0  0  0  0  0  0  0  0  0  0  0  0  # atno 17321 bound_to 7965
  140.6952  143.2399  151.5021 LP  0  0  0  0  0  0  0  0  0  0  0  0  # atno 17342 bound_to 10162
  139.5645  144.2075  152.1743 LP  0  0  0  0  0  0  0  0  0  0  0  0  # atno 17343 bound_to 10162
  156.0670  130.5711  150.9308 LP  0  0  0  0  0  0  0  0  0  0  0  0  # atno 17370 bound_to 10713
  157.6132  131.0935  150.8758 LP  0  0  0  0  0  0  0  0  0  0  0  0  # atno 17371 bound_to 10713
  141.0276  133.7006  156.1374 LP  0  0  0  0  0  0  0  0  0  0  0  0  # atno 17394 bound_to 11000
  140.7143  134.4427  157.5579 LP  0  0  0  0  0  0  0  0  0  0  0  0  # atno 17395 bound_to 11000

$$$$
