AV-unprocessed.smi:3311|AV-procd|sdf|12723|dock9
  -GOLD-   2272019 63D 1   1.00000     0.00000
 Structure written by MMmdl.
 43 44  0  0  0  0  0  0  0  0  1 V2000
  147.5824  141.0405  156.4190 C   0  0  0  0  0  0  0  0  0  0  0  0
  149.1186  141.1258  156.4222 C   0  0  2  0  0  0  0  0  0  0  0  0
  149.4950  142.4259  156.9877 N   0  0  0  0  0  0  0  0  0  0  0  0
  150.8806  142.5193  157.4543 C   0  0  0  0  0  0  0  0  0  0  0  0
  150.9905  143.1114  158.8770 C   0  0  0  0  0  0  0  0  0  0  0  0
  149.7837  142.7965  159.5482 O   0  0  0  0  0  0  0  0  0  0  0  0
  152.1958  142.5483  159.6720 C   0  0  0  0  0  0  0  0  0  0  0  0
  152.3896  143.2376  161.0344 C   0  0  0  0  0  0  0  0  0  0  0  0
  152.5041  144.7604  160.8831 C   0  0  0  0  0  0  0  0  0  0  0  0
  151.2828  145.3323  160.1501 C   0  0  0  0  0  0  0  0  0  0  0  0
  151.0819  144.6530  158.7835 C   0  0  0  0  0  0  0  0  0  0  0  0
  149.7175  140.9323  154.9979 C   0  0  2  0  0  0  0  0  0  0  0  0
  148.6535  140.9082  153.8843 C   0  0  0  0  0  0  0  0  0  0  0  0
  150.5390  139.7307  154.9059 N   0  0  0  0  0  0  0  0  0  0  0  0
  150.4436  138.6816  154.0122 C   0  0  0  0  0  0  0  0  0  0  0  0
  151.4107  137.7754  154.3407 C   0  0  0  0  0  0  0  0  0  0  0  0
  152.0538  138.3613  155.4662 C   0  0  0  0  0  0  0  0  0  0  0  0
  151.5326  139.5301  155.8001 N   0  0  0  0  0  0  0  0  0  0  0  0
  147.2321  140.0461  156.1436 H   0  0  0  0  0  0  0  0  0  0  0  0
  147.1444  141.7570  155.7233 H   0  0  0  0  0  0  0  0  0  0  0  0
  147.1782  141.2518  157.4098 H   0  0  0  0  0  0  0  0  0  0  0  0
  149.4811  140.3275  157.0718 H   0  0  0  0  0  0  0  0  0  0  0  0
  149.3393  143.1484  156.2912 H   0  0  0  0  0  0  0  0  0  0  0  0
  151.3250  141.5235  157.4406 H   0  0  0  0  0  0  0  0  0  0  0  0
  151.4800  143.1219  156.7743 H   0  0  0  0  0  0  0  0  0  0  0  0
  149.0702  142.8818  158.9348 H   0  0  0  0  0  0  0  0  0  0  0  0
  152.0848  141.4751  159.8312 H   0  0  0  0  0  0  0  0  0  0  0  0
  153.1041  142.6745  159.0813 H   0  0  0  0  0  0  0  0  0  0  0  0
  151.5535  142.9966  161.6920 H   0  0  0  0  0  0  0  0  0  0  0  0
  153.2832  142.8461  161.5213 H   0  0  0  0  0  0  0  0  0  0  0  0
  152.6014  145.2260  161.8642 H   0  0  0  0  0  0  0  0  0  0  0  0
  153.4121  145.0069  160.3312 H   0  0  0  0  0  0  0  0  0  0  0  0
  150.3913  145.2020  160.7644 H   0  0  0  0  0  0  0  0  0  0  0  0
  151.4046  146.4071  160.0133 H   0  0  0  0  0  0  0  0  0  0  0  0
  151.9191  144.9230  158.1381 H   0  0  0  0  0  0  0  0  0  0  0  0
  150.1900  145.0561  158.3015 H   0  0  0  0  0  0  0  0  0  0  0  0
  150.3672  141.7856  154.7918 H   0  0  0  0  0  0  0  0  0  0  0  0
  148.1534  141.8711  153.7838 H   0  0  0  0  0  0  0  0  0  0  0  0
  147.8910  140.1528  154.0753 H   0  0  0  0  0  0  0  0  0  0  0  0
  149.1060  140.6869  152.9172 H   0  0  0  0  0  0  0  0  0  0  0  0
  149.6999  138.6644  153.2294 H   0  0  0  0  0  0  0  0  0  0  0  0
  151.6232  136.8348  153.8547 H   0  0  0  0  0  0  0  0  0  0  0  0
  152.8775  137.9745  156.0478 H   0  0  0  0  0  0  0  0  0  0  0  0
  1  2  1  0  0  0  0
  1 19  1  0  0  0  0
  1 20  1  0  0  0  0
  1 21  1  0  0  0  0
  2  3  1  0  0  0  0
  2 12  1  0  0  0  0
  2 22  1  0  0  0  0
  3  4  1  0  0  0  0
  3 23  1  0  0  0  0
  4  5  1  0  0  0  0
  4 24  1  0  0  0  0
  4 25  1  0  0  0  0
  5 11  1  0  0  0  0
  5  6  1  0  0  0  0
  5  7  1  0  0  0  0
  6 26  1  0  0  0  0
  7  8  1  0  0  0  0
  7 27  1  0  0  0  0
  7 28  1  0  0  0  0
  8  9  1  0  0  0  0
  8 29  1  0  0  0  0
  8 30  1  0  0  0  0
  9 10  1  0  0  0  0
  9 31  1  0  0  0  0
  9 32  1  0  0  0  0
 10 11  1  0  0  0  0
 10 33  1  0  0  0  0
 10 34  1  0  0  0  0
 11 35  1  0  0  0  0
 11 36  1  0  0  0  0
 12 13  1  0  0  0  0
 12 14  1  0  0  0  0
 12 37  1  0  0  0  0
 13 38  1  0  0  0  0
 13 39  1  0  0  0  0
 13 40  1  0  0  0  0
 14 18  1  0  0  0  0
 14 15  1  0  0  0  0
 15 16  2  0  0  0  0
 15 41  1  0  0  0  0
 16 17  1  0  0  0  0
 16 42  1  0  0  0  0
 17 18  2  0  0  0  0
 17 43  1  0  0  0  0
M  END
> <s_m_source_file>
AV-unprocessed.smi

> <i_m_source_file_index>
3311

> <i_lp_mmshare_version>
43012

> <i_f3d_flags>
0

> <s_epik_input>
bjFbY0hdW2NIXVtjSF1uMVtDQEBIXShbQ0gzXSlbQ0BIXShbQ0gzXSlbTkhdW0NIMl1DMihbT0hdKVtDSDJdW0NIMl1bQ0gyXVtDSDJdW0NIMl0y

> <s_epik_cmdline>
J2VwaWtfcHl0aG9uJywgJy1waCcsICc3LjAnLCAnLXRuJywgJzgnLCAnLW1hJywgJzIwMCcsICctbWV0YWxfYmluZGluZycsICctaW1hZScsICc8aW5maWxlLm1hZT4nLCAnLW9tYWUnLCAnPG91dGZpbGUubWFlPic=

> <r_lp_tautomer_probability>
1

> <r_epik_Ionization_Penalty>
2.222

> <r_epik_Ionization_Penalty_Charging>
0

> <r_epik_Ionization_Penalty_Neutral>
2.222

> <r_epik_State_Penalty>
2.36562

> <r_epik_Charging_Adjusted_Penalty>
2.36562

> <i_epik_Tot_Q>
0

> <i_epik_Tot_abs_Q>
0

> <r_epik_Metal_State_Penalty>
2.36435

> <b_epik_Metal_Only>
0

> <s_lp_Force_Field>
OPLS_2005

> <r_lp_Energy>
30.3398

> <b_lp_Chiralities_Consistent>
1

> <s_lp_Variant>
AV-unprocessed.smi:3311-5

> <Gold.Version>
5.8.1

> <Gold.Id.Protein>
6NUR|6NUR_protein|mol2

> <Gold.PLP.Fitness>
41.3398

> <Gold.PLP.PLP>
-40.0716

> <Gold.PLP.part.hbond>
-2.0000

> <Gold.PLP.part.metal>
0.0000

> <Gold.PLP.part.buried>
-3.3757

> <Gold.PLP.part.nonpolar>
-34.3801

> <Gold.PLP.part.repulsive>
0.0000

> <Gold.PLP.ligand.clash>
0.0000

> <Gold.PLP.ligand.torsion>
2.5637

> <Gold.PLP.Chemscore.Hbond>
1.0000

> <Gold.PLP.Chemscore.CHOScore>
1.1071

> <Gold.PLP.Chemscore.Metal>
0.0000

> <Gold.Chemscore.Hbonds>
donor molecule, donor type, donor heavy atom, donor atom, acceptor molecule, acceptor atom, score
      L1  H     3    23       P1  8028  1.00
      L1  C    15    41       P1  7948  0.18
      L1  C    15    41       P1  7957  0.97

> <Gold.PLP.Chemscore.Internal.Correction>
0.0743

> <Gold.Rescore>
     Score         DG    S(hbond)    S(metal)    S(lipo)     H(rot)  DE(clash)    DE(int)     intcor
     14.31     -17.34       0.98        0.00     118.56       2.07       0.42       2.61       ----

> <Gold.Chemscore.Fitness>
14.3117

> <Gold.Chemscore.DG>
-17.3384

> <Gold.Chemscore.ZeroCoef>
-5.4800

> <Gold.Chemscore.Hbond>
0.9829

> <Gold.Chemscore.Metal>
0.0000

> <Gold.Chemscore.Lipo>
118.5584

> <Gold.Chemscore.Internal_Hbond>
0.0000

> <Gold.Chemscore.DEClash>
0.4214

> <Gold.Chemscore.DEInternal>
2.6053

> <Gold.Chemscore.Rot>
2.0686

> <Gold.Chemscore.Internal.Correction>
   9.000000E+99

> <Gold.Chemscore.Hbonds>
donor molecule, donor type, donor heavy atom, donor atom, acceptor molecule, acceptor atom, score
      L1  H     3    23       P1  8028  0.99

> <Gold.Chemscore.Hbond.Weighted>
-3.2828

> <Gold.Chemscore.Metal.Weighted>
-0.0000

> <Gold.Chemscore.Lipo.Weighted>
-13.8713

> <Gold.Chemscore.Internal_Hbond.Weighted>
0.0000

> <Gold.Chemscore.DEClash.Weighted>
0.4214

> <Gold.Chemscore.DEInternal.Weighted>
2.6053

> <Gold.Chemscore.Rot.Weighted>
5.2957

> <Gold.Chemscore.Internal.Correction.Weighted>
   9.000000E+99

> <Gold.Protein.RotatedTorsions>
[ 6907 6896 6895 6894 ] final  143.13 input  -60.11 | X-H torsion
[ 7974 7965 7964 7962 ] final  -61.96 input  175.53 | X-H torsion
[ 8008 7997 7996 7995 ] final  143.42 input   59.86 | X-H torsion
[ 10167 10162 10161 10158 ] final  112.57 input  -65.29 | X-H torsion
[ 10718 10713 10712 10709 ] final  -13.79 input   66.30 | X-H torsion
[ 10763 10752 10751 10750 ] final  -75.82 input  -60.55 | X-H torsion
[ 11005 11000 10999 10996 ] final -141.44 input  -57.11 | X-H torsion

> <Gold.Protein.ActiveResidues>
 VAL166  LYS551  ARG553  GLY616  TRP617  ASP618  TYR619  PRO620  LYS621  CYS622 
 ASP623  PHE694  ASN695  SER759  ASP760  ASP761  ALA762  ILE779  LEU786  VAL792 
 PHE793  MET794  SER795  GLU796  ALA797  LYS798  CYS799  TRP800  GLU811  SER814 

> <Gold.Protein.RotatedAtoms>
  152.2101  133.4905  159.5105 H   0  0  0  0  0  0  0  0  0  0  0  0  # atno 6907 bound_to 6896
  150.6988  134.1478  159.4138 H   0  0  0  0  0  0  0  0  0  0  0  0  # atno 6908 bound_to 6896
  151.9397  135.0219  160.0585 H   0  0  0  0  0  0  0  0  0  0  0  0  # atno 6909 bound_to 6896
  145.7971  140.8676  143.0250 H   0  0  0  0  0  0  0  0  0  0  0  0  # atno 7974 bound_to 7965
  156.2930  140.2263  156.4888 H   0  0  0  0  0  0  0  0  0  0  0  0  # atno 8008 bound_to 7997
  154.7789  140.0461  157.1132 H   0  0  0  0  0  0  0  0  0  0  0  0  # atno 8009 bound_to 7997
  154.9783  140.3075  155.4961 H   0  0  0  0  0  0  0  0  0  0  0  0  # atno 8010 bound_to 7997
  139.6526  144.7128  151.2019 H   0  0  0  0  0  0  0  0  0  0  0  0  # atno 10167 bound_to 10162
  156.6251  130.4886  149.6150 H   0  0  0  0  0  0  0  0  0  0  0  0  # atno 10718 bound_to 10713
  154.4916  135.5818  153.6464 H   0  0  0  0  0  0  0  0  0  0  0  0  # atno 10763 bound_to 10752
  152.9863  135.6114  154.3117 H   0  0  0  0  0  0  0  0  0  0  0  0  # atno 10764 bound_to 10752
  154.3017  135.2846  155.2587 H   0  0  0  0  0  0  0  0  0  0  0  0  # atno 10765 bound_to 10752
  140.8324  134.2501  157.4850 H   0  0  0  0  0  0  0  0  0  0  0  0  # atno 11005 bound_to 11000
  144.6773  140.0206  143.7484 LP  0  0  0  0  0  0  0  0  0  0  0  0  # atno 17320 bound_to 7965
  145.9916  139.3020  143.0981 LP  0  0  0  0  0  0  0  0  0  0  0  0  # atno 17321 bound_to 7965
  140.7544  143.6126  150.8591 LP  0  0  0  0  0  0  0  0  0  0  0  0  # atno 17342 bound_to 10162
  139.9775  143.5988  152.2954 LP  0  0  0  0  0  0  0  0  0  0  0  0  # atno 17343 bound_to 10162
  156.2280  130.6777  151.1435 LP  0  0  0  0  0  0  0  0  0  0  0  0  # atno 17370 bound_to 10713
  157.7216  131.0677  150.6110 LP  0  0  0  0  0  0  0  0  0  0  0  0  # atno 17371 bound_to 10713
  139.8704  134.9593  156.4327 LP  0  0  0  0  0  0  0  0  0  0  0  0  # atno 17394 bound_to 11000
  140.8984  133.7797  155.9651 LP  0  0  0  0  0  0  0  0  0  0  0  0  # atno 17395 bound_to 11000

$$$$
