AV-unprocessed.smi:2618|AV-procd|sdf|10221|dock1
  -GOLD-   2272014223D 1   1.00000     0.00000
 Structure written by MMmdl.
 38 39  0  0  0  0  0  0  0  0  2 V2000
  155.1057  137.9385  158.1883 C   0  0  0  0  0  0  0  0  0  0  0  0
  155.1134  139.2865  158.6245 O   0  0  0  0  0  0  0  0  0  0  0  0
  155.3923  139.4062  160.0097 C   0  0  0  0  0  0  0  0  0  0  0  0
  155.2491  140.8824  160.4201 C   0  0  0  0  0  0  0  0  0  0  0  0
  153.9060  141.4804  160.0810 C   0  0  0  0  0  0  0  0  0  0  0  0
  153.1000  141.0049  159.2035 N   0  0  0  0  0  0  0  0  0  0  0  0
  151.9873  141.7361  159.1130 N   0  0  0  0  0  0  0  0  0  0  0  0
  150.9912  141.4465  158.1578 C   0  0  0  0  0  0  0  0  0  0  0  0
  151.3098  140.7602  157.0449 N   0  0  0  0  0  0  0  0  0  0  0  0
  150.3306  140.5070  156.1521 C   0  0  0  0  0  0  0  0  0  0  0  0
  150.7245  139.7215  154.9199 C   0  0  0  0  0  0  0  0  0  0  0  0
  149.0092  140.9520  156.3536 C   0  0  0  0  0  0  0  0  0  0  0  0
  148.7769  141.6714  157.5424 C   0  0  0  0  0  0  0  0  0  0  0  0
  147.4068  142.2163  157.8840 C   0  0  0  0  0  0  0  0  0  0  0  0
  149.7622  141.9137  158.4329 N   0  0  0  0  0  0  0  0  0  0  0  0
  152.0310  142.8855  160.0440 C   0  0  2  0  0  0  0  0  0  0  0  0
  151.0834  142.8069  160.9514 O   0  5  0  0  0  0  0  0  0  0  0  0
  151.9492  144.2511  159.3052 C   0  0  0  0  0  0  0  0  0  0  0  0
  152.0923  145.2523  160.1759 F   0  0  0  0  0  0  0  0  0  0  0  0
  152.8989  144.3745  158.3765 F   0  0  0  0  0  0  0  0  0  0  0  0
  150.7625  144.3879  158.7091 F   0  0  0  0  0  0  0  0  0  0  0  0
  153.3832  142.7017  160.7479 C   0  0  0  0  0  0  0  0  0  0  0  0
  154.8874  137.8996  157.1210 H   0  0  0  0  0  0  0  0  0  0  0  0
  154.3419  137.3599  158.7095 H   0  0  0  0  0  0  0  0  0  0  0  0
  156.0751  137.4659  158.3513 H   0  0  0  0  0  0  0  0  0  0  0  0
  154.6989  138.7841  160.5789 H   0  0  0  0  0  0  0  0  0  0  0  0
  156.4040  139.0501  160.2128 H   0  0  0  0  0  0  0  0  0  0  0  0
  155.4209  140.9788  161.4924 H   0  0  0  0  0  0  0  0  0  0  0  0
  156.0291  141.4666  159.9307 H   0  0  0  0  0  0  0  0  0  0  0  0
  149.8476  139.4323  154.3404 H   0  0  0  0  0  0  0  0  0  0  0  0
  151.2600  138.8144  155.2022 H   0  0  0  0  0  0  0  0  0  0  0  0
  151.3750  140.3212  154.2831 H   0  0  0  0  0  0  0  0  0  0  0  0
  148.2233  140.7549  155.6395 H   0  0  0  0  0  0  0  0  0  0  0  0
  146.6653  141.9087  157.1461 H   0  0  0  0  0  0  0  0  0  0  0  0
  147.4301  143.3060  157.9117 H   0  0  0  0  0  0  0  0  0  0  0  0
  147.0865  141.8539  158.8611 H   0  0  0  0  0  0  0  0  0  0  0  0
  153.3053  142.5443  161.8256 H   0  0  0  0  0  0  0  0  0  0  0  0
  154.0572  143.5424  160.5811 H   0  0  0  0  0  0  0  0  0  0  0  0
  1  2  1  0  0  0  0
  1 23  1  0  0  0  0
  1 24  1  0  0  0  0
  1 25  1  0  0  0  0
  2  3  1  0  0  0  0
  3  4  1  0  0  0  0
  3 26  1  0  0  0  0
  3 27  1  0  0  0  0
  4  5  1  0  0  0  0
  4 28  1  0  0  0  0
  4 29  1  0  0  0  0
  5 22  1  0  0  0  0
  5  6  2  0  0  0  0
  6  7  1  0  0  0  0
  7  8  1  0  0  0  0
  7 16  1  0  0  0  0
  8 15  1  0  0  0  0
  8  9  2  0  0  0  0
  9 10  1  0  0  0  0
 10 11  1  0  0  0  0
 10 12  2  0  0  0  0
 11 30  1  0  0  0  0
 11 31  1  0  0  0  0
 11 32  1  0  0  0  0
 12 13  1  0  0  0  0
 12 33  1  0  0  0  0
 13 14  1  0  0  0  0
 13 15  2  0  0  0  0
 14 34  1  0  0  0  0
 14 35  1  0  0  0  0
 14 36  1  0  0  0  0
 16 17  1  0  0  0  0
 16 18  1  0  0  0  0
 16 22  1  0  0  0  0
 18 19  1  0  0  0  0
 18 20  1  0  0  0  0
 18 21  1  0  0  0  0
 22 37  1  0  0  0  0
 22 38  1  0  0  0  0
M  CHG  1  17  -1
M  END
> <s_m_source_file>
AV-unprocessed.smi

> <i_m_source_file_index>
2618

> <i_lp_mmshare_version>
43012

> <i_f3d_flags>
0

> <s_epik_input>
W0NIM11PW0NIMl1bQ0gyXUMoW0NIMl0xKT1OTihbQ0BAXTEoW09IXSlDKEYpKEYpRiljMm5jKFtDSDNdKVtjSF1jKG4yKVtDSDNd

> <s_epik_cmdline>
J2VwaWtfcHl0aG9uJywgJy1waCcsICc3LjAnLCAnLXRuJywgJzgnLCAnLW1hJywgJzIwMCcsICctbWV0YWxfYmluZGluZycsICctaW1hZScsICc8aW5maWxlLm1hZT4nLCAnLW9tYWUnLCAnPG91dGZpbGUubWFlPic=

> <r_lp_tautomer_probability>
1

> <r_epik_Ionization_Penalty>
1.35617

> <r_epik_Ionization_Penalty_Charging>
1.35566

> <r_epik_Ionization_Penalty_Neutral>
0.000506926

> <r_epik_State_Penalty>
1.43411

> <r_epik_Charging_Adjusted_Penalty>
2.78977

> <i_epik_Tot_Q>
-1

> <i_epik_Tot_abs_Q>
1

> <r_epik_Metal_State_Penalty>
1.43499

> <b_epik_Metal_Only>
0

> <s_epik_Chemistry_Notes>
This compound has an imine and may undergo hydrolysis.

> <s_lp_Force_Field>
OPLS_2005

> <r_lp_Energy>
21.8368

> <b_lp_Chiralities_Consistent>
1

> <s_lp_Variant>
AV-unprocessed.smi:2618-4

> <Gold.Version>
5.8.1

> <Gold.Id.Protein>
6NUR|6NUR_protein|mol2

> <Gold.PLP.Fitness>
45.8986

> <Gold.PLP.PLP>
-43.1648

> <Gold.PLP.part.hbond>
-1.8087

> <Gold.PLP.part.metal>
0.0000

> <Gold.PLP.part.buried>
-5.6539

> <Gold.PLP.part.nonpolar>
-35.8806

> <Gold.PLP.part.repulsive>
0.1912

> <Gold.PLP.ligand.clash>
0.0000

> <Gold.PLP.ligand.torsion>
0.5890

> <Gold.PLP.Chemscore.Hbond>
1.2240

> <Gold.PLP.Chemscore.CHOScore>
0.0000

> <Gold.PLP.Chemscore.Metal>
0.0000

> <Gold.Chemscore.Hbonds>
donor molecule, donor type, donor heavy atom, donor atom, acceptor molecule, acceptor atom, score
      P1  H  6933  6945       L1    17  0.26
      P1  H  7997  8010       L1     2  0.84

> <Gold.PLP.Chemscore.Internal.Correction>
0.2399

> <Gold.Rescore>
     Score         DG    S(hbond)    S(metal)    S(lipo)     H(rot)  DE(clash)    DE(int)     intcor
      8.06     -13.84       1.01        0.00      74.92       1.47       0.05       5.73       ----

> <Gold.Chemscore.Fitness>
8.0612

> <Gold.Chemscore.DG>
-13.8370

> <Gold.Chemscore.ZeroCoef>
-5.4800

> <Gold.Chemscore.Hbond>
1.0077

> <Gold.Chemscore.Metal>
0.0000

> <Gold.Chemscore.Lipo>
74.9159

> <Gold.Chemscore.Internal_Hbond>
0.0000

> <Gold.Chemscore.DEClash>
0.0463

> <Gold.Chemscore.DEInternal>
5.7295

> <Gold.Chemscore.Rot>
1.4742

> <Gold.Chemscore.Internal.Correction>
   9.000000E+99

> <Gold.Chemscore.Hbonds>
donor molecule, donor type, donor heavy atom, donor atom, acceptor molecule, acceptor atom, score
      P1  H  6933  6945       L1    17  0.15
      P1  H  7997  8010       L1     2  0.29

> <Gold.Chemscore.Hbond.Weighted>
-3.3658

> <Gold.Chemscore.Metal.Weighted>
-0.0000

> <Gold.Chemscore.Lipo.Weighted>
-8.7652

> <Gold.Chemscore.Internal_Hbond.Weighted>
0.0000

> <Gold.Chemscore.DEClash.Weighted>
0.0463

> <Gold.Chemscore.DEInternal.Weighted>
5.7295

> <Gold.Chemscore.Rot.Weighted>
3.7740

> <Gold.Chemscore.Internal.Correction.Weighted>
   9.000000E+99

> <Gold.Protein.RotatedTorsions>
[ 6907 6896 6895 6894 ] final  -77.68 input  -60.11 | X-H torsion
[ 7974 7965 7964 7962 ] final  -76.05 input  175.53 | X-H torsion
[ 8008 7997 7996 7995 ] final  -11.04 input   59.86 | X-H torsion
[ 10167 10162 10161 10158 ] final   78.42 input  -65.29 | X-H torsion
[ 10718 10713 10712 10709 ] final  -62.65 input   66.30 | X-H torsion
[ 10763 10752 10751 10750 ] final  107.04 input  -60.55 | X-H torsion
[ 11005 11000 10999 10996 ] final  121.97 input  -57.11 | X-H torsion

> <Gold.Protein.ActiveResidues>
 VAL166  LYS551  ARG553  GLY616  TRP617  ASP618  TYR619  PRO620  LYS621  CYS622 
 ASP623  PHE694  ASN695  SER759  ASP760  ASP761  ALA762  ILE779  LEU786  VAL792 
 PHE793  MET794  SER795  GLU796  ALA797  LYS798  CYS799  TRP800  GLU811  SER814 

> <Gold.Protein.RotatedAtoms>
  150.6992  134.4386  159.5281 H   0  0  0  0  0  0  0  0  0  0  0  0  # atno 6907 bound_to 6896
  152.2100  134.8507  160.0507 H   0  0  0  0  0  0  0  0  0  0  0  0  # atno 6908 bound_to 6896
  151.9396  133.3599  159.3997 H   0  0  0  0  0  0  0  0  0  0  0  0  # atno 6909 bound_to 6896
  145.6180  140.9370  143.1154 H   0  0  0  0  0  0  0  0  0  0  0  0  # atno 7974 bound_to 7965
  154.5500  140.2313  155.8501 H   0  0  0  0  0  0  0  0  0  0  0  0  # atno 8008 bound_to 7997
  156.1938  140.3070  155.9346 H   0  0  0  0  0  0  0  0  0  0  0  0  # atno 8009 bound_to 7997
  155.3090  140.0435  157.3024 H   0  0  0  0  0  0  0  0  0  0  0  0  # atno 8010 bound_to 7997
  139.9711  144.5894  150.7985 H   0  0  0  0  0  0  0  0  0  0  0  0  # atno 10167 bound_to 10162
  156.0841  130.4211  150.1165 H   0  0  0  0  0  0  0  0  0  0  0  0  # atno 10718 bound_to 10713
  153.4012  135.3857  155.1989 H   0  0  0  0  0  0  0  0  0  0  0  0  # atno 10763 bound_to 10752
  154.8729  135.3772  154.4616 H   0  0  0  0  0  0  0  0  0  0  0  0  # atno 10764 bound_to 10752
  153.5114  135.7087  153.5841 H   0  0  0  0  0  0  0  0  0  0  0  0  # atno 10765 bound_to 10752
  139.9248  134.9640  156.8038 H   0  0  0  0  0  0  0  0  0  0  0  0  # atno 11005 bound_to 11000
  144.7243  139.7928  143.7371 LP  0  0  0  0  0  0  0  0  0  0  0  0  # atno 17320 bound_to 7965
  146.1453  139.4521  143.0083 LP  0  0  0  0  0  0  0  0  0  0  0  0  # atno 17321 bound_to 7965
  140.7521  143.2985  151.3141 LP  0  0  0  0  0  0  0  0  0  0  0  0  # atno 17342 bound_to 10162
  139.6481  144.0414  152.2605 LP  0  0  0  0  0  0  0  0  0  0  0  0  # atno 17343 bound_to 10162
  156.9189  130.9676  151.3551 LP  0  0  0  0  0  0  0  0  0  0  0  0  # atno 17370 bound_to 10713
  157.5970  130.8484  149.8744 LP  0  0  0  0  0  0  0  0  0  0  0  0  # atno 17371 bound_to 10713
  140.6368  133.9855  155.7688 LP  0  0  0  0  0  0  0  0  0  0  0  0  # atno 17394 bound_to 11000
  141.0798  134.0080  157.3404 LP  0  0  0  0  0  0  0  0  0  0  0  0  # atno 17395 bound_to 11000

$$$$
