#       Name:                AV-unprocessed.smi:2973
#       Creating user name   scv26
#       Creation time:       Fri Mar 27 16:26:15 2020


#       File generated by GOLD software.
#

@<TRIPOS>MOLECULE
AV-unprocessed.smi:2973
    56    58     1
SMALL
NO_CHARGES


@<TRIPOS>ATOM
      1 ****        -0.2163   2.1985  -0.4149 C.3            1 S1                 0.0000
      2 ****        -1.5831   2.4972  -1.0705 C.3            1 S1                 0.0000
      3 ****        -2.2427   3.7366  -0.4279 C.3            1 S1                 0.0000
      4 ****        -3.5482   4.1224  -1.1393 C.3            1 S1                 0.0000
      5 ****        -4.5352   2.9483  -1.1590 C.3            1 S1                 0.0000
      6 ****        -3.9046   1.7008  -1.8023 C.3            1 S1                 0.0000
      7 ****        -2.5721   1.2864  -1.1249 C.3            1 S1                 0.0000
      8 ****        -2.8312   0.7375   0.1970 N.pl3          1 S1                -1.0000
      9 ****        -2.4494  -0.5602   0.2182 C.2            1 S1                 0.0000
     10 ****        -2.5138  -1.3305   1.1753 O.2            1 S1                 0.0000
     11 ****        -1.9499  -0.9365  -0.9747 N.am           1 S1                 0.0000
     12 ****        -1.4059  -2.2685  -1.2836 C.3            1 S1                 0.0000
     13 ****         0.0719  -2.4707  -0.9043 C.2            1 S1                 0.0000
     14 ****         0.6176  -3.5389  -1.1798 O.2            1 S1                 0.0000
     15 ****         0.7138  -1.4687  -0.2794 N.am           1 S1                 0.0000
     16 ****         2.0979  -1.5045   0.1753 C.3            1 S1                 0.0000
     17 ****         2.2352  -2.2763   1.4985 C.3            1 S1                 0.0000
     18 ****         3.6645  -2.3026   2.0056 C.ar           1 S1                 0.0000
     19 ****         4.4874  -3.4270   1.7803 C.ar           1 S1                 0.0000
     20 ****         5.8084  -3.4005   2.2681 C.ar           1 S1                 0.0000
     21 ****         6.2534  -2.2567   2.9585 C.ar           1 S1                 0.0000
     22 ****         5.3544  -1.1849   3.1294 C.ar           1 S1                 0.0000
     23 ****         4.0868  -1.1995   2.6640 N.ar           1 S1                 0.0000
     24 ****        -1.9758   0.0828  -1.8404 C.2            1 S1                 0.0000
     25 ****        -1.5822   0.0863  -3.0077 O.2            1 S1                 0.0000
     26 ****        -0.3258   1.9098   0.6307 H              1 S1                 0.0000
     27 ****         0.4285   3.0768  -0.4446 H              1 S1                 0.0000
     28 ****         0.3156   1.3979  -0.9286 H              1 S1                 0.0000
     29 ****        -1.3639   2.7723  -2.1038 H              1 S1                 0.0000
     30 ****        -2.4445   3.5454   0.6268 H              1 S1                 0.0000
     31 ****        -1.5549   4.5823  -0.4583 H              1 S1                 0.0000
     32 ****        -4.0020   4.9801  -0.6423 H              1 S1                 0.0000
     33 ****        -3.3310   4.4358  -2.1611 H              1 S1                 0.0000
     34 ****        -4.8523   2.7197  -0.1408 H              1 S1                 0.0000
     35 ****        -5.4364   3.2303  -1.7037 H              1 S1                 0.0000
     36 ****        -4.6214   0.8780  -1.7799 H              1 S1                 0.0000
     37 ****        -3.7263   1.9117  -2.8580 H              1 S1                 0.0000
     38 ****        -1.9971  -3.0315  -0.7749 H              1 S1                 0.0000
     39 ****        -1.5171  -2.4786  -2.3485 H              1 S1                 0.0000
     40 ****         0.1921  -0.6251  -0.0869 H              1 S1                 0.0000
     41 ****         2.7340  -1.9449  -0.5943 H              1 S1                 0.0000
     42 ****         2.4343  -0.4756   0.3069 H              1 S1                 0.0000
     43 ****         1.5972  -1.8264   2.2607 H              1 S1                 0.0000
     44 ****         1.8851  -3.3021   1.3753 H              1 S1                 0.0000
     45 ****         4.1167  -4.2893   1.2455 H              1 S1                 0.0000
     46 ****         6.4674  -4.2424   2.1155 H              1 S1                 0.0000
     47 ****         7.2594  -2.2019   3.3476 H              1 S1                 0.0000
     48 ****         5.6617  -0.2924   3.6542 H              1 S1                 0.0000
     49 ****        -3.2277   1.2386   0.9662 LP             1 S1                 0.0000
     50 ****        -2.8787  -1.0117   2.0501 LP             1 S1                 0.0000
     51 ****        -2.2012  -2.2755   1.0785 LP             1 S1                 0.0000
     52 ****         0.1014  -4.2592  -1.6431 LP             1 S1                 0.0000
     53 ****         1.5772  -3.6865  -0.9403 LP             1 S1                 0.0000
     54 ****         3.4785  -0.4179   2.8022 LP             1 S1                 0.0000
     55 ****        -1.6437   0.9219  -3.5536 LP             1 S1                 0.0000
     56 ****        -1.2012  -0.7465  -3.4094 LP             1 S1                 0.0000
@<TRIPOS>BOND
    1    1    2 1     
    2    1   26 1     
    3    1   27 1     
    4    1   28 1     
    5    2    7 1     
    6    2    3 1     
    7    2   29 1     
    8    3    4 1     
    9    3   30 1     
   10    3   31 1     
   11    4    5 1     
   12    4   32 1     
   13    4   33 1     
   14    5    6 1     
   15    5   34 1     
   16    5   35 1     
   17    6    7 1     
   18    6   36 1     
   19    6   37 1     
   20    7   24 1     
   21    7    8 1     
   22    8    9 1     
   23    9   10 2     
   24    9   11 am    
   25   11   12 1     
   26   11   24 am    
   27   12   13 1     
   28   12   38 1     
   29   12   39 1     
   30   13   14 2     
   31   13   15 am    
   32   15   16 1     
   33   15   40 1     
   34   16   17 1     
   35   16   41 1     
   36   16   42 1     
   37   17   18 1     
   38   17   43 1     
   39   17   44 1     
   40   18   23 ar    
   41   18   19 ar    
   42   19   20 ar    
   43   19   45 1     
   44   20   21 ar    
   45   20   46 1     
   46   21   22 ar    
   47   21   47 1     
   48   22   23 ar    
   49   22   48 1     
   50   24   25 2     
   51    8   49 1     
   52   10   50 1     
   53   10   51 1     
   54   14   52 1     
   55   14   53 1     
   56   23   54 1     
   57   25   55 1     
   58   25   56 1     
@<TRIPOS>SUBSTRUCTURE
      1 S1             1
@<TRIPOS>SET
LONE_PAIRS      STATIC     ATOMS    <user>   **** ""
8 49 50 51 52 53 54 55 56
DONOR_HYDROGENS      STATIC     ATOMS    <user>   **** ""
1 40
ATOM$BLUE        STATIC     ATOMS    COLORGROUP SYSTEM
8 49 50 51 52 53 54 55 56
ATOM$RED        STATIC     ATOMS    COLORGROUP SYSTEM
1 40
