AV-unprocessed.smi:2785|AV-procd|sdf|10747|dock7
  -GOLD-   2272015183D 1   1.00000     0.00000
 Structure written by MMmdl.
 37 38  0  0  0  0  0  0  0  0  1 V2000
  146.0190  132.2223  150.7487 C   0  0  0  0  0  0  0  0  0  0  0  0
  144.8415  132.8552  151.5126 C   0  0  0  0  0  0  0  0  0  0  0  0
  143.4853  132.4147  150.9393 C   0  0  0  0  0  0  0  0  0  0  0  0
  144.9199  134.3218  151.5630 N   0  0  0  0  0  0  0  0  0  0  0  0
  144.8966  135.1460  150.3653 C   0  0  0  0  0  0  0  0  0  0  0  0
  144.7390  136.5812  150.8771 C   0  0  0  0  0  0  0  0  0  0  0  0
  145.0693  136.5545  152.3782 C   0  0  2  0  0  0  0  0  0  0  0  0
  146.4130  137.0836  152.6013 N   0  0  0  0  0  0  0  0  0  0  0  0
  146.7303  138.0432  153.4830 C   0  0  0  0  0  0  0  0  0  0  0  0
  145.9018  138.6128  154.1939 O   0  0  0  0  0  0  0  0  0  0  0  0
  148.0530  138.2851  153.4819 N   0  0  0  0  0  0  0  0  0  0  0  0
  148.7769  139.2124  154.2777 C   0  0  0  0  0  0  0  0  0  0  0  0
  150.1057  138.8343  154.5764 C   0  0  0  0  0  0  0  0  0  0  0  0
  150.9087  139.6847  155.3615 C   0  0  0  0  0  0  0  0  0  0  0  0
  150.3597  140.8929  155.8265 C   0  0  0  0  0  0  0  0  0  0  0  0
  151.0929  141.7423  156.5845 F   0  0  0  0  0  0  0  0  0  0  0  0
  149.0290  141.1957  155.4839 C   0  0  0  0  0  0  0  0  0  0  0  0
  148.2584  140.3814  154.7317 N   0  0  0  0  0  0  0  0  0  0  0  0
  145.0423  135.0566  152.6772 C   0  0  0  0  0  0  0  0  0  0  0  0
  145.1074  134.6135  153.8237 O   0  0  0  0  0  0  0  0  0  0  0  0
  145.9789  131.1345  150.8100 H   0  0  0  0  0  0  0  0  0  0  0  0
  146.9755  132.5363  151.1678 H   0  0  0  0  0  0  0  0  0  0  0  0
  146.0089  132.4880  149.6912 H   0  0  0  0  0  0  0  0  0  0  0  0
  144.9026  132.4822  152.5369 H   0  0  0  0  0  0  0  0  0  0  0  0
  143.3965  131.3281  150.9349 H   0  0  0  0  0  0  0  0  0  0  0  0
  143.3572  132.7632  149.9140 H   0  0  0  0  0  0  0  0  0  0  0  0
  142.6584  132.8084  151.5309 H   0  0  0  0  0  0  0  0  0  0  0  0
  145.8379  135.0342  149.8256 H   0  0  0  0  0  0  0  0  0  0  0  0
  144.0800  134.8654  149.6987 H   0  0  0  0  0  0  0  0  0  0  0  0
  145.3528  137.2852  150.3132 H   0  0  0  0  0  0  0  0  0  0  0  0
  143.7023  136.8953  150.7473 H   0  0  0  0  0  0  0  0  0  0  0  0
  144.3174  137.0902  152.9605 H   0  0  0  0  0  0  0  0  0  0  0  0
  147.1577  136.6702  152.0598 H   0  0  0  0  0  0  0  0  0  0  0  0
  148.6086  137.7352  152.8438 H   0  0  0  0  0  0  0  0  0  0  0  0
  150.5099  137.9014  154.2106 H   0  0  0  0  0  0  0  0  0  0  0  0
  151.9262  139.4140  155.6018 H   0  0  0  0  0  0  0  0  0  0  0  0
  148.5709  142.1138  155.8212 H   0  0  0  0  0  0  0  0  0  0  0  0
  1  2  1  0  0  0  0
  1 21  1  0  0  0  0
  1 22  1  0  0  0  0
  1 23  1  0  0  0  0
  2  3  1  0  0  0  0
  2  4  1  0  0  0  0
  2 24  1  0  0  0  0
  3 25  1  0  0  0  0
  3 26  1  0  0  0  0
  3 27  1  0  0  0  0
  4 19  1  0  0  0  0
  4  5  1  0  0  0  0
  5  6  1  0  0  0  0
  5 28  1  0  0  0  0
  5 29  1  0  0  0  0
  6  7  1  0  0  0  0
  6 30  1  0  0  0  0
  6 31  1  0  0  0  0
  7  8  1  0  0  0  0
  7 19  1  0  0  0  0
  7 32  1  0  0  0  0
  8  9  1  0  0  0  0
  8 33  1  0  0  0  0
  9 10  2  0  0  0  0
  9 11  1  0  0  0  0
 11 12  1  0  0  0  0
 11 34  1  0  0  0  0
 12 18  1  0  0  0  0
 12 13  2  0  0  0  0
 13 14  1  0  0  0  0
 13 35  1  0  0  0  0
 14 15  2  0  0  0  0
 14 36  1  0  0  0  0
 15 16  1  0  0  0  0
 15 17  1  0  0  0  0
 17 18  2  0  0  0  0
 17 37  1  0  0  0  0
 19 20  2  0  0  0  0
M  END
> <s_m_source_file>
AV-unprocessed.smi

> <i_m_source_file_index>
2785

> <i_lp_mmshare_version>
43012

> <i_f3d_flags>
0

> <s_epik_input>
W0NIM11bQ0hdKFtDSDNdKU4xW0NIMl1bQ0gyXVtDQEhdKEMxPU8pW05IXUMoPU8pW05IXWMyW2NIXVtjSF1jKEYpW2NIXW4y

> <s_epik_cmdline>
J2VwaWtfcHl0aG9uJywgJy1waCcsICc3LjAnLCAnLXRuJywgJzgnLCAnLW1hJywgJzIwMCcsICctbWV0YWxfYmluZGluZycsICctaW1hZScsICc8aW5maWxlLm1hZT4nLCAnLW9tYWUnLCAnPG91dGZpbGUubWFlPic=

> <r_lp_tautomer_probability>
1

> <r_epik_Ionization_Penalty>
3.20266e-05

> <r_epik_Ionization_Penalty_Charging>
0

> <r_epik_Ionization_Penalty_Neutral>
3.20266e-05

> <r_epik_State_Penalty>
-0

> <r_epik_Charging_Adjusted_Penalty>
0

> <i_epik_Tot_Q>
0

> <i_epik_Tot_abs_Q>
0

> <r_epik_Metal_State_Penalty>
-0

> <b_epik_Metal_Only>
0

> <s_lp_Force_Field>
OPLS_2005

> <r_lp_Energy>
23.5858

> <b_lp_Chiralities_Consistent>
1

> <s_lp_Variant>
AV-unprocessed.smi:2785-2

> <Gold.Version>
5.8.1

> <Gold.Id.Protein>
6NUR|6NUR_protein|mol2

> <Gold.PLP.Fitness>
39.9374

> <Gold.PLP.PLP>
-31.3608

> <Gold.PLP.part.hbond>
-2.5895

> <Gold.PLP.part.metal>
0.0000

> <Gold.PLP.part.buried>
2.6570

> <Gold.PLP.part.nonpolar>
-31.3727

> <Gold.PLP.part.repulsive>
0.3789

> <Gold.PLP.ligand.clash>
0.0000

> <Gold.PLP.ligand.torsion>
0.2488

> <Gold.PLP.Chemscore.Hbond>
2.0000

> <Gold.PLP.Chemscore.CHOScore>
1.0000

> <Gold.PLP.Chemscore.Metal>
0.0000

> <Gold.Chemscore.Hbonds>
donor molecule, donor type, donor heavy atom, donor atom, acceptor molecule, acceptor atom, score
      L1  H     8    33       P1  7948  1.00
      L1  H    11    34       P1  7948  1.00
      L1  C    17    37       P1  8028  0.77

> <Gold.PLP.Chemscore.Internal.Correction>
0.0741

> <Gold.Rescore>
     Score         DG    S(hbond)    S(metal)    S(lipo)     H(rot)  DE(clash)    DE(int)     intcor
     13.76     -16.16       1.95        0.00      63.83       1.29       1.29       1.11       ----

> <Gold.Chemscore.Fitness>
13.7601

> <Gold.Chemscore.DG>
-16.1558

> <Gold.Chemscore.ZeroCoef>
-5.4800

> <Gold.Chemscore.Hbond>
1.9473

> <Gold.Chemscore.Metal>
0.0000

> <Gold.Chemscore.Lipo>
63.8265

> <Gold.Chemscore.Internal_Hbond>
0.0000

> <Gold.Chemscore.DEClash>
1.2904

> <Gold.Chemscore.DEInternal>
1.1052

> <Gold.Chemscore.Rot>
1.2875

> <Gold.Chemscore.Internal.Correction>
   9.000000E+99

> <Gold.Chemscore.Hbonds>
donor molecule, donor type, donor heavy atom, donor atom, acceptor molecule, acceptor atom, score
      L1  H     8    33       P1  7948  0.95
      L1  H    11    34       P1  7948  0.98

> <Gold.Chemscore.Hbond.Weighted>
-6.5040

> <Gold.Chemscore.Metal.Weighted>
-0.0000

> <Gold.Chemscore.Lipo.Weighted>
-7.4677

> <Gold.Chemscore.Internal_Hbond.Weighted>
0.0000

> <Gold.Chemscore.DEClash.Weighted>
1.2904

> <Gold.Chemscore.DEInternal.Weighted>
1.1052

> <Gold.Chemscore.Rot.Weighted>
3.2959

> <Gold.Chemscore.Internal.Correction.Weighted>
   9.000000E+99

> <Gold.Protein.RotatedTorsions>
[ 6907 6896 6895 6894 ] final  -50.22 input  -60.11 | X-H torsion
[ 7974 7965 7964 7962 ] final -126.28 input  175.53 | X-H torsion
[ 8008 7997 7996 7995 ] final  -47.35 input   59.86 | X-H torsion
[ 10167 10162 10161 10158 ] final  141.56 input  -65.29 | X-H torsion
[ 10718 10713 10712 10709 ] final   29.59 input   66.30 | X-H torsion
[ 10763 10752 10751 10750 ] final -117.02 input  -60.55 | X-H torsion
[ 11005 11000 10999 10996 ] final   50.67 input  -57.11 | X-H torsion

> <Gold.Protein.ActiveResidues>
 VAL166  LYS551  ARG553  GLY616  TRP617  ASP618  TYR619  PRO620  LYS621  CYS622 
 ASP623  PHE694  ASN695  SER759  ASP760  ASP761  ALA762  ILE779  LEU786  VAL792 
 PHE793  MET794  SER795  GLU796  ALA797  LYS798  CYS799  TRP800  GLU811  SER814 

> <Gold.Protein.RotatedAtoms>
  150.8729  134.8106  159.7167 H   0  0  0  0  0  0  0  0  0  0  0  0  # atno 6907 bound_to 6896
  152.4726  134.4919  159.9707 H   0  0  0  0  0  0  0  0  0  0  0  0  # atno 6908 bound_to 6896
  151.5005  133.3467  159.2903 H   0  0  0  0  0  0  0  0  0  0  0  0  # atno 6909 bound_to 6896
  144.9889  140.7713  143.4566 H   0  0  0  0  0  0  0  0  0  0  0  0  # atno 7974 bound_to 7965
  154.4016  140.1348  156.4160 H   0  0  0  0  0  0  0  0  0  0  0  0  # atno 8008 bound_to 7997
  155.7688  140.3484  155.5216 H   0  0  0  0  0  0  0  0  0  0  0  0  # atno 8009 bound_to 7997
  155.8787  140.0984  157.1490 H   0  0  0  0  0  0  0  0  0  0  0  0  # atno 8010 bound_to 7997
  139.5017  144.6163  151.6155 H   0  0  0  0  0  0  0  0  0  0  0  0  # atno 10167 bound_to 10162
  157.2485  130.7103  149.6393 H   0  0  0  0  0  0  0  0  0  0  0  0  # atno 10718 bound_to 10713
  154.8540  135.4324  154.1913 H   0  0  0  0  0  0  0  0  0  0  0  0  # atno 10763 bound_to 10752
  153.2981  135.6967  153.7235 H   0  0  0  0  0  0  0  0  0  0  0  0  # atno 10764 bound_to 10752
  153.6376  135.3474  155.3036 H   0  0  0  0  0  0  0  0  0  0  0  0  # atno 10765 bound_to 10752
  140.0997  134.5097  155.8774 H   0  0  0  0  0  0  0  0  0  0  0  0  # atno 11005 bound_to 11000
  145.2314  139.2113  143.5041 LP  0  0  0  0  0  0  0  0  0  0  0  0  # atno 17320 bound_to 7965
  146.3426  140.2192  142.8591 LP  0  0  0  0  0  0  0  0  0  0  0  0  # atno 17321 bound_to 7965
  140.5853  143.9876  150.6292 LP  0  0  0  0  0  0  0  0  0  0  0  0  # atno 17342 bound_to 10162
  140.3038  143.3243  152.0946 LP  0  0  0  0  0  0  0  0  0  0  0  0  # atno 17343 bound_to 10162
  155.9667  130.4435  150.5424 LP  0  0  0  0  0  0  0  0  0  0  0  0  # atno 17370 bound_to 10713
  157.3303  131.0698  151.1866 LP  0  0  0  0  0  0  0  0  0  0  0  0  # atno 17371 bound_to 10713
  141.2102  133.6692  156.6494 LP  0  0  0  0  0  0  0  0  0  0  0  0  # atno 17394 bound_to 11000
  140.3236  134.7987  157.4272 LP  0  0  0  0  0  0  0  0  0  0  0  0  # atno 17395 bound_to 11000

$$$$
