AV-unprocessed.smi:1345|AV-procd|sdf|5510|dock9
  -GOLD-   22720 5 93D 1   1.00000     0.00000
 Structure written by MMmdl.
 40 41  0  0  0  0  0  0  0  0  1 V2000
  152.8967  144.5629  158.0412 C   0  0  0  0  0  0  0  0  0  0  0  0
  151.7359  144.1658  158.9713 C   0  0  0  0  0  0  0  0  0  0  0  0
  151.7445  145.0743  160.2163 C   0  0  0  0  0  0  0  0  0  0  0  0
  151.7624  142.6589  159.3433 C   0  0  2  0  0  0  0  0  0  0  0  0
  152.9915  142.2602  160.1828 C   0  0  0  0  0  0  0  0  0  0  0  0
  151.7344  141.8402  158.1314 N   0  0  0  0  0  0  0  0  0  0  0  0
  150.6950  141.7192  157.2898 C   0  0  0  0  0  0  0  0  0  0  0  0
  149.6217  142.3008  157.4569 O   0  0  0  0  0  0  0  0  0  0  0  0
  150.9218  140.8015  156.0814 C   0  0  0  0  0  0  0  0  0  0  0  0
  149.7131  140.7246  155.1899 C   0  0  0  0  0  0  0  0  0  0  0  0
  149.1221  141.7601  154.5068 C   0  0  0  0  0  0  0  0  0  0  0  0
  147.7361  141.2330  153.5916 S   0  0  0  0  0  0  0  0  0  0  0  0
  148.0057  139.5970  154.1887 C   0  0  0  0  0  0  0  0  0  0  0  0
  147.1762  138.4889  153.8420 N   0  0  0  0  0  0  0  0  0  0  0  0
  146.3352  138.5188  152.6513 C   0  0  0  0  0  0  0  0  0  0  0  0
  145.6264  137.1678  152.6692 C   0  0  0  0  0  0  0  0  0  0  0  0
  146.1677  136.5558  153.8598 N   0  0  0  0  0  0  0  0  0  0  0  0
  147.0444  137.3239  154.5106 C   0  0  0  0  0  0  0  0  0  0  0  0
  147.6171  136.9892  155.5466 O   0  0  0  0  0  0  0  0  0  0  0  0
  149.0632  139.5002  155.0033 N   0  0  0  0  0  0  0  0  0  0  0  0
  153.8622  144.3194  158.4857 H   0  0  0  0  0  0  0  0  0  0  0  0
  152.8871  145.6341  157.8370 H   0  0  0  0  0  0  0  0  0  0  0  0
  152.8338  144.0600  157.0767 H   0  0  0  0  0  0  0  0  0  0  0  0
  150.8074  144.3649  158.4340 H   0  0  0  0  0  0  0  0  0  0  0  0
  152.6322  144.8998  160.8253 H   0  0  0  0  0  0  0  0  0  0  0  0
  150.8702  144.9118  160.8467 H   0  0  0  0  0  0  0  0  0  0  0  0
  151.7394  146.1276  159.9344 H   0  0  0  0  0  0  0  0  0  0  0  0
  150.8666  142.4462  159.9300 H   0  0  0  0  0  0  0  0  0  0  0  0
  152.9909  142.7477  161.1571 H   0  0  0  0  0  0  0  0  0  0  0  0
  153.9207  142.5223  159.6757 H   0  0  0  0  0  0  0  0  0  0  0  0
  153.0091  141.1863  160.3712 H   0  0  0  0  0  0  0  0  0  0  0  0
  152.5776  141.3293  157.9133 H   0  0  0  0  0  0  0  0  0  0  0  0
  151.7868  141.1701  155.5282 H   0  0  0  0  0  0  0  0  0  0  0  0
  151.1857  139.8043  156.4361 H   0  0  0  0  0  0  0  0  0  0  0  0
  149.4211  142.7975  154.4829 H   0  0  0  0  0  0  0  0  0  0  0  0
  145.6220  139.3428  152.7020 H   0  0  0  0  0  0  0  0  0  0  0  0
  146.9436  138.6370  151.7533 H   0  0  0  0  0  0  0  0  0  0  0  0
  144.5441  137.2736  152.7508 H   0  0  0  0  0  0  0  0  0  0  0  0
  145.8607  136.5691  151.7883 H   0  0  0  0  0  0  0  0  0  0  0  0
  145.9004  135.6301  154.1619 H   0  0  0  0  0  0  0  0  0  0  0  0
  1  2  1  0  0  0  0
  1 21  1  0  0  0  0
  1 22  1  0  0  0  0
  1 23  1  0  0  0  0
  2  3  1  0  0  0  0
  2  4  1  0  0  0  0
  2 24  1  0  0  0  0
  3 25  1  0  0  0  0
  3 26  1  0  0  0  0
  3 27  1  0  0  0  0
  4  5  1  0  0  0  0
  4  6  1  0  0  0  0
  4 28  1  0  0  0  0
  5 29  1  0  0  0  0
  5 30  1  0  0  0  0
  5 31  1  0  0  0  0
  6  7  1  0  0  0  0
  6 32  1  0  0  0  0
  7  8  2  0  0  0  0
  7  9  1  0  0  0  0
  9 10  1  0  0  0  0
  9 33  1  0  0  0  0
  9 34  1  0  0  0  0
 10 20  1  0  0  0  0
 10 11  2  0  0  0  0
 11 12  1  0  0  0  0
 11 35  1  0  0  0  0
 12 13  1  0  0  0  0
 13 14  1  0  0  0  0
 13 20  2  0  0  0  0
 14 18  1  0  0  0  0
 14 15  1  0  0  0  0
 15 16  1  0  0  0  0
 15 36  1  0  0  0  0
 15 37  1  0  0  0  0
 16 17  1  0  0  0  0
 16 38  1  0  0  0  0
 16 39  1  0  0  0  0
 17 18  1  0  0  0  0
 17 40  1  0  0  0  0
 18 19  2  0  0  0  0
M  END
> <s_m_source_file>
AV-unprocessed.smi

> <i_m_source_file_index>
1345

> <i_lp_mmshare_version>
43012

> <i_f3d_flags>
0

> <s_epik_input>
W0NIM11bQ0hdKFtDSDNdKVtDQEhdKFtDSDNdKVtOSF1DKD1PKVtDSDJdYzFbY0hdc2MobjEpTjJbQ0gyXVtDSDJdW05IXUMyPU8=

> <s_epik_cmdline>
J2VwaWtfcHl0aG9uJywgJy1waCcsICc3LjAnLCAnLXRuJywgJzgnLCAnLW1hJywgJzIwMCcsICctbWV0YWxfYmluZGluZycsICctaW1hZScsICc8aW5maWxlLm1hZT4nLCAnLW9tYWUnLCAnPG91dGZpbGUubWFlPic=

> <r_lp_tautomer_probability>
1

> <r_epik_Ionization_Penalty>
0.000122034

> <r_epik_Ionization_Penalty_Charging>
0

> <r_epik_Ionization_Penalty_Neutral>
0.000122034

> <r_epik_State_Penalty>
-0

> <r_epik_Charging_Adjusted_Penalty>
0

> <i_epik_Tot_Q>
0

> <i_epik_Tot_abs_Q>
0

> <r_epik_Metal_State_Penalty>
-0

> <b_epik_Metal_Only>
0

> <s_lp_Force_Field>
OPLS_2005

> <r_lp_Energy>
36.09

> <b_lp_Chiralities_Consistent>
1

> <s_lp_Variant>
AV-unprocessed.smi:1345-1

> <Gold.Version>
5.8.1

> <Gold.Id.Protein>
6NUR|6NUR_protein|mol2

> <Gold.PLP.Fitness>
42.5330

> <Gold.PLP.PLP>
-40.1261

> <Gold.PLP.part.hbond>
-0.6502

> <Gold.PLP.part.metal>
0.0000

> <Gold.PLP.part.buried>
-0.8953

> <Gold.PLP.part.nonpolar>
-38.3583

> <Gold.PLP.part.repulsive>
0.6620

> <Gold.PLP.ligand.clash>
0.0000

> <Gold.PLP.ligand.torsion>
0.3118

> <Gold.PLP.Chemscore.Hbond>
0.0000

> <Gold.PLP.Chemscore.CHOScore>
1.0000

> <Gold.PLP.Chemscore.Metal>
0.0000

> <Gold.Chemscore.Hbonds>
donor molecule, donor type, donor heavy atom, donor atom, acceptor molecule, acceptor atom, score
      L1  C    11    35       P1  8028  1.00

> <Gold.PLP.Chemscore.Internal.Correction>
0.0306

> <Gold.Rescore>
     Score         DG    S(hbond)    S(metal)    S(lipo)     H(rot)  DE(clash)    DE(int)     intcor
     11.35     -12.88       0.00        0.00     101.21       1.74       0.04       1.49       ----

> <Gold.Chemscore.Fitness>
11.3547

> <Gold.Chemscore.DG>
-12.8798

> <Gold.Chemscore.ZeroCoef>
-5.4800

> <Gold.Chemscore.Hbond>
0.0000

> <Gold.Chemscore.Metal>
0.0000

> <Gold.Chemscore.Lipo>
101.2140

> <Gold.Chemscore.Internal_Hbond>
0.0000

> <Gold.Chemscore.DEClash>
0.0376

> <Gold.Chemscore.DEInternal>
1.4875

> <Gold.Chemscore.Rot>
1.7353

> <Gold.Chemscore.Internal.Correction>
   9.000000E+99

> <Gold.Chemscore.Hbond.Weighted>
-0.0000

> <Gold.Chemscore.Metal.Weighted>
-0.0000

> <Gold.Chemscore.Lipo.Weighted>
-11.8420

> <Gold.Chemscore.Internal_Hbond.Weighted>
0.0000

> <Gold.Chemscore.DEClash.Weighted>
0.0376

> <Gold.Chemscore.DEInternal.Weighted>
1.4875

> <Gold.Chemscore.Rot.Weighted>
4.4423

> <Gold.Chemscore.Internal.Correction.Weighted>
   9.000000E+99

> <Gold.Protein.RotatedTorsions>
[ 6907 6896 6895 6894 ] final -143.31 input  -60.11 | X-H torsion
[ 7974 7965 7964 7962 ] final  -97.99 input  175.53 | X-H torsion
[ 8008 7997 7996 7995 ] final   17.99 input   59.86 | X-H torsion
[ 10167 10162 10161 10158 ] final  -29.35 input  -65.29 | X-H torsion
[ 10718 10713 10712 10709 ] final -103.21 input   66.30 | X-H torsion
[ 10763 10752 10751 10750 ] final  175.92 input  -60.55 | X-H torsion
[ 11005 11000 10999 10996 ] final -160.66 input  -57.11 | X-H torsion

> <Gold.Protein.ActiveResidues>
 VAL166  LYS551  ARG553  GLY616  TRP617  ASP618  TYR619  PRO620  LYS621  CYS622 
 ASP623  PHE694  ASN695  SER759  ASP760  ASP761  ALA762  ILE779  LEU786  VAL792 
 PHE793  MET794  SER795  GLU796  ALA797  LYS798  CYS799  TRP800  GLU811  SER814 

> <Gold.Protein.RotatedAtoms>
  151.0987  133.5260  159.2610 H   0  0  0  0  0  0  0  0  0  0  0  0  # atno 6907 bound_to 6896
  151.2099  135.0476  159.8917 H   0  0  0  0  0  0  0  0  0  0  0  0  # atno 6908 bound_to 6896
  152.5441  134.0804  159.8286 H   0  0  0  0  0  0  0  0  0  0  0  0  # atno 6909 bound_to 6896
  145.3265  140.9433  143.2686 H   0  0  0  0  0  0  0  0  0  0  0  0  # atno 7974 bound_to 7965
  154.8995  140.2998  155.5326 H   0  0  0  0  0  0  0  0  0  0  0  0  # atno 8008 bound_to 7997
  156.3019  140.2409  156.3955 H   0  0  0  0  0  0  0  0  0  0  0  0  # atno 8009 bound_to 7997
  154.8536  140.0408  157.1609 H   0  0  0  0  0  0  0  0  0  0  0  0  # atno 8010 bound_to 7997
  140.7261  143.3935  151.1388 H   0  0  0  0  0  0  0  0  0  0  0  0  # atno 10167 bound_to 10162
  156.0257  130.5456  150.7219 H   0  0  0  0  0  0  0  0  0  0  0  0  # atno 10718 bound_to 10713
  154.4742  135.2772  155.1620 H   0  0  0  0  0  0  0  0  0  0  0  0  # atno 10763 bound_to 10752
  154.3357  135.6181  153.5576 H   0  0  0  0  0  0  0  0  0  0  0  0  # atno 10764 bound_to 10752
  152.9867  135.5776  154.5129 H   0  0  0  0  0  0  0  0  0  0  0  0  # atno 10765 bound_to 10752
  140.6290  134.4671  157.5228 H   0  0  0  0  0  0  0  0  0  0  0  0  # atno 11005 bound_to 11000
  144.8898  139.4790  143.6683 LP  0  0  0  0  0  0  0  0  0  0  0  0  # atno 17320 bound_to 7965
  146.3062  139.7589  142.9054 LP  0  0  0  0  0  0  0  0  0  0  0  0  # atno 17321 bound_to 7965
  139.7544  143.8730  152.3085 LP  0  0  0  0  0  0  0  0  0  0  0  0  # atno 17342 bound_to 10162
  139.8594  144.7125  150.9118 LP  0  0  0  0  0  0  0  0  0  0  0  0  # atno 17343 bound_to 10162
  157.4833  131.0904  151.0511 LP  0  0  0  0  0  0  0  0  0  0  0  0  # atno 17370 bound_to 10713
  157.0939  130.5953  149.5445 LP  0  0  0  0  0  0  0  0  0  0  0  0  # atno 17371 bound_to 10713
  139.9123  134.8318  156.1484 LP  0  0  0  0  0  0  0  0  0  0  0  0  # atno 17394 bound_to 11000
  141.0689  133.6806  156.2100 LP  0  0  0  0  0  0  0  0  0  0  0  0  # atno 17395 bound_to 11000

$$$$
