AV-unprocessed.smi:203|AV-procd|sdf|1584|dock4
  -GOLD-   2262019473D 1   1.00000     0.00000
 Structure written by MMmdl.
 57 61  0  0  0  0  0  0  0  0  1 V2000
  146.5442  130.6951  157.9128 O   0  0  0  0  0  0  0  0  0  0  0  0
  147.1406  131.7424  158.1518 C   0  0  0  0  0  0  0  0  0  0  0  0
  146.5011  133.1150  158.0374 C   0  0  0  0  0  0  0  0  0  0  0  0
  147.5571  134.0610  158.6418 C   0  0  1  0  0  0  0  0  0  0  0  0
  147.1161  134.7310  159.9820 C   0  0  1  0  0  0  0  0  0  0  0  0
  147.0504  133.7283  161.1640 C   0  0  0  0  0  0  0  0  0  0  0  0
  146.6029  134.4124  162.4628 C   0  0  0  0  0  0  0  0  0  0  0  0
  147.5273  135.5937  162.7771 C   0  0  0  0  0  0  0  0  0  0  0  0
  147.5714  136.5685  161.5929 C   0  0  0  0  0  0  0  0  0  0  0  0
  147.9523  135.8862  160.3569 N   0  0  0  0  0  0  0  0  0  0  0  0
  148.2090  136.7857  159.3814 C   0  0  0  0  0  0  0  0  0  0  0  0
  147.1627  137.1864  158.6188 N   0  0  0  0  0  0  0  0  0  0  0  0
  147.3473  138.1024  157.6633 C   0  0  0  0  0  0  0  0  0  0  0  0
  148.4712  138.7352  157.3187 N   0  0  0  0  0  0  0  0  0  0  0  0
  149.5257  138.3253  158.0806 C   0  0  0  0  0  0  0  0  0  0  0  0
  149.4876  137.3510  159.1162 C   0  0  0  0  0  0  0  0  0  0  0  0
  150.7557  137.1829  159.6587 N   0  0  0  0  0  0  0  0  0  0  0  0
  151.4977  138.0270  158.9963 C   0  0  0  0  0  0  0  0  0  0  0  0
  150.8337  138.7753  158.0505 N   0  0  0  0  0  0  0  0  0  0  0  0
  151.4032  139.8071  157.2027 C   0  0  0  0  0  0  0  0  0  0  0  0
  150.6283  141.1452  157.2571 C   0  0  2  0  0  0  0  0  0  0  0  0
  150.6912  141.7522  155.9831 O   0  0  0  0  0  0  0  0  0  0  0  0
  151.0708  142.1775  158.3228 C   0  0  2  0  0  0  0  0  0  0  0  0
  150.5658  143.6113  158.1457 C   0  0  0  0  0  0  0  0  0  0  0  0
  151.5684  144.3818  158.9752 C   0  0  0  0  0  0  0  0  0  0  0  0
  152.8656  143.6300  158.6880 C   0  0  0  0  0  0  0  0  0  0  0  0
  152.4896  142.2820  158.4171 O   0  0  0  0  0  0  0  0  0  0  0  0
  148.8422  133.2106  158.7546 C   0  0  0  0  0  0  0  0  0  0  0  0
  148.4116  131.8441  158.5339 N   0  0  0  0  0  0  0  0  0  0  0  0
  146.3304  133.3391  156.9841 H   0  0  0  0  0  0  0  0  0  0  0  0
  145.5389  133.1552  158.5477 H   0  0  0  0  0  0  0  0  0  0  0  0
  147.7309  134.8369  157.8966 H   0  0  0  0  0  0  0  0  0  0  0  0
  146.1036  135.1082  159.8352 H   0  0  0  0  0  0  0  0  0  0  0  0
  146.3641  132.9115  160.9438 H   0  0  0  0  0  0  0  0  0  0  0  0
  148.0257  133.2698  161.3278 H   0  0  0  0  0  0  0  0  0  0  0  0
  145.5752  134.7631  162.3610 H   0  0  0  0  0  0  0  0  0  0  0  0
  146.6113  133.6984  163.2866 H   0  0  0  0  0  0  0  0  0  0  0  0
  147.1859  136.1105  163.6743 H   0  0  0  0  0  0  0  0  0  0  0  0
  148.5328  135.2286  162.9900 H   0  0  0  0  0  0  0  0  0  0  0  0
  146.5930  137.0333  161.4619 H   0  0  0  0  0  0  0  0  0  0  0  0
  148.2781  137.3713  161.8097 H   0  0  0  0  0  0  0  0  0  0  0  0
  146.4667  138.3734  157.1000 H   0  0  0  0  0  0  0  0  0  0  0  0
  152.5528  138.1421  159.1972 H   0  0  0  0  0  0  0  0  0  0  0  0
  152.4424  139.9584  157.4980 H   0  0  0  0  0  0  0  0  0  0  0  0
  151.4281  139.4298  156.1799 H   0  0  0  0  0  0  0  0  0  0  0  0
  149.5756  140.9238  157.4338 H   0  0  0  0  0  0  0  0  0  0  0  0
  150.1775  141.2373  155.3799 H   0  0  0  0  0  0  0  0  0  0  0  0
  150.7442  141.8243  159.3027 H   0  0  0  0  0  0  0  0  0  0  0  0
  150.6263  143.9352  157.1077 H   0  0  0  0  0  0  0  0  0  0  0  0
  149.5384  143.7446  158.4850 H   0  0  0  0  0  0  0  0  0  0  0  0
  151.6225  145.4387  158.7140 H   0  0  0  0  0  0  0  0  0  0  0  0
  151.3160  144.3033  160.0336 H   0  0  0  0  0  0  0  0  0  0  0  0
  153.3538  144.0387  157.8030 H   0  0  0  0  0  0  0  0  0  0  0  0
  153.5715  143.6871  159.5167 H   0  0  0  0  0  0  0  0  0  0  0  0
  149.5590  133.4876  157.9806 H   0  0  0  0  0  0  0  0  0  0  0  0
  149.3438  133.3109  159.7171 H   0  0  0  0  0  0  0  0  0  0  0  0
  149.0250  131.0536  158.6696 H   0  0  0  0  0  0  0  0  0  0  0  0
  1  2  2  0  0  0  0
  2 29  1  0  0  0  0
  2  3  1  0  0  0  0
  3  4  1  0  0  0  0
  3 30  1  0  0  0  0
  3 31  1  0  0  0  0
  4  5  1  0  0  0  0
  4 28  1  0  0  0  0
  4 32  1  0  0  0  0
  5 10  1  0  0  0  0
  5  6  1  0  0  0  0
  5 33  1  0  0  0  0
  6  7  1  0  0  0  0
  6 34  1  0  0  0  0
  6 35  1  0  0  0  0
  7  8  1  0  0  0  0
  7 36  1  0  0  0  0
  7 37  1  0  0  0  0
  8  9  1  0  0  0  0
  8 38  1  0  0  0  0
  8 39  1  0  0  0  0
  9 10  1  0  0  0  0
  9 40  1  0  0  0  0
  9 41  1  0  0  0  0
 10 11  1  0  0  0  0
 11 16  1  0  0  0  0
 11 12  2  0  0  0  0
 12 13  1  0  0  0  0
 13 14  2  0  0  0  0
 13 42  1  0  0  0  0
 14 15  1  0  0  0  0
 15 19  1  0  0  0  0
 15 16  2  0  0  0  0
 16 17  1  0  0  0  0
 17 18  2  0  0  0  0
 18 19  1  0  0  0  0
 18 43  1  0  0  0  0
 19 20  1  0  0  0  0
 20 21  1  0  0  0  0
 20 44  1  0  0  0  0
 20 45  1  0  0  0  0
 21 22  1  0  0  0  0
 21 23  1  0  0  0  0
 21 46  1  0  0  0  0
 22 47  1  0  0  0  0
 23 27  1  0  0  0  0
 23 24  1  0  0  0  0
 23 48  1  0  0  0  0
 24 25  1  0  0  0  0
 24 49  1  0  0  0  0
 24 50  1  0  0  0  0
 25 26  1  0  0  0  0
 25 51  1  0  0  0  0
 25 52  1  0  0  0  0
 26 27  1  0  0  0  0
 26 53  1  0  0  0  0
 26 54  1  0  0  0  0
 28 29  1  0  0  0  0
 28 55  1  0  0  0  0
 28 56  1  0  0  0  0
 29 57  1  0  0  0  0
M  END
> <s_m_source_file>
AV-unprocessed.smi

> <i_m_source_file_index>
203

> <i_lp_mmshare_version>
43012

> <i_f3d_flags>
0

> <s_epik_input>
Tz1DMVtDSDJdW0NASF0oW0NIMl1bTkhdMSlbQ0BASF0yW0NIMl1bQ0gyXVtDSDJdW0NIMl1OMmMobltjSF1uMyljKGMzNCluW2NIXW40W0NIMl1bQ0BIXShbT0hdKVtDQEBIXTVbQ0gyXVtDSDJdW0NIMl1PNQ==

> <s_epik_cmdline>
J2VwaWtfcHl0aG9uJywgJy1waCcsICc3LjAnLCAnLXRuJywgJzgnLCAnLW1hJywgJzIwMCcsICctbWV0YWxfYmluZGluZycsICctaW1hZScsICc8aW5maWxlLm1hZT4nLCAnLW9tYWUnLCAnPG91dGZpbGUubWFlPic=

> <r_lp_tautomer_probability>
1

> <r_epik_Ionization_Penalty>
0.00175146

> <r_epik_Ionization_Penalty_Charging>
0

> <r_epik_Ionization_Penalty_Neutral>
0.00175146

> <r_epik_State_Penalty>
0.00109045

> <r_epik_Charging_Adjusted_Penalty>
0.00109045

> <i_epik_Tot_Q>
0

> <i_epik_Tot_abs_Q>
0

> <r_epik_Metal_State_Penalty>
-0

> <b_epik_Metal_Only>
0

> <s_lp_Force_Field>
OPLS_2005

> <r_lp_Energy>
54.964

> <b_lp_Chiralities_Consistent>
1

> <s_lp_Variant>
AV-unprocessed.smi:203-3

> <Gold.Version>
5.8.1

> <Gold.Id.Protein>
6NUR|6NUR_protein|mol2

> <Gold.PLP.Fitness>
41.9236

> <Gold.PLP.PLP>
-41.5870

> <Gold.PLP.part.hbond>
-1.0000

> <Gold.PLP.part.metal>
0.0000

> <Gold.PLP.part.buried>
-5.8927

> <Gold.PLP.part.nonpolar>
-34.4906

> <Gold.PLP.part.repulsive>
0.0981

> <Gold.PLP.ligand.clash>
0.0000

> <Gold.PLP.ligand.torsion>
1.4975

> <Gold.PLP.Chemscore.Hbond>
1.0000

> <Gold.PLP.Chemscore.CHOScore>
0.0000

> <Gold.PLP.Chemscore.Metal>
0.0000

> <Gold.Chemscore.Hbonds>
donor molecule, donor type, donor heavy atom, donor atom, acceptor molecule, acceptor atom, score
      P1  H  6896  6909       L1    17  0.76

> <Gold.PLP.Chemscore.Internal.Correction>
0.3317

> <Gold.Rescore>
     Score         DG    S(hbond)    S(metal)    S(lipo)     H(rot)  DE(clash)    DE(int)     intcor
     11.44     -13.13       0.98        0.00      96.94       2.72       0.01       1.68       ----

> <Gold.Chemscore.Fitness>
11.4368

> <Gold.Chemscore.DG>
-13.1251

> <Gold.Chemscore.ZeroCoef>
-5.4800

> <Gold.Chemscore.Hbond>
0.9755

> <Gold.Chemscore.Metal>
0.0000

> <Gold.Chemscore.Lipo>
96.9448

> <Gold.Chemscore.Internal_Hbond>
0.0000

> <Gold.Chemscore.DEClash>
0.0063

> <Gold.Chemscore.DEInternal>
1.6820

> <Gold.Chemscore.Rot>
2.7171

> <Gold.Chemscore.Internal.Correction>
   9.000000E+99

> <Gold.Chemscore.Hbonds>
donor molecule, donor type, donor heavy atom, donor atom, acceptor molecule, acceptor atom, score
      P1  H  6896  6909       L1    17  0.60

> <Gold.Chemscore.Hbond.Weighted>
-3.2583

> <Gold.Chemscore.Metal.Weighted>
-0.0000

> <Gold.Chemscore.Lipo.Weighted>
-11.3425

> <Gold.Chemscore.Internal_Hbond.Weighted>
0.0000

> <Gold.Chemscore.DEClash.Weighted>
0.0063

> <Gold.Chemscore.DEInternal.Weighted>
1.6820

> <Gold.Chemscore.Rot.Weighted>
6.9557

> <Gold.Chemscore.Internal.Correction.Weighted>
   9.000000E+99

> <Gold.Protein.RotatedTorsions>
[ 6907 6896 6895 6894 ] final   98.49 input  -60.11 | X-H torsion
[ 7974 7965 7964 7962 ] final  117.51 input  175.53 | X-H torsion
[ 8008 7997 7996 7995 ] final   21.23 input   59.86 | X-H torsion
[ 10167 10162 10161 10158 ] final   62.99 input  -65.29 | X-H torsion
[ 10718 10713 10712 10709 ] final   62.41 input   66.30 | X-H torsion
[ 10763 10752 10751 10750 ] final  -20.73 input  -60.55 | X-H torsion
[ 11005 11000 10999 10996 ] final  -20.75 input  -57.11 | X-H torsion

> <Gold.Protein.ActiveResidues>
 VAL166  LYS551  ARG553  GLY616  TRP617  ASP618  TYR619  PRO620  LYS621  CYS622 
 ASP623  PHE694  ASN695  SER759  ASP760  ASP761  ALA762  ILE779  LEU786  VAL792 
 PHE793  MET794  SER795  GLU796  ALA797  LYS798  CYS799  TRP800  GLU811  SER814 

> <Gold.Protein.RotatedAtoms>
  152.5408  134.0573  159.8136 H   0  0  0  0  0  0  0  0  0  0  0  0  # atno 6907 bound_to 6896
  151.0706  133.5462  159.2634 H   0  0  0  0  0  0  0  0  0  0  0  0  # atno 6908 bound_to 6896
  151.2327  135.0568  159.9048 H   0  0  0  0  0  0  0  0  0  0  0  0  # atno 6909 bound_to 6896
  145.1664  139.3126  143.4490 H   0  0  0  0  0  0  0  0  0  0  0  0  # atno 7974 bound_to 7965
  154.9475  140.3061  155.5091 H   0  0  0  0  0  0  0  0  0  0  0  0  # atno 8008 bound_to 7997
  156.2990  140.2325  156.4487 H   0  0  0  0  0  0  0  0  0  0  0  0  # atno 8009 bound_to 7997
  154.8087  140.0430  157.1315 H   0  0  0  0  0  0  0  0  0  0  0  0  # atno 8010 bound_to 7997
  140.1379  144.4581  150.6827 H   0  0  0  0  0  0  0  0  0  0  0  0  # atno 10167 bound_to 10162
  157.5898  130.9048  149.9584 H   0  0  0  0  0  0  0  0  0  0  0  0  # atno 10718 bound_to 10713
  153.6251  135.6991  153.5296 H   0  0  0  0  0  0  0  0  0  0  0  0  # atno 10763 bound_to 10752
  153.2905  135.4158  155.1162 H   0  0  0  0  0  0  0  0  0  0  0  0  # atno 10764 bound_to 10752
  154.8534  135.3624  154.5792 H   0  0  0  0  0  0  0  0  0  0  0  0  # atno 10765 bound_to 10752
  140.8494  133.7867  155.9949 H   0  0  0  0  0  0  0  0  0  0  0  0  # atno 11005 bound_to 11000
  146.3475  140.1794  142.8589 LP  0  0  0  0  0  0  0  0  0  0  0  0  # atno 17320 bound_to 7965
  145.0277  140.8846  143.5128 LP  0  0  0  0  0  0  0  0  0  0  0  0  # atno 17321 bound_to 7965
  140.6778  143.2313  151.5462 LP  0  0  0  0  0  0  0  0  0  0  0  0  # atno 17342 bound_to 10162
  139.5487  144.2453  152.1490 LP  0  0  0  0  0  0  0  0  0  0  0  0  # atno 17343 bound_to 10162
  156.0952  130.3660  150.0320 LP  0  0  0  0  0  0  0  0  0  0  0  0  # atno 17370 bound_to 10713
  156.8445  130.9437  151.3630 LP  0  0  0  0  0  0  0  0  0  0  0  0  # atno 17371 bound_to 10713
  140.8807  134.2615  157.5145 LP  0  0  0  0  0  0  0  0  0  0  0  0  # atno 17394 bound_to 11000
  139.8704  134.9613  156.4393 LP  0  0  0  0  0  0  0  0  0  0  0  0  # atno 17395 bound_to 11000

$$$$
