#       Name:                AV-unprocessed.smi:2008
#       Creating user name   scv26
#       Creation time:       Fri Mar 27 10:38:10 2020


#       File generated by GOLD software.
#

@<TRIPOS>MOLECULE
AV-unprocessed.smi:2008
    51    52     1
SMALL
NO_CHARGES


@<TRIPOS>ATOM
      1 ****        -7.5567   3.7672   0.4243 C.3            1 S1                 0.0000
      2 ****        -7.4117   2.5888   1.2099 O.3            1 S1                 0.0000
      3 ****        -6.1651   2.0023   1.2867 C.ar           1 S1                 0.0000
      4 ****        -6.0117   0.8422   2.0704 C.ar           1 S1                 0.0000
      5 ****        -4.7410   0.2425   2.1515 C.ar           1 S1                 0.0000
      6 ****        -3.6594   0.8145   1.4506 C.ar           1 S1                 0.0000
      7 ****        -2.3929   0.1753   1.5658 N.am           1 S1                 0.0000
      8 ****        -1.2123   0.5059   1.0132 C.2            1 S1                 0.0000
      9 ****        -1.0140   1.4476   0.2469 O.2            1 S1                 0.0000
     10 ****        -0.2444  -0.3372   1.4003 N.am           1 S1                 0.0000
     11 ****         1.1542  -0.2414   0.9976 C.3            1 S1                 0.0000
     12 ****         1.3777  -0.8124  -0.4171 C.3            1 S1                 0.0000
     13 ****         2.7737  -0.6502  -0.9074 N.4            1 S1                 1.0000
     14 ****         2.8876  -0.9334  -2.3641 C.3            1 S1                 0.0000
     15 ****         4.2744  -0.5509  -2.9049 C.3            1 S1                 0.0000
     16 ****         5.3850  -1.2615  -2.1241 C.3            1 S1                 0.0000
     17 ****         5.2359  -0.9690  -0.6248 C.3            1 S1                 0.0000
     18 ****         3.8315  -1.3307  -0.0946 C.3            1 S1                 0.0000
     19 ****         3.6307  -2.8562   0.0313 C.3            1 S1                 0.0000
     20 ****        -3.9172   1.9827   0.6902 C.ar           1 S1                 0.0000
     21 ****        -5.1338   2.5621   0.6082 N.ar           1 S1                 0.0000
     22 ****        -8.5919   4.1052   0.4688 H              1 S1                 0.0000
     23 ****        -7.3143   3.5816  -0.6231 H              1 S1                 0.0000
     24 ****        -6.9284   4.5764   0.7993 H              1 S1                 0.0000
     25 ****        -6.8531   0.4208   2.6006 H              1 S1                 0.0000
     26 ****        -4.6020  -0.6473   2.7483 H              1 S1                 0.0000
     27 ****        -2.3822  -0.6386   2.1628 H              1 S1                 0.0000
     28 ****        -0.4891  -1.0865   2.0316 H              1 S1                 0.0000
     29 ****         1.4889   0.7961   1.0519 H              1 S1                 0.0000
     30 ****         1.7316  -0.7971   1.7355 H              1 S1                 0.0000
     31 ****         1.0786  -1.8599  -0.4612 H              1 S1                 0.0000
     32 ****         0.7178  -0.2854  -1.1074 H              1 S1                 0.0000
     33 ****         2.6806  -1.9862  -2.5586 H              1 S1                 0.0000
     34 ****         2.1320  -0.3650  -2.9078 H              1 S1                 0.0000
     35 ****         4.3441  -0.8019  -3.9639 H              1 S1                 0.0000
     36 ****         4.4098   0.5292  -2.8339 H              1 S1                 0.0000
     37 ****         5.3395  -2.3358  -2.3052 H              1 S1                 0.0000
     38 ****         6.3625  -0.9296  -2.4758 H              1 S1                 0.0000
     39 ****         6.0032  -1.5016  -0.0616 H              1 S1                 0.0000
     40 ****         5.4198   0.0925  -0.4523 H              1 S1                 0.0000
     41 ****         3.7883  -0.9224   0.9143 H              1 S1                 0.0000
     42 ****         4.4375  -3.3024   0.6136 H              1 S1                 0.0000
     43 ****         3.6173  -3.3549  -0.9374 H              1 S1                 0.0000
     44 ****         2.7026  -3.1022   0.5463 H              1 S1                 0.0000
     45 ****        -3.1531   2.4897   0.1246 H              1 S1                 0.0000
     46 ****         2.9682   0.3372  -0.8202 H              1 S1                 0.0000
     47 ****        -8.0380   1.9048   0.8359 LP             1 S1                 0.0000
     48 ****        -7.6883   2.8192   2.1429 LP             1 S1                 0.0000
     49 ****        -1.7705   2.0467  -0.0153 LP             1 S1                 0.0000
     50 ****        -0.0963   1.6140  -0.1138 LP             1 S1                 0.0000
     51 ****        -5.2711   3.3863   0.0589 LP             1 S1                 0.0000
@<TRIPOS>BOND
    1    1    2 1     
    2    1   22 1     
    3    1   23 1     
    4    1   24 1     
    5    2    3 1     
    6    3   21 ar    
    7    3    4 ar    
    8    4    5 ar    
    9    4   25 1     
   10    5    6 ar    
   11    5   26 1     
   12    6    7 1     
   13    6   20 ar    
   14    7    8 am    
   15    7   27 1     
   16    8    9 2     
   17    8   10 am    
   18   10   11 1     
   19   10   28 1     
   20   11   12 1     
   21   11   29 1     
   22   11   30 1     
   23   12   13 1     
   24   12   31 1     
   25   12   32 1     
   26   13   18 1     
   27   13   14 1     
   28   13   46 1     
   29   14   15 1     
   30   14   33 1     
   31   14   34 1     
   32   15   16 1     
   33   15   35 1     
   34   15   36 1     
   35   16   17 1     
   36   16   37 1     
   37   16   38 1     
   38   17   18 1     
   39   17   39 1     
   40   17   40 1     
   41   18   19 1     
   42   18   41 1     
   43   19   42 1     
   44   19   43 1     
   45   19   44 1     
   46   20   21 ar    
   47   20   45 1     
   48    2   47 1     
   49    2   48 1     
   50    9   49 1     
   51    9   50 1     
   52   21   51 1     
@<TRIPOS>SUBSTRUCTURE
      1 S1             1
@<TRIPOS>SET
LONE_PAIRS      STATIC     ATOMS    <user>   **** ""
5 47 48 49 50 51
DONOR_HYDROGENS      STATIC     ATOMS    <user>   **** ""
3 27 28 46
ATOM$BLUE        STATIC     ATOMS    COLORGROUP SYSTEM
5 47 48 49 50 51
ATOM$RED        STATIC     ATOMS    COLORGROUP SYSTEM
3 27 28 46
