AV-unprocessed.smi:3201|AV-procd|sdf|12237|dock4
  -GOLD-   2272018 73D 1   1.00000     0.00000
 Structure written by MMmdl.
 41 43  0  0  0  0  0  0  0  0  2 V2000
  149.6237  138.7205  154.0777 C   0  0  0  0  0  0  0  0  0  0  0  0
  148.5595  139.7673  154.0015 C   0  0  0  0  0  0  0  0  0  0  0  0
  147.3555  139.7736  153.3495 C   0  0  0  0  0  0  0  0  0  0  0  0
  146.7338  138.7049  152.4928 C   0  0  0  0  0  0  0  0  0  0  0  0
  146.3445  137.4770  153.3256 C   0  0  0  0  0  0  0  0  0  0  0  0
  146.5625  136.2292  152.5665 N   0  3  0  0  0  0  0  0  0  0  0  0
  145.4656  135.8759  151.6390 C   0  0  2  0  0  0  0  0  0  0  0  0
  144.1395  135.5055  152.3393 C   0  0  0  0  0  0  0  0  0  0  0  0
  143.7893  134.1462  151.7025 C   0  0  2  0  0  0  0  0  0  0  0  0
  144.7043  133.0647  152.3028 C   0  0  0  0  0  0  0  0  0  0  0  0
  146.0700  133.3935  151.6726 C   0  0  0  0  0  0  0  0  0  0  0  0
  145.7588  134.6211  150.7881 C   0  0  1  0  0  0  0  0  0  0  0  0
  144.3559  134.2840  150.2922 C   0  0  0  0  0  0  0  0  0  0  0  0
  146.8086  141.0496  153.6645 C   0  0  0  0  0  0  0  0  0  0  0  0
  147.5990  141.7699  154.4395 N   0  0  0  0  0  0  0  0  0  0  0  0
  148.6750  140.9836  154.6484 N   0  0  0  0  0  0  0  0  0  0  0  0
  149.7614  141.4707  155.4767 C   0  0  0  0  0  0  0  0  0  0  0  0
  149.4024  137.8821  153.4177 H   0  0  0  0  0  0  0  0  0  0  0  0
  149.7136  138.3344  155.0931 H   0  0  0  0  0  0  0  0  0  0  0  0
  150.5913  139.1271  153.7834 H   0  0  0  0  0  0  0  0  0  0  0  0
  145.8528  139.0891  151.9774 H   0  0  0  0  0  0  0  0  0  0  0  0
  147.4251  138.4004  151.7061 H   0  0  0  0  0  0  0  0  0  0  0  0
  146.9320  137.4524  154.2443 H   0  0  0  0  0  0  0  0  0  0  0  0
  145.2949  137.5411  153.6159 H   0  0  0  0  0  0  0  0  0  0  0  0
  147.4076  136.3406  152.0247 H   0  0  0  0  0  0  0  0  0  0  0  0
  145.2999  136.7186  150.9652 H   0  0  0  0  0  0  0  0  0  0  0  0
  144.2292  135.4310  153.4239 H   0  0  0  0  0  0  0  0  0  0  0  0
  143.3729  136.2498  152.1204 H   0  0  0  0  0  0  0  0  0  0  0  0
  142.7287  133.8979  151.7534 H   0  0  0  0  0  0  0  0  0  0  0  0
  144.7279  133.0964  153.3927 H   0  0  0  0  0  0  0  0  0  0  0  0
  144.3751  132.0683  152.0052 H   0  0  0  0  0  0  0  0  0  0  0  0
  146.8394  133.5866  152.4202 H   0  0  0  0  0  0  0  0  0  0  0  0
  146.4132  132.5584  151.0602 H   0  0  0  0  0  0  0  0  0  0  0  0
  146.4926  134.7897  149.9994 H   0  0  0  0  0  0  0  0  0  0  0  0
  144.3101  133.3584  149.7154 H   0  0  0  0  0  0  0  0  0  0  0  0
  143.8918  135.0865  149.7158 H   0  0  0  0  0  0  0  0  0  0  0  0
  145.8649  141.4717  153.3514 H   0  0  0  0  0  0  0  0  0  0  0  0
  149.8444  140.8529  156.3711 H   0  0  0  0  0  0  0  0  0  0  0  0
  149.5850  142.5047  155.7767 H   0  0  0  0  0  0  0  0  0  0  0  0
  150.6978  141.4224  154.9206 H   0  0  0  0  0  0  0  0  0  0  0  0
  146.6945  135.4666  153.2154 H   0  0  0  0  0  0  0  0  0  0  0  0
  1  2  1  0  0  0  0
  1 18  1  0  0  0  0
  1 19  1  0  0  0  0
  1 20  1  0  0  0  0
  2 16  1  0  0  0  0
  2  3  2  0  0  0  0
  3  4  1  0  0  0  0
  3 14  1  0  0  0  0
  4  5  1  0  0  0  0
  4 21  1  0  0  0  0
  4 22  1  0  0  0  0
  5  6  1  0  0  0  0
  5 23  1  0  0  0  0
  5 24  1  0  0  0  0
  6  7  1  0  0  0  0
  6 25  1  0  0  0  0
  6 41  1  0  0  0  0
  7 12  1  0  0  0  0
  7  8  1  0  0  0  0
  7 26  1  0  0  0  0
  8  9  1  0  0  0  0
  8 27  1  0  0  0  0
  8 28  1  0  0  0  0
  9 13  1  0  0  0  0
  9 10  1  0  0  0  0
  9 29  1  0  0  0  0
 10 11  1  0  0  0  0
 10 30  1  0  0  0  0
 10 31  1  0  0  0  0
 11 12  1  0  0  0  0
 11 32  1  0  0  0  0
 11 33  1  0  0  0  0
 12 13  1  0  0  0  0
 12 34  1  0  0  0  0
 13 35  1  0  0  0  0
 13 36  1  0  0  0  0
 14 15  2  0  0  0  0
 14 37  1  0  0  0  0
 15 16  1  0  0  0  0
 16 17  1  0  0  0  0
 17 38  1  0  0  0  0
 17 39  1  0  0  0  0
 17 40  1  0  0  0  0
M  CHG  1   6   1
M  END
> <s_m_source_file>
AV-unprocessed.smi

> <i_m_source_file_index>
3201

> <i_lp_mmshare_version>
43012

> <i_f3d_flags>
0

> <s_epik_input>
W0NIM11uMW5bY0hdYyhjMVtDSDNdKVtDSDJdW0NIMl1bTkhdW0NASF0oW0NIMl1bQ0BIXTIzKVtDQEhdKFtDSDJdMylbQ0gyXVtDSDJdMg==

> <s_epik_cmdline>
J2VwaWtfcHl0aG9uJywgJy1waCcsICc3LjAnLCAnLXRuJywgJzgnLCAnLW1hJywgJzIwMCcsICctbWV0YWxfYmluZGluZycsICctaW1hZScsICc8aW5maWxlLm1hZT4nLCAnLW9tYWUnLCAnPG91dGZpbGUubWFlPic=

> <r_lp_tautomer_probability>
1

> <r_epik_Ionization_Penalty>
0.000331174

> <r_epik_Ionization_Penalty_Charging>
0.000242709

> <r_epik_Ionization_Penalty_Neutral>
8.84659e-05

> <r_epik_State_Penalty>
-0

> <r_epik_Charging_Adjusted_Penalty>
0.000242709

> <i_epik_Tot_Q>
1

> <i_epik_Tot_abs_Q>
1

> <r_epik_Metal_State_Penalty>
-0

> <b_epik_Metal_Only>
0

> <s_lp_Force_Field>
OPLS_2005

> <r_lp_Energy>
50.9619

> <b_lp_Chiralities_Consistent>
1

> <s_lp_Variant>
AV-unprocessed.smi:3201-1

> <Gold.Version>
5.8.1

> <Gold.Id.Protein>
6NUR|6NUR_protein|mol2

> <Gold.PLP.Fitness>
39.7542

> <Gold.PLP.PLP>
-32.0872

> <Gold.PLP.part.hbond>
-0.8160

> <Gold.PLP.part.metal>
0.0000

> <Gold.PLP.part.buried>
-1.5098

> <Gold.PLP.part.nonpolar>
-30.1704

> <Gold.PLP.part.repulsive>
0.1710

> <Gold.PLP.ligand.clash>
0.0000

> <Gold.PLP.ligand.torsion>
0.4427

> <Gold.PLP.Chemscore.Hbond>
2.0000

> <Gold.PLP.Chemscore.CHOScore>
0.8399

> <Gold.PLP.Chemscore.Metal>
0.0000

> <Gold.Chemscore.Hbonds>
donor molecule, donor type, donor heavy atom, donor atom, acceptor molecule, acceptor atom, score
      L1  H     6    25       P1  7948  2.00
      L1  C    14    37       P1 10175  0.83

> <Gold.PLP.Chemscore.Internal.Correction>
0.0328

> <Gold.Rescore>
     Score         DG    S(hbond)    S(metal)    S(lipo)     H(rot)  DE(clash)    DE(int)     intcor
     14.55     -14.92       0.97        0.00      82.67       1.36       0.01       0.36       ----

> <Gold.Chemscore.Fitness>
14.5477

> <Gold.Chemscore.DG>
-14.9223

> <Gold.Chemscore.ZeroCoef>
-5.4800

> <Gold.Chemscore.Hbond>
0.9726

> <Gold.Chemscore.Metal>
0.0000

> <Gold.Chemscore.Lipo>
82.6697

> <Gold.Chemscore.Internal_Hbond>
0.0000

> <Gold.Chemscore.DEClash>
0.0098

> <Gold.Chemscore.DEInternal>
0.3648

> <Gold.Chemscore.Rot>
1.3588

> <Gold.Chemscore.Internal.Correction>
   9.000000E+99

> <Gold.Chemscore.Hbonds>
donor molecule, donor type, donor heavy atom, donor atom, acceptor molecule, acceptor atom, score
      L1  H     6    25       P1  7948  0.92

> <Gold.Chemscore.Hbond.Weighted>
-3.2485

> <Gold.Chemscore.Metal.Weighted>
-0.0000

> <Gold.Chemscore.Lipo.Weighted>
-9.6724

> <Gold.Chemscore.Internal_Hbond.Weighted>
0.0000

> <Gold.Chemscore.DEClash.Weighted>
0.0098

> <Gold.Chemscore.DEInternal.Weighted>
0.3648

> <Gold.Chemscore.Rot.Weighted>
3.4786

> <Gold.Chemscore.Internal.Correction.Weighted>
   9.000000E+99

> <Gold.Protein.RotatedTorsions>
[ 6907 6896 6895 6894 ] final  -46.71 input  -60.11 | X-H torsion
[ 7974 7965 7964 7962 ] final  172.74 input  175.53 | X-H torsion
[ 8008 7997 7996 7995 ] final -175.98 input   59.86 | X-H torsion
[ 10167 10162 10161 10158 ] final   56.64 input  -65.29 | X-H torsion
[ 10718 10713 10712 10709 ] final   55.99 input   66.30 | X-H torsion
[ 10763 10752 10751 10750 ] final  124.85 input  -60.55 | X-H torsion
[ 11005 11000 10999 10996 ] final   75.44 input  -57.11 | X-H torsion

> <Gold.Protein.ActiveResidues>
 VAL166  LYS551  ARG553  GLY616  TRP617  ASP618  TYR619  PRO620  LYS621  CYS622 
 ASP623  PHE694  ASN695  SER759  ASP760  ASP761  ALA762  ILE779  LEU786  VAL792 
 PHE793  MET794  SER795  GLU796  ALA797  LYS798  CYS799  TRP800  GLU811  SER814 

> <Gold.Protein.RotatedAtoms>
  150.9084  134.8500  159.7408 H   0  0  0  0  0  0  0  0  0  0  0  0  # atno 6907 bound_to 6896
  152.4931  134.4396  159.9549 H   0  0  0  0  0  0  0  0  0  0  0  0  # atno 6908 bound_to 6896
  151.4441  133.3596  159.2821 H   0  0  0  0  0  0  0  0  0  0  0  0  # atno 6909 bound_to 6896
  144.7260  139.9544  143.6433 H   0  0  0  0  0  0  0  0  0  0  0  0  # atno 7974 bound_to 7965
  155.9892  140.1197  157.0654 H   0  0  0  0  0  0  0  0  0  0  0  0  # atno 8008 bound_to 7997
  154.4206  140.1129  156.5610 H   0  0  0  0  0  0  0  0  0  0  0  0  # atno 8009 bound_to 7997
  155.6366  140.3473  155.4703 H   0  0  0  0  0  0  0  0  0  0  0  0  # atno 8010 bound_to 7997
  140.2066  144.3933  150.6506 H   0  0  0  0  0  0  0  0  0  0  0  0  # atno 10167 bound_to 10162
  157.5393  130.8685  149.8798 H   0  0  0  0  0  0  0  0  0  0  0  0  # atno 10718 bound_to 10713
  153.6679  135.3335  155.3145 H   0  0  0  0  0  0  0  0  0  0  0  0  # atno 10763 bound_to 10752
  154.8498  135.4379  154.1735 H   0  0  0  0  0  0  0  0  0  0  0  0  # atno 10764 bound_to 10752
  153.2719  135.7001  153.7548 H   0  0  0  0  0  0  0  0  0  0  0  0  # atno 10765 bound_to 10752
  139.9344  134.7517  156.1271 H   0  0  0  0  0  0  0  0  0  0  0  0  # atno 11005 bound_to 11000
  146.0686  139.3676  143.0537 LP  0  0  0  0  0  0  0  0  0  0  0  0  # atno 17320 bound_to 7965
  145.7998  140.9776  143.1005 LP  0  0  0  0  0  0  0  0  0  0  0  0  # atno 17321 bound_to 7965
  140.6353  143.2194  151.6408 LP  0  0  0  0  0  0  0  0  0  0  0  0  # atno 17342 bound_to 10162
  139.5196  144.3248  152.0879 LP  0  0  0  0  0  0  0  0  0  0  0  0  # atno 17343 bound_to 10162
  156.0483  130.3723  150.1262 LP  0  0  0  0  0  0  0  0  0  0  0  0  # atno 17370 bound_to 10713
  156.9443  130.9754  151.3510 LP  0  0  0  0  0  0  0  0  0  0  0  0  # atno 17371 bound_to 10713
  141.0950  133.6699  156.2624 LP  0  0  0  0  0  0  0  0  0  0  0  0  # atno 17394 bound_to 11000
  140.6116  134.5453  157.5534 LP  0  0  0  0  0  0  0  0  0  0  0  0  # atno 17395 bound_to 11000

$$$$
