AV-unprocessed.smi:1744|AV-procd|sdf|7024|dock4
  -GOLD-   22720 8243D 1   1.00000     0.00000
 Structure written by MMmdl.
 43 44  0  0  0  0  0  0  0  0  1 V2000
  153.2662  142.5651  162.0902 C   0  0  0  0  0  0  0  0  0  0  0  0
  153.5441  141.8622  160.7555 C   0  0  0  0  0  0  0  0  0  0  0  0
  152.8554  142.5017  159.6507 N   0  0  0  0  0  0  0  0  0  0  0  0
  151.8863  141.9677  158.8244 C   0  0  0  0  0  0  0  0  0  0  0  0
  151.5659  142.9543  157.9411 C   0  0  0  0  0  0  0  0  0  0  0  0
  150.6093  142.8310  156.9027 N   0  0  0  0  0  0  0  0  0  0  0  0
  150.4442  141.7909  156.0697 C   0  0  0  0  0  0  0  0  0  0  0  0
  151.1400  140.7755  156.0580 O   0  0  0  0  0  0  0  0  0  0  0  0
  149.4140  141.9943  155.2364 N   0  0  0  0  0  0  0  0  0  0  0  0
  148.9568  141.0543  154.2175 C   0  0  0  0  0  0  0  0  0  0  0  0
  147.6766  141.5618  153.5344 C   0  0  0  0  0  0  0  0  0  0  0  0
  147.1159  140.5113  152.5601 C   0  0  0  0  0  0  0  0  0  0  0  0
  146.8353  139.2528  153.2594 N   0  0  0  0  0  0  0  0  0  0  0  0
  146.1793  138.3104  152.3243 C   0  0  0  0  0  0  0  0  0  0  0  0
  145.0817  137.4464  152.9578 C   0  0  0  0  0  0  0  0  0  0  0  0
  143.8620  137.5166  152.4186 N   0  0  0  0  0  0  0  0  0  0  0  0
  145.3342  136.7214  153.9178 O   0  0  0  0  0  0  0  0  0  0  0  0
  148.0717  138.7056  153.8371 C   0  0  0  0  0  0  0  0  0  0  0  0
  148.6715  139.6888  154.8579 C   0  0  0  0  0  0  0  0  0  0  0  0
  152.3824  144.0676  158.2886 C   0  0  0  0  0  0  0  0  0  0  0  0
  153.1603  143.7817  159.3217 N   0  0  0  0  0  0  0  0  0  0  0  0
  153.7741  142.0550  162.9088 H   0  0  0  0  0  0  0  0  0  0  0  0
  152.1993  142.5755  162.3150 H   0  0  0  0  0  0  0  0  0  0  0  0
  153.6165  143.5977  162.0751 H   0  0  0  0  0  0  0  0  0  0  0  0
  154.6140  141.8569  160.5439 H   0  0  0  0  0  0  0  0  0  0  0  0
  153.2262  140.8203  160.8085 H   0  0  0  0  0  0  0  0  0  0  0  0
  151.5209  140.9572  158.9343 H   0  0  0  0  0  0  0  0  0  0  0  0
  149.9738  143.6078  156.7940 H   0  0  0  0  0  0  0  0  0  0  0  0
  148.9016  142.8603  155.3165 H   0  0  0  0  0  0  0  0  0  0  0  0
  149.7377  140.9252  153.4654 H   0  0  0  0  0  0  0  0  0  0  0  0
  146.9213  141.7993  154.2853 H   0  0  0  0  0  0  0  0  0  0  0  0
  147.8795  142.4885  152.9964 H   0  0  0  0  0  0  0  0  0  0  0  0
  146.1985  140.9001  152.1157 H   0  0  0  0  0  0  0  0  0  0  0  0
  147.8181  140.3434  151.7413 H   0  0  0  0  0  0  0  0  0  0  0  0
  145.7108  138.8722  151.5151 H   0  0  0  0  0  0  0  0  0  0  0  0
  146.9323  137.6703  151.8600 H   0  0  0  0  0  0  0  0  0  0  0  0
  143.1074  136.9667  152.8025 H   0  0  0  0  0  0  0  0  0  0  0  0
  143.6999  138.1224  151.6273 H   0  0  0  0  0  0  0  0  0  0  0  0
  147.8791  137.7640  154.3510 H   0  0  0  0  0  0  0  0  0  0  0  0
  148.7940  138.4920  153.0470 H   0  0  0  0  0  0  0  0  0  0  0  0
  149.5901  139.2727  155.2731 H   0  0  0  0  0  0  0  0  0  0  0  0
  147.9799  139.8055  155.6941 H   0  0  0  0  0  0  0  0  0  0  0  0
  152.4456  145.0491  157.8432 H   0  0  0  0  0  0  0  0  0  0  0  0
  1  2  1  0  0  0  0
  1 22  1  0  0  0  0
  1 23  1  0  0  0  0
  1 24  1  0  0  0  0
  2  3  1  0  0  0  0
  2 25  1  0  0  0  0
  2 26  1  0  0  0  0
  3 21  1  0  0  0  0
  3  4  1  0  0  0  0
  4  5  2  0  0  0  0
  4 27  1  0  0  0  0
  5  6  1  0  0  0  0
  5 20  1  0  0  0  0
  6  7  1  0  0  0  0
  6 28  1  0  0  0  0
  7  8  2  0  0  0  0
  7  9  1  0  0  0  0
  9 10  1  0  0  0  0
  9 29  1  0  0  0  0
 10 19  1  0  0  0  0
 10 11  1  0  0  0  0
 10 30  1  0  0  0  0
 11 12  1  0  0  0  0
 11 31  1  0  0  0  0
 11 32  1  0  0  0  0
 12 13  1  0  0  0  0
 12 33  1  0  0  0  0
 12 34  1  0  0  0  0
 13 14  1  0  0  0  0
 13 18  1  0  0  0  0
 14 15  1  0  0  0  0
 14 35  1  0  0  0  0
 14 36  1  0  0  0  0
 15 16  1  0  0  0  0
 15 17  2  0  0  0  0
 16 37  1  0  0  0  0
 16 38  1  0  0  0  0
 18 19  1  0  0  0  0
 18 39  1  0  0  0  0
 18 40  1  0  0  0  0
 19 41  1  0  0  0  0
 19 42  1  0  0  0  0
 20 21  2  0  0  0  0
 20 43  1  0  0  0  0
M  END
> <s_m_source_file>
AV-unprocessed.smi

> <i_m_source_file_index>
1744

> <i_lp_mmshare_version>
43012

> <i_f3d_flags>
0

> <s_epik_input>
W0NIM11bQ0gyXW4xW2NIXWMoW2NIXW4xKVtOSF1DKD1PKVtOSF1bQ0hdMltDSDJdW0NIMl1OKFtDSDJdW0NIMl0yKVtDSDJdQyg9TylbTkgyXQ==

> <s_epik_cmdline>
J2VwaWtfcHl0aG9uJywgJy1waCcsICc3LjAnLCAnLXRuJywgJzgnLCAnLW1hJywgJzIwMCcsICctbWV0YWxfYmluZGluZycsICctaW1hZScsICc8aW5maWxlLm1hZT4nLCAnLW9tYWUnLCAnPG91dGZpbGUubWFlPic=

> <r_lp_tautomer_probability>
1

> <r_epik_Ionization_Penalty>
0.164921

> <r_epik_Ionization_Penalty_Charging>
0

> <r_epik_Ionization_Penalty_Neutral>
0.164921

> <r_epik_State_Penalty>
0.154069

> <r_epik_Charging_Adjusted_Penalty>
0.154069

> <i_epik_Tot_Q>
0

> <i_epik_Tot_abs_Q>
0

> <r_epik_Metal_State_Penalty>
0.171357

> <b_epik_Metal_Only>
0

> <s_lp_Force_Field>
OPLS_2005

> <r_lp_Energy>
15.5637

> <b_lp_Chiralities_Consistent>
1

> <s_lp_Variant>
AV-unprocessed.smi:1744-1

> <Gold.Version>
5.8.1

> <Gold.Id.Protein>
6NUR|6NUR_protein|mol2

> <Gold.PLP.Fitness>
51.2224

> <Gold.PLP.PLP>
-43.9680

> <Gold.PLP.part.hbond>
-4.0000

> <Gold.PLP.part.metal>
0.0000

> <Gold.PLP.part.buried>
-4.8051

> <Gold.PLP.part.nonpolar>
-35.5683

> <Gold.PLP.part.repulsive>
0.5964

> <Gold.PLP.ligand.clash>
0.0000

> <Gold.PLP.ligand.torsion>
0.8917

> <Gold.PLP.Chemscore.Hbond>
3.0000

> <Gold.PLP.Chemscore.CHOScore>
0.0000

> <Gold.PLP.Chemscore.Metal>
0.0000

> <Gold.Chemscore.Hbonds>
donor molecule, donor type, donor heavy atom, donor atom, acceptor molecule, acceptor atom, score
      L1  H     6    28       P1  8028  1.00
      L1  H     9    29       P1  8028  1.00
      L1  H    16    38       P1 10171  1.00

> <Gold.PLP.Chemscore.Internal.Correction>
0.0378

> <Gold.Rescore>
     Score         DG    S(hbond)    S(metal)    S(lipo)     H(rot)  DE(clash)    DE(int)     intcor
     17.53     -21.21       2.87        0.00     100.34       2.19       1.74       1.94       ----

> <Gold.Chemscore.Fitness>
17.5305

> <Gold.Chemscore.DG>
-21.2149

> <Gold.Chemscore.ZeroCoef>
-5.4800

> <Gold.Chemscore.Hbond>
2.8733

> <Gold.Chemscore.Metal>
0.0000

> <Gold.Chemscore.Lipo>
100.3416

> <Gold.Chemscore.Internal_Hbond>
0.0000

> <Gold.Chemscore.DEClash>
1.7397

> <Gold.Chemscore.DEInternal>
1.9447

> <Gold.Chemscore.Rot>
2.1883

> <Gold.Chemscore.Internal.Correction>
   9.000000E+99

> <Gold.Chemscore.Hbonds>
donor molecule, donor type, donor heavy atom, donor atom, acceptor molecule, acceptor atom, score
      L1  H     6    28       P1  8028  0.95
      L1  H     9    29       P1  8028  0.94
      L1  H    16    38       P1 10171  0.93

> <Gold.Chemscore.Hbond.Weighted>
-9.5969

> <Gold.Chemscore.Metal.Weighted>
-0.0000

> <Gold.Chemscore.Lipo.Weighted>
-11.7400

> <Gold.Chemscore.Internal_Hbond.Weighted>
0.0000

> <Gold.Chemscore.DEClash.Weighted>
1.7397

> <Gold.Chemscore.DEInternal.Weighted>
1.9447

> <Gold.Chemscore.Rot.Weighted>
5.6020

> <Gold.Chemscore.Internal.Correction.Weighted>
   9.000000E+99

> <Gold.Protein.RotatedTorsions>
[ 6907 6896 6895 6894 ] final -134.26 input  -60.11 | X-H torsion
[ 7974 7965 7964 7962 ] final -122.58 input  175.53 | X-H torsion
[ 8008 7997 7996 7995 ] final   88.69 input   59.86 | X-H torsion
[ 10167 10162 10161 10158 ] final   38.69 input  -65.29 | X-H torsion
[ 10718 10713 10712 10709 ] final   67.09 input   66.30 | X-H torsion
[ 10763 10752 10751 10750 ] final -123.49 input  -60.55 | X-H torsion
[ 11005 11000 10999 10996 ] final -142.37 input  -57.11 | X-H torsion

> <Gold.Protein.ActiveResidues>
 VAL166  LYS551  ARG553  GLY616  TRP617  ASP618  TYR619  PRO620  LYS621  CYS622 
 ASP623  PHE694  ASN695  SER759  ASP760  ASP761  ALA762  ILE779  LEU786  VAL792 
 PHE793  MET794  SER795  GLU796  ALA797  LYS798  CYS799  TRP800  GLU811  SER814 

> <Gold.Protein.RotatedAtoms>
  150.9838  133.6218  159.2718 H   0  0  0  0  0  0  0  0  0  0  0  0  # atno 6907 bound_to 6896
  151.3464  135.0874  159.9398 H   0  0  0  0  0  0  0  0  0  0  0  0  # atno 6908 bound_to 6896
  152.5224  133.9439  159.7694 H   0  0  0  0  0  0  0  0  0  0  0  0  # atno 6909 bound_to 6896
  145.0280  140.8043  143.4341 H   0  0  0  0  0  0  0  0  0  0  0  0  # atno 7974 bound_to 7965
  155.9908  140.3369  155.6752 H   0  0  0  0  0  0  0  0  0  0  0  0  # atno 8008 bound_to 7997
  155.6422  140.0696  157.2632 H   0  0  0  0  0  0  0  0  0  0  0  0  # atno 8009 bound_to 7997
  154.4219  140.1740  156.1573 H   0  0  0  0  0  0  0  0  0  0  0  0  # atno 8010 bound_to 7997
  140.3912  144.1849  150.6131 H   0  0  0  0  0  0  0  0  0  0  0  0  # atno 10167 bound_to 10162
  157.6209  130.9302  150.0196 H   0  0  0  0  0  0  0  0  0  0  0  0  # atno 10718 bound_to 10713
  154.8708  135.4096  154.2951 H   0  0  0  0  0  0  0  0  0  0  0  0  # atno 10763 bound_to 10752
  153.3820  135.7012  153.6563 H   0  0  0  0  0  0  0  0  0  0  0  0  # atno 10764 bound_to 10752
  153.5382  135.3653  155.2678 H   0  0  0  0  0  0  0  0  0  0  0  0  # atno 10765 bound_to 10752
  140.8232  134.2606  157.4891 H   0  0  0  0  0  0  0  0  0  0  0  0  # atno 11005 bound_to 11000
  145.1808  139.2352  143.5293 LP  0  0  0  0  0  0  0  0  0  0  0  0  # atno 17320 bound_to 7965
  146.3495  140.1582  142.8591 LP  0  0  0  0  0  0  0  0  0  0  0  0  # atno 17321 bound_to 7965
  140.4837  143.2370  151.8918 LP  0  0  0  0  0  0  0  0  0  0  0  0  # atno 17342 bound_to 10162
  139.4789  144.5241  151.8759 LP  0  0  0  0  0  0  0  0  0  0  0  0  # atno 17343 bound_to 10162
  156.1354  130.3643  149.9665 LP  0  0  0  0  0  0  0  0  0  0  0  0  # atno 17370 bound_to 10713
  156.7717  130.9188  151.3644 LP  0  0  0  0  0  0  0  0  0  0  0  0  # atno 17371 bound_to 10713
  139.8707  134.9546  156.4182 LP  0  0  0  0  0  0  0  0  0  0  0  0  # atno 17394 bound_to 11000
  140.9077  133.7734  155.9754 LP  0  0  0  0  0  0  0  0  0  0  0  0  # atno 17395 bound_to 11000

$$$$
