AV-unprocessed.smi:1207|AV-procd|sdf|5056|dock3
  -GOLD-   22720 4 93D 1   1.00000     0.00000
 Structure written by MMmdl.
 52 54  0  0  0  0  0  0  0  0  2 V2000
  152.7698  143.2409  160.7765 C   0  0  0  0  0  0  0  0  0  0  0  0
  152.2978  142.4667  159.5573 C   0  0  0  0  0  0  0  0  0  0  0  0
  151.3977  143.0946  158.6665 C   0  0  0  0  0  0  0  0  0  0  0  0
  150.9795  142.3587  157.5642 C   0  0  0  0  0  0  0  0  0  0  0  0
  150.1085  142.6843  156.5218 N   0  3  0  0  0  0  0  0  0  0  0  0
  150.0065  141.6280  155.6681 C   0  0  0  0  0  0  0  0  0  0  0  0
  150.8013  140.6343  156.1499 N   0  0  0  0  0  0  0  0  0  0  0  0
  151.0538  139.2870  155.6231 C   0  0  0  0  0  0  0  0  0  0  0  0
  150.2236  138.9737  154.3635 C   0  0  1  0  0  0  0  0  0  0  0  0
  150.7268  137.7966  153.7622 O   0  0  0  0  0  0  0  0  0  0  0  0
  148.7370  138.7530  154.7070 C   0  0  0  0  0  0  0  0  0  0  0  0
  148.3918  137.4160  155.1972 N   0  0  0  0  0  0  0  0  0  0  0  0
  147.0824  136.9806  154.7095 C   0  0  0  0  0  0  0  0  0  0  0  0
  148.4437  137.3789  156.6595 C   0  0  0  0  0  0  0  0  0  0  0  0
  148.9014  136.0476  157.1991 C   0  0  0  0  0  0  0  0  0  0  0  0
  149.4167  134.9355  156.4739 C   0  0  0  0  0  0  0  0  0  0  0  0
  149.6364  134.8082  154.9939 C   0  0  0  0  0  0  0  0  0  0  0  0
  149.7222  133.9248  157.2704 N   0  0  0  0  0  0  0  0  0  0  0  0
  149.4137  134.3514  158.5660 O   0  0  0  0  0  0  0  0  0  0  0  0
  148.9270  135.6164  158.4969 C   0  0  0  0  0  0  0  0  0  0  0  0
  148.5410  136.2565  159.7872 C   0  0  0  0  0  0  0  0  0  0  0  0
  151.4278  141.0444  157.3306 C   0  0  0  0  0  0  0  0  0  0  0  0
  152.3167  140.4116  158.1956 C   0  0  0  0  0  0  0  0  0  0  0  0
  152.7513  141.1424  159.3245 C   0  0  0  0  0  0  0  0  0  0  0  0
  153.7177  140.4767  160.2891 C   0  0  0  0  0  0  0  0  0  0  0  0
  152.3562  144.2496  160.7936 H   0  0  0  0  0  0  0  0  0  0  0  0
  153.8566  143.3275  160.7810 H   0  0  0  0  0  0  0  0  0  0  0  0
  152.4580  142.7375  161.6919 H   0  0  0  0  0  0  0  0  0  0  0  0
  151.0479  144.1022  158.8373 H   0  0  0  0  0  0  0  0  0  0  0  0
  149.4018  141.5839  154.7737 H   0  0  0  0  0  0  0  0  0  0  0  0
  152.1202  139.2154  155.4037 H   0  0  0  0  0  0  0  0  0  0  0  0
  150.8516  138.5648  156.4150 H   0  0  0  0  0  0  0  0  0  0  0  0
  150.3411  139.7956  153.6595 H   0  0  0  0  0  0  0  0  0  0  0  0
  150.0771  137.4729  153.1564 H   0  0  0  0  0  0  0  0  0  0  0  0
  148.4578  139.4972  155.4546 H   0  0  0  0  0  0  0  0  0  0  0  0
  148.1286  138.9764  153.8293 H   0  0  0  0  0  0  0  0  0  0  0  0
  146.8305  135.9882  155.0839 H   0  0  0  0  0  0  0  0  0  0  0  0
  147.0606  136.9134  153.6232 H   0  0  0  0  0  0  0  0  0  0  0  0
  146.2962  137.6673  155.0255 H   0  0  0  0  0  0  0  0  0  0  0  0
  149.1278  138.1517  157.0123 H   0  0  0  0  0  0  0  0  0  0  0  0
  147.4689  137.6518  157.0659 H   0  0  0  0  0  0  0  0  0  0  0  0
  150.1370  135.6917  154.5972 H   0  0  0  0  0  0  0  0  0  0  0  0
  148.6878  134.6993  154.4681 H   0  0  0  0  0  0  0  0  0  0  0  0
  150.2538  133.9427  154.7494 H   0  0  0  0  0  0  0  0  0  0  0  0
  147.8200  137.0577  159.6241 H   0  0  0  0  0  0  0  0  0  0  0  0
  149.4144  136.6834  160.2799 H   0  0  0  0  0  0  0  0  0  0  0  0
  148.0900  135.5302  160.4634 H   0  0  0  0  0  0  0  0  0  0  0  0
  152.6605  139.4033  158.0175 H   0  0  0  0  0  0  0  0  0  0  0  0
  153.9559  139.4592  159.9774 H   0  0  0  0  0  0  0  0  0  0  0  0
  153.2869  140.4260  161.2894 H   0  0  0  0  0  0  0  0  0  0  0  0
  154.6519  141.0363  160.3412 H   0  0  0  0  0  0  0  0  0  0  0  0
  149.6169  143.5604  156.4003 H   0  0  0  0  0  0  0  0  0  0  0  0
  1  2  1  0  0  0  0
  1 26  1  0  0  0  0
  1 27  1  0  0  0  0
  1 28  1  0  0  0  0
  2 24  1  0  0  0  0
  2  3  2  0  0  0  0
  3  4  1  0  0  0  0
  3 29  1  0  0  0  0
  4 22  2  0  0  0  0
  4  5  1  0  0  0  0
  5  6  2  0  0  0  0
  5 52  1  0  0  0  0
  6  7  1  0  0  0  0
  6 30  1  0  0  0  0
  7  8  1  0  0  0  0
  7 22  1  0  0  0  0
  8  9  1  0  0  0  0
  8 31  1  0  0  0  0
  8 32  1  0  0  0  0
  9 10  1  0  0  0  0
  9 11  1  0  0  0  0
  9 33  1  0  0  0  0
 10 34  1  0  0  0  0
 11 12  1  0  0  0  0
 11 35  1  0  0  0  0
 11 36  1  0  0  0  0
 12 13  1  0  0  0  0
 12 14  1  0  0  0  0
 13 37  1  0  0  0  0
 13 38  1  0  0  0  0
 13 39  1  0  0  0  0
 14 15  1  0  0  0  0
 14 40  1  0  0  0  0
 14 41  1  0  0  0  0
 15 20  2  0  0  0  0
 15 16  1  0  0  0  0
 16 17  1  0  0  0  0
 16 18  2  0  0  0  0
 17 42  1  0  0  0  0
 17 43  1  0  0  0  0
 17 44  1  0  0  0  0
 18 19  1  0  0  0  0
 19 20  1  0  0  0  0
 20 21  1  0  0  0  0
 21 45  1  0  0  0  0
 21 46  1  0  0  0  0
 21 47  1  0  0  0  0
 22 23  1  0  0  0  0
 23 24  2  0  0  0  0
 23 48  1  0  0  0  0
 24 25  1  0  0  0  0
 25 49  1  0  0  0  0
 25 50  1  0  0  0  0
 25 51  1  0  0  0  0
M  CHG  1   5   1
M  END
> <s_m_source_file>
AV-unprocessed.smi

> <i_m_source_file_index>
1207

> <i_lp_mmshare_version>
43012

> <i_f3d_flags>
0

> <s_epik_input>
W0NIM11jKFtjSF0xKWMoW0NIM10pW2NIXWMoYzEyKW4oW2NIXW4yKVtDSDJdW0NASF0oW09IXSlbQ0gyXU4oW0NIM10pW0NIMl1jM2MoW0NIM10pbm9jM1tDSDNd

> <s_epik_cmdline>
J2VwaWtfcHl0aG9uJywgJy1waCcsICc3LjAnLCAnLXRuJywgJzgnLCAnLW1hJywgJzIwMCcsICctbWV0YWxfYmluZGluZycsICctaW1hZScsICc8aW5maWxlLm1hZT4nLCAnLW9tYWUnLCAnPG91dGZpbGUubWFlPic=

> <r_epik_Ionization_Penalty>
1.48114

> <r_epik_Ionization_Penalty_Charging>
1.21121

> <r_epik_Ionization_Penalty_Neutral>
0.269933

> <r_epik_State_Penalty>
1.53013

> <r_epik_Charging_Adjusted_Penalty>
2.74134

> <i_epik_Tot_Q>
1

> <i_epik_Tot_abs_Q>
1

> <r_epik_Metal_State_Penalty>
1.60462

> <b_epik_Metal_Only>
0

> <s_lp_Force_Field>
OPLS_2005

> <r_lp_Energy>
20.0432

> <b_lp_Chiralities_Consistent>
1

> <s_lp_Variant>
AV-unprocessed.smi:1207-8

> <Gold.Version>
5.8.1

> <Gold.Id.Protein>
6NUR|6NUR_protein|mol2

> <Gold.PLP.Fitness>
52.1037

> <Gold.PLP.PLP>
-42.7316

> <Gold.PLP.part.hbond>
-4.1557

> <Gold.PLP.part.metal>
0.0000

> <Gold.PLP.part.buried>
-6.7150

> <Gold.PLP.part.nonpolar>
-33.4560

> <Gold.PLP.part.repulsive>
0.1622

> <Gold.PLP.ligand.clash>
0.0000

> <Gold.PLP.ligand.torsion>
1.2343

> <Gold.PLP.Chemscore.Hbond>
3.8645

> <Gold.PLP.Chemscore.CHOScore>
0.0000

> <Gold.PLP.Chemscore.Metal>
0.0000

> <Gold.Chemscore.Hbonds>
donor molecule, donor type, donor heavy atom, donor atom, acceptor molecule, acceptor atom, score
      L1  H     5    52       P1  8028  2.00
      L1  H    10    34       P1  7948  0.86
      P1  H  6896  6908       L1    19  0.88

> <Gold.PLP.Chemscore.Internal.Correction>
0.2471

> <Gold.Rescore>
     Score         DG    S(hbond)    S(metal)    S(lipo)     H(rot)  DE(clash)    DE(int)     intcor
     16.84     -19.33       2.34        0.00     105.45       2.46       0.01       2.48       ----

> <Gold.Chemscore.Fitness>
16.8386

> <Gold.Chemscore.DG>
-19.3347

> <Gold.Chemscore.ZeroCoef>
-5.4800

> <Gold.Chemscore.Hbond>
2.3361

> <Gold.Chemscore.Metal>
0.0000

> <Gold.Chemscore.Lipo>
105.4544

> <Gold.Chemscore.Internal_Hbond>
0.0000

> <Gold.Chemscore.DEClash>
0.0115

> <Gold.Chemscore.DEInternal>
2.4845

> <Gold.Chemscore.Rot>
2.4555

> <Gold.Chemscore.Internal.Correction>
   9.000000E+99

> <Gold.Chemscore.Hbonds>
donor molecule, donor type, donor heavy atom, donor atom, acceptor molecule, acceptor atom, score
      L1  H     5    52       P1  8028  0.95
      L1  H    10    34       P1  7948  0.19
      P1  H  6896  6908       L1    19  0.45

> <Gold.Chemscore.Hbond.Weighted>
-7.8026

> <Gold.Chemscore.Metal.Weighted>
-0.0000

> <Gold.Chemscore.Lipo.Weighted>
-12.3382

> <Gold.Chemscore.Internal_Hbond.Weighted>
0.0000

> <Gold.Chemscore.DEClash.Weighted>
0.0115

> <Gold.Chemscore.DEInternal.Weighted>
2.4845

> <Gold.Chemscore.Rot.Weighted>
6.2861

> <Gold.Chemscore.Internal.Correction.Weighted>
   9.000000E+99

> <Gold.Protein.RotatedTorsions>
[ 6907 6896 6895 6894 ] final  142.27 input  -60.11 | X-H torsion
[ 7974 7965 7964 7962 ] final    3.99 input  175.53 | X-H torsion
[ 8008 7997 7996 7995 ] final   57.10 input   59.86 | X-H torsion
[ 10167 10162 10161 10158 ] final -121.09 input  -65.29 | X-H torsion
[ 10718 10713 10712 10709 ] final   77.28 input   66.30 | X-H torsion
[ 10763 10752 10751 10750 ] final -104.73 input  -60.55 | X-H torsion
[ 11005 11000 10999 10996 ] final   11.63 input  -57.11 | X-H torsion

> <Gold.Protein.ActiveResidues>
 VAL166  LYS551  ARG553  GLY616  TRP617  ASP618  TYR619  PRO620  LYS621  CYS622 
 ASP623  PHE694  ASN695  SER759  ASP760  ASP761  ALA762  ILE779  LEU786  VAL792 
 PHE793  MET794  SER795  GLU796  ALA797  LYS798  CYS799  TRP800  GLU811  SER814 

> <Gold.Protein.RotatedAtoms>
  152.2208  133.4982  159.5161 H   0  0  0  0  0  0  0  0  0  0  0  0  # atno 6907 bound_to 6896
  150.7012  134.1345  159.4091 H   0  0  0  0  0  0  0  0  0  0  0  0  # atno 6908 bound_to 6896
  151.9266  135.0275  160.0577 H   0  0  0  0  0  0  0  0  0  0  0  0  # atno 6909 bound_to 6896
  146.2444  140.0603  142.8369 H   0  0  0  0  0  0  0  0  0  0  0  0  # atno 7974 bound_to 7965
  155.5283  140.3481  155.4421 H   0  0  0  0  0  0  0  0  0  0  0  0  # atno 8008 bound_to 7997
  156.0736  140.1369  156.9825 H   0  0  0  0  0  0  0  0  0  0  0  0  # atno 8009 bound_to 7997
  154.4541  140.0960  156.6681 H   0  0  0  0  0  0  0  0  0  0  0  0  # atno 8010 bound_to 7997
  140.0288  143.5269  152.2186 H   0  0  0  0  0  0  0  0  0  0  0  0  # atno 10167 bound_to 10162
  157.6704  130.9814  150.1618 H   0  0  0  0  0  0  0  0  0  0  0  0  # atno 10718 bound_to 10713
  154.7898  135.4775  154.0027 H   0  0  0  0  0  0  0  0  0  0  0  0  # atno 10763 bound_to 10752
  153.1614  135.6809  153.8744 H   0  0  0  0  0  0  0  0  0  0  0  0  # atno 10764 bound_to 10752
  153.8357  135.3186  155.3400 H   0  0  0  0  0  0  0  0  0  0  0  0  # atno 10765 bound_to 10752
  140.5010  134.0745  155.7794 H   0  0  0  0  0  0  0  0  0  0  0  0  # atno 11005 bound_to 11000
  145.0906  140.9282  143.4771 LP  0  0  0  0  0  0  0  0  0  0  0  0  # atno 17320 bound_to 7965
  145.0775  139.2985  143.5801 LP  0  0  0  0  0  0  0  0  0  0  0  0  # atno 17321 bound_to 7965
  139.6090  144.7604  151.2995 LP  0  0  0  0  0  0  0  0  0  0  0  0  # atno 17342 bound_to 10162
  140.7311  143.6861  150.7960 LP  0  0  0  0  0  0  0  0  0  0  0  0  # atno 17343 bound_to 10162
  156.2393  130.3689  149.8356 LP  0  0  0  0  0  0  0  0  0  0  0  0  # atno 17370 bound_to 10713
  156.6160  130.8606  151.3465 LP  0  0  0  0  0  0  0  0  0  0  0  0  # atno 17371 bound_to 10713
  141.1435  133.9096  157.2270 LP  0  0  0  0  0  0  0  0  0  0  0  0  # atno 17394 bound_to 11000
  139.9713  135.0127  156.9519 LP  0  0  0  0  0  0  0  0  0  0  0  0  # atno 17395 bound_to 11000

$$$$
