AV-unprocessed.smi:2343|AV-procd|sdf|9356|dock4
  -GOLD-   2272012573D 1   1.00000     0.00000
 Structure written by MMmdl.
 34 35  0  0  0  0  0  0  0  0  1 V2000
  151.1144  141.1719  156.5112 O   0  0  0  0  0  0  0  0  0  0  0  0
  150.4434  142.1738  156.2642 C   0  0  0  0  0  0  0  0  0  0  0  0
  150.7249  143.3893  156.7551 N   0  0  0  0  0  0  0  0  0  0  0  0
  151.8349  143.6955  157.6496 C   0  0  0  0  0  0  0  0  0  0  0  0
  151.3390  144.2382  159.0002 C   0  0  0  0  0  0  0  0  0  0  0  0
  151.9921  143.5430  160.1785 C   0  0  0  0  0  0  0  0  0  0  0  0
  151.8718  143.8758  161.4630 C   0  0  0  0  0  0  0  0  0  0  0  0
  152.6648  142.9776  162.3718 C   0  0  0  0  0  0  0  0  0  0  0  0
  153.3625  141.9919  161.4078 C   0  0  0  0  0  0  0  0  0  0  0  0
  152.9004  142.3570  159.9790 C   0  0  0  0  0  0  0  0  0  0  0  0
  149.3598  142.2125  155.4696 N   0  0  0  0  0  0  0  0  0  0  0  0
  148.7114  141.1493  154.7824 C   0  0  0  0  0  0  0  0  0  0  0  0
  149.1857  139.8153  154.7436 C   0  0  0  0  0  0  0  0  0  0  0  0
  148.4346  138.8522  154.0400 C   0  0  0  0  0  0  0  0  0  0  0  0
  147.2774  139.1299  153.4030 N   0  0  0  0  0  0  0  0  0  0  0  0
  146.8222  140.3995  153.4521 C   0  0  0  0  0  0  0  0  0  0  0  0
  147.4952  141.4375  154.1272 C   0  0  0  0  0  0  0  0  0  0  0  0
  146.9788  142.6904  154.1416 F   0  0  0  0  0  0  0  0  0  0  0  0
  150.1256  144.1591  156.4952 H   0  0  0  0  0  0  0  0  0  0  0  0
  152.4021  142.7777  157.8061 H   0  0  0  0  0  0  0  0  0  0  0  0
  152.5148  144.4027  157.1718 H   0  0  0  0  0  0  0  0  0  0  0  0
  151.5355  145.3082  159.0777 H   0  0  0  0  0  0  0  0  0  0  0  0
  150.2579  144.1123  159.0731 H   0  0  0  0  0  0  0  0  0  0  0  0
  151.2771  144.6937  161.8423 H   0  0  0  0  0  0  0  0  0  0  0  0
  153.3849  143.5602  162.9469 H   0  0  0  0  0  0  0  0  0  0  0  0
  151.9988  142.4627  163.0648 H   0  0  0  0  0  0  0  0  0  0  0  0
  154.4465  142.0767  161.4925 H   0  0  0  0  0  0  0  0  0  0  0  0
  153.0993  140.9615  161.6492 H   0  0  0  0  0  0  0  0  0  0  0  0
  152.3592  141.5332  159.5130 H   0  0  0  0  0  0  0  0  0  0  0  0
  153.7416  142.6258  159.3395 H   0  0  0  0  0  0  0  0  0  0  0  0
  148.9668  143.1278  155.3049 H   0  0  0  0  0  0  0  0  0  0  0  0
  150.0918  139.5078  155.2412 H   0  0  0  0  0  0  0  0  0  0  0  0
  148.7708  137.8269  153.9939 H   0  0  0  0  0  0  0  0  0  0  0  0
  145.8916  140.5943  152.9396 H   0  0  0  0  0  0  0  0  0  0  0  0
  1  2  2  0  0  0  0
  2  3  1  0  0  0  0
  2 11  1  0  0  0  0
  3  4  1  0  0  0  0
  3 19  1  0  0  0  0
  4  5  1  0  0  0  0
  4 20  1  0  0  0  0
  4 21  1  0  0  0  0
  5  6  1  0  0  0  0
  5 22  1  0  0  0  0
  5 23  1  0  0  0  0
  6 10  1  0  0  0  0
  6  7  2  0  0  0  0
  7  8  1  0  0  0  0
  7 24  1  0  0  0  0
  8  9  1  0  0  0  0
  8 25  1  0  0  0  0
  8 26  1  0  0  0  0
  9 10  1  0  0  0  0
  9 27  1  0  0  0  0
  9 28  1  0  0  0  0
 10 29  1  0  0  0  0
 10 30  1  0  0  0  0
 11 12  1  0  0  0  0
 11 31  1  0  0  0  0
 12 17  1  0  0  0  0
 12 13  2  0  0  0  0
 13 14  1  0  0  0  0
 13 32  1  0  0  0  0
 14 15  2  0  0  0  0
 14 33  1  0  0  0  0
 15 16  1  0  0  0  0
 16 17  2  0  0  0  0
 16 34  1  0  0  0  0
 17 18  1  0  0  0  0
M  END
> <s_m_source_file>
AV-unprocessed.smi

> <i_m_source_file_index>
2343

> <i_lp_mmshare_version>
43012

> <i_f3d_flags>
0

> <s_epik_input>
RmMxW2NIXW5bY0hdW2NIXWMxW05IXUMoPU8pW05IXVtDSDJdW0NIMl1DMj1bQ0hdW0NIMl1bQ0gyXVtDSDJdMg==

> <s_epik_cmdline>
J2VwaWtfcHl0aG9uJywgJy1waCcsICc3LjAnLCAnLXRuJywgJzgnLCAnLW1hJywgJzIwMCcsICctbWV0YWxfYmluZGluZycsICctaW1hZScsICc8aW5maWxlLm1hZT4nLCAnLW9tYWUnLCAnPG91dGZpbGUubWFlPic=

> <r_epik_Ionization_Penalty>
0.0031801

> <r_epik_Ionization_Penalty_Charging>
0

> <r_epik_Ionization_Penalty_Neutral>
0.0031801

> <r_epik_State_Penalty>
0.0022135

> <r_epik_Charging_Adjusted_Penalty>
0.0022135

> <i_epik_Tot_Q>
0

> <i_epik_Tot_abs_Q>
0

> <r_epik_Metal_State_Penalty>
-0

> <b_epik_Metal_Only>
0

> <s_lp_Force_Field>
OPLS_2005

> <r_lp_Energy>
22.6316

> <b_lp_Chiralities_Consistent>
1

> <s_lp_Variant>
AV-unprocessed.smi:2343-1

> <Gold.Version>
5.8.1

> <Gold.Id.Protein>
6NUR|6NUR_protein|mol2

> <Gold.PLP.Fitness>
57.6996

> <Gold.PLP.PLP>
-46.5344

> <Gold.PLP.part.hbond>
-2.0000

> <Gold.PLP.part.metal>
0.0000

> <Gold.PLP.part.buried>
-2.6300

> <Gold.PLP.part.nonpolar>
-42.0073

> <Gold.PLP.part.repulsive>
1.3806

> <Gold.PLP.ligand.clash>
0.0000

> <Gold.PLP.ligand.torsion>
0.3972

> <Gold.PLP.Chemscore.Hbond>
2.0000

> <Gold.PLP.Chemscore.CHOScore>
1.9858

> <Gold.PLP.Chemscore.Metal>
0.0000

> <Gold.Chemscore.Hbonds>
donor molecule, donor type, donor heavy atom, donor atom, acceptor molecule, acceptor atom, score
      L1  H     3    19       P1  8028  1.00
      L1  H    11    31       P1  8028  1.00
      L1  C    14    33       P1  7948  0.67
      L1  C    16    34       P1 10175  1.00

> <Gold.PLP.Chemscore.Internal.Correction>
0.0021

> <Gold.Rescore>
     Score         DG    S(hbond)    S(metal)    S(lipo)     H(rot)  DE(clash)    DE(int)     intcor
     19.89     -21.64       1.88        0.00     115.73       1.43       0.21       1.54       ----

> <Gold.Chemscore.Fitness>
19.8881

> <Gold.Chemscore.DG>
-21.6433

> <Gold.Chemscore.ZeroCoef>
-5.4800

> <Gold.Chemscore.Hbond>
1.8801

> <Gold.Chemscore.Metal>
0.0000

> <Gold.Chemscore.Lipo>
115.7269

> <Gold.Chemscore.Internal_Hbond>
0.0000

> <Gold.Chemscore.DEClash>
0.2144

> <Gold.Chemscore.DEInternal>
1.5408

> <Gold.Chemscore.Rot>
1.4282

> <Gold.Chemscore.Internal.Correction>
   9.000000E+99

> <Gold.Chemscore.Hbonds>
donor molecule, donor type, donor heavy atom, donor atom, acceptor molecule, acceptor atom, score
      L1  H     3    19       P1  8028  0.93
      L1  H    11    31       P1  8028  0.95

> <Gold.Chemscore.Hbond.Weighted>
-6.2795

> <Gold.Chemscore.Metal.Weighted>
-0.0000

> <Gold.Chemscore.Lipo.Weighted>
-13.5401

> <Gold.Chemscore.Internal_Hbond.Weighted>
0.0000

> <Gold.Chemscore.DEClash.Weighted>
0.2144

> <Gold.Chemscore.DEInternal.Weighted>
1.5408

> <Gold.Chemscore.Rot.Weighted>
3.6563

> <Gold.Chemscore.Internal.Correction.Weighted>
   9.000000E+99

> <Gold.Protein.RotatedTorsions>
[ 6907 6896 6895 6894 ] final  -48.79 input  -60.11 | X-H torsion
[ 7974 7965 7964 7962 ] final   67.33 input  175.53 | X-H torsion
[ 8008 7997 7996 7995 ] final -163.15 input   59.86 | X-H torsion
[ 10167 10162 10161 10158 ] final   71.92 input  -65.29 | X-H torsion
[ 10718 10713 10712 10709 ] final  167.39 input   66.30 | X-H torsion
[ 10763 10752 10751 10750 ] final    1.66 input  -60.55 | X-H torsion
[ 11005 11000 10999 10996 ] final    2.05 input  -57.11 | X-H torsion

> <Gold.Protein.ActiveResidues>
 VAL166  LYS551  ARG553  GLY616  TRP617  ASP618  TYR619  PRO620  LYS621  CYS622 
 ASP623  PHE694  ASN695  SER759  ASP760  ASP761  ALA762  ILE779  LEU786  VAL792 
 PHE793  MET794  SER795  GLU796  ALA797  LYS798  CYS799  TRP800  GLU811  SER814 

> <Gold.Protein.RotatedAtoms>
  150.8870  134.8269  159.7265 H   0  0  0  0  0  0  0  0  0  0  0  0  # atno 6907 bound_to 6896
  152.4814  134.4707  159.9644 H   0  0  0  0  0  0  0  0  0  0  0  0  # atno 6908 bound_to 6896
  151.4774  133.3515  159.2868 H   0  0  0  0  0  0  0  0  0  0  0  0  # atno 6909 bound_to 6896
  145.8160  139.3058  143.1071 H   0  0  0  0  0  0  0  0  0  0  0  0  # atno 7974 bound_to 7965
  155.8171  140.0914  157.1870 H   0  0  0  0  0  0  0  0  0  0  0  0  # atno 8008 bound_to 7997
  154.3979  140.1443  156.3516 H   0  0  0  0  0  0  0  0  0  0  0  0  # atno 8009 bound_to 7997
  155.8305  140.3443  155.5571 H   0  0  0  0  0  0  0  0  0  0  0  0  # atno 8010 bound_to 7997
  140.0408  144.5391  150.7435 H   0  0  0  0  0  0  0  0  0  0  0  0  # atno 10167 bound_to 10162
  157.0523  131.0317  151.2676 H   0  0  0  0  0  0  0  0  0  0  0  0  # atno 10718 bound_to 10713
  153.3052  135.6959  153.7166 H   0  0  0  0  0  0  0  0  0  0  0  0  # atno 10763 bound_to 10752
  153.6064  135.3452  155.2964 H   0  0  0  0  0  0  0  0  0  0  0  0  # atno 10764 bound_to 10752
  154.8561  135.4353  154.2175 H   0  0  0  0  0  0  0  0  0  0  0  0  # atno 10765 bound_to 10752
  140.6086  133.9769  155.8166 H   0  0  0  0  0  0  0  0  0  0  0  0  # atno 11005 bound_to 11000
  145.9726  140.8747  143.0154 LP  0  0  0  0  0  0  0  0  0  0  0  0  # atno 17320 bound_to 7965
  144.6752  140.1968  143.7391 LP  0  0  0  0  0  0  0  0  0  0  0  0  # atno 17321 bound_to 7965
  140.7261  143.2637  151.4116 LP  0  0  0  0  0  0  0  0  0  0  0  0  # atno 17342 bound_to 10162
  139.6015  144.1286  152.2203 LP  0  0  0  0  0  0  0  0  0  0  0  0  # atno 17343 bound_to 10162
  157.5021  130.7886  149.7615 LP  0  0  0  0  0  0  0  0  0  0  0  0  # atno 17370 bound_to 10713
  156.0004  130.3883  150.2629 LP  0  0  0  0  0  0  0  0  0  0  0  0  # atno 17371 bound_to 10713
  141.0824  134.0043  157.3366 LP  0  0  0  0  0  0  0  0  0  0  0  0  # atno 17394 bound_to 11000
  139.9202  135.0200  156.8034 LP  0  0  0  0  0  0  0  0  0  0  0  0  # atno 17395 bound_to 11000

$$$$
