#       Name:                AV-unprocessed.smi:2261
#       Creating user name   scv26
#       Creation time:       Fri Mar 27 12:34:21 2020


#       File generated by GOLD software.
#

@<TRIPOS>MOLECULE
AV-unprocessed.smi:2261
    46    47     1
SMALL
NO_CHARGES


@<TRIPOS>ATOM
      1 ****        -3.8848   0.8518  -1.6594 C.3            1 S1                 0.0000
      2 ****        -2.8501  -0.2593  -1.4118 C.3            1 S1                 0.0000
      3 ****        -3.3441  -1.6055  -1.9633 C.3            1 S1                 0.0000
      4 ****        -1.4649   0.1175  -1.9527 C.3            1 S1                 0.0000
      5 ****        -0.8112   0.8032  -0.7701 C.3            1 S1                 0.0000
      6 ****         0.6457   0.7530  -0.8536 N.am           1 S1                 0.0000
      7 ****         1.4842   1.6580  -0.3270 C.2            1 S1                 0.0000
      8 ****         1.1121   2.6921   0.2265 O.2            1 S1                 0.0000
      9 ****         2.9742   1.3309  -0.4166 C.3            1 S1                 0.0000
     10 ****         3.3338   0.2816   0.6202 C.ar           1 S1                 0.0000
     11 ****         3.6821   0.6539   1.9352 C.ar           1 S1                 0.0000
     12 ****         3.9875  -0.3561   2.8675 C.ar           1 S1                 0.0000
     13 ****         3.9311  -1.6990   2.4442 C.ar           1 S1                 0.0000
     14 ****         3.6003  -2.0674   1.1878 N.ar           1 S1                 0.0000
     15 ****         3.3115  -1.0928   0.2993 C.ar           1 S1                 0.0000
     16 ****        -1.3864   0.0175   0.4279 C.3            1 S1                 0.0000
     17 ****        -0.6193  -1.2789   0.7674 C.3            1 S1                 0.0000
     18 ****        -1.5416   0.8953   1.6795 C.3            1 S1                 0.0000
     19 ****        -2.6887  -0.3796   0.0013 O.3            1 S1                 0.0000
     20 ****        -4.0469   1.0097  -2.7259 H              1 S1                 0.0000
     21 ****        -3.5637   1.8004  -1.2285 H              1 S1                 0.0000
     22 ****        -4.8465   0.5995  -1.2118 H              1 S1                 0.0000
     23 ****        -3.4570  -1.5697  -3.0472 H              1 S1                 0.0000
     24 ****        -4.3102  -1.8752  -1.5361 H              1 S1                 0.0000
     25 ****        -2.6461  -2.4092  -1.7270 H              1 S1                 0.0000
     26 ****        -0.9049  -0.7804  -2.2196 H              1 S1                 0.0000
     27 ****        -1.5069   0.7508  -2.8397 H              1 S1                 0.0000
     28 ****        -1.1593   1.8378  -0.7441 H              1 S1                 0.0000
     29 ****         1.0467  -0.0645  -1.2895 H              1 S1                 0.0000
     30 ****         3.2179   0.9705  -1.4171 H              1 S1                 0.0000
     31 ****         3.5643   2.2334  -0.2511 H              1 S1                 0.0000
     32 ****         3.7089   1.6939   2.2263 H              1 S1                 0.0000
     33 ****         4.2558  -0.1079   3.8838 H              1 S1                 0.0000
     34 ****         4.1577  -2.4990   3.1334 H              1 S1                 0.0000
     35 ****         3.0426  -1.4207  -0.6941 H              1 S1                 0.0000
     36 ****         0.3764  -1.0667   1.1576 H              1 S1                 0.0000
     37 ****        -0.5046  -1.9220  -0.1052 H              1 S1                 0.0000
     38 ****        -1.1470  -1.8553   1.5277 H              1 S1                 0.0000
     39 ****        -0.5721   1.2288   2.0505 H              1 S1                 0.0000
     40 ****        -2.0340   0.3490   2.4843 H              1 S1                 0.0000
     41 ****        -2.1407   1.7818   1.4700 H              1 S1                 0.0000
     42 ****         0.1358   2.8951   0.3025 LP             1 S1                 0.0000
     43 ****         1.7859   3.3294   0.6004 LP             1 S1                 0.0000
     44 ****         3.5702  -3.0315   0.9240 LP             1 S1                 0.0000
     45 ****        -2.8370  -1.3334   0.2629 LP             1 S1                 0.0000
     46 ****        -3.3669   0.1994   0.4539 LP             1 S1                 0.0000
@<TRIPOS>BOND
    1    1    2 1     
    2    1   20 1     
    3    1   21 1     
    4    1   22 1     
    5    2   19 1     
    6    2    3 1     
    7    2    4 1     
    8    3   23 1     
    9    3   24 1     
   10    3   25 1     
   11    4    5 1     
   12    4   26 1     
   13    4   27 1     
   14    5    6 1     
   15    5   16 1     
   16    5   28 1     
   17    6    7 am    
   18    6   29 1     
   19    7    8 2     
   20    7    9 1     
   21    9   10 1     
   22    9   30 1     
   23    9   31 1     
   24   10   15 ar    
   25   10   11 ar    
   26   11   12 ar    
   27   11   32 1     
   28   12   13 ar    
   29   12   33 1     
   30   13   14 ar    
   31   13   34 1     
   32   14   15 ar    
   33   15   35 1     
   34   16   17 1     
   35   16   18 1     
   36   16   19 1     
   37   17   36 1     
   38   17   37 1     
   39   17   38 1     
   40   18   39 1     
   41   18   40 1     
   42   18   41 1     
   43    8   42 1     
   44    8   43 1     
   45   14   44 1     
   46   19   45 1     
   47   19   46 1     
@<TRIPOS>SUBSTRUCTURE
      1 S1             1
@<TRIPOS>SET
LONE_PAIRS      STATIC     ATOMS    <user>   **** ""
5 42 43 44 45 46
DONOR_HYDROGENS      STATIC     ATOMS    <user>   **** ""
1 29
ATOM$BLUE        STATIC     ATOMS    COLORGROUP SYSTEM
5 42 43 44 45 46
ATOM$RED        STATIC     ATOMS    COLORGROUP SYSTEM
1 29
