#       Name:                AV-unprocessed.smi:1624
#       Creating user name   scv26
#       Creation time:       Fri Mar 27 07:17:07 2020


#       File generated by GOLD software.
#

@<TRIPOS>MOLECULE
AV-unprocessed.smi:1624
    42    43     1
SMALL
NO_CHARGES


@<TRIPOS>ATOM
      1 ****        -2.1689   1.6792   0.3254 O.2            1 S1                 0.0000
      2 ****        -2.6667   0.5594   0.4470 C.2            1 S1                 0.0000
      3 ****        -1.9431  -0.5670   0.5179 N.am           1 S1                 0.0000
      4 ****        -0.4881  -0.6300   0.4658 C.3            1 S1                 0.0000
      5 ****         0.0331  -0.5294  -0.9798 C.3            1 S1                 0.0000
      6 ****         1.4978  -0.6169  -1.0188 N.am           1 S1                 0.0000
      7 ****         2.2251   0.6625  -1.0640 C.3            1 S1                 0.0000
      8 ****         2.9778   0.9968   0.2453 C.3            1 S1                 0.0000
      9 ****         3.4747  -0.2041   1.0744 C.3            1 S1                 0.0000
     10 ****         4.3147  -1.2347   0.2912 C.3            1 S1                 0.0000
     11 ****         3.6752  -1.8121  -0.9942 C.3            1 S1                 0.0000
     12 ****         2.1380  -1.8118  -0.9903 C.2            1 S1                 0.0000
     13 ****         1.5455  -2.8906  -0.9532 O.2            1 S1                 0.0000
     14 ****        -3.9828   0.2962   0.5258 N.am           1 S1                 0.0000
     15 ****        -5.0685   1.2106   0.4887 C.2            1 S1                 0.0000
     16 ****        -4.9214   2.5364   0.3402 N.2            1 S1                 0.0000
     17 ****        -6.1432   3.1972   0.3353 N.2            1 S1                 0.0000
     18 ****        -7.1619   2.3449   0.4798 C.2            1 S1                 0.0000
     19 ****        -6.7284   0.6515   0.6356 S.3            1 S1                 0.0000
     20 ****        -2.4321  -1.4445   0.6171 H              1 S1                 0.0000
     21 ****        -0.0578   0.1603   1.0836 H              1 S1                 0.0000
     22 ****        -0.1792  -1.5745   0.9141 H              1 S1                 0.0000
     23 ****        -0.4059  -1.3206  -1.5901 H              1 S1                 0.0000
     24 ****        -0.3078   0.3999  -1.4375 H              1 S1                 0.0000
     25 ****         2.9257   0.6465  -1.8990 H              1 S1                 0.0000
     26 ****         1.5554   1.4904  -1.2985 H              1 S1                 0.0000
     27 ****         3.8175   1.6515   0.0105 H              1 S1                 0.0000
     28 ****         2.3164   1.5853   0.8821 H              1 S1                 0.0000
     29 ****         4.0650   0.1683   1.9120 H              1 S1                 0.0000
     30 ****         2.6208  -0.7042   1.5338 H              1 S1                 0.0000
     31 ****         5.2726  -0.7843   0.0290 H              1 S1                 0.0000
     32 ****         4.5548  -2.0590   0.9637 H              1 S1                 0.0000
     33 ****         4.0267  -1.2634  -1.8676 H              1 S1                 0.0000
     34 ****         4.0323  -2.8318  -1.1443 H              1 S1                 0.0000
     35 ****        -4.2391  -0.6747   0.6263 H              1 S1                 0.0000
     36 ****        -8.1759   2.7157   0.4943 H              1 S1                 0.0000
     37 ****        -1.1754   1.7819   0.2744 LP             1 S1                 0.0000
     38 ****        -2.7580   2.4858   0.2776 LP             1 S1                 0.0000
     39 ****         0.5458  -2.9119  -0.9429 LP             1 S1                 0.0000
     40 ****         2.0641  -3.7454  -0.9334 LP             1 S1                 0.0000
     41 ****        -4.0374   2.9940   0.2444 LP             1 S1                 0.0000
     42 ****        -6.2472   4.1868   0.2360 LP             1 S1                 0.0000
@<TRIPOS>BOND
    1    1    2 2     
    2    2    3 am    
    3    2   14 am    
    4    3    4 1     
    5    3   20 1     
    6    4    5 1     
    7    4   21 1     
    8    4   22 1     
    9    5    6 1     
   10    5   23 1     
   11    5   24 1     
   12    6   12 am    
   13    6    7 1     
   14    7    8 1     
   15    7   25 1     
   16    7   26 1     
   17    8    9 1     
   18    8   27 1     
   19    8   28 1     
   20    9   10 1     
   21    9   29 1     
   22    9   30 1     
   23   10   11 1     
   24   10   31 1     
   25   10   32 1     
   26   11   12 1     
   27   11   33 1     
   28   11   34 1     
   29   12   13 2     
   30   14   15 1     
   31   14   35 1     
   32   15   19 1     
   33   15   16 2     
   34   16   17 1     
   35   17   18 2     
   36   18   19 1     
   37   18   36 1     
   38    1   37 1     
   39    1   38 1     
   40   13   39 1     
   41   13   40 1     
   42   16   41 1     
   43   17   42 1     
@<TRIPOS>SUBSTRUCTURE
      1 S1             1
@<TRIPOS>SET
LONE_PAIRS      STATIC     ATOMS    <user>   **** ""
6 37 38 39 40 41 42
DONOR_HYDROGENS      STATIC     ATOMS    <user>   **** ""
2 20 35
ATOM$BLUE        STATIC     ATOMS    COLORGROUP SYSTEM
6 37 38 39 40 41 42
ATOM$RED        STATIC     ATOMS    COLORGROUP SYSTEM
2 20 35
