AV-unprocessed.smi:2583|AV-procd|sdf|10137|dock3
  -GOLD-   2272014153D 1   1.00000     0.00000
 Structure written by MMmdl.
 55 57  0  0  0  0  0  0  0  0  3 V2000
  153.5901  141.5056  160.0377 C   0  0  0  0  0  0  0  0  0  0  0  0
  152.8161  142.3626  159.0580 C   0  0  0  0  0  0  0  0  0  0  0  0
  153.1687  143.7092  158.8324 C   0  0  0  0  0  0  0  0  0  0  0  0
  152.5204  144.5078  157.9586 N   0  0  0  0  0  0  0  0  0  0  0  0
  151.4798  143.9846  157.2762 C   0  0  0  0  0  0  0  0  0  0  0  0
  151.0286  142.6572  157.4345 C   0  0  0  0  0  0  0  0  0  0  0  0
  149.9315  142.2224  156.6435 N   0  0  0  0  0  0  0  0  0  0  0  0
  149.3469  141.0122  156.6339 C   0  0  0  0  0  0  0  0  0  0  0  0
  149.6539  140.0693  157.3632 O   0  0  0  0  0  0  0  0  0  0  0  0
  148.3510  140.9573  155.7373 N   0  0  0  0  0  0  0  0  0  0  0  0
  147.5037  139.7917  155.5008 C   0  0  2  0  0  0  0  0  0  0  0  0
  147.6186  139.3380  154.0406 C   0  0  0  0  0  0  0  0  0  0  0  0
  146.6793  138.1550  153.7452 C   0  0  0  0  0  0  0  0  0  0  0  0
  145.2572  138.4795  154.0644 N   0  3  1  0  0  0  0  0  0  0  0  0
  144.2593  137.4132  153.7100 C   0  0  2  0  0  0  0  0  0  0  0  0
  144.5130  136.0208  154.3419 C   0  0  0  0  0  0  0  0  0  0  0  0
  145.7437  135.3149  153.7414 C   0  0  0  0  0  0  0  0  0  0  0  0
  145.6143  135.1800  152.2701 N   0  3  2  0  0  0  0  0  0  0  0  0
  146.7365  134.4248  151.6722 C   0  0  0  0  0  0  0  0  0  0  0  0
  145.3956  136.4894  151.6077 C   0  0  0  0  0  0  0  0  0  0  0  0
  144.1551  137.2004  152.1803 C   0  0  0  0  0  0  0  0  0  0  0  0
  145.1317  138.9106  155.4879 C   0  0  0  0  0  0  0  0  0  0  0  0
  146.0336  140.1128  155.8072 C   0  0  0  0  0  0  0  0  0  0  0  0
  151.7271  141.8257  158.3424 C   0  0  0  0  0  0  0  0  0  0  0  0
  154.2739  142.1079  160.6365 H   0  0  0  0  0  0  0  0  0  0  0  0
  154.1728  140.7555  159.5024 H   0  0  0  0  0  0  0  0  0  0  0  0
  152.9073  140.9917  160.7148 H   0  0  0  0  0  0  0  0  0  0  0  0
  153.9972  144.1583  159.3600 H   0  0  0  0  0  0  0  0  0  0  0  0
  150.9871  144.6518  156.5840 H   0  0  0  0  0  0  0  0  0  0  0  0
  149.5073  142.9310  156.0630 H   0  0  0  0  0  0  0  0  0  0  0  0
  148.1661  141.7800  155.1817 H   0  0  0  0  0  0  0  0  0  0  0  0
  147.8336  138.9707  156.1408 H   0  0  0  0  0  0  0  0  0  0  0  0
  147.3779  140.1670  153.3732 H   0  0  0  0  0  0  0  0  0  0  0  0
  148.6479  139.0529  153.8190 H   0  0  0  0  0  0  0  0  0  0  0  0
  146.8012  137.9203  152.6896 H   0  0  0  0  0  0  0  0  0  0  0  0
  146.9892  137.2743  154.3100 H   0  0  0  0  0  0  0  0  0  0  0  0
  143.2905  137.7540  154.0793 H   0  0  0  0  0  0  0  0  0  0  0  0
  144.5763  136.0658  155.4286 H   0  0  0  0  0  0  0  0  0  0  0  0
  143.6397  135.3949  154.1508 H   0  0  0  0  0  0  0  0  0  0  0  0
  146.6568  135.8626  153.9781 H   0  0  0  0  0  0  0  0  0  0  0  0
  145.8456  134.3244  154.1868 H   0  0  0  0  0  0  0  0  0  0  0  0
  147.6813  134.9531  151.8075 H   0  0  0  0  0  0  0  0  0  0  0  0
  146.5762  134.2781  150.6036 H   0  0  0  0  0  0  0  0  0  0  0  0
  146.8264  133.4401  152.1320 H   0  0  0  0  0  0  0  0  0  0  0  0
  146.2810  137.1157  151.7275 H   0  0  0  0  0  0  0  0  0  0  0  0
  145.2616  136.3338  150.5366 H   0  0  0  0  0  0  0  0  0  0  0  0
  143.2771  136.5878  151.9698 H   0  0  0  0  0  0  0  0  0  0  0  0
  143.9833  138.1312  151.6435 H   0  0  0  0  0  0  0  0  0  0  0  0
  144.1074  139.1884  155.7271 H   0  0  0  0  0  0  0  0  0  0  0  0
  145.3859  138.0757  156.1432 H   0  0  0  0  0  0  0  0  0  0  0  0
  145.9198  140.3849  156.8575 H   0  0  0  0  0  0  0  0  0  0  0  0
  145.7092  140.9779  155.2265 H   0  0  0  0  0  0  0  0  0  0  0  0
  151.4585  140.7907  158.4886 H   0  0  0  0  0  0  0  0  0  0  0  0
  145.0275  139.2824  153.4966 H   0  0  0  0  0  0  0  0  0  0  0  0
  144.7829  134.6304  152.1032 H   0  0  0  0  0  0  0  0  0  0  0  0
  1  2  1  0  0  0  0
  1 25  1  0  0  0  0
  1 26  1  0  0  0  0
  1 27  1  0  0  0  0
  2 24  1  0  0  0  0
  2  3  2  0  0  0  0
  3  4  1  0  0  0  0
  3 28  1  0  0  0  0
  4  5  2  0  0  0  0
  5  6  1  0  0  0  0
  5 29  1  0  0  0  0
  6  7  1  0  0  0  0
  6 24  2  0  0  0  0
  7  8  1  0  0  0  0
  7 30  1  0  0  0  0
  8  9  2  0  0  0  0
  8 10  1  0  0  0  0
 10 11  1  0  0  0  0
 10 31  1  0  0  0  0
 11 23  1  0  0  0  0
 11 12  1  0  0  0  0
 11 32  1  0  0  0  0
 12 13  1  0  0  0  0
 12 33  1  0  0  0  0
 12 34  1  0  0  0  0
 13 14  1  0  0  0  0
 13 35  1  0  0  0  0
 13 36  1  0  0  0  0
 14 15  1  0  0  0  0
 14 22  1  0  0  0  0
 14 54  1  0  0  0  0
 15 21  1  0  0  0  0
 15 16  1  0  0  0  0
 15 37  1  0  0  0  0
 16 17  1  0  0  0  0
 16 38  1  0  0  0  0
 16 39  1  0  0  0  0
 17 18  1  0  0  0  0
 17 40  1  0  0  0  0
 17 41  1  0  0  0  0
 18 19  1  0  0  0  0
 18 20  1  0  0  0  0
 18 55  1  0  0  0  0
 19 42  1  0  0  0  0
 19 43  1  0  0  0  0
 19 44  1  0  0  0  0
 20 21  1  0  0  0  0
 20 45  1  0  0  0  0
 20 46  1  0  0  0  0
 21 47  1  0  0  0  0
 21 48  1  0  0  0  0
 22 23  1  0  0  0  0
 22 49  1  0  0  0  0
 22 50  1  0  0  0  0
 23 51  1  0  0  0  0
 23 52  1  0  0  0  0
 24 53  1  0  0  0  0
M  CHG  1  14   1
M  CHG  1  18   1
M  END
> <s_m_source_file>
AV-unprocessed.smi

> <i_m_source_file_index>
2583

> <i_lp_mmshare_version>
43012

> <i_f3d_flags>
0

> <s_epik_input>
W0NIM11jMVtjSF1uW2NIXWMoW2NIXTEpW05IXUMoPU8pW05IXVtDSF0yW0NIMl1bQ0gyXU4oW0NIMl1bQ0gyXTIpW0NIXTNbQ0gyXVtDSDJdTihbQ0gzXSlbQ0gyXVtDSDJdMw==

> <s_epik_cmdline>
J2VwaWtfcHl0aG9uJywgJy1waCcsICc3LjAnLCAnLXRuJywgJzgnLCAnLW1hJywgJzIwMCcsICctbWV0YWxfYmluZGluZycsICctaW1hZScsICc8aW5maWxlLm1hZT4nLCAnLW9tYWUnLCAnPG91dGZpbGUubWFlPic=

> <r_epik_Ionization_Penalty>
0.188357

> <r_epik_Ionization_Penalty_Charging>
0.180787

> <r_epik_Ionization_Penalty_Neutral>
0.00756971

> <r_epik_State_Penalty>
0.157948

> <r_epik_Charging_Adjusted_Penalty>
0.338735

> <i_epik_Tot_Q>
2

> <i_epik_Tot_abs_Q>
2

> <r_epik_Metal_State_Penalty>
0.153874

> <b_epik_Metal_Only>
0

> <s_lp_Force_Field>
OPLS_2005

> <r_lp_Energy>
48.801

> <b_lp_Chiralities_Consistent>
1

> <s_lp_Variant>
AV-unprocessed.smi:2583-3

> <Gold.Version>
5.8.1

> <Gold.Id.Protein>
6NUR|6NUR_protein|mol2

> <Gold.PLP.Fitness>
42.3652

> <Gold.PLP.PLP>
-30.8868

> <Gold.PLP.part.hbond>
-2.0000

> <Gold.PLP.part.metal>
0.0000

> <Gold.PLP.part.buried>
-2.8671

> <Gold.PLP.part.nonpolar>
-26.4278

> <Gold.PLP.part.repulsive>
0.0768

> <Gold.PLP.ligand.clash>
0.3783

> <Gold.PLP.ligand.torsion>
0.0887

> <Gold.PLP.Chemscore.Hbond>
3.0000

> <Gold.PLP.Chemscore.CHOScore>
1.0000

> <Gold.PLP.Chemscore.Metal>
0.0000

> <Gold.Chemscore.Hbonds>
donor molecule, donor type, donor heavy atom, donor atom, acceptor molecule, acceptor atom, score
      L1  H     7    30       P1  8028  1.00
      L1  H    14    54       P1 10175  1.82
      L1  C     5    29       P1  8028  1.00

> <Gold.PLP.Chemscore.Internal.Correction>
0.0341

> <Gold.Rescore>
     Score         DG    S(hbond)    S(metal)    S(lipo)     H(rot)  DE(clash)    DE(int)     intcor
     16.14     -18.78       1.96        0.00      84.02       1.21       0.00       2.64       ----

> <Gold.Chemscore.Fitness>
16.1403

> <Gold.Chemscore.DG>
-18.7763

> <Gold.Chemscore.ZeroCoef>
-5.4800

> <Gold.Chemscore.Hbond>
1.9644

> <Gold.Chemscore.Metal>
0.0000

> <Gold.Chemscore.Lipo>
84.0224

> <Gold.Chemscore.Internal_Hbond>
0.0000

> <Gold.Chemscore.DEClash>
0.0000

> <Gold.Chemscore.DEInternal>
2.6360

> <Gold.Chemscore.Rot>
1.2092

> <Gold.Chemscore.Internal.Correction>
   9.000000E+99

> <Gold.Chemscore.Hbonds>
donor molecule, donor type, donor heavy atom, donor atom, acceptor molecule, acceptor atom, score
      L1  H     7    30       P1  8028  0.97
      L1  H    14    54       P1 10175  0.84

> <Gold.Chemscore.Hbond.Weighted>
-6.5612

> <Gold.Chemscore.Metal.Weighted>
-0.0000

> <Gold.Chemscore.Lipo.Weighted>
-9.8306

> <Gold.Chemscore.Internal_Hbond.Weighted>
0.0000

> <Gold.Chemscore.DEClash.Weighted>
0.0000

> <Gold.Chemscore.DEInternal.Weighted>
2.6360

> <Gold.Chemscore.Rot.Weighted>
3.0955

> <Gold.Chemscore.Internal.Correction.Weighted>
   9.000000E+99

> <Gold.Protein.RotatedTorsions>
[ 6907 6896 6895 6894 ] final   18.62 input  -60.11 | X-H torsion
[ 7974 7965 7964 7962 ] final  118.84 input  175.53 | X-H torsion
[ 8008 7997 7996 7995 ] final -158.95 input   59.86 | X-H torsion
[ 10167 10162 10161 10158 ] final   45.15 input  -65.29 | X-H torsion
[ 10718 10713 10712 10709 ] final  -72.21 input   66.30 | X-H torsion
[ 10763 10752 10751 10750 ] final   10.02 input  -60.55 | X-H torsion
[ 11005 11000 10999 10996 ] final  -74.41 input  -57.11 | X-H torsion

> <Gold.Protein.ActiveResidues>
 VAL166  LYS551  ARG553  GLY616  TRP617  ASP618  TYR619  PRO620  LYS621  CYS622 
 ASP623  PHE694  ASN695  SER759  ASP760  ASP761  ALA762  ILE779  LEU786  VAL792 
 PHE793  MET794  SER795  GLU796  ALA797  LYS798  CYS799  TRP800  GLU811  SER814 

> <Gold.Protein.RotatedAtoms>
  151.8682  135.0499  160.0476 H   0  0  0  0  0  0  0  0  0  0  0  0  # atno 6907 bound_to 6896
  152.2609  133.5292  159.5389 H   0  0  0  0  0  0  0  0  0  0  0  0  # atno 6908 bound_to 6896
  150.7116  134.0747  159.3919 H   0  0  0  0  0  0  0  0  0  0  0  0  # atno 6909 bound_to 6896
  145.1504  139.3214  143.4569 H   0  0  0  0  0  0  0  0  0  0  0  0  # atno 7974 bound_to 7965
  155.7552  140.0832  157.2182 H   0  0  0  0  0  0  0  0  0  0  0  0  # atno 8008 bound_to 7997
  154.4008  140.1553  156.2826 H   0  0  0  0  0  0  0  0  0  0  0  0  # atno 8009 bound_to 7997
  155.8892  140.3416  155.5946 H   0  0  0  0  0  0  0  0  0  0  0  0  # atno 8010 bound_to 7997
  140.3271  144.2634  150.6173 H   0  0  0  0  0  0  0  0  0  0  0  0  # atno 10167 bound_to 10162
  156.0330  130.4367  150.2559 H   0  0  0  0  0  0  0  0  0  0  0  0  # atno 10718 bound_to 10713
  153.2077  135.6865  153.8152 H   0  0  0  0  0  0  0  0  0  0  0  0  # atno 10763 bound_to 10752
  153.7396  135.3240  155.3302 H   0  0  0  0  0  0  0  0  0  0  0  0  # atno 10764 bound_to 10752
  154.8205  135.4655  154.0871 H   0  0  0  0  0  0  0  0  0  0  0  0  # atno 10765 bound_to 10752
  141.1634  133.6910  156.7360 H   0  0  0  0  0  0  0  0  0  0  0  0  # atno 11005 bound_to 11000
  146.3495  140.1576  142.8591 LP  0  0  0  0  0  0  0  0  0  0  0  0  # atno 17320 bound_to 7965
  145.0437  140.8965  143.5037 LP  0  0  0  0  0  0  0  0  0  0  0  0  # atno 17321 bound_to 7965
  140.5431  143.2220  151.8052 LP  0  0  0  0  0  0  0  0  0  0  0  0  # atno 17342 bound_to 10162
  139.4863  144.4575  151.9581 LP  0  0  0  0  0  0  0  0  0  0  0  0  # atno 17343 bound_to 10162
  157.0661  131.0103  151.3206 LP  0  0  0  0  0  0  0  0  0  0  0  0  # atno 17370 bound_to 10713
  157.5035  130.7894  149.7629 LP  0  0  0  0  0  0  0  0  0  0  0  0  # atno 17371 bound_to 10713
  140.2710  134.8392  157.3847 LP  0  0  0  0  0  0  0  0  0  0  0  0  # atno 17394 bound_to 11000
  140.1522  134.4835  155.7953 LP  0  0  0  0  0  0  0  0  0  0  0  0  # atno 17395 bound_to 11000

$$$$
