AV-unprocessed.smi:1007|AV-procd|sdf|4402|dock5
  -GOLD-   22720 2343D 1   1.00000     0.00000
 Structure written by MMmdl.
 57 59  0  0  0  0  0  0  0  0  3 V2000
  143.7220  132.8097  157.7040 C   0  0  0  0  0  0  0  0  0  0  0  0
  145.0614  132.6840  157.2527 O   0  0  0  0  0  0  0  0  0  0  0  0
  145.3627  133.4611  156.1024 C   0  0  0  0  0  0  0  0  0  0  0  0
  146.7882  133.1822  155.5895 C   0  0  0  0  0  0  0  0  0  0  0  0
  147.0987  133.7707  154.2831 N   0  0  0  0  0  0  0  0  0  0  0  0
  146.9188  135.2224  154.2618 C   0  0  0  0  0  0  0  0  0  0  0  0
  148.0090  135.9827  155.0447 C   0  0  0  0  0  0  0  0  0  0  0  0
  149.3520  135.6356  154.5147 N   0  3  0  0  0  0  0  0  0  0  0  0
  150.4415  136.4294  155.1347 C   0  0  0  0  0  0  0  0  0  0  0  0
  150.2681  137.9572  154.9644 C   0  0  2  0  0  0  0  0  0  0  0  0
  150.2800  138.2329  153.5802 O   0  0  0  0  0  0  0  0  0  0  0  0
  151.3748  138.8222  155.6098 C   0  0  0  0  0  0  0  0  0  0  0  0
  150.9402  140.1952  155.9090 N   0  0  0  0  0  0  0  0  0  0  0  0
  150.1035  141.0061  155.2053 C   0  0  0  0  0  0  0  0  0  0  0  0
  149.9953  142.1783  155.8889 N   0  3  0  0  0  0  0  0  0  0  0  0
  150.7815  142.1208  157.0411 C   0  0  0  0  0  0  0  0  0  0  0  0
  150.9841  143.0544  158.0500 C   0  0  0  0  0  0  0  0  0  0  0  0
  151.8472  142.6857  159.1060 C   0  0  0  0  0  0  0  0  0  0  0  0
  152.0794  143.6780  160.2325 C   0  0  0  0  0  0  0  0  0  0  0  0
  152.4836  141.4177  159.1195 C   0  0  0  0  0  0  0  0  0  0  0  0
  153.4084  141.0305  160.2608 C   0  0  0  0  0  0  0  0  0  0  0  0
  152.2697  140.4842  158.0803 C   0  0  0  0  0  0  0  0  0  0  0  0
  151.4056  140.8576  157.0528 C   0  0  0  0  0  0  0  0  0  0  0  0
  149.5664  134.1656  154.5510 C   0  0  0  0  0  0  0  0  0  0  0  0
  148.4374  133.4547  153.7778 C   0  0  0  0  0  0  0  0  0  0  0  0
  143.5928  132.2323  158.6193 H   0  0  0  0  0  0  0  0  0  0  0  0
  143.0101  132.4294  156.9718 H   0  0  0  0  0  0  0  0  0  0  0  0
  143.4745  133.8480  157.9277 H   0  0  0  0  0  0  0  0  0  0  0  0
  144.6115  133.2941  155.3297 H   0  0  0  0  0  0  0  0  0  0  0  0
  145.2857  134.5097  156.3910 H   0  0  0  0  0  0  0  0  0  0  0  0
  147.4826  133.5911  156.3246 H   0  0  0  0  0  0  0  0  0  0  0  0
  146.9708  132.1089  155.5746 H   0  0  0  0  0  0  0  0  0  0  0  0
  146.9255  135.5640  153.2261 H   0  0  0  0  0  0  0  0  0  0  0  0
  145.9334  135.4808  154.6512 H   0  0  0  0  0  0  0  0  0  0  0  0
  147.8395  137.0548  154.9405 H   0  0  0  0  0  0  0  0  0  0  0  0
  147.9580  135.7592  156.1111 H   0  0  0  0  0  0  0  0  0  0  0  0
  150.4888  136.2064  156.2018 H   0  0  0  0  0  0  0  0  0  0  0  0
  151.3932  136.1017  154.7126 H   0  0  0  0  0  0  0  0  0  0  0  0
  149.2939  138.2787  155.3314 H   0  0  0  0  0  0  0  0  0  0  0  0
  149.6399  137.6840  153.1524 H   0  0  0  0  0  0  0  0  0  0  0  0
  151.7743  138.3524  156.5081 H   0  0  0  0  0  0  0  0  0  0  0  0
  152.2162  138.9130  154.9211 H   0  0  0  0  0  0  0  0  0  0  0  0
  149.6089  140.7616  154.2759 H   0  0  0  0  0  0  0  0  0  0  0  0
  150.4982  144.0193  158.0318 H   0  0  0  0  0  0  0  0  0  0  0  0
  153.1294  143.9675  160.2766 H   0  0  0  0  0  0  0  0  0  0  0  0
  151.7982  143.2429  161.1917 H   0  0  0  0  0  0  0  0  0  0  0  0
  151.4896  144.5847  160.0939 H   0  0  0  0  0  0  0  0  0  0  0  0
  153.8449  140.0437  160.1044 H   0  0  0  0  0  0  0  0  0  0  0  0
  152.8619  141.0075  161.2039 H   0  0  0  0  0  0  0  0  0  0  0  0
  154.2270  141.7451  160.3514 H   0  0  0  0  0  0  0  0  0  0  0  0
  152.7529  139.5186  158.1002 H   0  0  0  0  0  0  0  0  0  0  0  0
  150.5187  133.9110  154.0884 H   0  0  0  0  0  0  0  0  0  0  0  0
  149.6164  133.8174  155.5834 H   0  0  0  0  0  0  0  0  0  0  0  0
  148.6034  132.3780  153.7805 H   0  0  0  0  0  0  0  0  0  0  0  0
  148.4952  133.7516  152.7297 H   0  0  0  0  0  0  0  0  0  0  0  0
  149.3377  135.8997  153.5400 H   0  0  0  0  0  0  0  0  0  0  0  0
  149.4288  142.9611  155.5864 H   0  0  0  0  0  0  0  0  0  0  0  0
  1  2  1  0  0  0  0
  1 26  1  0  0  0  0
  1 27  1  0  0  0  0
  1 28  1  0  0  0  0
  2  3  1  0  0  0  0
  3  4  1  0  0  0  0
  3 29  1  0  0  0  0
  3 30  1  0  0  0  0
  4  5  1  0  0  0  0
  4 31  1  0  0  0  0
  4 32  1  0  0  0  0
  5 25  1  0  0  0  0
  5  6  1  0  0  0  0
  6  7  1  0  0  0  0
  6 33  1  0  0  0  0
  6 34  1  0  0  0  0
  7  8  1  0  0  0  0
  7 35  1  0  0  0  0
  7 36  1  0  0  0  0
  8  9  1  0  0  0  0
  8 24  1  0  0  0  0
  8 56  1  0  0  0  0
  9 10  1  0  0  0  0
  9 37  1  0  0  0  0
  9 38  1  0  0  0  0
 10 11  1  0  0  0  0
 10 12  1  0  0  0  0
 10 39  1  0  0  0  0
 11 40  1  0  0  0  0
 12 13  1  0  0  0  0
 12 41  1  0  0  0  0
 12 42  1  0  0  0  0
 13 23  1  0  0  0  0
 13 14  1  0  0  0  0
 14 15  2  0  0  0  0
 14 43  1  0  0  0  0
 15 16  1  0  0  0  0
 15 57  1  0  0  0  0
 16 23  2  0  0  0  0
 16 17  1  0  0  0  0
 17 18  2  0  0  0  0
 17 44  1  0  0  0  0
 18 19  1  0  0  0  0
 18 20  1  0  0  0  0
 19 45  1  0  0  0  0
 19 46  1  0  0  0  0
 19 47  1  0  0  0  0
 20 21  1  0  0  0  0
 20 22  2  0  0  0  0
 21 48  1  0  0  0  0
 21 49  1  0  0  0  0
 21 50  1  0  0  0  0
 22 23  1  0  0  0  0
 22 51  1  0  0  0  0
 24 25  1  0  0  0  0
 24 52  1  0  0  0  0
 24 53  1  0  0  0  0
 25 54  1  0  0  0  0
 25 55  1  0  0  0  0
M  CHG  1   8   1
M  CHG  1  15   1
M  END
> <s_m_source_file>
AV-unprocessed.smi

> <i_m_source_file_index>
1007

> <i_lp_mmshare_version>
43012

> <i_f3d_flags>
0

> <s_epik_input>
W0NIM11PW0NIMl1bQ0gyXU4xW0NIMl1bQ0gyXU4oW0NIMl1bQ0gyXTEpW0NIMl1bQ0BIXShbT0hdKVtDSDJdbihbY0hdbjIpYyhjMjMpW2NIXWMoW0NIM10pYyhbY0hdMylbQ0gzXQ==

> <s_epik_cmdline>
J2VwaWtfcHl0aG9uJywgJy1waCcsICc3LjAnLCAnLXRuJywgJzgnLCAnLW1hJywgJzIwMCcsICctbWV0YWxfYmluZGluZycsICctaW1hZScsICc8aW5maWxlLm1hZT4nLCAnLW9tYWUnLCAnPG91dGZpbGUubWFlPic=

> <r_epik_Ionization_Penalty>
1.19231

> <r_epik_Ionization_Penalty_Charging>
1.17974

> <r_epik_Ionization_Penalty_Neutral>
0.0125676

> <r_epik_State_Penalty>
1.24499

> <r_epik_Charging_Adjusted_Penalty>
2.42472

> <i_epik_Tot_Q>
2

> <i_epik_Tot_abs_Q>
2

> <r_epik_Metal_State_Penalty>
5.24866

> <b_epik_Metal_Only>
0

> <s_lp_Force_Field>
OPLS_2005

> <r_lp_Energy>
43.594

> <b_lp_Chiralities_Consistent>
1

> <s_lp_Variant>
AV-unprocessed.smi:1007-5

> <Gold.Version>
5.8.1

> <Gold.Id.Protein>
6NUR|6NUR_protein|mol2

> <Gold.PLP.Fitness>
57.2717

> <Gold.PLP.PLP>
-43.2945

> <Gold.PLP.part.hbond>
-4.4809

> <Gold.PLP.part.metal>
0.0000

> <Gold.PLP.part.buried>
-3.7285

> <Gold.PLP.part.nonpolar>
-35.0477

> <Gold.PLP.part.repulsive>
0.3031

> <Gold.PLP.ligand.clash>
0.0000

> <Gold.PLP.ligand.torsion>
0.6293

> <Gold.PLP.Chemscore.Hbond>
5.0000

> <Gold.PLP.Chemscore.CHOScore>
0.0000

> <Gold.PLP.Chemscore.Metal>
0.0000

> <Gold.Chemscore.Hbonds>
donor molecule, donor type, donor heavy atom, donor atom, acceptor molecule, acceptor atom, score
      L1  H     8    56       P1  7948  2.00
      L1  H    11    40       P1  7948  1.00
      L1  H    15    57       P1  8028  2.00

> <Gold.PLP.Chemscore.Internal.Correction>
0.2359

> <Gold.Rescore>
     Score         DG    S(hbond)    S(metal)    S(lipo)     H(rot)  DE(clash)    DE(int)     intcor
     19.95     -20.66       2.80        0.00     107.59       2.64       0.12       0.59       ----

> <Gold.Chemscore.Fitness>
19.9473

> <Gold.Chemscore.DG>
-20.6589

> <Gold.Chemscore.ZeroCoef>
-5.4800

> <Gold.Chemscore.Hbond>
2.8016

> <Gold.Chemscore.Metal>
0.0000

> <Gold.Chemscore.Lipo>
107.5911

> <Gold.Chemscore.Internal_Hbond>
0.0000

> <Gold.Chemscore.DEClash>
0.1187

> <Gold.Chemscore.DEInternal>
0.5929

> <Gold.Chemscore.Rot>
2.6432

> <Gold.Chemscore.Internal.Correction>
   9.000000E+99

> <Gold.Chemscore.Hbonds>
donor molecule, donor type, donor heavy atom, donor atom, acceptor molecule, acceptor atom, score
      L1  H     8    56       P1  7948  0.60
      L1  H    11    40       P1  7948  0.73
      L1  H    15    57       P1  8028  0.97

> <Gold.Chemscore.Hbond.Weighted>
-9.3573

> <Gold.Chemscore.Metal.Weighted>
-0.0000

> <Gold.Chemscore.Lipo.Weighted>
-12.5882

> <Gold.Chemscore.Internal_Hbond.Weighted>
0.0000

> <Gold.Chemscore.DEClash.Weighted>
0.1187

> <Gold.Chemscore.DEInternal.Weighted>
0.5929

> <Gold.Chemscore.Rot.Weighted>
6.7665

> <Gold.Chemscore.Internal.Correction.Weighted>
   9.000000E+99

> <Gold.Protein.RotatedTorsions>
[ 6907 6896 6895 6894 ] final  -44.07 input  -60.11 | X-H torsion
[ 7974 7965 7964 7962 ] final -160.15 input  175.53 | X-H torsion
[ 8008 7997 7996 7995 ] final  159.69 input   59.86 | X-H torsion
[ 10167 10162 10161 10158 ] final -163.83 input  -65.29 | X-H torsion
[ 10718 10713 10712 10709 ] final   64.77 input   66.30 | X-H torsion
[ 10763 10752 10751 10750 ] final  136.32 input  -60.55 | X-H torsion
[ 11005 11000 10999 10996 ] final  153.44 input  -57.11 | X-H torsion

> <Gold.Protein.ActiveResidues>
 VAL166  LYS551  ARG553  GLY616  TRP617  ASP618  TYR619  PRO620  LYS621  CYS622 
 ASP623  PHE694  ASN695  SER759  ASP760  ASP761  ALA762  ILE779  LEU786  VAL792 
 PHE793  MET794  SER795  GLU796  ALA797  LYS798  CYS799  TRP800  GLU811  SER814 

> <Gold.Protein.RotatedAtoms>
  150.9369  134.8781  159.7586 H   0  0  0  0  0  0  0  0  0  0  0  0  # atno 6907 bound_to 6896
  152.5063  134.3998  159.9422 H   0  0  0  0  0  0  0  0  0  0  0  0  # atno 6908 bound_to 6896
  151.4021  133.3714  159.2768 H   0  0  0  0  0  0  0  0  0  0  0  0  # atno 6909 bound_to 6896
  144.7438  140.3583  143.6101 H   0  0  0  0  0  0  0  0  0  0  0  0  # atno 7974 bound_to 7965
  156.2222  140.1824  156.7448 H   0  0  0  0  0  0  0  0  0  0  0  0  # atno 8008 bound_to 7997
  154.5884  140.0655  156.9232 H   0  0  0  0  0  0  0  0  0  0  0  0  # atno 8009 bound_to 7997
  155.2379  140.3320  155.4298 H   0  0  0  0  0  0  0  0  0  0  0  0  # atno 8010 bound_to 7997
  139.6293  144.0471  152.2002 H   0  0  0  0  0  0  0  0  0  0  0  0  # atno 10167 bound_to 10162
  157.6062  130.9178  149.9889 H   0  0  0  0  0  0  0  0  0  0  0  0  # atno 10718 bound_to 10713
  153.8545  135.3075  155.3434 H   0  0  0  0  0  0  0  0  0  0  0  0  # atno 10763 bound_to 10752
  154.7876  135.4801  153.9984 H   0  0  0  0  0  0  0  0  0  0  0  0  # atno 10764 bound_to 10752
  153.1498  135.6841  153.8993 H   0  0  0  0  0  0  0  0  0  0  0  0  # atno 10765 bound_to 10752
  140.1398  134.8746  157.2316 H   0  0  0  0  0  0  0  0  0  0  0  0  # atno 11005 bound_to 11000
  145.7204  139.1708  143.2488 LP  0  0  0  0  0  0  0  0  0  0  0  0  # atno 17320 bound_to 7965
  146.1281  140.7221  142.9425 LP  0  0  0  0  0  0  0  0  0  0  0  0  # atno 17321 bound_to 7965
  140.0133  144.6208  150.7629 LP  0  0  0  0  0  0  0  0  0  0  0  0  # atno 17342 bound_to 10162
  140.7429  143.2839  151.3519 LP  0  0  0  0  0  0  0  0  0  0  0  0  # atno 17343 bound_to 10162
  156.1149  130.3648  149.9986 LP  0  0  0  0  0  0  0  0  0  0  0  0  # atno 17370 bound_to 10713
  156.8077  130.9313  151.3645 LP  0  0  0  0  0  0  0  0  0  0  0  0  # atno 17371 bound_to 10713
  140.2736  134.3431  155.7365 LP  0  0  0  0  0  0  0  0  0  0  0  0  # atno 17394 bound_to 11000
  141.2184  133.7438  156.9260 LP  0  0  0  0  0  0  0  0  0  0  0  0  # atno 17395 bound_to 11000

$$$$
