AV-unprocessed.smi:4|AV-procd|sdf|33|dock5
  -GOLD-   2262015143D 1   1.00000     0.00000
 Structure written by MMmdl.
 44 45  0  0  0  0  0  0  0  0  2 V2000
  144.1269  132.9222  151.4792 C   0  0  0  0  0  0  0  0  0  0  0  0
  145.6212  132.9994  151.0702 C   0  0  0  0  0  0  0  0  0  0  0  0
  145.7305  132.1813  149.7574 C   0  0  0  0  0  0  0  0  0  0  0  0
  145.9004  134.5022  150.8084 C   0  0  0  0  0  0  0  0  0  0  0  0
  146.5236  132.4614  152.1104 N   0  0  0  0  0  0  0  0  0  0  0  0
  147.5463  133.1978  152.7135 C   0  0  0  0  0  0  0  0  0  0  0  0
  148.3749  132.7248  153.6793 C   0  0  0  0  0  0  0  0  0  0  0  0
  149.4870  133.5834  154.2717 C   0  0  0  0  0  0  0  0  0  0  0  0
  149.0769  134.9971  154.4204 N   0  3  0  0  0  0  0  0  0  0  0  0
  150.0297  135.8640  155.1476 C   0  0  0  0  0  0  0  0  0  0  0  0
  149.7424  137.3484  154.8975 C   0  0  0  0  0  0  0  0  0  0  0  0
  148.4023  137.4276  154.4560 O   0  0  0  0  0  0  0  0  0  0  0  0
  150.0757  138.3163  156.0477 C   0  0  0  0  0  0  0  0  0  0  0  0
  151.3935  138.6499  155.3480 C   0  0  0  0  0  0  0  0  0  0  0  0
  150.7554  138.1458  154.0534 C   0  0  0  0  0  0  0  0  0  0  0  0
  148.2351  131.3398  154.1296 C   0  0  0  0  0  0  0  0  0  0  0  0
  148.9263  130.7939  154.9878 O   0  0  0  0  0  0  0  0  0  0  0  0
  147.2123  130.6251  153.5113 N   0  0  0  0  0  0  0  0  0  0  0  0
  146.3500  131.1117  152.5316 C   0  0  0  0  0  0  0  0  0  0  0  0
  145.4924  130.3506  152.0877 O   0  0  0  0  0  0  0  0  0  0  0  0
  147.0818  129.6658  153.7993 H   0  0  0  0  0  0  0  0  0  0  0  0
  143.4808  133.3222  150.6965 H   0  0  0  0  0  0  0  0  0  0  0  0
  143.9175  133.5052  152.3771 H   0  0  0  0  0  0  0  0  0  0  0  0
  143.8020  131.8948  151.6493 H   0  0  0  0  0  0  0  0  0  0  0  0
  145.5886  131.1164  149.9447 H   0  0  0  0  0  0  0  0  0  0  0  0
  146.6844  132.3013  149.2471 H   0  0  0  0  0  0  0  0  0  0  0  0
  144.9691  132.4872  149.0390 H   0  0  0  0  0  0  0  0  0  0  0  0
  145.1472  134.9325  150.1475 H   0  0  0  0  0  0  0  0  0  0  0  0
  146.8586  134.6900  150.3278 H   0  0  0  0  0  0  0  0  0  0  0  0
  145.8799  135.0743  151.7366 H   0  0  0  0  0  0  0  0  0  0  0  0
  147.7277  134.2212  152.4290 H   0  0  0  0  0  0  0  0  0  0  0  0
  149.8364  133.1877  155.2264 H   0  0  0  0  0  0  0  0  0  0  0  0
  150.3462  133.5538  153.6009 H   0  0  0  0  0  0  0  0  0  0  0  0
  148.9590  135.3848  153.4952 H   0  0  0  0  0  0  0  0  0  0  0  0
  149.9818  135.6490  156.2155 H   0  0  0  0  0  0  0  0  0  0  0  0
  151.0415  135.6129  154.8265 H   0  0  0  0  0  0  0  0  0  0  0  0
  148.3944  137.1724  153.5456 H   0  0  0  0  0  0  0  0  0  0  0  0
  149.3995  139.1718  156.1006 H   0  0  0  0  0  0  0  0  0  0  0  0
  150.1949  137.8446  157.0237 H   0  0  0  0  0  0  0  0  0  0  0  0
  151.6549  139.7085  155.3467 H   0  0  0  0  0  0  0  0  0  0  0  0
  152.2227  138.0259  155.6847 H   0  0  0  0  0  0  0  0  0  0  0  0
  151.4201  137.5416  153.4355 H   0  0  0  0  0  0  0  0  0  0  0  0
  150.2936  138.9466  153.4728 H   0  0  0  0  0  0  0  0  0  0  0  0
  148.1863  135.0327  154.8956 H   0  0  0  0  0  0  0  0  0  0  0  0
  1  2  1  0  0  0  0
  1 22  1  0  0  0  0
  1 23  1  0  0  0  0
  1 24  1  0  0  0  0
  2  3  1  0  0  0  0
  2  4  1  0  0  0  0
  2  5  1  0  0  0  0
  3 25  1  0  0  0  0
  3 26  1  0  0  0  0
  3 27  1  0  0  0  0
  4 28  1  0  0  0  0
  4 29  1  0  0  0  0
  4 30  1  0  0  0  0
  5 19  1  0  0  0  0
  5  6  1  0  0  0  0
  6  7  2  0  0  0  0
  6 31  1  0  0  0  0
  7  8  1  0  0  0  0
  7 16  1  0  0  0  0
  8  9  1  0  0  0  0
  8 32  1  0  0  0  0
  8 33  1  0  0  0  0
  9 10  1  0  0  0  0
  9 34  1  0  0  0  0
  9 44  1  0  0  0  0
 10 11  1  0  0  0  0
 10 35  1  0  0  0  0
 10 36  1  0  0  0  0
 11 15  1  0  0  0  0
 11 12  1  0  0  0  0
 11 13  1  0  0  0  0
 12 37  1  0  0  0  0
 13 14  1  0  0  0  0
 13 38  1  0  0  0  0
 13 39  1  0  0  0  0
 14 15  1  0  0  0  0
 14 40  1  0  0  0  0
 14 41  1  0  0  0  0
 15 42  1  0  0  0  0
 15 43  1  0  0  0  0
 16 17  2  0  0  0  0
 16 18  1  0  0  0  0
 18 21  1  0  0  0  0
 18 19  1  0  0  0  0
 19 20  2  0  0  0  0
M  CHG  1   9   1
M  END
> <s_m_source_file>
AV-unprocessed.smi

> <i_m_source_file_index>
4

> <i_lp_mmshare_version>
43012

> <i_f3d_flags>
0

> <s_epik_input>
W0NIM11DKFtDSDNdKShbQ0gzXSluMVtjSF1jKGMoPU8pW25IXWMxPU8pW0NIMl1bTkhdW0NIMl1DMihbT0hdKVtDSDJdW0NIMl1bQ0gyXTI=

> <s_epik_cmdline>
J2VwaWtfcHl0aG9uJywgJy1waCcsICc3LjAnLCAnLXRuJywgJzgnLCAnLW1hJywgJzIwMCcsICctbWV0YWxfYmluZGluZycsICctaW1hZScsICc8aW5maWxlLm1hZT4nLCAnLW9tYWUnLCAnPG91dGZpbGUubWFlPic=

> <r_lp_tautomer_probability>
0.999537

> <r_epik_Ionization_Penalty>
0.0188443

> <r_epik_Ionization_Penalty_Charging>
0.0188443

> <r_epik_Ionization_Penalty_Neutral>
1.97485e-08

> <r_epik_State_Penalty>
0.0134361

> <r_epik_Charging_Adjusted_Penalty>
0.0322804

> <i_epik_Tot_Q>
1

> <i_epik_Tot_abs_Q>
1

> <r_epik_Metal_State_Penalty>
0.855907

> <b_epik_Metal_Only>
0

> <s_lp_Force_Field>
OPLS_2005

> <r_lp_Energy>
23.9463

> <b_lp_Chiralities_Consistent>
1

> <s_lp_Variant>
AV-unprocessed.smi:4-1

> <Gold.Version>
5.8.1

> <Gold.Id.Protein>
6NUR|6NUR_protein|mol2

> <Gold.PLP.Fitness>
45.6863

> <Gold.PLP.PLP>
-36.0638

> <Gold.PLP.part.hbond>
-2.0000

> <Gold.PLP.part.metal>
0.0000

> <Gold.PLP.part.buried>
-5.3317

> <Gold.PLP.part.nonpolar>
-29.0684

> <Gold.PLP.part.repulsive>
0.2109

> <Gold.PLP.ligand.clash>
0.0000

> <Gold.PLP.ligand.torsion>
1.2671

> <Gold.PLP.Chemscore.Hbond>
3.0000

> <Gold.PLP.Chemscore.CHOScore>
1.0000

> <Gold.PLP.Chemscore.Metal>
0.0000

> <Gold.Chemscore.Hbonds>
donor molecule, donor type, donor heavy atom, donor atom, acceptor molecule, acceptor atom, score
      L1  H     9    34       P1  7948  2.00
      L1  H    12    37       P1  7948  1.00
      L1  C     6    31       P1  7948  1.00

> <Gold.PLP.Chemscore.Internal.Correction>
0.1569

> <Gold.Rescore>
     Score         DG    S(hbond)    S(metal)    S(lipo)     H(rot)  DE(clash)    DE(int)     intcor
     11.34     -14.10       1.78        0.00      78.21       2.53       0.06       2.71       ----

> <Gold.Chemscore.Fitness>
11.3410

> <Gold.Chemscore.DG>
-14.1015

> <Gold.Chemscore.ZeroCoef>
-5.4800

> <Gold.Chemscore.Hbond>
1.7807

> <Gold.Chemscore.Metal>
0.0000

> <Gold.Chemscore.Lipo>
78.2118

> <Gold.Chemscore.Internal_Hbond>
0.0000

> <Gold.Chemscore.DEClash>
0.0555

> <Gold.Chemscore.DEInternal>
2.7050

> <Gold.Chemscore.Rot>
2.5300

> <Gold.Chemscore.Internal.Correction>
   9.000000E+99

> <Gold.Chemscore.Hbonds>
donor molecule, donor type, donor heavy atom, donor atom, acceptor molecule, acceptor atom, score
      L1  H     9    34       P1  7948  0.70
      L1  H    12    37       P1  7948  0.95

> <Gold.Chemscore.Hbond.Weighted>
-5.9475

> <Gold.Chemscore.Metal.Weighted>
-0.0000

> <Gold.Chemscore.Lipo.Weighted>
-9.1508

> <Gold.Chemscore.Internal_Hbond.Weighted>
0.0000

> <Gold.Chemscore.DEClash.Weighted>
0.0555

> <Gold.Chemscore.DEInternal.Weighted>
2.7050

> <Gold.Chemscore.Rot.Weighted>
6.4768

> <Gold.Chemscore.Internal.Correction.Weighted>
   9.000000E+99

> <Gold.Protein.RotatedTorsions>
[ 6907 6896 6895 6894 ] final  -50.89 input  -60.11 | X-H torsion
[ 7974 7965 7964 7962 ] final  134.75 input  175.53 | X-H torsion
[ 8008 7997 7996 7995 ] final  -56.86 input   59.86 | X-H torsion
[ 10167 10162 10161 10158 ] final -179.20 input  -65.29 | X-H torsion
[ 10718 10713 10712 10709 ] final  142.23 input   66.30 | X-H torsion
[ 10763 10752 10751 10750 ] final   80.07 input  -60.55 | X-H torsion
[ 11005 11000 10999 10996 ] final  160.86 input  -57.11 | X-H torsion

> <Gold.Protein.ActiveResidues>
 VAL166  LYS551  ARG553  GLY616  TRP617  ASP618  TYR619  PRO620  LYS621  CYS622 
 ASP623  PHE694  ASN695  SER759  ASP760  ASP761  ALA762  ILE779  LEU786  VAL792 
 PHE793  MET794  SER795  GLU796  ALA797  LYS798  CYS799  TRP800  GLU811  SER814 

> <Gold.Protein.RotatedAtoms>
  150.8663  134.8027  159.7120 H   0  0  0  0  0  0  0  0  0  0  0  0  # atno 6907 bound_to 6896
  152.4683  134.5018  159.9737 H   0  0  0  0  0  0  0  0  0  0  0  0  # atno 6908 bound_to 6896
  151.5114  133.3446  159.2921 H   0  0  0  0  0  0  0  0  0  0  0  0  # atno 6909 bound_to 6896
  144.9733  139.4582  143.5422 H   0  0  0  0  0  0  0  0  0  0  0  0  # atno 7974 bound_to 7965
  154.4246  140.1120  156.5705 H   0  0  0  0  0  0  0  0  0  0  0  0  # atno 8008 bound_to 7997
  155.6217  140.3495  155.4635 H   0  0  0  0  0  0  0  0  0  0  0  0  # atno 8009 bound_to 7997
  156.0019  140.1201  157.0529 H   0  0  0  0  0  0  0  0  0  0  0  0  # atno 8010 bound_to 7997
  139.5397  144.2397  152.0870 H   0  0  0  0  0  0  0  0  0  0  0  0  # atno 10167 bound_to 10162
  157.3829  131.0994  151.0721 H   0  0  0  0  0  0  0  0  0  0  0  0  # atno 10718 bound_to 10713
  153.1004  135.4816  154.8855 H   0  0  0  0  0  0  0  0  0  0  0  0  # atno 10763 bound_to 10752
  154.7372  135.3073  154.8794 H   0  0  0  0  0  0  0  0  0  0  0  0  # atno 10764 bound_to 10752
  153.9412  135.6834  153.4797 H   0  0  0  0  0  0  0  0  0  0  0  0  # atno 10765 bound_to 10752
  140.2101  134.8274  157.3111 H   0  0  0  0  0  0  0  0  0  0  0  0  # atno 11005 bound_to 11000
  146.3388  139.8958  142.8802 LP  0  0  0  0  0  0  0  0  0  0  0  0  # atno 17320 bound_to 7965
  145.2528  141.0050  143.3871 LP  0  0  0  0  0  0  0  0  0  0  0  0  # atno 17321 bound_to 7965
  140.1874  144.4786  150.6497 LP  0  0  0  0  0  0  0  0  0  0  0  0  # atno 17342 bound_to 10162
  140.6621  143.2255  151.5830 LP  0  0  0  0  0  0  0  0  0  0  0  0  # atno 17343 bound_to 10162
  157.1783  130.6298  149.5663 LP  0  0  0  0  0  0  0  0  0  0  0  0  # atno 17370 bound_to 10713
  155.9780  130.4762  150.6627 LP  0  0  0  0  0  0  0  0  0  0  0  0  # atno 17371 bound_to 10713
  140.1960  134.4313  155.7689 LP  0  0  0  0  0  0  0  0  0  0  0  0  # atno 17394 bound_to 11000
  141.2226  133.7049  156.8106 LP  0  0  0  0  0  0  0  0  0  0  0  0  # atno 17395 bound_to 11000

$$$$
