AV-unprocessed.smi:1782|AV-procd|sdf|7189|dock5
  -GOLD-   22720 8433D 1   1.00000     0.00000
 Structure written by MMmdl.
 42 44  0  0  0  0  0  0  0  0  2 V2000
  149.6315  139.8737  158.0983 O   0  0  0  0  0  0  0  0  0  0  0  0
  150.5039  139.9828  157.2357 C   0  0  0  0  0  0  0  0  0  0  0  0
  151.4493  141.1923  157.2234 C   0  0  0  0  0  0  0  0  0  0  0  0
  152.1359  141.4022  158.5097 N   0  0  0  0  0  0  0  0  0  0  0  0
  151.8757  142.6095  159.1824 C   0  0  0  0  0  0  0  0  0  0  0  0
  152.4504  142.9000  160.3572 C   0  0  0  0  0  0  0  0  0  0  0  0
  153.3567  141.9354  160.9309 C   0  0  0  0  0  0  0  0  0  0  0  0
  153.6296  140.7668  160.3056 C   0  0  0  0  0  0  0  0  0  0  0  0
  154.5876  139.7356  160.8978 C   0  0  0  0  0  0  0  0  0  0  0  0
  153.9868  138.5507  161.0143 F   0  0  0  0  0  0  0  0  0  0  0  0
  155.6567  139.5855  160.1149 F   0  0  0  0  0  0  0  0  0  0  0  0
  155.0164  140.0960  162.1084 F   0  0  0  0  0  0  0  0  0  0  0  0
  152.9923  140.4575  159.0092 C   0  0  0  0  0  0  0  0  0  0  0  0
  153.2117  139.4093  158.3990 O   0  0  0  0  0  0  0  0  0  0  0  0
  150.7015  139.0683  156.2750 N   0  0  0  0  0  0  0  0  0  0  0  0
  149.9061  137.8576  156.1061 C   0  0  1  0  0  0  0  0  0  0  0  0
  148.4403  138.1034  155.7601 C   0  0  0  0  0  0  0  0  0  0  0  0
  148.0152  136.7667  155.1425 C   0  0  0  0  0  0  0  0  0  0  0  0
  149.2349  136.1616  154.5511 N   0  3  2  0  0  0  0  0  0  0  0  0
  149.4249  134.7400  154.9134 C   0  0  0  0  0  0  0  0  0  0  0  0
  149.0213  133.7794  153.8204 C   0  0  0  0  0  0  0  0  0  0  0  0
  148.1321  133.9687  155.0304 C   0  0  0  0  0  0  0  0  0  0  0  0
  150.3808  137.0234  154.9169 C   0  0  0  0  0  0  0  0  0  0  0  0
  152.1723  141.0474  156.4193 H   0  0  0  0  0  0  0  0  0  0  0  0
  150.8937  142.0909  156.9477 H   0  0  0  0  0  0  0  0  0  0  0  0
  151.1915  143.2800  158.6830 H   0  0  0  0  0  0  0  0  0  0  0  0
  152.2438  143.8336  160.8598 H   0  0  0  0  0  0  0  0  0  0  0  0
  153.8189  142.1675  161.8787 H   0  0  0  0  0  0  0  0  0  0  0  0
  151.4440  139.2309  155.6096 H   0  0  0  0  0  0  0  0  0  0  0  0
  149.9686  137.2494  157.0109 H   0  0  0  0  0  0  0  0  0  0  0  0
  147.8371  138.3790  156.6258 H   0  0  0  0  0  0  0  0  0  0  0  0
  148.3535  138.9006  155.0200 H   0  0  0  0  0  0  0  0  0  0  0  0
  147.6135  136.1184  155.9234 H   0  0  0  0  0  0  0  0  0  0  0  0
  147.2370  136.8930  154.3894 H   0  0  0  0  0  0  0  0  0  0  0  0
  150.2663  134.5128  155.5662 H   0  0  0  0  0  0  0  0  0  0  0  0
  148.6765  134.1915  152.8737 H   0  0  0  0  0  0  0  0  0  0  0  0
  149.5699  132.8424  153.7470 H   0  0  0  0  0  0  0  0  0  0  0  0
  148.0955  133.1562  155.7534 H   0  0  0  0  0  0  0  0  0  0  0  0
  147.1960  134.5053  154.8864 H   0  0  0  0  0  0  0  0  0  0  0  0
  150.5995  137.6668  154.0633 H   0  0  0  0  0  0  0  0  0  0  0  0
  151.2855  136.4556  155.1399 H   0  0  0  0  0  0  0  0  0  0  0  0
  149.1442  136.2022  153.5460 H   0  0  0  0  0  0  0  0  0  0  0  0
  1  2  2  0  0  0  0
  2  3  1  0  0  0  0
  2 15  1  0  0  0  0
  3  4  1  0  0  0  0
  3 24  1  0  0  0  0
  3 25  1  0  0  0  0
  4 13  1  0  0  0  0
  4  5  1  0  0  0  0
  5  6  2  0  0  0  0
  5 26  1  0  0  0  0
  6  7  1  0  0  0  0
  6 27  1  0  0  0  0
  7  8  2  0  0  0  0
  7 28  1  0  0  0  0
  8  9  1  0  0  0  0
  8 13  1  0  0  0  0
  9 10  1  0  0  0  0
  9 11  1  0  0  0  0
  9 12  1  0  0  0  0
 13 14  2  0  0  0  0
 15 16  1  0  0  0  0
 15 29  1  0  0  0  0
 16 23  1  0  0  0  0
 16 17  1  0  0  0  0
 16 30  1  0  0  0  0
 17 18  1  0  0  0  0
 17 31  1  0  0  0  0
 17 32  1  0  0  0  0
 18 19  1  0  0  0  0
 18 33  1  0  0  0  0
 18 34  1  0  0  0  0
 19 20  1  0  0  0  0
 19 23  1  0  0  0  0
 19 42  1  0  0  0  0
 20 22  1  0  0  0  0
 20 21  1  0  0  0  0
 20 35  1  0  0  0  0
 21 22  1  0  0  0  0
 21 36  1  0  0  0  0
 21 37  1  0  0  0  0
 22 38  1  0  0  0  0
 22 39  1  0  0  0  0
 23 40  1  0  0  0  0
 23 41  1  0  0  0  0
M  CHG  1  19   1
M  END
> <s_m_source_file>
AV-unprocessed.smi

> <i_m_source_file_index>
1782

> <i_lp_mmshare_version>
43012

> <i_f3d_flags>
0

> <s_epik_input>
W0NIMl0xW0NIMl1bQ0hdMU4oW0NIMl0yKVtDSDJdW0NIMl1bQ0BIXTJbTkhdQyg9TylbQ0gyXW4zW2NIXVtjSF1bY0hdYyhDKEYpKEYpRiljMz1P

> <s_epik_cmdline>
J2VwaWtfcHl0aG9uJywgJy1waCcsICc3LjAnLCAnLXRuJywgJzgnLCAnLW1hJywgJzIwMCcsICctbWV0YWxfYmluZGluZycsICctaW1hZScsICc8aW5maWxlLm1hZT4nLCAnLW9tYWUnLCAnPG91dGZpbGUubWFlPic=

> <r_lp_tautomer_probability>
1

> <r_epik_Ionization_Penalty>
0.00106789

> <r_epik_Ionization_Penalty_Charging>
0.00106781

> <r_epik_Ionization_Penalty_Neutral>
8.2288e-08

> <r_epik_State_Penalty>
0.000699156

> <r_epik_Charging_Adjusted_Penalty>
0.00176697

> <i_epik_Tot_Q>
1

> <i_epik_Tot_abs_Q>
1

> <r_epik_Metal_State_Penalty>
-0

> <b_epik_Metal_Only>
0

> <s_lp_Force_Field>
OPLS_2005

> <r_lp_Energy>
46.9995

> <b_lp_Chiralities_Consistent>
1

> <s_lp_Variant>
AV-unprocessed.smi:1782-2

> <Gold.Version>
5.8.1

> <Gold.Id.Protein>
6NUR|6NUR_protein|mol2

> <Gold.PLP.Fitness>
46.9021

> <Gold.PLP.PLP>
-38.4797

> <Gold.PLP.part.hbond>
-2.0000

> <Gold.PLP.part.metal>
0.0000

> <Gold.PLP.part.buried>
-4.5624

> <Gold.PLP.part.nonpolar>
-32.2275

> <Gold.PLP.part.repulsive>
0.0808

> <Gold.PLP.ligand.clash>
0.2518

> <Gold.PLP.ligand.torsion>
0.9654

> <Gold.PLP.Chemscore.Hbond>
3.0000

> <Gold.PLP.Chemscore.CHOScore>
0.0000

> <Gold.PLP.Chemscore.Metal>
0.0000

> <Gold.Chemscore.Hbonds>
donor molecule, donor type, donor heavy atom, donor atom, acceptor molecule, acceptor atom, score
      L1  H    19    42       P1  7948  2.00
      P1  H  7997  8010       L1    14  0.89

> <Gold.PLP.Chemscore.Internal.Correction>
1.6049

> <Gold.Rescore>
     Score         DG    S(hbond)    S(metal)    S(lipo)     H(rot)  DE(clash)    DE(int)     intcor
     12.58     -16.62       1.93        0.00      79.62       1.81       0.63       3.41       ----

> <Gold.Chemscore.Fitness>
12.5840

> <Gold.Chemscore.DG>
-16.6188

> <Gold.Chemscore.ZeroCoef>
-5.4800

> <Gold.Chemscore.Hbond>
1.9333

> <Gold.Chemscore.Metal>
0.0000

> <Gold.Chemscore.Lipo>
79.6182

> <Gold.Chemscore.Internal_Hbond>
0.0000

> <Gold.Chemscore.DEClash>
0.6253

> <Gold.Chemscore.DEInternal>
3.4095

> <Gold.Chemscore.Rot>
1.8101

> <Gold.Chemscore.Internal.Correction>
   9.000000E+99

> <Gold.Chemscore.Hbonds>
donor molecule, donor type, donor heavy atom, donor atom, acceptor molecule, acceptor atom, score
      L1  H    19    42       P1  7948  0.94
      P1  H  7997  8010       L1    14  0.30

> <Gold.Chemscore.Hbond.Weighted>
-6.4572

> <Gold.Chemscore.Metal.Weighted>
-0.0000

> <Gold.Chemscore.Lipo.Weighted>
-9.3153

> <Gold.Chemscore.Internal_Hbond.Weighted>
0.0000

> <Gold.Chemscore.DEClash.Weighted>
0.6253

> <Gold.Chemscore.DEInternal.Weighted>
3.4095

> <Gold.Chemscore.Rot.Weighted>
4.6338

> <Gold.Chemscore.Internal.Correction.Weighted>
   9.000000E+99

> <Gold.Protein.RotatedTorsions>
[ 6907 6896 6895 6894 ] final  117.30 input  -60.11 | X-H torsion
[ 7974 7965 7964 7962 ] final   64.48 input  175.53 | X-H torsion
[ 8008 7997 7996 7995 ] final   43.90 input   59.86 | X-H torsion
[ 10167 10162 10161 10158 ] final    6.05 input  -65.29 | X-H torsion
[ 10718 10713 10712 10709 ] final  -65.16 input   66.30 | X-H torsion
[ 10763 10752 10751 10750 ] final  125.24 input  -60.55 | X-H torsion
[ 11005 11000 10999 10996 ] final  -43.85 input  -57.11 | X-H torsion

> <Gold.Protein.ActiveResidues>
 VAL166  LYS551  ARG553  GLY616  TRP617  ASP618  TYR619  PRO620  LYS621  CYS622 
 ASP623  PHE694  ASN695  SER759  ASP760  ASP761  ALA762  ILE779  LEU786  VAL792 
 PHE793  MET794  SER795  GLU796  ALA797  LYS798  CYS799  TRP800  GLU811  SER814 

> <Gold.Protein.RotatedAtoms>
  152.4621  133.7844  159.6867 H   0  0  0  0  0  0  0  0  0  0  0  0  # atno 6907 bound_to 6896
  150.8569  133.7692  159.3012 H   0  0  0  0  0  0  0  0  0  0  0  0  # atno 6908 bound_to 6896
  151.5270  135.1071  159.9945 H   0  0  0  0  0  0  0  0  0  0  0  0  # atno 6909 bound_to 6896
  145.8498  139.3247  143.0882 H   0  0  0  0  0  0  0  0  0  0  0  0  # atno 7974 bound_to 7965
  155.3105  140.3390  155.4244 H   0  0  0  0  0  0  0  0  0  0  0  0  # atno 8008 bound_to 7997
  156.1958  140.1714  156.8039 H   0  0  0  0  0  0  0  0  0  0  0  0  # atno 8009 bound_to 7997
  154.5497  140.0708  156.8631 H   0  0  0  0  0  0  0  0  0  0  0  0  # atno 8010 bound_to 7997
  140.6449  143.7686  150.7483 H   0  0  0  0  0  0  0  0  0  0  0  0  # atno 10167 bound_to 10162
  156.0686  130.4243  150.1524 H   0  0  0  0  0  0  0  0  0  0  0  0  # atno 10718 bound_to 10713
  153.6741  135.3325  155.3161 H   0  0  0  0  0  0  0  0  0  0  0  0  # atno 10763 bound_to 10752
  154.8483  135.4393  154.1674 H   0  0  0  0  0  0  0  0  0  0  0  0  # atno 10764 bound_to 10752
  153.2673  135.6997  153.7592 H   0  0  0  0  0  0  0  0  0  0  0  0  # atno 10765 bound_to 10752
  141.0412  133.6779  156.2791 H   0  0  0  0  0  0  0  0  0  0  0  0  # atno 11005 bound_to 11000
  145.9371  140.9007  143.0327 LP  0  0  0  0  0  0  0  0  0  0  0  0  # atno 17320 bound_to 7965
  144.6729  140.1497  143.7431 LP  0  0  0  0  0  0  0  0  0  0  0  0  # atno 17321 bound_to 7965
  140.1325  143.4513  152.2245 LP  0  0  0  0  0  0  0  0  0  0  0  0  # atno 17342 bound_to 10162
  139.5659  144.7434  151.4024 LP  0  0  0  0  0  0  0  0  0  0  0  0  # atno 17343 bound_to 10162
  156.9580  130.9796  151.3485 LP  0  0  0  0  0  0  0  0  0  0  0  0  # atno 17370 bound_to 10713
  157.5743  130.8332  149.8434 LP  0  0  0  0  0  0  0  0  0  0  0  0  # atno 17371 bound_to 10713
  140.6231  134.5341  157.5550 LP  0  0  0  0  0  0  0  0  0  0  0  0  # atno 17394 bound_to 11000
  139.9277  134.8024  156.1021 LP  0  0  0  0  0  0  0  0  0  0  0  0  # atno 17395 bound_to 11000

$$$$
