AV-unprocessed.smi:1056|AV-procd|sdf|4648|dock3
  -GOLD-   22720 3153D 1   1.00000     0.00000
 Structure written by MMmdl.
 45 47  0  0  0  0  0  0  0  0  4 V2000
  152.0137  144.3492  160.7280 C   0  0  0  0  0  0  0  0  0  0  0  0
  151.8679  143.3047  159.6344 C   0  0  0  0  0  0  0  0  0  0  0  0
  151.0169  143.5861  158.5420 C   0  0  0  0  0  0  0  0  0  0  0  0
  150.9039  142.6110  157.5581 C   0  0  0  0  0  0  0  0  0  0  0  0
  150.1570  142.5853  156.3786 N   0  3  0  0  0  0  0  0  0  0  0  0
  150.3695  141.4061  155.7314 C   0  0  0  0  0  0  0  0  0  0  0  0
  151.2418  140.6774  156.4798 N   0  0  0  0  0  0  0  0  0  0  0  0
  151.8043  139.3414  156.2301 C   0  0  0  0  0  0  0  0  0  0  0  0
  150.7275  138.2444  156.1072 C   0  0  2  0  0  0  0  0  0  0  0  0
  150.9925  137.2170  157.0437 O   0  0  0  0  0  0  0  0  0  0  0  0
  150.7047  137.6357  154.6899 C   0  0  0  0  0  0  0  0  0  0  0  0
  149.7159  136.5370  154.5502 N   0  3  1  0  0  0  0  0  0  0  0  0
  150.2471  135.2027  154.9344 C   0  0  0  0  0  0  0  0  0  0  0  0
  149.2837  134.0929  154.4718 C   0  0  0  0  0  0  0  0  0  0  0  0
  147.9037  134.4272  154.8439 N   0  5  0  0  0  0  0  0  0  0  0  0
  147.4112  135.6778  155.1083 C   0  0  0  0  0  0  0  0  0  0  0  0
  146.2273  135.9547  155.2879 O   0  0  0  0  0  0  0  0  0  0  0  0
  148.4330  136.8390  155.2437 C   0  0  0  0  0  0  0  0  0  0  0  0
  151.6028  141.3900  157.6305 C   0  0  0  0  0  0  0  0  0  0  0  0
  152.4453  141.0976  158.7008 C   0  0  0  0  0  0  0  0  0  0  0  0
  152.5729  142.0759  159.7127 C   0  0  0  0  0  0  0  0  0  0  0  0
  153.4842  141.7832  160.8925 C   0  0  0  0  0  0  0  0  0  0  0  0
  151.3835  145.2182  160.5366 H   0  0  0  0  0  0  0  0  0  0  0  0
  153.0461  144.6938  160.7917 H   0  0  0  0  0  0  0  0  0  0  0  0
  151.7256  143.9364  161.6950 H   0  0  0  0  0  0  0  0  0  0  0  0
  150.4772  144.5196  158.4759 H   0  0  0  0  0  0  0  0  0  0  0  0
  149.9273  141.1058  154.7923 H   0  0  0  0  0  0  0  0  0  0  0  0
  152.3723  139.4055  155.3011 H   0  0  0  0  0  0  0  0  0  0  0  0
  152.5274  139.1037  157.0109 H   0  0  0  0  0  0  0  0  0  0  0  0
  149.7610  138.6841  156.3521 H   0  0  0  0  0  0  0  0  0  0  0  0
  151.4576  137.5846  157.7798 H   0  0  0  0  0  0  0  0  0  0  0  0
  150.4865  138.4028  153.9453 H   0  0  0  0  0  0  0  0  0  0  0  0
  151.7042  137.2646  154.4569 H   0  0  0  0  0  0  0  0  0  0  0  0
  151.2268  135.0269  154.4924 H   0  0  0  0  0  0  0  0  0  0  0  0
  150.3814  135.1636  156.0168 H   0  0  0  0  0  0  0  0  0  0  0  0
  149.3759  133.9842  153.3910 H   0  0  0  0  0  0  0  0  0  0  0  0
  149.6013  133.1402  154.8949 H   0  0  0  0  0  0  0  0  0  0  0  0
  148.6170  137.0225  156.3033 H   0  0  0  0  0  0  0  0  0  0  0  0
  147.9963  137.7472  154.8261 H   0  0  0  0  0  0  0  0  0  0  0  0
  152.9782  140.1607  158.7652 H   0  0  0  0  0  0  0  0  0  0  0  0
  153.9664  140.8103  160.7929 H   0  0  0  0  0  0  0  0  0  0  0  0
  152.9163  141.7799  161.8230 H   0  0  0  0  0  0  0  0  0  0  0  0
  154.2685  142.5368  160.9667 H   0  0  0  0  0  0  0  0  0  0  0  0
  149.4829  136.4755  153.5699 H   0  0  0  0  0  0  0  0  0  0  0  0
  149.5482  143.3185  156.0374 H   0  0  0  0  0  0  0  0  0  0  0  0
  1  2  1  0  0  0  0
  1 23  1  0  0  0  0
  1 24  1  0  0  0  0
  1 25  1  0  0  0  0
  2 21  1  0  0  0  0
  2  3  2  0  0  0  0
  3  4  1  0  0  0  0
  3 26  1  0  0  0  0
  4 19  2  0  0  0  0
  4  5  1  0  0  0  0
  5  6  2  0  0  0  0
  5 45  1  0  0  0  0
  6  7  1  0  0  0  0
  6 27  1  0  0  0  0
  7  8  1  0  0  0  0
  7 19  1  0  0  0  0
  8  9  1  0  0  0  0
  8 28  1  0  0  0  0
  8 29  1  0  0  0  0
  9 10  1  0  0  0  0
  9 11  1  0  0  0  0
  9 30  1  0  0  0  0
 10 31  1  0  0  0  0
 11 12  1  0  0  0  0
 11 32  1  0  0  0  0
 11 33  1  0  0  0  0
 12 18  1  0  0  0  0
 12 13  1  0  0  0  0
 12 44  1  0  0  0  0
 13 14  1  0  0  0  0
 13 34  1  0  0  0  0
 13 35  1  0  0  0  0
 14 15  1  0  0  0  0
 14 36  1  0  0  0  0
 14 37  1  0  0  0  0
 15 16  1  0  0  0  0
 16 17  2  0  0  0  0
 16 18  1  0  0  0  0
 18 38  1  0  0  0  0
 18 39  1  0  0  0  0
 19 20  1  0  0  0  0
 20 21  2  0  0  0  0
 20 40  1  0  0  0  0
 21 22  1  0  0  0  0
 22 41  1  0  0  0  0
 22 42  1  0  0  0  0
 22 43  1  0  0  0  0
M  CHG  1   5   1
M  CHG  1  12   1
M  CHG  1  15  -1
M  END
> <s_m_source_file>
AV-unprocessed.smi

> <i_m_source_file_index>
1056

> <i_lp_mmshare_version>
43012

> <i_f3d_flags>
0

> <s_epik_input>
W0NIM11jKFtjSF0xKWMoW0NIM10pW2NIXWMoYzEyKW4oW2NIXW4yKVtDSDJdW0NASF0oW09IXSlbQ0gyXU4zW0NIMl1bQ0gyXVtOSF1DKD1PKVtDSDJdMw==

> <s_epik_cmdline>
J2VwaWtfcHl0aG9uJywgJy1waCcsICc3LjAnLCAnLXRuJywgJzgnLCAnLW1hJywgJzIwMCcsICctbWV0YWxfYmluZGluZycsICctaW1hZScsICc8aW5maWxlLm1hZT4nLCAnLW9tYWUnLCAnPG91dGZpbGUubWFlPic=

> <r_epik_Ionization_Penalty>
6.22415

> <r_epik_Ionization_Penalty_Charging>
6.22415

> <r_epik_Ionization_Penalty_Neutral>
4.02797e-07

> <r_epik_State_Penalty>
6.37716

> <r_epik_Charging_Adjusted_Penalty>
12.6013

> <i_epik_Tot_Q>
1

> <i_epik_Tot_abs_Q>
3

> <r_epik_Metal_State_Penalty>
2.53509

> <b_epik_Metal_Only>
1

> <s_lp_Force_Field>
OPLS_2005

> <r_lp_Energy>
27.8537

> <b_lp_Chiralities_Consistent>
1

> <s_lp_Variant>
AV-unprocessed.smi:1056-19

> <Gold.Version>
5.8.1

> <Gold.Id.Protein>
6NUR|6NUR_protein|mol2

> <Gold.PLP.Fitness>
51.9764

> <Gold.PLP.PLP>
-41.9171

> <Gold.PLP.part.hbond>
-2.0000

> <Gold.PLP.part.metal>
0.0000

> <Gold.PLP.part.buried>
-5.6660

> <Gold.PLP.part.nonpolar>
-34.4398

> <Gold.PLP.part.repulsive>
0.2499

> <Gold.PLP.ligand.clash>
0.0000

> <Gold.PLP.ligand.torsion>
0.9888

> <Gold.PLP.Chemscore.Hbond>
4.0000

> <Gold.PLP.Chemscore.CHOScore>
0.0000

> <Gold.PLP.Chemscore.Metal>
0.0000

> <Gold.Chemscore.Hbonds>
donor molecule, donor type, donor heavy atom, donor atom, acceptor molecule, acceptor atom, score
      L1  H     5    45       P1  8028  2.00
      L1  H    12    44       P1  7948  2.00

> <Gold.PLP.Chemscore.Internal.Correction>
0.0370

> <Gold.Rescore>
     Score         DG    S(hbond)    S(metal)    S(lipo)     H(rot)  DE(clash)    DE(int)     intcor
     17.69     -18.79       1.97        0.00     109.36       2.37       0.02       1.08       ----

> <Gold.Chemscore.Fitness>
17.6942

> <Gold.Chemscore.DG>
-18.7935

> <Gold.Chemscore.ZeroCoef>
-5.4800

> <Gold.Chemscore.Hbond>
1.9736

> <Gold.Chemscore.Metal>
0.0000

> <Gold.Chemscore.Lipo>
109.3611

> <Gold.Chemscore.Internal_Hbond>
0.0000

> <Gold.Chemscore.DEClash>
0.0233

> <Gold.Chemscore.DEInternal>
1.0760

> <Gold.Chemscore.Rot>
2.3724

> <Gold.Chemscore.Internal.Correction>
   9.000000E+99

> <Gold.Chemscore.Hbonds>
donor molecule, donor type, donor heavy atom, donor atom, acceptor molecule, acceptor atom, score
      L1  H     5    45       P1  8028  0.98
      L1  H    12    44       P1  7948  0.74

> <Gold.Chemscore.Hbond.Weighted>
-6.5917

> <Gold.Chemscore.Metal.Weighted>
-0.0000

> <Gold.Chemscore.Lipo.Weighted>
-12.7952

> <Gold.Chemscore.Internal_Hbond.Weighted>
0.0000

> <Gold.Chemscore.DEClash.Weighted>
0.0233

> <Gold.Chemscore.DEInternal.Weighted>
1.0760

> <Gold.Chemscore.Rot.Weighted>
6.0734

> <Gold.Chemscore.Internal.Correction.Weighted>
   9.000000E+99

> <Gold.Protein.RotatedTorsions>
[ 6907 6896 6895 6894 ] final  -42.64 input  -60.11 | X-H torsion
[ 7974 7965 7964 7962 ] final -126.81 input  175.53 | X-H torsion
[ 8008 7997 7996 7995 ] final  -61.69 input   59.86 | X-H torsion
[ 10167 10162 10161 10158 ] final  -84.06 input  -65.29 | X-H torsion
[ 10718 10713 10712 10709 ] final  146.26 input   66.30 | X-H torsion
[ 10763 10752 10751 10750 ] final  169.62 input  -60.55 | X-H torsion
[ 11005 11000 10999 10996 ] final  137.14 input  -57.11 | X-H torsion

> <Gold.Protein.ActiveResidues>
 VAL166  LYS551  ARG553  GLY616  TRP617  ASP618  TYR619  PRO620  LYS621  CYS622 
 ASP623  PHE694  ASN695  SER759  ASP760  ASP761  ALA762  ILE779  LEU786  VAL792 
 PHE793  MET794  SER795  GLU796  ALA797  LYS798  CYS799  TRP800  GLU811  SER814 

> <Gold.Protein.RotatedAtoms>
  150.9530  134.8928  159.7683 H   0  0  0  0  0  0  0  0  0  0  0  0  # atno 6907 bound_to 6896
  152.5127  134.3780  159.9351 H   0  0  0  0  0  0  0  0  0  0  0  0  # atno 6908 bound_to 6896
  151.3795  133.3786  159.2743 H   0  0  0  0  0  0  0  0  0  0  0  0  # atno 6909 bound_to 6896
  144.9835  140.7663  143.4598 H   0  0  0  0  0  0  0  0  0  0  0  0  # atno 7974 bound_to 7965
  154.4460  140.1012  156.6470 H   0  0  0  0  0  0  0  0  0  0  0  0  # atno 8008 bound_to 7997
  155.5439  140.3484  155.4434 H   0  0  0  0  0  0  0  0  0  0  0  0  # atno 8009 bound_to 7997
  156.0577  140.1319  156.9966 H   0  0  0  0  0  0  0  0  0  0  0  0  # atno 8010 bound_to 7997
  140.4168  143.2600  151.8944 H   0  0  0  0  0  0  0  0  0  0  0  0  # atno 10167 bound_to 10162
  157.3354  131.0927  151.1128 H   0  0  0  0  0  0  0  0  0  0  0  0  # atno 10718 bound_to 10713
  154.3858  135.2753  155.2184 H   0  0  0  0  0  0  0  0  0  0  0  0  # atno 10763 bound_to 10752
  154.4272  135.5986  153.6049 H   0  0  0  0  0  0  0  0  0  0  0  0  # atno 10764 bound_to 10752
  152.9833  135.5986  154.4106 H   0  0  0  0  0  0  0  0  0  0  0  0  # atno 10765 bound_to 10752
  140.0094  134.9445  157.0244 H   0  0  0  0  0  0  0  0  0  0  0  0  # atno 11005 bound_to 11000
  145.2387  139.2082  143.5004 LP  0  0  0  0  0  0  0  0  0  0  0  0  # atno 17320 bound_to 7965
  146.3414  140.2278  142.8592 LP  0  0  0  0  0  0  0  0  0  0  0  0  # atno 17321 bound_to 7965
  139.4782  144.5479  151.8430 LP  0  0  0  0  0  0  0  0  0  0  0  0  # atno 17342 bound_to 10162
  140.4578  144.1765  150.5903 LP  0  0  0  0  0  0  0  0  0  0  0  0  # atno 17343 bound_to 10162
  157.2360  130.6547  149.5869 LP  0  0  0  0  0  0  0  0  0  0  0  0  # atno 17370 bound_to 10713
  155.9701  130.4583  150.5996 LP  0  0  0  0  0  0  0  0  0  0  0  0  # atno 17371 bound_to 10713
  140.4583  134.1511  155.7188 LP  0  0  0  0  0  0  0  0  0  0  0  0  # atno 17394 bound_to 11000
  141.1700  133.8628  157.1600 LP  0  0  0  0  0  0  0  0  0  0  0  0  # atno 17395 bound_to 11000

$$$$
