#       Name:                AV-unprocessed.smi:1830
#       Creating user name   scv26
#       Creation time:       Fri Mar 27 09:13:58 2020


#       File generated by GOLD software.
#

@<TRIPOS>MOLECULE
AV-unprocessed.smi:1830
    59    62     1
SMALL
NO_CHARGES


@<TRIPOS>ATOM
      1 ****         0.8231   1.5315  -1.9490 O.2            1 S1                 0.0000
      2 ****         0.3759   0.3886  -2.0368 C.2            1 S1                 0.0000
      3 ****         1.1328  -0.7127  -1.9370 N.am           1 S1                 0.0000
      4 ****         2.5796  -0.7269  -1.7400 C.3            1 S1                 0.0000
      5 ****         3.0073  -0.2475  -0.3383 C.3            1 S1                 0.0000
      6 ****         2.3654  -1.0589   0.8073 C.3            1 S1                 0.0000
      7 ****         2.9078  -0.6706   2.1299 N.4            1 S1                 1.0000
      8 ****         2.3472   0.5565   2.7379 C.3            1 S1                 0.0000
      9 ****         3.4680   1.1621   3.5978 C.3            1 S1                 0.0000
     10 ****         4.6447   0.1869   3.4828 C.3            1 S1                 0.0000
     11 ****         4.3805  -0.5695   2.1800 C.3            1 S1                 0.0000
     12 ****         4.9366   0.1784   0.9474 C.3            1 S1                 0.0000
     13 ****         4.4199  -0.3873  -0.2492 O.3            1 S1                 0.0000
     14 ****        -0.9175   0.0755  -2.2190 N.am           1 S1                 0.0000
     15 ****        -2.0306   0.9601  -2.2955 C.ar           1 S1                 0.0000
     16 ****        -1.9211   2.2566  -2.8606 C.ar           1 S1                 0.0000
     17 ****        -3.0598   3.0801  -2.9497 C.ar           1 S1                 0.0000
     18 ****        -4.2931   2.5913  -2.4836 C.ar           1 S1                 0.0000
     19 ****        -4.3671   1.3477  -1.9657 N.pl3          1 S1                 1.0000
     20 ****        -3.3061   0.5106  -1.8550 C.ar           1 S1                 0.0000
     21 ****        -3.4990  -0.7618  -1.2750 N.3            1 S1                 0.0000
     22 ****        -2.8683  -0.9302   0.0319 C.3            1 S1                 0.0000
     23 ****        -3.8084  -1.8113   0.8575 C.3            1 S1                 0.0000
     24 ****        -5.1739  -1.5350   0.2404 C.3            1 S1                 0.0000
     25 ****        -4.8365  -1.3522  -1.2380 C.3            1 S1                 0.0000
     26 ****         0.6800  -1.6112  -2.0224 H              1 S1                 0.0000
     27 ****         2.9269  -1.7477  -1.9018 H              1 S1                 0.0000
     28 ****         3.0564  -0.1155  -2.5077 H              1 S1                 0.0000
     29 ****         2.7511   0.8080  -0.2360 H              1 S1                 0.0000
     30 ****         1.2800  -0.9513   0.8134 H              1 S1                 0.0000
     31 ****         2.5744  -2.1189   0.6586 H              1 S1                 0.0000
     32 ****         2.0381   1.2700   1.9731 H              1 S1                 0.0000
     33 ****         1.4678   0.3065   3.3318 H              1 S1                 0.0000
     34 ****         3.7497   2.1391   3.2032 H              1 S1                 0.0000
     35 ****         3.1614   1.3042   4.6345 H              1 S1                 0.0000
     36 ****         5.6142   0.6861   3.5023 H              1 S1                 0.0000
     37 ****         4.6182  -0.5118   4.3202 H              1 S1                 0.0000
     38 ****         4.8098  -1.5717   2.2140 H              1 S1                 0.0000
     39 ****         4.6954   1.2423   0.9814 H              1 S1                 0.0000
     40 ****         6.0243   0.1080   0.9293 H              1 S1                 0.0000
     41 ****        -1.1453  -0.9078  -2.1922 H              1 S1                 0.0000
     42 ****        -0.9833   2.6290  -3.2442 H              1 S1                 0.0000
     43 ****        -2.9883   4.0700  -3.3766 H              1 S1                 0.0000
     44 ****        -5.2171   3.1506  -2.5124 H              1 S1                 0.0000
     45 ****        -1.8820  -1.3861  -0.0600 H              1 S1                 0.0000
     46 ****        -2.7445   0.0402   0.5164 H              1 S1                 0.0000
     47 ****        -3.5487  -2.8619   0.7196 H              1 S1                 0.0000
     48 ****        -3.7685  -1.5914   1.9247 H              1 S1                 0.0000
     49 ****        -5.8936  -2.3353   0.4161 H              1 S1                 0.0000
     50 ****        -5.5863  -0.6103   0.6468 H              1 S1                 0.0000
     51 ****        -5.6040  -0.7803  -1.7586 H              1 S1                 0.0000
     52 ****        -4.7826  -2.3248  -1.7283 H              1 S1                 0.0000
     53 ****         2.6626  -1.4111   2.7717 H              1 S1                 0.0000
     54 ****        -5.2753   1.0200  -1.6359 H              1 S1                 0.0000
     55 ****         1.8006   1.6755  -1.7950 LP             1 S1                 0.0000
     56 ****         0.2091   2.3164  -2.0317 LP             1 S1                 0.0000
     57 ****         4.8398   0.0730  -1.0314 LP             1 S1                 0.0000
     58 ****         4.6501  -1.3602  -0.2720 LP             1 S1                 0.0000
     59 ****        -3.0213  -1.2895  -1.9774 LP             1 S1                 0.0000
@<TRIPOS>BOND
    1    1    2 2     
    2    2    3 am    
    3    2   14 am    
    4    3    4 1     
    5    3   26 1     
    6    4    5 1     
    7    4   27 1     
    8    4   28 1     
    9    5   13 1     
   10    5    6 1     
   11    5   29 1     
   12    6    7 1     
   13    6   30 1     
   14    6   31 1     
   15    7   11 1     
   16    7    8 1     
   17    7   53 1     
   18    8    9 1     
   19    8   32 1     
   20    8   33 1     
   21    9   10 1     
   22    9   34 1     
   23    9   35 1     
   24   10   11 1     
   25   10   36 1     
   26   10   37 1     
   27   11   12 1     
   28   11   38 1     
   29   12   13 1     
   30   12   39 1     
   31   12   40 1     
   32   14   15 1     
   33   14   41 1     
   34   15   20 ar    
   35   15   16 ar    
   36   16   17 ar    
   37   16   42 1     
   38   17   18 ar    
   39   17   43 1     
   40   18   19 ar    
   41   18   44 1     
   42   19   20 ar    
   43   19   54 1     
   44   20   21 1     
   45   21   25 1     
   46   21   22 1     
   47   22   23 1     
   48   22   45 1     
   49   22   46 1     
   50   23   24 1     
   51   23   47 1     
   52   23   48 1     
   53   24   25 1     
   54   24   49 1     
   55   24   50 1     
   56   25   51 1     
   57   25   52 1     
   58    1   55 1     
   59    1   56 1     
   60   13   57 1     
   61   13   58 1     
   62   21   59 1     
@<TRIPOS>SUBSTRUCTURE
      1 S1             1
@<TRIPOS>SET
LONE_PAIRS      STATIC     ATOMS    <user>   **** ""
5 55 56 57 58 59
DONOR_HYDROGENS      STATIC     ATOMS    <user>   **** ""
4 26 53 41 54
ATOM$BLUE        STATIC     ATOMS    COLORGROUP SYSTEM
5 55 56 57 58 59
ATOM$RED        STATIC     ATOMS    COLORGROUP SYSTEM
4 26 53 41 54
