AV-unprocessed.smi:1015|AV-procd|sdf|4435|dock4
  -GOLD-   22720 2393D 1   1.00000     0.00000
 Structure written by MMmdl.
 43 44  0  0  0  0  0  0  0  0  2 V2000
  141.9954  134.9623  153.1872 C   0  0  0  0  0  0  0  0  0  0  0  0
  143.2086  135.3644  152.5755 O   0  0  0  0  0  0  0  0  0  0  0  0
  143.6133  136.6642  152.9724 C   0  0  0  0  0  0  0  0  0  0  0  0
  145.0234  136.9345  152.4247 C   0  0  0  0  0  0  0  0  0  0  0  0
  145.5296  138.2808  152.7949 N   0  3  2  0  0  0  0  0  0  0  0  0
  146.6628  138.7096  151.9352 C   0  0  0  0  0  0  0  0  0  0  0  0
  147.0894  140.1567  152.2466 C   0  0  0  0  0  0  0  0  0  0  0  0
  147.4351  140.3570  153.7340 C   0  0  2  0  0  0  0  0  0  0  0  0
  148.8001  139.7291  154.1035 C   0  0  0  0  0  0  0  0  0  0  0  0
  149.4040  140.3833  155.2595 N   0  0  0  0  0  0  0  0  0  0  0  0
  150.7039  140.3313  155.5923 C   0  0  0  0  0  0  0  0  0  0  0  0
  151.5615  139.7779  154.9049 O   0  0  0  0  0  0  0  0  0  0  0  0
  151.0894  140.9689  156.9263 C   0  0  0  0  0  0  0  0  0  0  0  0
  151.6700  139.9768  157.8115 N   0  0  0  0  0  0  0  0  0  0  0  0
  151.1423  138.8885  158.3763 C   0  0  0  0  0  0  0  0  0  0  0  0
  152.0364  138.2294  159.0971 N   0  0  0  0  0  0  0  0  0  0  0  0
  153.1833  138.9914  158.9493 N   0  0  0  0  0  0  0  0  0  0  0  0
  152.9727  140.0288  158.1866 N   0  0  0  0  0  0  0  0  0  0  0  0
  146.2479  139.8589  154.5856 C   0  0  0  0  0  0  0  0  0  0  0  0
  145.8561  138.4125  154.2396 C   0  0  0  0  0  0  0  0  0  0  0  0
  141.7317  133.9589  152.8533 H   0  0  0  0  0  0  0  0  0  0  0  0
  141.1776  135.6320  152.9182 H   0  0  0  0  0  0  0  0  0  0  0  0
  142.0885  134.9419  154.2738 H   0  0  0  0  0  0  0  0  0  0  0  0
  142.8986  137.4130  152.6306 H   0  0  0  0  0  0  0  0  0  0  0  0
  143.6333  136.7195  154.0620 H   0  0  0  0  0  0  0  0  0  0  0  0
  145.7216  136.1722  152.7732 H   0  0  0  0  0  0  0  0  0  0  0  0
  144.9852  136.8406  151.3385 H   0  0  0  0  0  0  0  0  0  0  0  0
  147.5011  138.0241  152.0651 H   0  0  0  0  0  0  0  0  0  0  0  0
  146.3691  138.6472  150.8867 H   0  0  0  0  0  0  0  0  0  0  0  0
  147.9353  140.4404  151.6195 H   0  0  0  0  0  0  0  0  0  0  0  0
  146.2751  140.8301  151.9752 H   0  0  0  0  0  0  0  0  0  0  0  0
  147.5303  141.4304  153.9047 H   0  0  0  0  0  0  0  0  0  0  0  0
  148.7085  138.6550  154.2667 H   0  0  0  0  0  0  0  0  0  0  0  0
  149.4908  139.8437  153.2677 H   0  0  0  0  0  0  0  0  0  0  0  0
  148.7761  140.8706  155.8826 H   0  0  0  0  0  0  0  0  0  0  0  0
  151.8079  141.7747  156.7674 H   0  0  0  0  0  0  0  0  0  0  0  0
  150.2121  141.4051  157.4058 H   0  0  0  0  0  0  0  0  0  0  0  0
  150.1157  138.5761  158.2516 H   0  0  0  0  0  0  0  0  0  0  0  0
  146.4602  139.9469  155.6509 H   0  0  0  0  0  0  0  0  0  0  0  0
  145.3880  140.5060  154.4072 H   0  0  0  0  0  0  0  0  0  0  0  0
  144.9988  138.1307  154.8493 H   0  0  0  0  0  0  0  0  0  0  0  0
  146.6617  137.7248  154.4997 H   0  0  0  0  0  0  0  0  0  0  0  0
  144.7758  138.9261  152.6048 H   0  0  0  0  0  0  0  0  0  0  0  0
  1  2  1  0  0  0  0
  1 21  1  0  0  0  0
  1 22  1  0  0  0  0
  1 23  1  0  0  0  0
  2  3  1  0  0  0  0
  3  4  1  0  0  0  0
  3 24  1  0  0  0  0
  3 25  1  0  0  0  0
  4  5  1  0  0  0  0
  4 26  1  0  0  0  0
  4 27  1  0  0  0  0
  5 20  1  0  0  0  0
  5  6  1  0  0  0  0
  5 43  1  0  0  0  0
  6  7  1  0  0  0  0
  6 28  1  0  0  0  0
  6 29  1  0  0  0  0
  7  8  1  0  0  0  0
  7 30  1  0  0  0  0
  7 31  1  0  0  0  0
  8  9  1  0  0  0  0
  8 19  1  0  0  0  0
  8 32  1  0  0  0  0
  9 10  1  0  0  0  0
  9 33  1  0  0  0  0
  9 34  1  0  0  0  0
 10 11  1  0  0  0  0
 10 35  1  0  0  0  0
 11 12  2  0  0  0  0
 11 13  1  0  0  0  0
 13 14  1  0  0  0  0
 13 36  1  0  0  0  0
 13 37  1  0  0  0  0
 14 18  1  0  0  0  0
 14 15  1  0  0  0  0
 15 16  2  0  0  0  0
 15 38  1  0  0  0  0
 16 17  1  0  0  0  0
 17 18  2  0  0  0  0
 19 20  1  0  0  0  0
 19 39  1  0  0  0  0
 19 40  1  0  0  0  0
 20 41  1  0  0  0  0
 20 42  1  0  0  0  0
M  CHG  1   5   1
M  END
> <s_m_source_file>
AV-unprocessed.smi

> <i_m_source_file_index>
1015

> <i_lp_mmshare_version>
43012

> <i_f3d_flags>
0

> <s_epik_input>
W0NIM11PW0NIMl1bQ0gyXU4xW0NIMl1bQ0gyXVtDSF0oW0NIMl1bQ0gyXTEpW0NIMl1bTkhdQyg9TylbQ0gyXW4yW2NIXW5ubjI=

> <s_epik_cmdline>
J2VwaWtfcHl0aG9uJywgJy1waCcsICc3LjAnLCAnLXRuJywgJzgnLCAnLW1hJywgJzIwMCcsICctbWV0YWxfYmluZGluZycsICctaW1hZScsICc8aW5maWxlLm1hZT4nLCAnLW9tYWUnLCAnPG91dGZpbGUubWFlPic=

> <r_lp_tautomer_probability>
1

> <r_epik_Ionization_Penalty>
0.0104119

> <r_epik_Ionization_Penalty_Charging>
0.0104107

> <r_epik_Ionization_Penalty_Neutral>
1.19574e-06

> <r_epik_State_Penalty>
0.00795975

> <r_epik_Charging_Adjusted_Penalty>
0.0183705

> <i_epik_Tot_Q>
1

> <i_epik_Tot_abs_Q>
1

> <r_epik_Metal_State_Penalty>
0.00795975

> <b_epik_Metal_Only>
0

> <s_lp_Force_Field>
OPLS_2005

> <r_lp_Energy>
22.9597

> <b_lp_Chiralities_Consistent>
1

> <s_lp_Variant>
AV-unprocessed.smi:1015-2

> <Gold.Version>
5.8.1

> <Gold.Id.Protein>
6NUR|6NUR_protein|mol2

> <Gold.PLP.Fitness>
39.9539

> <Gold.PLP.PLP>
-28.9819

> <Gold.PLP.part.hbond>
-3.0000

> <Gold.PLP.part.metal>
0.0000

> <Gold.PLP.part.buried>
-0.8932

> <Gold.PLP.part.nonpolar>
-25.7066

> <Gold.PLP.part.repulsive>
0.3135

> <Gold.PLP.ligand.clash>
0.0000

> <Gold.PLP.ligand.torsion>
0.5438

> <Gold.PLP.Chemscore.Hbond>
4.0000

> <Gold.PLP.Chemscore.CHOScore>
0.0000

> <Gold.PLP.Chemscore.Metal>
0.0000

> <Gold.Chemscore.Hbonds>
donor molecule, donor type, donor heavy atom, donor atom, acceptor molecule, acceptor atom, score
      L1  H     5    43       P1 10175  2.00
      P1  H  7989  7998       L1    12  1.00
      P1  H  7997  8010       L1    18  1.00

> <Gold.PLP.Chemscore.Internal.Correction>
0.0597

> <Gold.Rescore>
     Score         DG    S(hbond)    S(metal)    S(lipo)     H(rot)  DE(clash)    DE(int)     intcor
     12.07     -12.85       2.72        0.00      55.33       3.19       0.24       0.55       ----

> <Gold.Chemscore.Fitness>
12.0667

> <Gold.Chemscore.DG>
-12.8547

> <Gold.Chemscore.ZeroCoef>
-5.4800

> <Gold.Chemscore.Hbond>
2.7171

> <Gold.Chemscore.Metal>
0.0000

> <Gold.Chemscore.Lipo>
55.3264

> <Gold.Chemscore.Internal_Hbond>
0.0000

> <Gold.Chemscore.DEClash>
0.2359

> <Gold.Chemscore.DEInternal>
0.5520

> <Gold.Chemscore.Rot>
3.1928

> <Gold.Chemscore.Internal.Correction>
   9.000000E+99

> <Gold.Chemscore.Hbonds>
donor molecule, donor type, donor heavy atom, donor atom, acceptor molecule, acceptor atom, score
      L1  H     5    43       P1 10175  1.00
      P1  H  7989  7998       L1    12  0.34
      P1  H  7997  8010       L1    18  0.55

> <Gold.Chemscore.Hbond.Weighted>
-9.0752

> <Gold.Chemscore.Metal.Weighted>
-0.0000

> <Gold.Chemscore.Lipo.Weighted>
-6.4732

> <Gold.Chemscore.Internal_Hbond.Weighted>
0.0000

> <Gold.Chemscore.DEClash.Weighted>
0.2359

> <Gold.Chemscore.DEInternal.Weighted>
0.5520

> <Gold.Chemscore.Rot.Weighted>
8.1737

> <Gold.Chemscore.Internal.Correction.Weighted>
   9.000000E+99

> <Gold.Protein.RotatedTorsions>
[ 6907 6896 6895 6894 ] final -143.10 input  -60.11 | X-H torsion
[ 7974 7965 7964 7962 ] final  137.25 input  175.53 | X-H torsion
[ 8008 7997 7996 7995 ] final   47.93 input   59.86 | X-H torsion
[ 10167 10162 10161 10158 ] final   13.80 input  -65.29 | X-H torsion
[ 10718 10713 10712 10709 ] final  147.99 input   66.30 | X-H torsion
[ 10763 10752 10751 10750 ] final  114.20 input  -60.55 | X-H torsion
[ 11005 11000 10999 10996 ] final  -36.58 input  -57.11 | X-H torsion

> <Gold.Protein.ActiveResidues>
 VAL166  LYS551  ARG553  GLY616  TRP617  ASP618  TYR619  PRO620  LYS621  CYS622 
 ASP623  PHE694  ASN695  SER759  ASP760  ASP761  ALA762  ILE779  LEU786  VAL792 
 PHE793  MET794  SER795  GLU796  ALA797  LYS798  CYS799  TRP800  GLU811  SER814 

> <Gold.Protein.RotatedAtoms>
  151.0959  133.5280  159.2612 H   0  0  0  0  0  0  0  0  0  0  0  0  # atno 6907 bound_to 6896
  151.2129  135.0488  159.8928 H   0  0  0  0  0  0  0  0  0  0  0  0  # atno 6908 bound_to 6896
  152.5438  134.0773  159.8273 H   0  0  0  0  0  0  0  0  0  0  0  0  # atno 6909 bound_to 6896
  144.9486  139.4845  143.5537 H   0  0  0  0  0  0  0  0  0  0  0  0  # atno 7974 bound_to 7965
  155.3772  140.3427  155.4245 H   0  0  0  0  0  0  0  0  0  0  0  0  # atno 8008 bound_to 7997
  156.1630  140.1607  156.8613 H   0  0  0  0  0  0  0  0  0  0  0  0  # atno 8009 bound_to 7997
  154.5158  140.0779  156.8060 H   0  0  0  0  0  0  0  0  0  0  0  0  # atno 8010 bound_to 7997
  140.5978  143.8665  150.6935 H   0  0  0  0  0  0  0  0  0  0  0  0  # atno 10167 bound_to 10162
  157.3141  131.0893  151.1293 H   0  0  0  0  0  0  0  0  0  0  0  0  # atno 10718 bound_to 10713
  153.5037  135.3632  155.2552 H   0  0  0  0  0  0  0  0  0  0  0  0  # atno 10763 bound_to 10752
  154.8746  135.4006  154.3448 H   0  0  0  0  0  0  0  0  0  0  0  0  # atno 10764 bound_to 10752
  153.4089  135.7077  153.6439 H   0  0  0  0  0  0  0  0  0  0  0  0  # atno 10765 bound_to 10752
  140.9885  133.7017  156.1808 H   0  0  0  0  0  0  0  0  0  0  0  0  # atno 11005 bound_to 11000
  146.3313  139.8556  142.8865 LP  0  0  0  0  0  0  0  0  0  0  0  0  # atno 17320 bound_to 7965
  145.2879  141.0158  143.3680 LP  0  0  0  0  0  0  0  0  0  0  0  0  # atno 17321 bound_to 7965
  140.2204  143.3813  152.1647 LP  0  0  0  0  0  0  0  0  0  0  0  0  # atno 17342 bound_to 10162
  139.5270  144.7114  151.5192 LP  0  0  0  0  0  0  0  0  0  0  0  0  # atno 17343 bound_to 10162
  157.2603  130.6656  149.5972 LP  0  0  0  0  0  0  0  0  0  0  0  0  # atno 17370 bound_to 10713
  155.9680  130.4510  150.5721 LP  0  0  0  0  0  0  0  0  0  0  0  0  # atno 17371 bound_to 10713
  140.7076  134.4496  157.5583 LP  0  0  0  0  0  0  0  0  0  0  0  0  # atno 17394 bound_to 11000
  139.8981  134.8620  156.2014 LP  0  0  0  0  0  0  0  0  0  0  0  0  # atno 17395 bound_to 11000

$$$$
