AV-unprocessed.smi:304|AV-procd|sdf|2277|dock9
  -GOLD-   2262022173D 1   1.00000     0.00000
 Structure written by MMmdl.
 36 38  0  0  0  0  0  0  0  0  1 V2000
  144.7293  138.0844  153.5492 O   0  0  0  0  0  0  0  0  0  0  0  0
  145.9621  137.8588  152.8940 C   0  0  1  0  0  0  0  0  0  0  0  0
  145.7683  136.7264  151.8735 C   0  0  0  0  0  0  0  0  0  0  0  0
  144.9995  135.6944  152.4685 O   0  0  0  0  0  0  0  0  0  0  0  0
  145.6122  134.4199  152.3548 C   0  0  0  0  0  0  0  0  0  0  0  0
  144.9308  133.6815  151.2470 C   0  0  0  0  0  0  0  0  0  0  0  0
  145.4952  133.2548  150.0718 C   0  0  0  0  0  0  0  0  0  0  0  0
  144.5813  132.5587  149.2270 C   0  0  0  0  0  0  0  0  0  0  0  0
  143.3293  132.4542  149.7716 C   0  0  0  0  0  0  0  0  0  0  0  0
  143.2490  133.2103  151.3390 S   0  0  0  0  0  0  0  0  0  0  0  0
  146.4197  139.1667  152.2196 C   0  0  0  0  0  0  0  0  0  0  0  0
  147.2020  140.0088  153.1076 N   0  0  0  0  0  0  0  0  0  0  0  0
  146.8056  141.1563  153.6906 C   0  0  0  0  0  0  0  0  0  0  0  0
  147.6823  141.7757  154.4757 N   0  0  0  0  0  0  0  0  0  0  0  0
  148.7767  140.9320  154.3927 C   0  0  0  0  0  0  0  0  0  0  0  0
  150.0496  141.0199  154.9998 C   0  0  0  0  0  0  0  0  0  0  0  0
  151.0234  140.0267  154.7658 C   0  0  0  0  0  0  0  0  0  0  0  0
  152.2381  140.1262  155.3559 F   0  0  0  0  0  0  0  0  0  0  0  0
  150.7395  138.9327  153.9215 C   0  0  0  0  0  0  0  0  0  0  0  0
  151.6808  137.9844  153.7014 F   0  0  0  0  0  0  0  0  0  0  0  0
  149.4779  138.8237  153.3057 C   0  0  0  0  0  0  0  0  0  0  0  0
  148.5089  139.8161  153.5433 C   0  0  0  0  0  0  0  0  0  0  0  0
  144.5108  139.0002  153.4646 H   0  0  0  0  0  0  0  0  0  0  0  0
  146.7070  137.5616  153.6336 H   0  0  0  0  0  0  0  0  0  0  0  0
  145.3020  137.0956  150.9582 H   0  0  0  0  0  0  0  0  0  0  0  0
  146.7387  136.3109  151.5966 H   0  0  0  0  0  0  0  0  0  0  0  0
  146.6763  134.5285  152.1393 H   0  0  0  0  0  0  0  0  0  0  0  0
  145.5132  133.8634  153.2877 H   0  0  0  0  0  0  0  0  0  0  0  0
  146.5252  133.4181  149.7904 H   0  0  0  0  0  0  0  0  0  0  0  0
  144.8710  132.1625  148.2650 H   0  0  0  0  0  0  0  0  0  0  0  0
  142.4547  131.9793  149.3521 H   0  0  0  0  0  0  0  0  0  0  0  0
  147.0287  138.9441  151.3423 H   0  0  0  0  0  0  0  0  0  0  0  0
  145.5597  139.7353  151.8636 H   0  0  0  0  0  0  0  0  0  0  0  0
  145.8166  141.5597  153.5285 H   0  0  0  0  0  0  0  0  0  0  0  0
  150.2785  141.8535  155.6470 H   0  0  0  0  0  0  0  0  0  0  0  0
  149.2593  137.9889  152.6567 H   0  0  0  0  0  0  0  0  0  0  0  0
  1  2  1  0  0  0  0
  1 23  1  0  0  0  0
  2  3  1  0  0  0  0
  2 11  1  0  0  0  0
  2 24  1  0  0  0  0
  3  4  1  0  0  0  0
  3 25  1  0  0  0  0
  3 26  1  0  0  0  0
  4  5  1  0  0  0  0
  5  6  1  0  0  0  0
  5 27  1  0  0  0  0
  5 28  1  0  0  0  0
  6 10  1  0  0  0  0
  6  7  2  0  0  0  0
  7  8  1  0  0  0  0
  7 29  1  0  0  0  0
  8  9  2  0  0  0  0
  8 30  1  0  0  0  0
  9 10  1  0  0  0  0
  9 31  1  0  0  0  0
 11 12  1  0  0  0  0
 11 32  1  0  0  0  0
 11 33  1  0  0  0  0
 12 22  1  0  0  0  0
 12 13  1  0  0  0  0
 13 14  2  0  0  0  0
 13 34  1  0  0  0  0
 14 15  1  0  0  0  0
 15 22  2  0  0  0  0
 15 16  1  0  0  0  0
 16 17  2  0  0  0  0
 16 35  1  0  0  0  0
 17 18  1  0  0  0  0
 17 19  1  0  0  0  0
 19 20  1  0  0  0  0
 19 21  2  0  0  0  0
 21 22  1  0  0  0  0
 21 36  1  0  0  0  0
M  END
> <s_m_source_file>
AV-unprocessed.smi

> <i_m_source_file_index>
304

> <i_lp_mmshare_version>
43012

> <i_f3d_flags>
0

> <s_epik_input>
W2NIXTFjKEYpYyhGKVtjSF1jKGMxMiluKFtjSF1uMilbQ0gyXVtDQEhdKFtPSF0pW0NIMl1PW0NIMl1jM1tjSF1bY0hdW2NIXXMz

> <s_epik_cmdline>
J2VwaWtfcHl0aG9uJywgJy1waCcsICc3LjAnLCAnLXRuJywgJzgnLCAnLW1hJywgJzIwMCcsICctbWV0YWxfYmluZGluZycsICctaW1hZScsICc8aW5maWxlLm1hZT4nLCAnLW9tYWUnLCAnPG91dGZpbGUubWFlPic=

> <r_epik_Ionization_Penalty>
0.0152118

> <r_epik_Ionization_Penalty_Charging>
0

> <r_epik_Ionization_Penalty_Neutral>
0.0152118

> <r_epik_State_Penalty>
0.0119413

> <r_epik_Charging_Adjusted_Penalty>
0.0119413

> <i_epik_Tot_Q>
0

> <i_epik_Tot_abs_Q>
0

> <r_epik_Metal_State_Penalty>
1.20623e-05

> <b_epik_Metal_Only>
0

> <s_lp_Force_Field>
OPLS_2005

> <r_lp_Energy>
8.44111

> <b_lp_Chiralities_Consistent>
1

> <s_lp_Variant>
AV-unprocessed.smi:304-2

> <Gold.Version>
5.8.1

> <Gold.Id.Protein>
6NUR|6NUR_protein|mol2

> <Gold.PLP.Fitness>
49.3793

> <Gold.PLP.PLP>
-43.7249

> <Gold.PLP.part.hbond>
-1.0000

> <Gold.PLP.part.metal>
0.0000

> <Gold.PLP.part.buried>
1.9401

> <Gold.PLP.part.nonpolar>
-46.0874

> <Gold.PLP.part.repulsive>
0.2403

> <Gold.PLP.ligand.clash>
0.0000

> <Gold.PLP.ligand.torsion>
1.2848

> <Gold.PLP.Chemscore.Hbond>
1.0000

> <Gold.PLP.Chemscore.CHOScore>
1.6861

> <Gold.PLP.Chemscore.Metal>
0.0000

> <Gold.Chemscore.Hbonds>
donor molecule, donor type, donor heavy atom, donor atom, acceptor molecule, acceptor atom, score
      L1  H     1    23       P1 10175  1.00
      L1  C     9    31       P1 10186  0.06
      L1  C     9    31       P1 10952  1.00
      L1  C    13    34       P1 10175  0.72

> <Gold.PLP.Chemscore.Internal.Correction>
0.1656

> <Gold.Rescore>
     Score         DG    S(hbond)    S(metal)    S(lipo)     H(rot)  DE(clash)    DE(int)     intcor
     12.79     -14.31       0.97        0.00     105.69       2.64       0.21       1.31       ----

> <Gold.Chemscore.Fitness>
12.7883

> <Gold.Chemscore.DG>
-14.3114

> <Gold.Chemscore.ZeroCoef>
-5.4800

> <Gold.Chemscore.Hbond>
0.9654

> <Gold.Chemscore.Metal>
0.0000

> <Gold.Chemscore.Lipo>
105.6934

> <Gold.Chemscore.Internal_Hbond>
0.0000

> <Gold.Chemscore.DEClash>
0.2103

> <Gold.Chemscore.DEInternal>
1.3128

> <Gold.Chemscore.Rot>
2.6403

> <Gold.Chemscore.Internal.Correction>
   9.000000E+99

> <Gold.Chemscore.Hbonds>
donor molecule, donor type, donor heavy atom, donor atom, acceptor molecule, acceptor atom, score
      L1  H     1    23       P1 10175  0.93

> <Gold.Chemscore.Hbond.Weighted>
-3.2245

> <Gold.Chemscore.Metal.Weighted>
-0.0000

> <Gold.Chemscore.Lipo.Weighted>
-12.3661

> <Gold.Chemscore.Internal_Hbond.Weighted>
0.0000

> <Gold.Chemscore.DEClash.Weighted>
0.2103

> <Gold.Chemscore.DEInternal.Weighted>
1.3128

> <Gold.Chemscore.Rot.Weighted>
6.7592

> <Gold.Chemscore.Internal.Correction.Weighted>
   9.000000E+99

> <Gold.Protein.RotatedTorsions>
[ 6907 6896 6895 6894 ] final  106.31 input  -60.11 | X-H torsion
[ 7974 7965 7964 7962 ] final  103.76 input  175.53 | X-H torsion
[ 8008 7997 7996 7995 ] final -115.72 input   59.86 | X-H torsion
[ 10167 10162 10161 10158 ] final -159.51 input  -65.29 | X-H torsion
[ 10718 10713 10712 10709 ] final   48.48 input   66.30 | X-H torsion
[ 10763 10752 10751 10750 ] final -106.39 input  -60.55 | X-H torsion
[ 11005 11000 10999 10996 ] final  -57.47 input  -57.11 | X-H torsion

> <Gold.Protein.ActiveResidues>
 VAL166  LYS551  ARG553  GLY616  TRP617  ASP618  TYR619  PRO620  LYS621  CYS622 
 ASP623  PHE694  ASN695  SER759  ASP760  ASP761  ALA762  ILE779  LEU786  VAL792 
 PHE793  MET794  SER795  GLU796  ALA797  LYS798  CYS799  TRP800  GLU811  SER814 

> <Gold.Protein.RotatedAtoms>
  152.5198  133.9400  159.7621 H   0  0  0  0  0  0  0  0  0  0  0  0  # atno 6907 bound_to 6896
  150.9732  133.6314  159.2741 H   0  0  0  0  0  0  0  0  0  0  0  0  # atno 6908 bound_to 6896
  151.3517  135.0891  159.9458 H   0  0  0  0  0  0  0  0  0  0  0  0  # atno 6909 bound_to 6896
  145.3417  139.2460  143.3606 H   0  0  0  0  0  0  0  0  0  0  0  0  # atno 7974 bound_to 7965
  155.0565  140.0393  157.2562 H   0  0  0  0  0  0  0  0  0  0  0  0  # atno 8008 bound_to 7997
  154.7094  140.2689  155.6619 H   0  0  0  0  0  0  0  0  0  0  0  0  # atno 8009 bound_to 7997
  156.2785  140.2724  156.1731 H   0  0  0  0  0  0  0  0  0  0  0  0  # atno 8010 bound_to 7997
  139.6609  143.9914  152.2225 H   0  0  0  0  0  0  0  0  0  0  0  0  # atno 10167 bound_to 10162
  157.4691  130.8244  149.7968 H   0  0  0  0  0  0  0  0  0  0  0  0  # atno 10718 bound_to 10713
  154.8009  135.4714  154.0273 H   0  0  0  0  0  0  0  0  0  0  0  0  # atno 10763 bound_to 10752
  153.1779  135.6836  153.8524 H   0  0  0  0  0  0  0  0  0  0  0  0  # atno 10764 bound_to 10752
  153.8085  135.3220  155.3376 H   0  0  0  0  0  0  0  0  0  0  0  0  # atno 10765 bound_to 10752
  141.1166  133.6610  156.4775 H   0  0  0  0  0  0  0  0  0  0  0  0  # atno 11005 bound_to 11000
  146.3005  140.4015  142.8706 LP  0  0  0  0  0  0  0  0  0  0  0  0  # atno 17320 bound_to 7965
  144.8785  140.7369  143.6001 LP  0  0  0  0  0  0  0  0  0  0  0  0  # atno 17321 bound_to 7965
  139.9653  144.6530  150.8041 LP  0  0  0  0  0  0  0  0  0  0  0  0  # atno 17342 bound_to 10162
  140.7579  143.3097  151.2875 LP  0  0  0  0  0  0  0  0  0  0  0  0  # atno 17343 bound_to 10162
  156.0064  130.3853  150.2415 LP  0  0  0  0  0  0  0  0  0  0  0  0  # atno 17370 bound_to 10713
  157.0597  131.0086  151.3226 LP  0  0  0  0  0  0  0  0  0  0  0  0  # atno 17371 bound_to 10713
  140.4628  134.6825  157.5093 LP  0  0  0  0  0  0  0  0  0  0  0  0  # atno 17394 bound_to 11000
  140.0093  134.6716  155.9406 LP  0  0  0  0  0  0  0  0  0  0  0  0  # atno 17395 bound_to 11000

$$$$
