AV-unprocessed.smi:2935|AV-procd|sdf|11256|dock9
  -GOLD-   2272016153D 1   1.00000     0.00000
 Structure written by MMmdl.
 36 37  0  0  0  0  0  0  0  0  1 V2000
  152.7655  144.1731  158.0979 C   0  0  0  0  0  0  0  0  0  0  0  0
  151.9429  143.1556  158.9170 C   0  0  0  0  0  0  0  0  0  0  0  0
  151.7764  141.8668  158.0798 C   0  0  0  0  0  0  0  0  0  0  0  0
  152.1831  140.7965  158.5351 O   0  0  0  0  0  0  0  0  0  0  0  0
  151.1607  141.9861  156.8873 N   0  0  0  0  0  0  0  0  0  0  0  0
  150.8943  140.9663  155.9387 C   0  0  0  0  0  0  0  0  0  0  0  0
  149.6901  140.9767  155.1825 C   0  0  0  0  0  0  0  0  0  0  0  0
  149.7999  139.8617  154.4010 C   0  0  0  0  0  0  0  0  0  0  0  0
  151.0051  139.2590  154.7041 N   0  0  0  0  0  0  0  0  0  0  0  0
  151.5716  138.0449  154.1445 C   0  0  0  0  0  0  0  0  0  0  0  0
  151.2866  136.8366  155.0383 C   0  0  0  0  0  0  0  0  0  0  0  0
  150.2352  136.0769  154.7200 N   0  0  0  0  0  0  0  0  0  0  0  0
  152.0046  136.5945  156.0057 O   0  0  0  0  0  0  0  0  0  0  0  0
  151.6838  139.9402  155.6532 N   0  0  0  0  0  0  0  0  0  0  0  0
  152.5776  142.9077  160.3034 C   0  0  0  0  0  0  0  0  0  0  0  0
  152.1034  144.0591  161.1925 C   0  0  0  0  0  0  0  0  0  0  0  0
  150.7552  144.5067  160.6191 C   0  0  0  0  0  0  0  0  0  0  0  0
  150.5694  143.7533  159.2944 C   0  0  0  0  0  0  0  0  0  0  0  0
  152.8734  145.1216  158.6245 H   0  0  0  0  0  0  0  0  0  0  0  0
  152.2936  144.3895  157.1385 H   0  0  0  0  0  0  0  0  0  0  0  0
  153.7694  143.7986  157.8931 H   0  0  0  0  0  0  0  0  0  0  0  0
  150.8526  142.9129  156.6322 H   0  0  0  0  0  0  0  0  0  0  0  0
  148.8755  141.6852  155.2088 H   0  0  0  0  0  0  0  0  0  0  0  0
  149.1280  139.4485  153.6631 H   0  0  0  0  0  0  0  0  0  0  0  0
  151.1447  137.8851  153.1535 H   0  0  0  0  0  0  0  0  0  0  0  0
  152.6480  138.1683  154.0138 H   0  0  0  0  0  0  0  0  0  0  0  0
  150.0050  135.2743  155.2882 H   0  0  0  0  0  0  0  0  0  0  0  0
  149.6692  136.3130  153.9179 H   0  0  0  0  0  0  0  0  0  0  0  0
  152.2161  141.9717  160.7334 H   0  0  0  0  0  0  0  0  0  0  0  0
  153.6662  142.8492  160.2663 H   0  0  0  0  0  0  0  0  0  0  0  0
  152.0288  143.7615  162.2388 H   0  0  0  0  0  0  0  0  0  0  0  0
  152.8150  144.8838  161.1395 H   0  0  0  0  0  0  0  0  0  0  0  0
  149.9376  144.2852  161.3058 H   0  0  0  0  0  0  0  0  0  0  0  0
  150.7572  145.5848  160.4543 H   0  0  0  0  0  0  0  0  0  0  0  0
  150.1708  144.4053  158.5159 H   0  0  0  0  0  0  0  0  0  0  0  0
  149.8337  142.9614  159.4477 H   0  0  0  0  0  0  0  0  0  0  0  0
  1  2  1  0  0  0  0
  1 19  1  0  0  0  0
  1 20  1  0  0  0  0
  1 21  1  0  0  0  0
  2 18  1  0  0  0  0
  2  3  1  0  0  0  0
  2 15  1  0  0  0  0
  3  4  2  0  0  0  0
  3  5  1  0  0  0  0
  5  6  1  0  0  0  0
  5 22  1  0  0  0  0
  6 14  2  0  0  0  0
  6  7  1  0  0  0  0
  7  8  2  0  0  0  0
  7 23  1  0  0  0  0
  8  9  1  0  0  0  0
  8 24  1  0  0  0  0
  9 10  1  0  0  0  0
  9 14  1  0  0  0  0
 10 11  1  0  0  0  0
 10 25  1  0  0  0  0
 10 26  1  0  0  0  0
 11 12  1  0  0  0  0
 11 13  2  0  0  0  0
 12 27  1  0  0  0  0
 12 28  1  0  0  0  0
 15 16  1  0  0  0  0
 15 29  1  0  0  0  0
 15 30  1  0  0  0  0
 16 17  1  0  0  0  0
 16 31  1  0  0  0  0
 16 32  1  0  0  0  0
 17 18  1  0  0  0  0
 17 33  1  0  0  0  0
 17 34  1  0  0  0  0
 18 35  1  0  0  0  0
 18 36  1  0  0  0  0
M  END
> <s_m_source_file>
AV-unprocessed.smi

> <i_m_source_file_index>
2935

> <i_lp_mmshare_version>
43012

> <i_f3d_flags>
0

> <s_epik_input>
W0NIMl0xW0NIMl1bQ0gyXVtDSDJdQzEoW0NIM10pQyg9TylbTkhdYzJbY0hdW2NIXW4objIpW0NIMl1DKD1PKVtOSDJd

> <s_epik_cmdline>
J2VwaWtfcHl0aG9uJywgJy1waCcsICc3LjAnLCAnLXRuJywgJzgnLCAnLW1hJywgJzIwMCcsICctbWV0YWxfYmluZGluZycsICctaW1hZScsICc8aW5maWxlLm1hZT4nLCAnLW9tYWUnLCAnPG91dGZpbGUubWFlPic=

> <r_lp_tautomer_probability>
1

> <r_epik_Ionization_Penalty>
1.6611e-05

> <r_epik_Ionization_Penalty_Charging>
0

> <r_epik_Ionization_Penalty_Neutral>
1.6611e-05

> <r_epik_State_Penalty>
-0

> <r_epik_Charging_Adjusted_Penalty>
0

> <i_epik_Tot_Q>
0

> <i_epik_Tot_abs_Q>
0

> <r_epik_Metal_State_Penalty>
-0

> <b_epik_Metal_Only>
0

> <s_lp_Force_Field>
OPLS_2005

> <r_lp_Energy>
27.108

> <b_lp_Chiralities_Consistent>
1

> <s_lp_Variant>
AV-unprocessed.smi:2935-1

> <Gold.Version>
5.8.1

> <Gold.Id.Protein>
6NUR|6NUR_protein|mol2

> <Gold.PLP.Fitness>
45.9943

> <Gold.PLP.PLP>
-39.5667

> <Gold.PLP.part.hbond>
-2.4487

> <Gold.PLP.part.metal>
0.0000

> <Gold.PLP.part.buried>
-3.0385

> <Gold.PLP.part.nonpolar>
-34.1735

> <Gold.PLP.part.repulsive>
0.1489

> <Gold.PLP.ligand.clash>
0.0000

> <Gold.PLP.ligand.torsion>
0.9472

> <Gold.PLP.Chemscore.Hbond>
1.9920

> <Gold.PLP.Chemscore.CHOScore>
0.7659

> <Gold.PLP.Chemscore.Metal>
0.0000

> <Gold.Chemscore.Hbonds>
donor molecule, donor type, donor heavy atom, donor atom, acceptor molecule, acceptor atom, score
      L1  H    12    28       P1  7948  0.71
      P1  H 10752 10765       L1    13  0.75
      L1  C     8    24       P1  7957  0.58

> <Gold.PLP.Chemscore.Internal.Correction>
0.0484

> <Gold.Rescore>
     Score         DG    S(hbond)    S(metal)    S(lipo)     H(rot)  DE(clash)    DE(int)     intcor
     13.52     -16.59       1.55        0.00      92.38       1.91       1.34       1.72       ----

> <Gold.Chemscore.Fitness>
13.5222

> <Gold.Chemscore.DG>
-16.5886

> <Gold.Chemscore.ZeroCoef>
-5.4800

> <Gold.Chemscore.Hbond>
1.5544

> <Gold.Chemscore.Metal>
0.0000

> <Gold.Chemscore.Lipo>
92.3815

> <Gold.Chemscore.Internal_Hbond>
0.0000

> <Gold.Chemscore.DEClash>
1.3449

> <Gold.Chemscore.DEInternal>
1.7215

> <Gold.Chemscore.Rot>
1.9108

> <Gold.Chemscore.Internal.Correction>
   9.000000E+99

> <Gold.Chemscore.Hbonds>
donor molecule, donor type, donor heavy atom, donor atom, acceptor molecule, acceptor atom, score
      L1  H    12    28       P1  7948  0.39
      P1  H 10752 10765       L1    13  0.09

> <Gold.Chemscore.Hbond.Weighted>
-5.1916

> <Gold.Chemscore.Metal.Weighted>
-0.0000

> <Gold.Chemscore.Lipo.Weighted>
-10.8086

> <Gold.Chemscore.Internal_Hbond.Weighted>
0.0000

> <Gold.Chemscore.DEClash.Weighted>
1.3449

> <Gold.Chemscore.DEInternal.Weighted>
1.7215

> <Gold.Chemscore.Rot.Weighted>
4.8916

> <Gold.Chemscore.Internal.Correction.Weighted>
   9.000000E+99

> <Gold.Protein.RotatedTorsions>
[ 6907 6896 6895 6894 ] final -150.31 input  -60.11 | X-H torsion
[ 7974 7965 7964 7962 ] final    0.64 input  175.53 | X-H torsion
[ 8008 7997 7996 7995 ] final  164.01 input   59.86 | X-H torsion
[ 10167 10162 10161 10158 ] final   23.02 input  -65.29 | X-H torsion
[ 10718 10713 10712 10709 ] final  -84.88 input   66.30 | X-H torsion
[ 10763 10752 10751 10750 ] final -148.02 input  -60.55 | X-H torsion
[ 11005 11000 10999 10996 ] final   -7.02 input  -57.11 | X-H torsion

> <Gold.Protein.ActiveResidues>
 VAL166  LYS551  ARG553  GLY616  TRP617  ASP618  TYR619  PRO620  LYS621  CYS622 
 ASP623  PHE694  ASN695  SER759  ASP760  ASP761  ALA762  ILE779  LEU786  VAL792 
 PHE793  MET794  SER795  GLU796  ALA797  LYS798  CYS799  TRP800  GLU811  SER814 

> <Gold.Protein.RotatedAtoms>
  151.1968  133.4634  159.2595 H   0  0  0  0  0  0  0  0  0  0  0  0  # atno 6907 bound_to 6896
  151.1109  135.0026  159.8503 H   0  0  0  0  0  0  0  0  0  0  0  0  # atno 6908 bound_to 6896
  152.5450  134.1887  159.8718 H   0  0  0  0  0  0  0  0  0  0  0  0  # atno 6909 bound_to 6896
  146.2436  140.1107  142.8344 H   0  0  0  0  0  0  0  0  0  0  0  0  # atno 7974 bound_to 7965
  156.1913  140.1708  156.8087 H   0  0  0  0  0  0  0  0  0  0  0  0  # atno 8008 bound_to 7997
  154.5474  140.0724  156.8644 H   0  0  0  0  0  0  0  0  0  0  0  0  # atno 8009 bound_to 7997
  155.3094  140.3366  155.4247 H   0  0  0  0  0  0  0  0  0  0  0  0  # atno 8010 bound_to 7997
  140.5302  143.9854  150.6462 H   0  0  0  0  0  0  0  0  0  0  0  0  # atno 10167 bound_to 10162
  156.0002  130.4712  150.4478 H   0  0  0  0  0  0  0  0  0  0  0  0  # atno 10718 bound_to 10713
  154.8255  135.3345  154.6909 H   0  0  0  0  0  0  0  0  0  0  0  0  # atno 10763 bound_to 10752
  153.7536  135.6937  153.4945 H   0  0  0  0  0  0  0  0  0  0  0  0  # atno 10764 bound_to 10752
  153.2159  135.4466  155.0384 H   0  0  0  0  0  0  0  0  0  0  0  0  # atno 10765 bound_to 10752
  140.7083  133.8931  155.8732 H   0  0  0  0  0  0  0  0  0  0  0  0  # atno 11005 bound_to 11000
  145.0490  140.9003  143.5007 LP  0  0  0  0  0  0  0  0  0  0  0  0  # atno 17320 bound_to 7965
  145.1201  139.2699  143.5593 LP  0  0  0  0  0  0  0  0  0  0  0  0  # atno 17321 bound_to 7965
  140.3226  143.3127  152.0768 LP  0  0  0  0  0  0  0  0  0  0  0  0  # atno 17342 bound_to 10162
  139.4952  144.6563  151.6565 LP  0  0  0  0  0  0  0  0  0  0  0  0  # atno 17343 bound_to 10162
  157.2513  131.0547  151.2377 LP  0  0  0  0  0  0  0  0  0  0  0  0  # atno 17370 bound_to 10713
  157.3525  130.7089  149.6450 LP  0  0  0  0  0  0  0  0  0  0  0  0  # atno 17371 bound_to 10713
  141.0106  134.1025  157.4225 LP  0  0  0  0  0  0  0  0  0  0  0  0  # atno 17394 bound_to 11000
  139.8878  135.0093  156.6584 LP  0  0  0  0  0  0  0  0  0  0  0  0  # atno 17395 bound_to 11000

$$$$
