AV-unprocessed.smi:634|AV-procd|sdf|3136|dock1
  -GOLD-   22720 0 63D 1   1.00000     0.00000
 Structure written by MMmdl.
 32 33  0  0  0  0  0  0  0  0  2 V2000
  145.7049  135.0418  162.5973 C   0  0  0  0  0  0  0  0  0  0  0  0
  146.7991  135.5649  161.7309 C   0  0  0  0  0  0  0  0  0  0  0  0
  147.8112  134.9555  161.0454 C   0  0  0  0  0  0  0  0  0  0  0  0
  148.4836  136.0431  160.4239 C   0  0  0  0  0  0  0  0  0  0  0  0
  149.5700  135.9552  159.6408 N   0  5  0  0  0  0  0  0  0  0  0  0
  149.8054  136.8918  158.6930 C   0  0  0  0  0  0  0  0  0  0  0  0
  148.9716  137.3655  157.9187 O   0  0  0  0  0  0  0  0  0  0  0  0
  151.0877  137.2927  158.6492 N   0  0  0  0  0  0  0  0  0  0  0  0
  151.7382  138.2815  157.7778 C   0  0  2  0  0  0  0  0  0  0  0  0
  153.2262  138.3080  158.1837 C   0  0  0  0  0  0  0  0  0  0  0  0
  151.1379  139.7036  157.9466 C   0  0  0  0  0  0  0  0  0  0  0  0
  151.5722  140.5892  156.7693 C   0  0  0  0  0  0  0  0  0  0  0  0
  151.8175  139.4667  155.3411 S   0  0  0  0  0  0  0  0  0  0  0  0
  150.6954  139.6118  154.4013 O   0  0  0  0  0  0  0  0  0  0  0  0
  153.2088  139.5839  154.8780 O   0  0  0  0  0  0  0  0  0  0  0  0
  151.6168  137.9064  156.2822 C   0  0  0  0  0  0  0  0  0  0  0  0
  147.9383  137.2108  160.7206 N   0  0  0  0  0  0  0  0  0  0  0  0
  146.8534  136.9124  161.5537 O   0  0  0  0  0  0  0  0  0  0  0  0
  146.1029  134.6903  163.5491 H   0  0  0  0  0  0  0  0  0  0  0  0
  145.1960  134.2076  162.1143 H   0  0  0  0  0  0  0  0  0  0  0  0
  144.9638  135.8142  162.8040 H   0  0  0  0  0  0  0  0  0  0  0  0
  148.0343  133.9004  160.9924 H   0  0  0  0  0  0  0  0  0  0  0  0
  151.6973  136.8508  159.3217 H   0  0  0  0  0  0  0  0  0  0  0  0
  153.8036  139.0088  157.5809 H   0  0  0  0  0  0  0  0  0  0  0  0
  153.6858  137.3259  158.0657 H   0  0  0  0  0  0  0  0  0  0  0  0
  153.3466  138.6007  159.2276 H   0  0  0  0  0  0  0  0  0  0  0  0
  150.0498  139.6623  157.9326 H   0  0  0  0  0  0  0  0  0  0  0  0
  151.4102  140.1519  158.9026 H   0  0  0  0  0  0  0  0  0  0  0  0
  150.8352  141.3538  156.5235 H   0  0  0  0  0  0  0  0  0  0  0  0
  152.5227  141.0790  156.9802 H   0  0  0  0  0  0  0  0  0  0  0  0
  152.3581  137.1761  155.9577 H   0  0  0  0  0  0  0  0  0  0  0  0
  150.6332  137.5119  156.0313 H   0  0  0  0  0  0  0  0  0  0  0  0
  1  2  1  0  0  0  0
  1 19  1  0  0  0  0
  1 20  1  0  0  0  0
  1 21  1  0  0  0  0
  2 18  1  0  0  0  0
  2  3  2  0  0  0  0
  3  4  1  0  0  0  0
  3 22  1  0  0  0  0
  4  5  1  0  0  0  0
  4 17  2  0  0  0  0
  5  6  1  0  0  0  0
  6  7  2  0  0  0  0
  6  8  1  0  0  0  0
  8  9  1  0  0  0  0
  8 23  1  0  0  0  0
  9 16  1  0  0  0  0
  9 10  1  0  0  0  0
  9 11  1  0  0  0  0
 10 24  1  0  0  0  0
 10 25  1  0  0  0  0
 10 26  1  0  0  0  0
 11 12  1  0  0  0  0
 11 27  1  0  0  0  0
 11 28  1  0  0  0  0
 12 13  1  0  0  0  0
 12 29  1  0  0  0  0
 12 30  1  0  0  0  0
 13 14  2  0  0  0  0
 13 15  2  0  0  0  0
 13 16  1  0  0  0  0
 16 31  1  0  0  0  0
 16 32  1  0  0  0  0
 17 18  1  0  0  0  0
M  CHG  1   5  -1
M  END
> <s_m_source_file>
AV-unprocessed.smi

> <i_m_source_file_index>
634

> <i_lp_mmshare_version>
43012

> <i_f3d_flags>
0

> <s_epik_input>
W0NIM11jMVtjSF1jKG5vMSlbTkhdQyg9TylbTkhdW0NAQF0yKFtDSDNdKVtDSDJdW0NIMl1TKD1PKSg9TylbQ0gyXTI=

> <s_epik_cmdline>
J2VwaWtfcHl0aG9uJywgJy1waCcsICc3LjAnLCAnLXRuJywgJzgnLCAnLW1hJywgJzIwMCcsICctbWV0YWxfYmluZGluZycsICctaW1hZScsICc8aW5maWxlLm1hZT4nLCAnLW9tYWUnLCAnPG91dGZpbGUubWFlPic=

> <r_lp_tautomer_probability>
1

> <r_epik_Ionization_Penalty>
6.15572

> <r_epik_Ionization_Penalty_Charging>
6.1556

> <r_epik_Ionization_Penalty_Neutral>
0.000118136

> <r_epik_State_Penalty>
6.15558

> <r_epik_Charging_Adjusted_Penalty>
12.3112

> <i_epik_Tot_Q>
-1

> <i_epik_Tot_abs_Q>
1

> <r_epik_Metal_State_Penalty>
2.10569

> <b_epik_Metal_Only>
1

> <s_lp_Force_Field>
OPLS_2005

> <r_lp_Energy>
-1.68809

> <b_lp_Chiralities_Consistent>
1

> <s_lp_Variant>
AV-unprocessed.smi:634-4

> <Gold.Version>
5.8.1

> <Gold.Id.Protein>
6NUR|6NUR_protein|mol2

> <Gold.PLP.Fitness>
39.1072

> <Gold.PLP.PLP>
-26.4505

> <Gold.PLP.part.hbond>
-6.6990

> <Gold.PLP.part.metal>
0.0000

> <Gold.PLP.part.buried>
-4.2390

> <Gold.PLP.part.nonpolar>
-16.0782

> <Gold.PLP.part.repulsive>
0.2436

> <Gold.PLP.ligand.clash>
0.0000

> <Gold.PLP.ligand.torsion>
0.5242

> <Gold.PLP.Chemscore.Hbond>
4.5660

> <Gold.PLP.Chemscore.CHOScore>
0.0000

> <Gold.PLP.Chemscore.Metal>
0.0000

> <Gold.Chemscore.Hbonds>
donor molecule, donor type, donor heavy atom, donor atom, acceptor molecule, acceptor atom, score
      P1  H  6896  6909       L1     5  1.82
      P1  H  6931  6943       L1    17  0.83
      P1  H  6934  6947       L1    17  0.04
      P1  H  7989  7998       L1    14  0.50
      P1  H  7997  8010       L1    15  1.00

> <Gold.PLP.Chemscore.Internal.Correction>
0.0070

> <Gold.Rescore>
     Score         DG    S(hbond)    S(metal)    S(lipo)     H(rot)  DE(clash)    DE(int)     intcor
     16.43     -17.17       2.86        0.00      40.08       1.00       0.01       0.73       ----

> <Gold.Chemscore.Fitness>
16.4278

> <Gold.Chemscore.DG>
-17.1746

> <Gold.Chemscore.ZeroCoef>
-5.4800

> <Gold.Chemscore.Hbond>
2.8638

> <Gold.Chemscore.Metal>
0.0000

> <Gold.Chemscore.Lipo>
40.0812

> <Gold.Chemscore.Internal_Hbond>
0.0000

> <Gold.Chemscore.DEClash>
0.0126

> <Gold.Chemscore.DEInternal>
0.7342

> <Gold.Chemscore.Rot>
1.0000

> <Gold.Chemscore.Internal.Correction>
   9.000000E+99

> <Gold.Chemscore.Hbonds>
donor molecule, donor type, donor heavy atom, donor atom, acceptor molecule, acceptor atom, score
      P1  H  6896  6909       L1     5  0.77
      P1  H  6931  6943       L1    17  0.21
      P1  H  7989  7998       L1    14  0.02
      P1  H  7997  8010       L1    15  1.00

> <Gold.Chemscore.Hbond.Weighted>
-9.5651

> <Gold.Chemscore.Metal.Weighted>
-0.0000

> <Gold.Chemscore.Lipo.Weighted>
-4.6895

> <Gold.Chemscore.Internal_Hbond.Weighted>
0.0000

> <Gold.Chemscore.DEClash.Weighted>
0.0126

> <Gold.Chemscore.DEInternal.Weighted>
0.7342

> <Gold.Chemscore.Rot.Weighted>
2.5600

> <Gold.Chemscore.Internal.Correction.Weighted>
   9.000000E+99

> <Gold.Protein.RotatedTorsions>
[ 6907 6896 6895 6894 ] final   47.85 input  -60.11 | X-H torsion
[ 7974 7965 7964 7962 ] final  -13.10 input  175.53 | X-H torsion
[ 8008 7997 7996 7995 ] final  108.67 input   59.86 | X-H torsion
[ 10167 10162 10161 10158 ] final  111.69 input  -65.29 | X-H torsion
[ 10718 10713 10712 10709 ] final   86.46 input   66.30 | X-H torsion
[ 10763 10752 10751 10750 ] final   37.03 input  -60.55 | X-H torsion
[ 11005 11000 10999 10996 ] final  -11.27 input  -57.11 | X-H torsion

> <Gold.Protein.ActiveResidues>
 VAL166  LYS551  ARG553  GLY616  TRP617  ASP618  TYR619  PRO620  LYS621  CYS622 
 ASP623  PHE694  ASN695  SER759  ASP760  ASP761  ALA762  ILE779  LEU786  VAL792 
 PHE793  MET794  SER795  GLU796  ALA797  LYS798  CYS799  TRP800  GLU811  SER814 

> <Gold.Protein.RotatedAtoms>
  152.2728  134.7914  160.0410 H   0  0  0  0  0  0  0  0  0  0  0  0  # atno 6907 bound_to 6896
  151.8520  133.3436  159.3684 H   0  0  0  0  0  0  0  0  0  0  0  0  # atno 6908 bound_to 6896
  150.7158  134.5217  159.5701 H   0  0  0  0  0  0  0  0  0  0  0  0  # atno 6909 bound_to 6896
  146.2127  140.3154  142.8386 H   0  0  0  0  0  0  0  0  0  0  0  0  # atno 7974 bound_to 7965
  156.1921  140.3072  155.9353 H   0  0  0  0  0  0  0  0  0  0  0  0  # atno 8008 bound_to 7997
  155.3150  140.0453  157.3054 H   0  0  0  0  0  0  0  0  0  0  0  0  # atno 8009 bound_to 7997
  154.5465  140.2278  155.8564 H   0  0  0  0  0  0  0  0  0  0  0  0  # atno 8010 bound_to 7997
  139.6592  144.7129  151.1898 H   0  0  0  0  0  0  0  0  0  0  0  0  # atno 10167 bound_to 10162
  157.6929  131.0216  150.2976 H   0  0  0  0  0  0  0  0  0  0  0  0  # atno 10718 bound_to 10713
  153.0053  135.6289  154.2080 H   0  0  0  0  0  0  0  0  0  0  0  0  # atno 10763 bound_to 10752
  154.1824  135.2813  155.3049 H   0  0  0  0  0  0  0  0  0  0  0  0  # atno 10764 bound_to 10752
  154.5824  135.5643  153.7258 H   0  0  0  0  0  0  0  0  0  0  0  0  # atno 10765 bound_to 10752
  140.7535  133.8573  155.9064 H   0  0  0  0  0  0  0  0  0  0  0  0  # atno 11005 bound_to 11000
  144.8958  140.7581  143.5898 LP  0  0  0  0  0  0  0  0  0  0  0  0  # atno 17320 bound_to 7965
  145.3078  139.1829  143.4655 LP  0  0  0  0  0  0  0  0  0  0  0  0  # atno 17321 bound_to 7965
  140.7572  143.6023  150.8688 LP  0  0  0  0  0  0  0  0  0  0  0  0  # atno 17342 bound_to 10162
  139.9678  143.6090  152.2983 LP  0  0  0  0  0  0  0  0  0  0  0  0  # atno 17343 bound_to 10162
  156.3497  130.3829  149.7339 LP  0  0  0  0  0  0  0  0  0  0  0  0  # atno 17370 bound_to 10713
  156.4821  130.8046  151.3060 LP  0  0  0  0  0  0  0  0  0  0  0  0  # atno 17371 bound_to 10713
  140.9729  134.1507  157.4561 LP  0  0  0  0  0  0  0  0  0  0  0  0  # atno 17394 bound_to 11000
  139.8783  134.9985  156.5902 LP  0  0  0  0  0  0  0  0  0  0  0  0  # atno 17395 bound_to 11000

$$$$
