AV-unprocessed.smi:489|AV-procd|sdf|2702|dock5
  -GOLD-   2262023133D 1   1.00000     0.00000
 Structure written by MMmdl.
 42 43  0  0  0  0  0  0  0  0  1 V2000
  146.8321  138.5415  154.3077 C   0  0  0  0  0  0  0  0  0  0  0  0
  148.2071  138.0470  154.6680 C   0  0  0  0  0  0  0  0  0  0  0  0
  148.3114  136.7967  154.9786 N   0  0  0  0  0  0  0  0  0  0  0  0
  149.5280  136.2394  155.3223 N   0  0  0  0  0  0  0  0  0  0  0  0
  149.4641  134.8029  155.6290 C   0  0  0  0  0  0  0  0  0  0  0  0
  148.1545  134.1575  155.1528 C   0  0  0  0  0  0  0  0  0  0  0  0
  147.4713  133.5151  155.9543 O   0  0  0  0  0  0  0  0  0  0  0  0
  147.8593  134.3587  153.8479 N   0  0  0  0  0  0  0  0  0  0  0  0
  146.7899  133.9806  153.1085 C   0  0  0  0  0  0  0  0  0  0  0  0
  145.9402  133.2257  153.5785 O   0  0  0  0  0  0  0  0  0  0  0  0
  146.7129  134.4566  151.8513 N   0  0  0  0  0  0  0  0  0  0  0  0
  145.7866  133.9882  150.8245 C   0  0  0  0  0  0  0  0  0  0  0  0
  144.3163  134.2737  151.1990 C   0  0  0  0  0  0  0  0  0  0  0  0
  143.5630  132.9579  150.9985 C   0  0  0  0  0  0  0  0  0  0  0  0
  144.6122  131.8813  151.2560 C   0  0  0  0  0  0  0  0  0  0  0  0
  145.8950  132.4613  150.6591 C   0  0  0  0  0  0  0  0  0  0  0  0
  150.7045  136.9269  155.3925 C   0  0  0  0  0  0  0  0  0  0  0  0
  151.7638  136.3937  155.7264 O   0  0  0  0  0  0  0  0  0  0  0  0
  150.5804  138.3410  155.0317 C   0  0  0  0  0  0  0  0  0  0  0  0
  151.7932  139.0925  155.0718 C   0  0  0  0  0  0  0  0  0  0  0  0
  152.7811  139.6938  155.1237 N   0  0  0  0  0  0  0  0  0  0  0  0
  149.3936  138.8968  154.6813 C   0  0  0  0  0  0  0  0  0  0  0  0
  149.2116  140.3594  154.2994 C   0  0  0  0  0  0  0  0  0  0  0  0
  146.4902  139.2877  155.0252 H   0  0  0  0  0  0  0  0  0  0  0  0
  146.0986  137.7339  154.2979 H   0  0  0  0  0  0  0  0  0  0  0  0
  146.8306  138.9977  153.3178 H   0  0  0  0  0  0  0  0  0  0  0  0
  150.3214  134.2928  155.1851 H   0  0  0  0  0  0  0  0  0  0  0  0
  149.5491  134.6367  156.7042 H   0  0  0  0  0  0  0  0  0  0  0  0
  148.5530  134.8842  153.3360 H   0  0  0  0  0  0  0  0  0  0  0  0
  147.3479  135.1970  151.5883 H   0  0  0  0  0  0  0  0  0  0  0  0
  146.0355  134.4654  149.8748 H   0  0  0  0  0  0  0  0  0  0  0  0
  144.2359  134.5704  152.2460 H   0  0  0  0  0  0  0  0  0  0  0  0
  143.8907  135.0816  150.6033 H   0  0  0  0  0  0  0  0  0  0  0  0
  142.6959  132.8671  151.6533 H   0  0  0  0  0  0  0  0  0  0  0  0
  143.2119  132.8886  149.9680 H   0  0  0  0  0  0  0  0  0  0  0  0
  144.7371  131.7391  152.3304 H   0  0  0  0  0  0  0  0  0  0  0  0
  144.3434  130.9188  150.8202 H   0  0  0  0  0  0  0  0  0  0  0  0
  145.9360  132.2182  149.5963 H   0  0  0  0  0  0  0  0  0  0  0  0
  146.7890  132.0369  151.1183 H   0  0  0  0  0  0  0  0  0  0  0  0
  150.1326  140.9315  154.4046 H   0  0  0  0  0  0  0  0  0  0  0  0
  148.4613  140.8329  154.9332 H   0  0  0  0  0  0  0  0  0  0  0  0
  148.8883  140.4435  153.2615 H   0  0  0  0  0  0  0  0  0  0  0  0
  1  2  1  0  0  0  0
  1 24  1  0  0  0  0
  1 25  1  0  0  0  0
  1 26  1  0  0  0  0
  2 22  1  0  0  0  0
  2  3  2  0  0  0  0
  3  4  1  0  0  0  0
  4  5  1  0  0  0  0
  4 17  1  0  0  0  0
  5  6  1  0  0  0  0
  5 27  1  0  0  0  0
  5 28  1  0  0  0  0
  6  7  2  0  0  0  0
  6  8  1  0  0  0  0
  8  9  1  0  0  0  0
  8 29  1  0  0  0  0
  9 10  2  0  0  0  0
  9 11  1  0  0  0  0
 11 12  1  0  0  0  0
 11 30  1  0  0  0  0
 12 16  1  0  0  0  0
 12 13  1  0  0  0  0
 12 31  1  0  0  0  0
 13 14  1  0  0  0  0
 13 32  1  0  0  0  0
 13 33  1  0  0  0  0
 14 15  1  0  0  0  0
 14 34  1  0  0  0  0
 14 35  1  0  0  0  0
 15 16  1  0  0  0  0
 15 36  1  0  0  0  0
 15 37  1  0  0  0  0
 16 38  1  0  0  0  0
 16 39  1  0  0  0  0
 17 18  2  0  0  0  0
 17 19  1  0  0  0  0
 19 20  1  0  0  0  0
 19 22  2  0  0  0  0
 20 21  3  0  0  0  0
 22 23  1  0  0  0  0
 23 40  1  0  0  0  0
 23 41  1  0  0  0  0
 23 42  1  0  0  0  0
M  END
> <s_m_source_file>
AV-unprocessed.smi

> <i_m_source_file_index>
489

> <i_lp_mmshare_version>
43012

> <i_f3d_flags>
0

> <s_epik_input>
TiNDYyhjMVtDSDNdKWMoPU8pbihuYzFbQ0gzXSlbQ0gyXUMoPU8pW05IXUMoPU8pW05IXVtDSF0yW0NIMl1bQ0gyXVtDSDJdW0NIMl0y

> <s_epik_cmdline>
J2VwaWtfcHl0aG9uJywgJy1waCcsICc3LjAnLCAnLXRuJywgJzgnLCAnLW1hJywgJzIwMCcsICctbWV0YWxfYmluZGluZycsICctaW1hZScsICc8aW5maWxlLm1hZT4nLCAnLW9tYWUnLCAnPG91dGZpbGUubWFlPic=

> <r_lp_tautomer_probability>
1

> <r_epik_Ionization_Penalty>
3.28905e-05

> <r_epik_Ionization_Penalty_Charging>
1.69167e-11

> <r_epik_Ionization_Penalty_Neutral>
3.28905e-05

> <r_epik_State_Penalty>
-0

> <r_epik_Charging_Adjusted_Penalty>
1.69167e-11

> <i_epik_Tot_Q>
0

> <i_epik_Tot_abs_Q>
0

> <r_epik_Metal_State_Penalty>
-0

> <b_epik_Metal_Only>
0

> <s_lp_Force_Field>
OPLS_2005

> <r_lp_Energy>
37.6869

> <b_lp_Chiralities_Consistent>
1

> <s_lp_Variant>
AV-unprocessed.smi:489-1

> <Gold.Version>
5.8.1

> <Gold.Id.Protein>
6NUR|6NUR_protein|mol2

> <Gold.PLP.Fitness>
47.8645

> <Gold.PLP.PLP>
-36.3906

> <Gold.PLP.part.hbond>
-4.8759

> <Gold.PLP.part.metal>
0.0000

> <Gold.PLP.part.buried>
-6.4557

> <Gold.PLP.part.nonpolar>
-27.1292

> <Gold.PLP.part.repulsive>
0.3429

> <Gold.PLP.ligand.clash>
0.0000

> <Gold.PLP.ligand.torsion>
0.3017

> <Gold.PLP.Chemscore.Hbond>
4.0211

> <Gold.PLP.Chemscore.CHOScore>
0.0000

> <Gold.PLP.Chemscore.Metal>
0.0000

> <Gold.Chemscore.Hbonds>
donor molecule, donor type, donor heavy atom, donor atom, acceptor molecule, acceptor atom, score
      L1  H     8    29       P1  7948  0.98
      L1  H    11    30       P1  7948  1.00
      P1  H  7997  8009       L1    21  1.00
      P1  H 10752 10764       L1    18  1.00

> <Gold.PLP.Chemscore.Internal.Correction>
0.0139

> <Gold.Rescore>
     Score         DG    S(hbond)    S(metal)    S(lipo)     H(rot)  DE(clash)    DE(int)     intcor
     17.09     -20.93       3.60        0.00      64.66       1.61       0.00       3.84       ----

> <Gold.Chemscore.Fitness>
17.0903

> <Gold.Chemscore.DG>
-20.9295

> <Gold.Chemscore.ZeroCoef>
-5.4800

> <Gold.Chemscore.Hbond>
3.5961

> <Gold.Chemscore.Metal>
0.0000

> <Gold.Chemscore.Lipo>
64.6649

> <Gold.Chemscore.Internal_Hbond>
0.0000

> <Gold.Chemscore.DEClash>
0.0029

> <Gold.Chemscore.DEInternal>
3.8363

> <Gold.Chemscore.Rot>
1.6122

> <Gold.Chemscore.Internal.Correction>
   9.000000E+99

> <Gold.Chemscore.Hbonds>
donor molecule, donor type, donor heavy atom, donor atom, acceptor molecule, acceptor atom, score
      L1  H     8    29       P1  7948  0.59
      L1  H    11    30       P1  7948  0.85
      P1  H  7997  8009       L1    21  1.00
      P1  H 10752 10764       L1    18  0.99

> <Gold.Chemscore.Hbond.Weighted>
-12.0109

> <Gold.Chemscore.Metal.Weighted>
-0.0000

> <Gold.Chemscore.Lipo.Weighted>
-7.5658

> <Gold.Chemscore.Internal_Hbond.Weighted>
0.0000

> <Gold.Chemscore.DEClash.Weighted>
0.0029

> <Gold.Chemscore.DEInternal.Weighted>
3.8363

> <Gold.Chemscore.Rot.Weighted>
4.1272

> <Gold.Chemscore.Internal.Correction.Weighted>
   9.000000E+99

> <Gold.Protein.RotatedTorsions>
[ 6907 6896 6895 6894 ] final   25.80 input  -60.11 | X-H torsion
[ 7974 7965 7964 7962 ] final -113.48 input  175.53 | X-H torsion
[ 8008 7997 7996 7995 ] final -130.88 input   59.86 | X-H torsion
[ 10167 10162 10161 10158 ] final  -99.54 input  -65.29 | X-H torsion
[ 10718 10713 10712 10709 ] final   40.60 input   66.30 | X-H torsion
[ 10763 10752 10751 10750 ] final  -57.22 input  -60.55 | X-H torsion
[ 11005 11000 10999 10996 ] final  101.82 input  -57.11 | X-H torsion

> <Gold.Protein.ActiveResidues>
 VAL166  LYS551  ARG553  GLY616  TRP617  ASP618  TYR619  PRO620  LYS621  CYS622 
 ASP623  PHE694  ASN695  SER759  ASP760  ASP761  ALA762  ILE779  LEU786  VAL792 
 PHE793  MET794  SER795  GLU796  ALA797  LYS798  CYS799  TRP800  GLU811  SER814 

> <Gold.Protein.RotatedAtoms>
  151.9779  135.0044  160.0555 H   0  0  0  0  0  0  0  0  0  0  0  0  # atno 6907 bound_to 6896
  152.1723  133.4647  159.4924 H   0  0  0  0  0  0  0  0  0  0  0  0  # atno 6908 bound_to 6896
  150.6904  134.1855  159.4308 H   0  0  0  0  0  0  0  0  0  0  0  0  # atno 6909 bound_to 6896
  145.1315  140.8727  143.3755 H   0  0  0  0  0  0  0  0  0  0  0  0  # atno 7974 bound_to 7965
  155.3031  140.0453  157.3030 H   0  0  0  0  0  0  0  0  0  0  0  0  # atno 8008 bound_to 7997
  154.5475  140.2307  155.8505 H   0  0  0  0  0  0  0  0  0  0  0  0  # atno 8009 bound_to 7997
  156.1937  140.3044  155.9391 H   0  0  0  0  0  0  0  0  0  0  0  0  # atno 8010 bound_to 7997
  140.2614  143.3405  152.0622 H   0  0  0  0  0  0  0  0  0  0  0  0  # atno 10167 bound_to 10162
  157.3840  130.7769  149.7215 H   0  0  0  0  0  0  0  0  0  0  0  0  # atno 10718 bound_to 10713
  154.2189  135.6381  153.5138 H   0  0  0  0  0  0  0  0  0  0  0  0  # atno 10763 bound_to 10752
  152.9973  135.5492  154.6135 H   0  0  0  0  0  0  0  0  0  0  0  0  # atno 10764 bound_to 10752
  154.5590  135.2907  155.0911 H   0  0  0  0  0  0  0  0  0  0  0  0  # atno 10765 bound_to 10752
  139.8775  134.9199  156.4964 H   0  0  0  0  0  0  0  0  0  0  0  0  # atno 11005 bound_to 11000
  145.0630  139.3090  143.5871 LP  0  0  0  0  0  0  0  0  0  0  0  0  # atno 17320 bound_to 7965
  146.3513  140.0078  142.8670 LP  0  0  0  0  0  0  0  0  0  0  0  0  # atno 17321 bound_to 7965
  139.5016  144.6716  151.6228 LP  0  0  0  0  0  0  0  0  0  0  0  0  # atno 17342 bound_to 10162
  140.5963  143.9690  150.6356 LP  0  0  0  0  0  0  0  0  0  0  0  0  # atno 17343 bound_to 10162
  155.9782  130.4054  150.3662 LP  0  0  0  0  0  0  0  0  0  0  0  0  # atno 17370 bound_to 10713
  157.1770  131.0383  151.2767 LP  0  0  0  0  0  0  0  0  0  0  0  0  # atno 17371 bound_to 10713
  140.8621  133.8052  155.9276 LP  0  0  0  0  0  0  0  0  0  0  0  0  # atno 17394 bound_to 11000
  140.9039  134.2345  157.5026 LP  0  0  0  0  0  0  0  0  0  0  0  0  # atno 17395 bound_to 11000

$$$$
