AV-unprocessed.smi:2564|AV-procd|sdf|10066|dock2
  -GOLD-   2272014103D 1   1.00000     0.00000
 Structure written by MMmdl.
 28 29  0  0  0  0  0  0  0  0  1 V2000
  152.4407  144.7843  158.9104 C   0  0  0  0  0  0  0  0  0  0  0  0
  152.0822  143.9821  160.0088 C   0  0  0  0  0  0  0  0  0  0  0  0
  151.3113  142.8785  159.8834 N   0  0  0  0  0  0  0  0  0  0  0  0
  150.8562  142.5130  158.6796 N   0  0  0  0  0  0  0  0  0  0  0  0
  151.1586  143.2427  157.5757 C   0  0  0  0  0  0  0  0  0  0  0  0
  150.6663  142.8376  156.3266 N   0  0  0  0  0  0  0  0  0  0  0  0
  150.7341  141.4447  155.8997 C   0  0  0  0  0  0  0  0  0  0  0  0
  149.4248  140.9620  155.2527 C   0  0  2  0  0  0  0  0  0  0  0  0
  149.6509  139.6992  154.3974 C   0  0  0  0  0  0  0  0  0  0  0  0
  148.4127  139.3050  153.7269 N   0  0  0  0  0  0  0  0  0  0  0  0
  147.8632  140.4048  152.9370 C   0  0  0  0  0  0  0  0  0  0  0  0
  147.6885  141.6560  153.8146 C   0  0  0  0  0  0  0  0  0  0  0  0
  148.9385  141.9986  154.4028 O   0  0  0  0  0  0  0  0  0  0  0  0
  151.9612  144.3986  157.6467 C   0  0  0  0  0  0  0  0  0  0  0  0
  153.0589  145.6610  159.0338 H   0  0  0  0  0  0  0  0  0  0  0  0
  152.4187  144.2284  161.0050 H   0  0  0  0  0  0  0  0  0  0  0  0
  150.0522  143.4586  155.8199 H   0  0  0  0  0  0  0  0  0  0  0  0
  151.5554  141.3424  155.1901 H   0  0  0  0  0  0  0  0  0  0  0  0
  150.9910  140.8145  156.7520 H   0  0  0  0  0  0  0  0  0  0  0  0
  148.6890  140.7446  156.0294 H   0  0  0  0  0  0  0  0  0  0  0  0
  150.4284  139.8897  153.6564 H   0  0  0  0  0  0  0  0  0  0  0  0
  150.0095  138.8823  155.0240 H   0  0  0  0  0  0  0  0  0  0  0  0
  148.5912  138.5088  153.1234 H   0  0  0  0  0  0  0  0  0  0  0  0
  148.5297  140.6325  152.1042 H   0  0  0  0  0  0  0  0  0  0  0  0
  146.9066  140.1135  152.5030 H   0  0  0  0  0  0  0  0  0  0  0  0
  147.3430  142.4932  153.2081 H   0  0  0  0  0  0  0  0  0  0  0  0
  146.9369  141.4916  154.5886 H   0  0  0  0  0  0  0  0  0  0  0  0
  152.2005  144.9735  156.7640 H   0  0  0  0  0  0  0  0  0  0  0  0
  1 14  1  0  0  0  0
  1  2  2  0  0  0  0
  1 15  1  0  0  0  0
  2  3  1  0  0  0  0
  2 16  1  0  0  0  0
  3  4  2  0  0  0  0
  4  5  1  0  0  0  0
  5  6  1  0  0  0  0
  5 14  2  0  0  0  0
  6  7  1  0  0  0  0
  6 17  1  0  0  0  0
  7  8  1  0  0  0  0
  7 18  1  0  0  0  0
  7 19  1  0  0  0  0
  8 13  1  0  0  0  0
  8  9  1  0  0  0  0
  8 20  1  0  0  0  0
  9 10  1  0  0  0  0
  9 21  1  0  0  0  0
  9 22  1  0  0  0  0
 10 11  1  0  0  0  0
 10 23  1  0  0  0  0
 11 12  1  0  0  0  0
 11 24  1  0  0  0  0
 11 25  1  0  0  0  0
 12 13  1  0  0  0  0
 12 26  1  0  0  0  0
 12 27  1  0  0  0  0
 14 28  1  0  0  0  0
M  END
> <s_m_source_file>
AV-unprocessed.smi

> <i_m_source_file_index>
2564

> <i_lp_mmshare_version>
43012

> <i_f3d_flags>
0

> <s_epik_input>
W2NIXTFbY0hdW2NIXW5uYzFbTkhdW0NIMl1bQ0BASF0yW0NIMl1bTkhdW0NIMl1bQ0gyXU8y

> <s_epik_cmdline>
J2VwaWtfcHl0aG9uJywgJy1waCcsICc3LjAnLCAnLXRuJywgJzgnLCAnLW1hJywgJzIwMCcsICctbWV0YWxfYmluZGluZycsICctaW1hZScsICc8aW5maWxlLm1hZT4nLCAnLW9tYWUnLCAnPG91dGZpbGUubWFlPic=

> <r_lp_tautomer_probability>
0.999978

> <r_epik_Ionization_Penalty>
2.48194

> <r_epik_Ionization_Penalty_Charging>
0

> <r_epik_Ionization_Penalty_Neutral>
2.48194

> <r_epik_State_Penalty>
2.63388

> <r_epik_Charging_Adjusted_Penalty>
2.63388

> <i_epik_Tot_Q>
0

> <i_epik_Tot_abs_Q>
0

> <r_epik_Metal_State_Penalty>
2.61931

> <b_epik_Metal_Only>
0

> <s_lp_Force_Field>
OPLS_2005

> <r_lp_Energy>
19.9467

> <b_lp_Chiralities_Consistent>
1

> <s_lp_Variant>
AV-unprocessed.smi:2564-5

> <Gold.Version>
5.8.1

> <Gold.Id.Protein>
6NUR|6NUR_protein|mol2

> <Gold.PLP.Fitness>
34.5177

> <Gold.PLP.PLP>
-32.5974

> <Gold.PLP.part.hbond>
-3.6382

> <Gold.PLP.part.metal>
0.0000

> <Gold.PLP.part.buried>
-0.7667

> <Gold.PLP.part.nonpolar>
-28.2586

> <Gold.PLP.part.repulsive>
1.2795

> <Gold.PLP.ligand.clash>
0.0000

> <Gold.PLP.ligand.torsion>
0.6532

> <Gold.PLP.Chemscore.Hbond>
1.0747

> <Gold.PLP.Chemscore.CHOScore>
0.0000

> <Gold.PLP.Chemscore.Metal>
0.0000

> <Gold.Chemscore.Hbonds>
donor molecule, donor type, donor heavy atom, donor atom, acceptor molecule, acceptor atom, score
      L1  H     6    17       P1  8028  1.00
      P1  H  8011  8017       L1    13  0.07

> <Gold.PLP.Chemscore.Internal.Correction>
0.0025

> <Gold.Rescore>
     Score         DG    S(hbond)    S(metal)    S(lipo)     H(rot)  DE(clash)    DE(int)     intcor
     13.30     -13.85       0.99        0.00      71.73       1.30       0.01       0.55       ----

> <Gold.Chemscore.Fitness>
13.2953

> <Gold.Chemscore.DG>
-13.8531

> <Gold.Chemscore.ZeroCoef>
-5.4800

> <Gold.Chemscore.Hbond>
0.9913

> <Gold.Chemscore.Metal>
0.0000

> <Gold.Chemscore.Lipo>
71.7250

> <Gold.Chemscore.Internal_Hbond>
0.0000

> <Gold.Chemscore.DEClash>
0.0106

> <Gold.Chemscore.DEInternal>
0.5471

> <Gold.Chemscore.Rot>
1.3006

> <Gold.Chemscore.Internal.Correction>
   9.000000E+99

> <Gold.Chemscore.Hbonds>
donor molecule, donor type, donor heavy atom, donor atom, acceptor molecule, acceptor atom, score
      L1  H     6    17       P1  8028  0.98

> <Gold.Chemscore.Hbond.Weighted>
-3.3108

> <Gold.Chemscore.Metal.Weighted>
-0.0000

> <Gold.Chemscore.Lipo.Weighted>
-8.3918

> <Gold.Chemscore.Internal_Hbond.Weighted>
0.0000

> <Gold.Chemscore.DEClash.Weighted>
0.0106

> <Gold.Chemscore.DEInternal.Weighted>
0.5471

> <Gold.Chemscore.Rot.Weighted>
3.3296

> <Gold.Chemscore.Internal.Correction.Weighted>
   9.000000E+99

> <Gold.Protein.RotatedTorsions>
[ 6907 6896 6895 6894 ] final  -21.31 input  -60.11 | X-H torsion
[ 7974 7965 7964 7962 ] final   87.54 input  175.53 | X-H torsion
[ 8008 7997 7996 7995 ] final  -36.19 input   59.86 | X-H torsion
[ 10167 10162 10161 10158 ] final   86.12 input  -65.29 | X-H torsion
[ 10718 10713 10712 10709 ] final   91.21 input   66.30 | X-H torsion
[ 10763 10752 10751 10750 ] final  107.50 input  -60.55 | X-H torsion
[ 11005 11000 10999 10996 ] final  136.61 input  -57.11 | X-H torsion

> <Gold.Protein.ActiveResidues>
 VAL166  LYS551  ARG553  GLY616  TRP617  ASP618  TYR619  PRO620  LYS621  CYS622 
 ASP623  PHE694  ASN695  SER759  ASP760  ASP761  ALA762  ILE779  LEU786  VAL792 
 PHE793  MET794  SER795  GLU796  ALA797  LYS798  CYS799  TRP800  GLU811  SER814 

> <Gold.Protein.RotatedAtoms>
  151.2352  135.0569  159.9003 H   0  0  0  0  0  0  0  0  0  0  0  0  # atno 6907 bound_to 6896
  152.5400  134.0493  159.8113 H   0  0  0  0  0  0  0  0  0  0  0  0  # atno 6908 bound_to 6896
  151.0679  133.5441  159.2661 H   0  0  0  0  0  0  0  0  0  0  0  0  # atno 6909 bound_to 6896
  145.5576  139.2301  143.2477 H   0  0  0  0  0  0  0  0  0  0  0  0  # atno 7974 bound_to 7965
  154.4078  140.1637  156.2334 H   0  0  0  0  0  0  0  0  0  0  0  0  # atno 8008 bound_to 7997
  155.9263  140.3418  155.6190 H   0  0  0  0  0  0  0  0  0  0  0  0  # atno 8009 bound_to 7997
  155.7161  140.0762  157.2341 H   0  0  0  0  0  0  0  0  0  0  0  0  # atno 8010 bound_to 7997
  139.8908  144.6386  150.8741 H   0  0  0  0  0  0  0  0  0  0  0  0  # atno 10167 bound_to 10162
  157.6960  131.0399  150.3695 H   0  0  0  0  0  0  0  0  0  0  0  0  # atno 10718 bound_to 10713
  153.4076  135.3842  155.2029 H   0  0  0  0  0  0  0  0  0  0  0  0  # atno 10763 bound_to 10752
  154.8735  135.3786  154.4541 H   0  0  0  0  0  0  0  0  0  0  0  0  # atno 10764 bound_to 10752
  153.5046  135.7088  153.5875 H   0  0  0  0  0  0  0  0  0  0  0  0  # atno 10765 bound_to 10752
  140.0058  134.9460  157.0171 H   0  0  0  0  0  0  0  0  0  0  0  0  # atno 11005 bound_to 11000
  146.1873  140.6400  142.9161 LP  0  0  0  0  0  0  0  0  0  0  0  0  # atno 17320 bound_to 7965
  144.7498  140.5163  143.6809 LP  0  0  0  0  0  0  0  0  0  0  0  0  # atno 17321 bound_to 7965
  140.7727  143.3511  151.2012 LP  0  0  0  0  0  0  0  0  0  0  0  0  # atno 17342 bound_to 10162
  139.7111  143.9375  152.2948 LP  0  0  0  0  0  0  0  0  0  0  0  0  # atno 17343 bound_to 10162
  156.4121  130.3936  149.6884 LP  0  0  0  0  0  0  0  0  0  0  0  0  # atno 17370 bound_to 10713
  156.4164  130.7747  151.2763 LP  0  0  0  0  0  0  0  0  0  0  0  0  # atno 17371 bound_to 10713
  140.4644  134.1450  155.7195 LP  0  0  0  0  0  0  0  0  0  0  0  0  # atno 17394 bound_to 11000
  141.1675  133.8673  157.1670 LP  0  0  0  0  0  0  0  0  0  0  0  0  # atno 17395 bound_to 11000

$$$$
