AV-unprocessed.smi:1389|AV-procd|sdf|5648|dock2
  -GOLD-   22720 5263D 1   1.00000     0.00000
 Structure written by MMmdl.
 52 54  0  0  0  0  0  0  0  0  2 V2000
  146.9057  133.4895  155.4792 C   0  0  0  0  0  0  0  0  0  0  0  0
  147.7257  133.2618  154.1858 C   0  0  2  0  0  0  0  0  0  0  0  0
  149.1939  133.7147  154.3990 C   0  0  0  0  0  0  0  0  0  0  0  0
  149.3972  135.1346  154.1287 N   0  0  0  0  0  0  0  0  0  0  0  0
  149.9721  136.0001  154.9750 C   0  0  0  0  0  0  0  0  0  0  0  0
  150.3996  135.6799  156.0840 O   0  0  0  0  0  0  0  0  0  0  0  0
  150.0223  137.2334  154.4451 N   0  0  0  0  0  0  0  0  0  0  0  0
  150.6340  138.4034  154.9786 C   0  0  0  0  0  0  0  0  0  0  0  0
  151.8374  138.3447  155.7238 C   0  0  0  0  0  0  0  0  0  0  0  0
  152.3617  139.5233  156.2820 C   0  0  0  0  0  0  0  0  0  0  0  0
  151.6549  140.7216  156.0898 C   0  0  0  0  0  0  0  0  0  0  0  0
  150.5013  140.7925  155.3965 N   0  0  0  0  0  0  0  0  0  0  0  0
  149.9902  139.6669  154.8397 C   0  0  0  0  0  0  0  0  0  0  0  0
  148.7858  139.8045  154.1120 N   0  0  0  0  0  0  0  0  0  0  0  0
  147.6041  139.0344  154.4844 C   0  0  0  0  0  0  0  0  0  0  0  0
  146.4481  139.7104  153.7534 C   0  0  0  0  0  0  0  0  0  0  0  0
  146.8471  141.1822  153.8039 C   0  0  0  0  0  0  0  0  0  0  0  0
  148.3767  141.1482  153.7128 C   0  0  0  0  0  0  0  0  0  0  0  0
  147.1471  133.9418  152.9809 N   0  3  0  0  0  0  0  0  0  0  0  0
  146.6945  132.9746  151.9442 C   0  0  0  0  0  0  0  0  0  0  0  0
  146.2036  133.7047  150.6837 C   0  0  0  0  0  0  0  0  0  0  0  0
  145.1452  134.5857  151.0303 O   0  0  0  0  0  0  0  0  0  0  0  0
  145.5756  135.5822  151.9457 C   0  0  0  0  0  0  0  0  0  0  0  0
  146.0605  134.9241  153.2495 C   0  0  0  0  0  0  0  0  0  0  0  0
  147.3640  133.0011  156.3390 H   0  0  0  0  0  0  0  0  0  0  0  0
  145.9015  133.0717  155.4065 H   0  0  0  0  0  0  0  0  0  0  0  0
  146.8195  134.5507  155.7154 H   0  0  0  0  0  0  0  0  0  0  0  0
  147.7125  132.1875  153.9933 H   0  0  0  0  0  0  0  0  0  0  0  0
  149.5434  133.5081  155.4100 H   0  0  0  0  0  0  0  0  0  0  0  0
  149.8515  133.1522  153.7352 H   0  0  0  0  0  0  0  0  0  0  0  0
  149.0779  135.4813  153.2358 H   0  0  0  0  0  0  0  0  0  0  0  0
  149.6911  137.3207  153.4953 H   0  0  0  0  0  0  0  0  0  0  0  0
  152.3559  137.4147  155.8979 H   0  0  0  0  0  0  0  0  0  0  0  0
  153.2772  139.5059  156.8546 H   0  0  0  0  0  0  0  0  0  0  0  0
  152.0213  141.6473  156.5084 H   0  0  0  0  0  0  0  0  0  0  0  0
  147.7065  137.9864  154.2013 H   0  0  0  0  0  0  0  0  0  0  0  0
  147.4314  139.0849  155.5602 H   0  0  0  0  0  0  0  0  0  0  0  0
  146.4097  139.3696  152.7177 H   0  0  0  0  0  0  0  0  0  0  0  0
  145.4799  139.5121  154.2141 H   0  0  0  0  0  0  0  0  0  0  0  0
  146.3890  141.7753  153.0121 H   0  0  0  0  0  0  0  0  0  0  0  0
  146.5457  141.6097  154.7613 H   0  0  0  0  0  0  0  0  0  0  0  0
  148.8301  141.9191  154.3380 H   0  0  0  0  0  0  0  0  0  0  0  0
  148.6898  141.3196  152.6827 H   0  0  0  0  0  0  0  0  0  0  0  0
  147.4959  132.2947  151.6611 H   0  0  0  0  0  0  0  0  0  0  0  0
  145.8892  132.3585  152.3482 H   0  0  0  0  0  0  0  0  0  0  0  0
  147.0168  134.2554  150.2077 H   0  0  0  0  0  0  0  0  0  0  0  0
  145.8363  132.9848  149.9521 H   0  0  0  0  0  0  0  0  0  0  0  0
  146.3658  136.1871  151.4976 H   0  0  0  0  0  0  0  0  0  0  0  0
  144.7420  136.2537  152.1527 H   0  0  0  0  0  0  0  0  0  0  0  0
  145.2291  134.4249  153.7499 H   0  0  0  0  0  0  0  0  0  0  0  0
  146.4096  135.7206  153.9059 H   0  0  0  0  0  0  0  0  0  0  0  0
  147.9004  134.4769  152.5731 H   0  0  0  0  0  0  0  0  0  0  0  0
  1  2  1  0  0  0  0
  1 25  1  0  0  0  0
  1 26  1  0  0  0  0
  1 27  1  0  0  0  0
  2  3  1  0  0  0  0
  2 19  1  0  0  0  0
  2 28  1  0  0  0  0
  3  4  1  0  0  0  0
  3 29  1  0  0  0  0
  3 30  1  0  0  0  0
  4  5  1  0  0  0  0
  4 31  1  0  0  0  0
  5  6  2  0  0  0  0
  5  7  1  0  0  0  0
  7  8  1  0  0  0  0
  7 32  1  0  0  0  0
  8 13  1  0  0  0  0
  8  9  2  0  0  0  0
  9 10  1  0  0  0  0
  9 33  1  0  0  0  0
 10 11  2  0  0  0  0
 10 34  1  0  0  0  0
 11 12  1  0  0  0  0
 11 35  1  0  0  0  0
 12 13  2  0  0  0  0
 13 14  1  0  0  0  0
 14 18  1  0  0  0  0
 14 15  1  0  0  0  0
 15 16  1  0  0  0  0
 15 36  1  0  0  0  0
 15 37  1  0  0  0  0
 16 17  1  0  0  0  0
 16 38  1  0  0  0  0
 16 39  1  0  0  0  0
 17 18  1  0  0  0  0
 17 40  1  0  0  0  0
 17 41  1  0  0  0  0
 18 42  1  0  0  0  0
 18 43  1  0  0  0  0
 19 24  1  0  0  0  0
 19 20  1  0  0  0  0
 19 52  1  0  0  0  0
 20 21  1  0  0  0  0
 20 44  1  0  0  0  0
 20 45  1  0  0  0  0
 21 22  1  0  0  0  0
 21 46  1  0  0  0  0
 21 47  1  0  0  0  0
 22 23  1  0  0  0  0
 23 24  1  0  0  0  0
 23 48  1  0  0  0  0
 23 49  1  0  0  0  0
 24 50  1  0  0  0  0
 24 51  1  0  0  0  0
M  CHG  1  19   1
M  END
> <s_m_source_file>
AV-unprocessed.smi

> <i_m_source_file_index>
1389

> <i_lp_mmshare_version>
43012

> <i_f3d_flags>
0

> <s_epik_input>
W0NIMl0xW0NIMl1PW0NIMl1bQ0gyXU4xW0NASF0oW0NIM10pW0NIMl1bTkhdQyg9TylbTkhdYzJbY0hdW2NIXVtjSF1uYzJOM1tDSDJdW0NIMl1bQ0gyXVtDSDJdMw==

> <s_epik_cmdline>
J2VwaWtfcHl0aG9uJywgJy1waCcsICc3LjAnLCAnLXRuJywgJzgnLCAnLW1hJywgJzIwMCcsICctbWV0YWxfYmluZGluZycsICctaW1hZScsICc8aW5maWxlLm1hZT4nLCAnLW9tYWUnLCAnPG91dGZpbGUubWFlPic=

> <r_lp_tautomer_probability>
1

> <r_epik_Ionization_Penalty>
0.686

> <r_epik_Ionization_Penalty_Charging>
0.602531

> <r_epik_Ionization_Penalty_Neutral>
0.08347

> <r_epik_State_Penalty>
0.679975

> <r_epik_Charging_Adjusted_Penalty>
1.28251

> <i_epik_Tot_Q>
1

> <i_epik_Tot_abs_Q>
1

> <r_epik_Metal_State_Penalty>
0.679055

> <b_epik_Metal_Only>
0

> <s_lp_Force_Field>
OPLS_2005

> <r_lp_Energy>
48.7477

> <b_lp_Chiralities_Consistent>
1

> <s_lp_Variant>
AV-unprocessed.smi:1389-3

> <Gold.Version>
5.8.1

> <Gold.Id.Protein>
6NUR|6NUR_protein|mol2

> <Gold.PLP.Fitness>
38.0249

> <Gold.PLP.PLP>
-31.1909

> <Gold.PLP.part.hbond>
-4.0851

> <Gold.PLP.part.metal>
0.0000

> <Gold.PLP.part.buried>
0.1274

> <Gold.PLP.part.nonpolar>
-27.7681

> <Gold.PLP.part.repulsive>
0.7319

> <Gold.PLP.ligand.clash>
0.0000

> <Gold.PLP.ligand.torsion>
2.2153

> <Gold.PLP.Chemscore.Hbond>
3.6305

> <Gold.PLP.Chemscore.CHOScore>
0.0000

> <Gold.PLP.Chemscore.Metal>
0.0000

> <Gold.Chemscore.Hbonds>
donor molecule, donor type, donor heavy atom, donor atom, acceptor molecule, acceptor atom, score
      L1  H     4    31       P1  7948  1.00
      L1  H     7    32       P1  7948  0.82
      L1  H    19    52       P1  7948  1.53
      P1  H  7989  7998       L1    12  0.04

> <Gold.PLP.Chemscore.Internal.Correction>
0.3730

> <Gold.Rescore>
     Score         DG    S(hbond)    S(metal)    S(lipo)     H(rot)  DE(clash)    DE(int)     intcor
     12.57     -16.78       2.02        0.00      74.66       1.63       0.22       3.99       ----

> <Gold.Chemscore.Fitness>
12.5707

> <Gold.Chemscore.DG>
-16.7764

> <Gold.Chemscore.ZeroCoef>
-5.4800

> <Gold.Chemscore.Hbond>
2.0167

> <Gold.Chemscore.Metal>
0.0000

> <Gold.Chemscore.Lipo>
74.6599

> <Gold.Chemscore.Internal_Hbond>
0.0000

> <Gold.Chemscore.DEClash>
0.2156

> <Gold.Chemscore.DEInternal>
3.9900

> <Gold.Chemscore.Rot>
1.6307

> <Gold.Chemscore.Internal.Correction>
   9.000000E+99

> <Gold.Chemscore.Hbonds>
donor molecule, donor type, donor heavy atom, donor atom, acceptor molecule, acceptor atom, score
      L1  H     4    31       P1  7948  0.47
      L1  H     7    32       P1  7948  0.57
      L1  H    19    52       P1  7948  0.42

> <Gold.Chemscore.Hbond.Weighted>
-6.7357

> <Gold.Chemscore.Metal.Weighted>
-0.0000

> <Gold.Chemscore.Lipo.Weighted>
-8.7352

> <Gold.Chemscore.Internal_Hbond.Weighted>
0.0000

> <Gold.Chemscore.DEClash.Weighted>
0.2156

> <Gold.Chemscore.DEInternal.Weighted>
3.9900

> <Gold.Chemscore.Rot.Weighted>
4.1746

> <Gold.Chemscore.Internal.Correction.Weighted>
   9.000000E+99

> <Gold.Protein.RotatedTorsions>
[ 6907 6896 6895 6894 ] final  -34.25 input  -60.11 | X-H torsion
[ 7974 7965 7964 7962 ] final   87.38 input  175.53 | X-H torsion
[ 8008 7997 7996 7995 ] final  -99.17 input   59.86 | X-H torsion
[ 10167 10162 10161 10158 ] final   98.56 input  -65.29 | X-H torsion
[ 10718 10713 10712 10709 ] final  157.08 input   66.30 | X-H torsion
[ 10763 10752 10751 10750 ] final  146.29 input  -60.55 | X-H torsion
[ 11005 11000 10999 10996 ] final  136.20 input  -57.11 | X-H torsion

> <Gold.Protein.ActiveResidues>
 VAL166  LYS551  ARG553  GLY616  TRP617  ASP618  TYR619  PRO620  LYS621  CYS622 
 ASP623  PHE694  ASN695  SER759  ASP760  ASP761  ALA762  ILE779  LEU786  VAL792 
 PHE793  MET794  SER795  GLU796  ALA797  LYS798  CYS799  TRP800  GLU811  SER814 

> <Gold.Protein.RotatedAtoms>
  151.0550  134.9698  159.8230 H   0  0  0  0  0  0  0  0  0  0  0  0  # atno 6907 bound_to 6896
  152.5387  134.2489  159.8901 H   0  0  0  0  0  0  0  0  0  0  0  0  # atno 6908 bound_to 6896
  151.2506  133.4309  159.2645 H   0  0  0  0  0  0  0  0  0  0  0  0  # atno 6909 bound_to 6896
  145.5597  139.2303  143.2466 H   0  0  0  0  0  0  0  0  0  0  0  0  # atno 7974 bound_to 7965
  154.8111  140.0450  157.1343 H   0  0  0  0  0  0  0  0  0  0  0  0  # atno 8008 bound_to 7997
  154.9367  140.3047  155.5121 H   0  0  0  0  0  0  0  0  0  0  0  0  # atno 8009 bound_to 7997
  156.2972  140.2313  156.4432 H   0  0  0  0  0  0  0  0  0  0  0  0  # atno 8010 bound_to 7997
  139.7698  144.6926  151.0173 H   0  0  0  0  0  0  0  0  0  0  0  0  # atno 10167 bound_to 10162
  157.1963  131.0666  151.2051 H   0  0  0  0  0  0  0  0  0  0  0  0  # atno 10718 bound_to 10713
  154.0195  135.2907  155.3382 H   0  0  0  0  0  0  0  0  0  0  0  0  # atno 10763 bound_to 10752
  154.7055  135.5171  153.8591 H   0  0  0  0  0  0  0  0  0  0  0  0  # atno 10764 bound_to 10752
  153.0687  135.6640  154.0418 H   0  0  0  0  0  0  0  0  0  0  0  0  # atno 10765 bound_to 10752
  140.0030  134.9471  157.0113 H   0  0  0  0  0  0  0  0  0  0  0  0  # atno 11005 bound_to 11000
  146.1860  140.6422  142.9167 LP  0  0  0  0  0  0  0  0  0  0  0  0  # atno 17320 bound_to 7965
  144.7489  140.5140  143.6816 LP  0  0  0  0  0  0  0  0  0  0  0  0  # atno 17321 bound_to 7965
  140.7813  143.4602  151.0289 LP  0  0  0  0  0  0  0  0  0  0  0  0  # atno 17342 bound_to 10162
  139.8286  143.7722  152.3179 LP  0  0  0  0  0  0  0  0  0  0  0  0  # atno 17343 bound_to 10162
  157.3811  130.7232  149.6631 LP  0  0  0  0  0  0  0  0  0  0  0  0  # atno 17370 bound_to 10713
  155.9705  130.4172  150.4268 LP  0  0  0  0  0  0  0  0  0  0  0  0  # atno 17371 bound_to 10713
  140.4693  134.1403  155.7201 LP  0  0  0  0  0  0  0  0  0  0  0  0  # atno 17394 bound_to 11000
  141.1656  133.8709  157.1724 LP  0  0  0  0  0  0  0  0  0  0  0  0  # atno 17395 bound_to 11000

$$$$
