#       Name:                AV-unprocessed.smi:1605
#       Creating user name   scv26
#       Creation time:       Fri Mar 27 07:10:35 2020


#       File generated by GOLD software.
#

@<TRIPOS>MOLECULE
AV-unprocessed.smi:1605
    56    58     1
SMALL
NO_CHARGES


@<TRIPOS>ATOM
      1 ****        -5.2162   3.0744   1.7612 C.3            1 S1                 0.0000
      2 ****        -4.9499   2.1777   0.6938 O.3            1 S1                 0.0000
      3 ****        -4.1017   2.7051  -0.3200 C.3            1 S1                 0.0000
      4 ****        -4.3078   1.8690  -1.5924 C.3            1 S1                 0.0000
      5 ****        -3.7770   0.4342  -1.4232 C.3            1 S1                 0.0000
      6 ****        -2.3457   0.4327  -1.0254 N.4            1 S1                 1.0000
      7 ****        -1.7690  -0.9365  -0.9910 C.3            1 S1                 0.0000
      8 ****        -0.2445  -0.9370  -1.2180 C.3            1 S1                 0.0000
      9 ****         0.0225  -0.4898  -2.5338 O.3            1 S1                 0.0000
     10 ****         0.3694  -2.3365  -1.0226 C.3            1 S1                 0.0000
     11 ****         1.8141  -2.3265  -1.1655 N.pl3          1 S1                 0.0000
     12 ****         2.5345  -2.7569  -2.2193 C.2            1 S1                 0.0000
     13 ****         3.8572  -2.6459  -2.1379 N.2            1 S1                 0.0000
     14 ****         4.0141  -2.0816  -0.8834 C.ar           1 S1                 0.0000
     15 ****         5.1824  -1.7049  -0.1857 C.ar           1 S1                 0.0000
     16 ****         5.1040  -1.1392   1.1071 C.ar           1 S1                 0.0000
     17 ****         6.3859  -0.7475   1.8209 C.3            1 S1                 0.0000
     18 ****         3.8411  -0.9431   1.7218 C.ar           1 S1                 0.0000
     19 ****         3.7328  -0.3402   3.1113 C.3            1 S1                 0.0000
     20 ****         2.6638  -1.3114   1.0377 C.ar           1 S1                 0.0000
     21 ****         2.7552  -1.8728  -0.2481 C.ar           1 S1                 0.0000
     22 ****        -2.1291   1.1950   0.2334 C.3            1 S1                 0.0000
     23 ****        -2.6188   2.6465   0.0934 C.3            1 S1                 0.0000
     24 ****        -5.8977   2.6017   2.4683 H              1 S1                 0.0000
     25 ****        -5.6910   3.9880   1.4015 H              1 S1                 0.0000
     26 ****        -4.3103   3.3409   2.3049 H              1 S1                 0.0000
     27 ****        -4.3885   3.7360  -0.5348 H              1 S1                 0.0000
     28 ****        -5.3654   1.8479  -1.8582 H              1 S1                 0.0000
     29 ****        -3.7929   2.3469  -2.4269 H              1 S1                 0.0000
     30 ****        -4.3646  -0.1025  -0.6767 H              1 S1                 0.0000
     31 ****        -3.8977  -0.1016  -2.3655 H              1 S1                 0.0000
     32 ****        -2.0154  -1.4042  -0.0366 H              1 S1                 0.0000
     33 ****        -2.2328  -1.5571  -1.7595 H              1 S1                 0.0000
     34 ****         0.2393  -0.2498  -0.5250 H              1 S1                 0.0000
     35 ****        -0.3037  -1.1326  -3.1453 H              1 S1                 0.0000
     36 ****         0.1326  -2.7167  -0.0280 H              1 S1                 0.0000
     37 ****        -0.0509  -3.0465  -1.7366 H              1 S1                 0.0000
     38 ****         2.0614  -3.1704  -3.0981 H              1 S1                 0.0000
     39 ****         6.1440  -1.8548  -0.6539 H              1 S1                 0.0000
     40 ****         6.3871   0.3192   2.0461 H              1 S1                 0.0000
     41 ****         7.2632  -0.9614   1.2098 H              1 S1                 0.0000
     42 ****         6.4876  -1.2992   2.7556 H              1 S1                 0.0000
     43 ****         2.6946  -0.2804   3.4394 H              1 S1                 0.0000
     44 ****         4.1469   0.6682   3.1234 H              1 S1                 0.0000
     45 ****         4.2771  -0.9473   3.8350 H              1 S1                 0.0000
     46 ****         1.6958  -1.1658   1.4938 H              1 S1                 0.0000
     47 ****        -2.6495   0.7010   1.0555 H              1 S1                 0.0000
     48 ****        -1.0720   1.2064   0.4955 H              1 S1                 0.0000
     49 ****        -2.0168   3.1532  -0.6619 H              1 S1                 0.0000
     50 ****        -2.4486   3.1905   1.0219 H              1 S1                 0.0000
     51 ****        -1.8515   0.9243  -1.7568 H              1 S1                 0.0000
     52 ****        -5.8210   1.9255   0.2726 LP             1 S1                 0.0000
     53 ****        -4.5140   1.3613   1.0726 LP             1 S1                 0.0000
     54 ****         1.0086  -0.3780  -2.6574 LP             1 S1                 0.0000
     55 ****        -0.4344   0.3858  -2.6906 LP             1 S1                 0.0000
     56 ****         4.5549  -2.9025  -2.8068 LP             1 S1                 0.0000
@<TRIPOS>BOND
    1    1    2 1     
    2    1   24 1     
    3    1   25 1     
    4    1   26 1     
    5    2    3 1     
    6    3   23 1     
    7    3    4 1     
    8    3   27 1     
    9    4    5 1     
   10    4   28 1     
   11    4   29 1     
   12    5    6 1     
   13    5   30 1     
   14    5   31 1     
   15    6    7 1     
   16    6   22 1     
   17    6   51 1     
   18    7    8 1     
   19    7   32 1     
   20    7   33 1     
   21    8    9 1     
   22    8   10 1     
   23    8   34 1     
   24    9   35 1     
   25   10   11 1     
   26   10   36 1     
   27   10   37 1     
   28   11   21 1     
   29   11   12 1     
   30   12   13 2     
   31   12   38 1     
   32   13   14 1     
   33   14   21 ar    
   34   14   15 ar    
   35   15   16 ar    
   36   15   39 1     
   37   16   17 1     
   38   16   18 ar    
   39   17   40 1     
   40   17   41 1     
   41   17   42 1     
   42   18   19 1     
   43   18   20 ar    
   44   19   43 1     
   45   19   44 1     
   46   19   45 1     
   47   20   21 ar    
   48   20   46 1     
   49   22   23 1     
   50   22   47 1     
   51   22   48 1     
   52   23   49 1     
   53   23   50 1     
   54    2   52 1     
   55    2   53 1     
   56    9   54 1     
   57    9   55 1     
   58   13   56 1     
@<TRIPOS>SUBSTRUCTURE
      1 S1             1
@<TRIPOS>SET
LONE_PAIRS      STATIC     ATOMS    <user>   **** ""
5 52 53 54 55 56
DONOR_HYDROGENS      STATIC     ATOMS    <user>   **** ""
2 51 35
ATOM$BLUE        STATIC     ATOMS    COLORGROUP SYSTEM
5 52 53 54 55 56
ATOM$RED        STATIC     ATOMS    COLORGROUP SYSTEM
2 51 35
