AV-unprocessed.smi:498|AV-procd|sdf|2731|dock3
  -GOLD-   2262023183D 1   1.00000     0.00000
 Structure written by MMmdl.
 42 44  0  0  0  0  0  0  0  0  3 V2000
  152.0427  137.9420  154.5724 C   0  0  0  0  0  0  0  0  0  0  0  0
  150.8134  138.8530  154.5331 C   0  0  0  0  0  0  0  0  0  0  0  0
  151.1829  140.1441  154.9873 O   0  0  0  0  0  0  0  0  0  0  0  0
  151.2368  140.2331  156.4005 C   0  0  0  0  0  0  0  0  0  0  0  0
  151.4742  141.6965  156.7937 C   0  0  0  0  0  0  0  0  0  0  0  0
  151.9510  141.8219  158.1855 N   0  0  0  0  0  0  0  0  0  0  0  0
  152.5489  140.9222  159.0336 C   0  0  0  0  0  0  0  0  0  0  0  0
  152.9157  139.4853  158.7721 C   0  0  0  0  0  0  0  0  0  0  0  0
  153.5930  138.8674  159.9108 N   0  5  0  0  0  0  0  0  0  0  0  0
  153.0869  137.8153  160.6129 C   0  0  0  0  0  0  0  0  0  0  0  0
  152.2940  136.9366  160.2577 O   0  0  0  0  0  0  0  0  0  0  0  0
  153.6357  137.7496  161.9871 C   0  0  0  0  0  0  0  0  0  0  0  0
  153.4131  136.8791  163.0242 C   0  0  0  0  0  0  0  0  0  0  0  0
  154.2430  137.2994  164.0999 C   0  0  0  0  0  0  0  0  0  0  0  0
  154.9239  138.3904  163.6429 C   0  0  0  0  0  0  0  0  0  0  0  0
  154.5709  138.6728  162.3596 O   0  0  0  0  0  0  0  0  0  0  0  0
  152.7878  141.5832  160.2035 N   0  3  0  0  0  0  0  0  0  0  0  0
  152.3501  142.9024  160.1121 C   0  0  0  0  0  0  0  0  0  0  0  0
  152.3840  143.9387  161.0396 C   0  0  0  0  0  0  0  0  0  0  0  0
  151.8583  145.1786  160.6216 C   0  0  0  0  0  0  0  0  0  0  0  0
  151.3277  145.3506  159.3267 C   0  0  0  0  0  0  0  0  0  0  0  0
  151.2977  144.2907  158.3965 C   0  0  0  0  0  0  0  0  0  0  0  0
  151.8168  143.0660  158.8183 C   0  0  0  0  0  0  0  0  0  0  0  0
  151.7962  136.9388  154.2240 H   0  0  0  0  0  0  0  0  0  0  0  0
  152.4345  137.8568  155.5861 H   0  0  0  0  0  0  0  0  0  0  0  0
  152.8383  138.3308  153.9362 H   0  0  0  0  0  0  0  0  0  0  0  0
  150.4246  138.9090  153.5153 H   0  0  0  0  0  0  0  0  0  0  0  0
  150.0262  138.4413  155.1662 H   0  0  0  0  0  0  0  0  0  0  0  0
  150.3020  139.8762  156.8359 H   0  0  0  0  0  0  0  0  0  0  0  0
  152.0415  139.6028  156.7820 H   0  0  0  0  0  0  0  0  0  0  0  0
  152.1963  142.1683  156.1271 H   0  0  0  0  0  0  0  0  0  0  0  0
  150.5541  142.2707  156.6855 H   0  0  0  0  0  0  0  0  0  0  0  0
  152.0053  138.9443  158.5144 H   0  0  0  0  0  0  0  0  0  0  0  0
  153.5339  139.4673  157.8740 H   0  0  0  0  0  0  0  0  0  0  0  0
  152.7338  136.0395  163.0104 H   0  0  0  0  0  0  0  0  0  0  0  0
  154.3330  136.8569  165.0809 H   0  0  0  0  0  0  0  0  0  0  0  0
  155.6615  139.0508  164.0742 H   0  0  0  0  0  0  0  0  0  0  0  0
  152.7932  143.8066  162.0304 H   0  0  0  0  0  0  0  0  0  0  0  0
  151.8640  146.0139  161.3067 H   0  0  0  0  0  0  0  0  0  0  0  0
  150.9357  146.3158  159.0404 H   0  0  0  0  0  0  0  0  0  0  0  0
  150.8912  144.4362  157.4067 H   0  0  0  0  0  0  0  0  0  0  0  0
  153.2198  141.1401  161.0046 H   0  0  0  0  0  0  0  0  0  0  0  0
  1  2  1  0  0  0  0
  1 24  1  0  0  0  0
  1 25  1  0  0  0  0
  1 26  1  0  0  0  0
  2  3  1  0  0  0  0
  2 27  1  0  0  0  0
  2 28  1  0  0  0  0
  3  4  1  0  0  0  0
  4  5  1  0  0  0  0
  4 29  1  0  0  0  0
  4 30  1  0  0  0  0
  5  6  1  0  0  0  0
  5 31  1  0  0  0  0
  5 32  1  0  0  0  0
  6 23  1  0  0  0  0
  6  7  1  0  0  0  0
  7  8  1  0  0  0  0
  7 17  2  0  0  0  0
  8  9  1  0  0  0  0
  8 33  1  0  0  0  0
  8 34  1  0  0  0  0
  9 10  1  0  0  0  0
 10 11  2  0  0  0  0
 10 12  1  0  0  0  0
 12 16  1  0  0  0  0
 12 13  2  0  0  0  0
 13 14  1  0  0  0  0
 13 35  1  0  0  0  0
 14 15  2  0  0  0  0
 14 36  1  0  0  0  0
 15 16  1  0  0  0  0
 15 37  1  0  0  0  0
 17 18  1  0  0  0  0
 17 42  1  0  0  0  0
 18 23  2  0  0  0  0
 18 19  1  0  0  0  0
 19 20  2  0  0  0  0
 19 38  1  0  0  0  0
 20 21  1  0  0  0  0
 20 39  1  0  0  0  0
 21 22  2  0  0  0  0
 21 40  1  0  0  0  0
 22 23  1  0  0  0  0
 22 41  1  0  0  0  0
M  CHG  1   9  -1
M  CHG  1  17   1
M  END
> <s_m_source_file>
AV-unprocessed.smi

> <i_m_source_file_index>
498

> <i_lp_mmshare_version>
43012

> <i_f3d_flags>
0

> <s_epik_input>
W0NIM11bQ0gyXU9bQ0gyXVtDSDJdbihjKGMxMilbY0hdW2NIXVtjSF1bY0hdMiljKG4xKVtDSDJdW05IXUMoPU8pYzNbY0hdW2NIXVtjSF1vMw==

> <s_epik_cmdline>
J2VwaWtfcHl0aG9uJywgJy1waCcsICc3LjAnLCAnLXRuJywgJzgnLCAnLW1hJywgJzIwMCcsICctbWV0YWxfYmluZGluZycsICctaW1hZScsICc8aW5maWxlLm1hZT4nLCAnLW9tYWUnLCAnPG91dGZpbGUubWFlPic=

> <r_epik_Ionization_Penalty>
6.05973

> <r_epik_Ionization_Penalty_Charging>
6.05973

> <r_epik_Ionization_Penalty_Neutral>
2.61143e-12

> <r_epik_State_Penalty>
7.27867

> <r_epik_Charging_Adjusted_Penalty>
13.3384

> <i_epik_Tot_Q>
0

> <i_epik_Tot_abs_Q>
2

> <r_epik_Metal_State_Penalty>
3.28829

> <b_epik_Metal_Only>
1

> <s_lp_Force_Field>
OPLS_2005

> <r_lp_Energy>
13.3144

> <b_lp_Chiralities_Consistent>
1

> <s_lp_Variant>
AV-unprocessed.smi:498-4

> <Gold.Version>
5.8.1

> <Gold.Id.Protein>
6NUR|6NUR_protein|mol2

> <Gold.PLP.Fitness>
56.3140

> <Gold.PLP.PLP>
-51.3799

> <Gold.PLP.part.hbond>
-2.0000

> <Gold.PLP.part.metal>
0.0000

> <Gold.PLP.part.buried>
-8.0746

> <Gold.PLP.part.nonpolar>
-42.3458

> <Gold.PLP.part.repulsive>
0.1577

> <Gold.PLP.ligand.clash>
0.0000

> <Gold.PLP.ligand.torsion>
0.6089

> <Gold.PLP.Chemscore.Hbond>
2.0000

> <Gold.PLP.Chemscore.CHOScore>
0.0000

> <Gold.PLP.Chemscore.Metal>
0.0000

> <Gold.Chemscore.Hbonds>
donor molecule, donor type, donor heavy atom, donor atom, acceptor molecule, acceptor atom, score
      P1  H  6896  6909       L1    11  1.00
      P1  H  7989  7998       L1     3  1.00

> <Gold.PLP.Chemscore.Internal.Correction>
0.1519

> <Gold.Rescore>
     Score         DG    S(hbond)    S(metal)    S(lipo)     H(rot)  DE(clash)    DE(int)     intcor
     20.79     -22.60       1.92        0.00     134.37       1.96       0.02       1.79       ----

> <Gold.Chemscore.Fitness>
20.7886

> <Gold.Chemscore.DG>
-22.6039

> <Gold.Chemscore.ZeroCoef>
-5.4800

> <Gold.Chemscore.Hbond>
1.9249

> <Gold.Chemscore.Metal>
0.0000

> <Gold.Chemscore.Lipo>
134.3720

> <Gold.Chemscore.Internal_Hbond>
0.0000

> <Gold.Chemscore.DEClash>
0.0239

> <Gold.Chemscore.DEInternal>
1.7914

> <Gold.Chemscore.Rot>
1.9637

> <Gold.Chemscore.Internal.Correction>
   9.000000E+99

> <Gold.Chemscore.Hbonds>
donor molecule, donor type, donor heavy atom, donor atom, acceptor molecule, acceptor atom, score
      P1  H  6896  6909       L1    11  1.00
      P1  H  7989  7998       L1     3  0.25

> <Gold.Chemscore.Hbond.Weighted>
-6.4293

> <Gold.Chemscore.Metal.Weighted>
-0.0000

> <Gold.Chemscore.Lipo.Weighted>
-15.7215

> <Gold.Chemscore.Internal_Hbond.Weighted>
0.0000

> <Gold.Chemscore.DEClash.Weighted>
0.0239

> <Gold.Chemscore.DEInternal.Weighted>
1.7914

> <Gold.Chemscore.Rot.Weighted>
5.0270

> <Gold.Chemscore.Internal.Correction.Weighted>
   9.000000E+99

> <Gold.Protein.RotatedTorsions>
[ 6907 6896 6895 6894 ] final  136.05 input  -60.11 | X-H torsion
[ 7974 7965 7964 7962 ] final  106.72 input  175.53 | X-H torsion
[ 8008 7997 7996 7995 ] final   -2.31 input   59.86 | X-H torsion
[ 10167 10162 10161 10158 ] final  -87.05 input  -65.29 | X-H torsion
[ 10718 10713 10712 10709 ] final -144.12 input   66.30 | X-H torsion
[ 10763 10752 10751 10750 ] final -126.91 input  -60.55 | X-H torsion
[ 11005 11000 10999 10996 ] final   20.08 input  -57.11 | X-H torsion

> <Gold.Protein.ActiveResidues>
 VAL166  LYS551  ARG553  GLY616  TRP617  ASP618  TYR619  PRO620  LYS621  CYS622 
 ASP623  PHE694  ASN695  SER759  ASP760  ASP761  ALA762  ILE779  LEU786  VAL792 
 PHE793  MET794  SER795  GLU796  ALA797  LYS798  CYS799  TRP800  GLU811  SER814 

> <Gold.Protein.RotatedAtoms>
  152.2937  133.5586  159.5573 H   0  0  0  0  0  0  0  0  0  0  0  0  # atno 6907 bound_to 6896
  150.7246  134.0392  159.3769 H   0  0  0  0  0  0  0  0  0  0  0  0  # atno 6908 bound_to 6896
  151.8297  135.0626  160.0486 H   0  0  0  0  0  0  0  0  0  0  0  0  # atno 6909 bound_to 6896
  145.3029  139.2564  143.3804 H   0  0  0  0  0  0  0  0  0  0  0  0  # atno 7974 bound_to 7965
  154.6372  140.2538  155.7364 H   0  0  0  0  0  0  0  0  0  0  0  0  # atno 8008 bound_to 7997
  156.2510  140.2895  156.0670 H   0  0  0  0  0  0  0  0  0  0  0  0  # atno 8009 bound_to 7997
  155.1653  140.0385  157.2841 H   0  0  0  0  0  0  0  0  0  0  0  0  # atno 8010 bound_to 7997
  140.3882  143.2717  151.9297 H   0  0  0  0  0  0  0  0  0  0  0  0  # atno 10167 bound_to 10162
  156.3663  130.7764  151.1939 H   0  0  0  0  0  0  0  0  0  0  0  0  # atno 10718 bound_to 10713
  154.8749  135.3979  154.3508 H   0  0  0  0  0  0  0  0  0  0  0  0  # atno 10763 bound_to 10752
  153.4293  135.7025  153.6246 H   0  0  0  0  0  0  0  0  0  0  0  0  # atno 10764 bound_to 10752
  153.4875  135.3755  155.2444 H   0  0  0  0  0  0  0  0  0  0  0  0  # atno 10765 bound_to 10752
  140.4066  134.1663  155.7665 H   0  0  0  0  0  0  0  0  0  0  0  0  # atno 11005 bound_to 11000
  146.3145  140.3548  142.8659 LP  0  0  0  0  0  0  0  0  0  0  0  0  # atno 17320 bound_to 7965
  144.9078  140.7721  143.5826 LP  0  0  0  0  0  0  0  0  0  0  0  0  # atno 17321 bound_to 7965
  139.4790  144.5753  151.8022 LP  0  0  0  0  0  0  0  0  0  0  0  0  # atno 17342 bound_to 10162
  140.4867  144.1371  150.5942 LP  0  0  0  0  0  0  0  0  0  0  0  0  # atno 17343 bound_to 10162
  157.7479  131.0385  150.4507 LP  0  0  0  0  0  0  0  0  0  0  0  0  # atno 17370 bound_to 10713
  156.4727  130.4056  149.6508 LP  0  0  0  0  0  0  0  0  0  0  0  0  # atno 17371 bound_to 10713
  141.1837  133.8359  157.1166 LP  0  0  0  0  0  0  0  0  0  0  0  0  # atno 17394 bound_to 11000
  140.0298  134.9906  157.0758 LP  0  0  0  0  0  0  0  0  0  0  0  0  # atno 17395 bound_to 11000

$$$$
