AV-unprocessed.smi:1874|AV-procd|sdf|7611|dock8
  -GOLD-   22720 9333D 1   1.00000     0.00000
 Structure written by MMmdl.
 45 46  0  0  0  0  0  0  0  0  1 V2000
  148.3083  136.0354  161.1448 C   0  0  0  0  0  0  0  0  0  0  0  0
  147.4359  136.5934  160.0180 C   0  0  0  0  0  0  0  0  0  0  0  0
  146.2502  136.8174  160.2620 O   0  0  0  0  0  0  0  0  0  0  0  0
  147.9880  136.8179  158.8013 N   0  0  0  0  0  0  0  0  0  0  0  0
  147.2998  137.4212  157.6534 C   0  0  0  0  0  0  0  0  0  0  0  0
  147.8577  138.8379  157.4295 C   0  0  0  0  0  0  0  0  0  0  0  0
  149.3927  138.8156  157.2430 C   0  0  0  0  0  0  0  0  0  0  0  0
  149.9276  140.1735  157.2359 N   0  0  0  0  0  0  0  0  0  0  0  0
  150.6959  140.6992  156.2702 C   0  0  0  0  0  0  0  0  0  0  0  0
  151.0509  140.0684  155.2731 O   0  0  0  0  0  0  0  0  0  0  0  0
  151.1331  142.1568  156.4810 C   0  0  0  0  0  0  0  0  0  0  0  0
  151.6456  142.4244  157.8331 N   0  0  0  0  0  0  0  0  0  0  0  0
  151.1799  143.6005  158.3886 N   0  0  0  0  0  0  0  0  0  0  0  0
  151.5143  143.9587  159.5845 C   0  0  0  0  0  0  0  0  0  0  0  0
  150.9414  145.2568  160.0861 C   0  0  0  0  0  0  0  0  0  0  0  0
  152.4047  143.1109  160.3710 C   0  0  0  0  0  0  0  0  0  0  0  0
  152.7594  143.5805  161.7752 C   0  0  0  0  0  0  0  0  0  0  0  0
  152.8669  141.9657  159.8095 C   0  0  0  0  0  0  0  0  0  0  0  0
  153.7453  141.0776  160.5001 C   0  0  0  0  0  0  0  0  0  0  0  0
  154.4692  140.3744  161.0670 N   0  0  0  0  0  0  0  0  0  0  0  0
  152.4944  141.5550  158.4539 C   0  0  0  0  0  0  0  0  0  0  0  0
  152.8964  140.5229  157.9140 O   0  0  0  0  0  0  0  0  0  0  0  0
  150.0842  137.9929  158.3514 C   0  0  0  0  0  0  0  0  0  0  0  0
  149.4159  136.6178  158.5294 C   0  0  0  0  0  0  0  0  0  0  0  0
  148.7326  135.0707  160.8647 H   0  0  0  0  0  0  0  0  0  0  0  0
  147.7181  135.8887  162.0500 H   0  0  0  0  0  0  0  0  0  0  0  0
  149.1181  136.7250  161.3839 H   0  0  0  0  0  0  0  0  0  0  0  0
  147.4762  136.8089  156.7678 H   0  0  0  0  0  0  0  0  0  0  0  0
  146.2175  137.4627  157.7648 H   0  0  0  0  0  0  0  0  0  0  0  0
  147.3787  139.2900  156.5602 H   0  0  0  0  0  0  0  0  0  0  0  0
  147.5973  139.4633  158.2849 H   0  0  0  0  0  0  0  0  0  0  0  0
  149.6170  138.3355  156.2883 H   0  0  0  0  0  0  0  0  0  0  0  0
  149.6888  140.7599  158.0224 H   0  0  0  0  0  0  0  0  0  0  0  0
  151.8882  142.4192  155.7373 H   0  0  0  0  0  0  0  0  0  0  0  0
  150.2777  142.8006  156.2680 H   0  0  0  0  0  0  0  0  0  0  0  0
  151.7323  145.9265  160.4251 H   0  0  0  0  0  0  0  0  0  0  0  0
  150.2641  145.0813  160.9222 H   0  0  0  0  0  0  0  0  0  0  0  0
  150.3791  145.7792  159.3104 H   0  0  0  0  0  0  0  0  0  0  0  0
  153.3421  142.8403  162.3225 H   0  0  0  0  0  0  0  0  0  0  0  0
  151.8578  143.7764  162.3564 H   0  0  0  0  0  0  0  0  0  0  0  0
  153.3471  144.4977  161.7318 H   0  0  0  0  0  0  0  0  0  0  0  0
  151.1419  137.8650  158.1186 H   0  0  0  0  0  0  0  0  0  0  0  0
  150.0392  138.5346  159.2977 H   0  0  0  0  0  0  0  0  0  0  0  0
  149.9217  136.0583  159.3174 H   0  0  0  0  0  0  0  0  0  0  0  0
  149.5325  136.0229  157.6224 H   0  0  0  0  0  0  0  0  0  0  0  0
  1  2  1  0  0  0  0
  1 25  1  0  0  0  0
  1 26  1  0  0  0  0
  1 27  1  0  0  0  0
  2  3  2  0  0  0  0
  2  4  1  0  0  0  0
  4 24  1  0  0  0  0
  4  5  1  0  0  0  0
  5  6  1  0  0  0  0
  5 28  1  0  0  0  0
  5 29  1  0  0  0  0
  6  7  1  0  0  0  0
  6 30  1  0  0  0  0
  6 31  1  0  0  0  0
  7  8  1  0  0  0  0
  7 23  1  0  0  0  0
  7 32  1  0  0  0  0
  8  9  1  0  0  0  0
  8 33  1  0  0  0  0
  9 10  2  0  0  0  0
  9 11  1  0  0  0  0
 11 12  1  0  0  0  0
 11 34  1  0  0  0  0
 11 35  1  0  0  0  0
 12 21  1  0  0  0  0
 12 13  1  0  0  0  0
 13 14  2  0  0  0  0
 14 15  1  0  0  0  0
 14 16  1  0  0  0  0
 15 36  1  0  0  0  0
 15 37  1  0  0  0  0
 15 38  1  0  0  0  0
 16 17  1  0  0  0  0
 16 18  2  0  0  0  0
 17 39  1  0  0  0  0
 17 40  1  0  0  0  0
 17 41  1  0  0  0  0
 18 19  1  0  0  0  0
 18 21  1  0  0  0  0
 19 20  3  0  0  0  0
 21 22  2  0  0  0  0
 23 24  1  0  0  0  0
 23 42  1  0  0  0  0
 23 43  1  0  0  0  0
 24 44  1  0  0  0  0
 24 45  1  0  0  0  0
M  END
> <s_m_source_file>
AV-unprocessed.smi

> <i_m_source_file_index>
1874

> <i_lp_mmshare_version>
43012

> <i_f3d_flags>
0

> <s_epik_input>
W0NIM11DKD1PKU4xW0NIMl1bQ0gyXVtDSF0oW0NIMl1bQ0gyXTEpW05IXUMoPU8pW0NIMl1uMm5jKFtDSDNdKWMoW0NIM10pYyhDI04pYzI9Tw==

> <s_epik_cmdline>
J2VwaWtfcHl0aG9uJywgJy1waCcsICc3LjAnLCAnLXRuJywgJzgnLCAnLW1hJywgJzIwMCcsICctbWV0YWxfYmluZGluZycsICctaW1hZScsICc8aW5maWxlLm1hZT4nLCAnLW9tYWUnLCAnPG91dGZpbGUubWFlPic=

> <r_lp_tautomer_probability>
1

> <r_epik_Ionization_Penalty>
1.12408e-06

> <r_epik_Ionization_Penalty_Charging>
2.25008e-11

> <r_epik_Ionization_Penalty_Neutral>
1.12405e-06

> <r_epik_State_Penalty>
-0

> <r_epik_Charging_Adjusted_Penalty>
2.25008e-11

> <i_epik_Tot_Q>
0

> <i_epik_Tot_abs_Q>
0

> <r_epik_Metal_State_Penalty>
-0

> <b_epik_Metal_Only>
0

> <s_lp_Force_Field>
OPLS_2005

> <r_lp_Energy>
36.4073

> <b_lp_Chiralities_Consistent>
1

> <s_lp_Variant>
AV-unprocessed.smi:1874-1

> <Gold.Version>
5.8.1

> <Gold.Id.Protein>
6NUR|6NUR_protein|mol2

> <Gold.PLP.Fitness>
45.2620

> <Gold.PLP.PLP>
-40.8603

> <Gold.PLP.part.hbond>
-2.0000

> <Gold.PLP.part.metal>
0.0000

> <Gold.PLP.part.buried>
-6.7399

> <Gold.PLP.part.nonpolar>
-31.2066

> <Gold.PLP.part.repulsive>
0.1882

> <Gold.PLP.ligand.clash>
0.0000

> <Gold.PLP.ligand.torsion>
0.4263

> <Gold.PLP.Chemscore.Hbond>
1.7453

> <Gold.PLP.Chemscore.CHOScore>
0.0000

> <Gold.PLP.Chemscore.Metal>
0.0000

> <Gold.Chemscore.Hbonds>
donor molecule, donor type, donor heavy atom, donor atom, acceptor molecule, acceptor atom, score
      P1  H  7989  7998       L1    10  1.00
      P1  H  7997  8010       L1    22  0.78

> <Gold.PLP.Chemscore.Internal.Correction>
0.0186

> <Gold.Rescore>
     Score         DG    S(hbond)    S(metal)    S(lipo)     H(rot)  DE(clash)    DE(int)     intcor
     14.71     -16.51       1.88        0.00      75.09       1.58       0.02       1.77       ----

> <Gold.Chemscore.Fitness>
14.7110

> <Gold.Chemscore.DG>
-16.5066

> <Gold.Chemscore.ZeroCoef>
-5.4800

> <Gold.Chemscore.Hbond>
1.8828

> <Gold.Chemscore.Metal>
0.0000

> <Gold.Chemscore.Lipo>
75.0854

> <Gold.Chemscore.Internal_Hbond>
0.0000

> <Gold.Chemscore.DEClash>
0.0212

> <Gold.Chemscore.DEInternal>
1.7744

> <Gold.Chemscore.Rot>
1.5808

> <Gold.Chemscore.Internal.Correction>
   9.000000E+99

> <Gold.Chemscore.Hbonds>
donor molecule, donor type, donor heavy atom, donor atom, acceptor molecule, acceptor atom, score
      P1  H  7989  7998       L1    10  0.93
      P1  H  7997  8010       L1    22  0.79

> <Gold.Chemscore.Hbond.Weighted>
-6.2885

> <Gold.Chemscore.Metal.Weighted>
-0.0000

> <Gold.Chemscore.Lipo.Weighted>
-8.7850

> <Gold.Chemscore.Internal_Hbond.Weighted>
0.0000

> <Gold.Chemscore.DEClash.Weighted>
0.0212

> <Gold.Chemscore.DEInternal.Weighted>
1.7744

> <Gold.Chemscore.Rot.Weighted>
4.0469

> <Gold.Chemscore.Internal.Correction.Weighted>
   9.000000E+99

> <Gold.Protein.RotatedTorsions>
[ 6907 6896 6895 6894 ] final  169.28 input  -60.11 | X-H torsion
[ 7974 7965 7964 7962 ] final   73.23 input  175.53 | X-H torsion
[ 8008 7997 7996 7995 ] final   49.86 input   59.86 | X-H torsion
[ 10167 10162 10161 10158 ] final  104.95 input  -65.29 | X-H torsion
[ 10718 10713 10712 10709 ] final  -86.32 input   66.30 | X-H torsion
[ 10763 10752 10751 10750 ] final -137.58 input  -60.55 | X-H torsion
[ 11005 11000 10999 10996 ] final  -58.29 input  -57.11 | X-H torsion

> <Gold.Protein.ActiveResidues>
 VAL166  LYS551  ARG553  GLY616  TRP617  ASP618  TYR619  PRO620  LYS621  CYS622 
 ASP623  PHE694  ASN695  SER759  ASP760  ASP761  ALA762  ILE779  LEU786  VAL792 
 PHE793  MET794  SER795  GLU796  ALA797  LYS798  CYS799  TRP800  GLU811  SER814 

> <Gold.Protein.RotatedAtoms>
  151.8343  133.3413  159.3622 H   0  0  0  0  0  0  0  0  0  0  0  0  # atno 6907 bound_to 6896
  150.7254  134.5452  159.5776 H   0  0  0  0  0  0  0  0  0  0  0  0  # atno 6908 bound_to 6896
  152.2912  134.7719  160.0428 H   0  0  0  0  0  0  0  0  0  0  0  0  # atno 6909 bound_to 6896
  145.7435  139.2730  143.1472 H   0  0  0  0  0  0  0  0  0  0  0  0  # atno 7974 bound_to 7965
  155.4092  140.3441  155.4262 H   0  0  0  0  0  0  0  0  0  0  0  0  # atno 8008 bound_to 7997
  156.1458  140.1556  156.8880 H   0  0  0  0  0  0  0  0  0  0  0  0  # atno 8009 bound_to 7997
  154.5010  140.0815  156.7778 H   0  0  0  0  0  0  0  0  0  0  0  0  # atno 8010 bound_to 7997
  139.7134  144.7073  151.0990 H   0  0  0  0  0  0  0  0  0  0  0  0  # atno 10167 bound_to 10162
  155.9990  130.4761  150.4697 H   0  0  0  0  0  0  0  0  0  0  0  0  # atno 10718 bound_to 10713
  154.8658  135.3638  154.5245 H   0  0  0  0  0  0  0  0  0  0  0  0  # atno 10763 bound_to 10752
  153.5874  135.7016  153.5442 H   0  0  0  0  0  0  0  0  0  0  0  0  # atno 10764 bound_to 10752
  153.3404  135.4099  155.1529 H   0  0  0  0  0  0  0  0  0  0  0  0  # atno 10765 bound_to 10752
  141.1201  133.6612  156.4897 H   0  0  0  0  0  0  0  0  0  0  0  0  # atno 11005 bound_to 11000
  146.0425  140.8151  142.9821 LP  0  0  0  0  0  0  0  0  0  0  0  0  # atno 17320 bound_to 7965
  144.6865  140.2931  143.7275 LP  0  0  0  0  0  0  0  0  0  0  0  0  # atno 17321 bound_to 7965
  140.7738  143.5263  150.9476 LP  0  0  0  0  0  0  0  0  0  0  0  0  # atno 17342 bound_to 10162
  139.8948  143.6908  152.3140 LP  0  0  0  0  0  0  0  0  0  0  0  0  # atno 17343 bound_to 10162
  157.2713  131.0588  151.2258 LP  0  0  0  0  0  0  0  0  0  0  0  0  # atno 17370 bound_to 10713
  157.3337  130.6998  149.6339 LP  0  0  0  0  0  0  0  0  0  0  0  0  # atno 17371 bound_to 10713
  140.4533  134.6909  157.5050 LP  0  0  0  0  0  0  0  0  0  0  0  0  # atno 17394 bound_to 11000
  140.0151  134.6631  155.9321 LP  0  0  0  0  0  0  0  0  0  0  0  0  # atno 17395 bound_to 11000

$$$$
