#       Name:                AV-unprocessed.smi:2944
#       Creating user name   scv26
#       Creation time:       Fri Mar 27 16:16:37 2020


#       File generated by GOLD software.
#

@<TRIPOS>MOLECULE
AV-unprocessed.smi:2944
    51    53     1
SMALL
NO_CHARGES


@<TRIPOS>ATOM
      1 ****        -1.7424   2.4792   1.8272 C.3            1 S1                 0.0000
      2 ****        -1.5835   1.0728   1.8858 O.3            1 S1                 0.0000
      3 ****        -2.5579   0.3819   1.1205 C.3            1 S1                 0.0000
      4 ****        -2.3242  -1.1329   1.2130 C.3            1 S1                 0.0000
      5 ****        -0.9750  -1.5261   0.7783 N.pl3          1 S1                 0.0000
      6 ****        -0.5025  -1.8314  -0.4620 C.2            1 S1                 0.0000
      7 ****        -1.4116  -1.7980  -1.9727 S.3            1 S1                 0.0000
      8 ****        -1.0175  -0.2005  -2.7515 C.3            1 S1                 0.0000
      9 ****        -1.7347  -0.0849  -4.1066 C.3            1 S1                 0.0000
     10 ****         0.5067  -0.0057  -2.9082 C.2            1 S1                 0.0000
     11 ****         1.0627  -0.6275  -3.8172 O.2            1 S1                 0.0000
     12 ****         1.1764   0.7890  -2.0254 N.am           1 S1                 0.0000
     13 ****         0.5334   1.5852  -0.9788 C.3            1 S1                 0.0000
     14 ****         1.6829   2.2567  -0.2400 C.3            1 S1                 0.0000
     15 ****         2.8261   1.7752  -0.9717 N.am           1 S1                 0.0000
     16 ****         2.5214   0.9497  -1.9757 C.2            1 S1                 0.0000
     17 ****         3.3682   0.4292  -2.7026 O.2            1 S1                 0.0000
     18 ****         0.8175  -2.1405  -0.3399 N.pl3          1 S1                 1.0000
     19 ****         1.2056  -2.0044   0.9928 C.ar           1 S1                 0.0000
     20 ****         2.4428  -2.1871   1.6022 C.ar           1 S1                 0.0000
     21 ****         2.5024  -1.9589   2.9926 C.ar           1 S1                 0.0000
     22 ****         1.3616  -1.5654   3.7218 C.ar           1 S1                 0.0000
     23 ****         0.1122  -1.3840   3.0930 C.ar           1 S1                 0.0000
     24 ****         0.0603  -1.6114   1.7178 C.ar           1 S1                 0.0000
     25 ****        -0.9613   2.9600   2.4159 H              1 S1                 0.0000
     26 ****        -2.7077   2.7836   2.2335 H              1 S1                 0.0000
     27 ****        -1.6632   2.8439   0.8024 H              1 S1                 0.0000
     28 ****        -3.5577   0.6224   1.4846 H              1 S1                 0.0000
     29 ****        -2.5078   0.7011   0.0787 H              1 S1                 0.0000
     30 ****        -2.4910  -1.4912   2.2287 H              1 S1                 0.0000
     31 ****        -3.0420  -1.6590   0.5831 H              1 S1                 0.0000
     32 ****        -1.4492   0.5684  -2.1155 H              1 S1                 0.0000
     33 ****        -1.5019   0.8598  -4.5996 H              1 S1                 0.0000
     34 ****        -2.8164  -0.1268  -3.9772 H              1 S1                 0.0000
     35 ****        -1.4545  -0.8932  -4.7834 H              1 S1                 0.0000
     36 ****        -0.1365   2.3303  -1.4108 H              1 S1                 0.0000
     37 ****        -0.0356   0.9549  -0.2978 H              1 S1                 0.0000
     38 ****         1.6231   3.3446  -0.2862 H              1 S1                 0.0000
     39 ****         1.7362   1.9453   0.8041 H              1 S1                 0.0000
     40 ****         3.7699   2.0486  -0.7384 H              1 S1                 0.0000
     41 ****         3.3186  -2.4864   1.0450 H              1 S1                 0.0000
     42 ****         3.4421  -2.0869   3.5099 H              1 S1                 0.0000
     43 ****         1.4463  -1.3979   4.7859 H              1 S1                 0.0000
     44 ****        -0.7528  -1.0755   3.6612 H              1 S1                 0.0000
     45 ****         1.4103  -2.4064  -1.1161 H              1 S1                 0.0000
     46 ****        -1.6593   0.7813   2.8393 LP             1 S1                 0.0000
     47 ****        -0.6763   0.8381   1.5366 LP             1 S1                 0.0000
     48 ****         0.5278  -1.2258  -4.4138 LP             1 S1                 0.0000
     49 ****         2.0483  -0.5332  -3.9575 LP             1 S1                 0.0000
     50 ****         3.0861  -0.1940  -3.4320 LP             1 S1                 0.0000
     51 ****         4.3380   0.6297  -2.5635 LP             1 S1                 0.0000
@<TRIPOS>BOND
    1    1    2 1     
    2    1   25 1     
    3    1   26 1     
    4    1   27 1     
    5    2    3 1     
    6    3    4 1     
    7    3   28 1     
    8    3   29 1     
    9    4    5 1     
   10    4   30 1     
   11    4   31 1     
   12    5   24 1     
   13    5    6 1     
   14    6    7 1     
   15    6   18 2     
   16    7    8 1     
   17    8    9 1     
   18    8   10 1     
   19    8   32 1     
   20    9   33 1     
   21    9   34 1     
   22    9   35 1     
   23   10   11 2     
   24   10   12 am    
   25   12   16 am    
   26   12   13 1     
   27   13   14 1     
   28   13   36 1     
   29   13   37 1     
   30   14   15 1     
   31   14   38 1     
   32   14   39 1     
   33   15   16 am    
   34   15   40 1     
   35   16   17 2     
   36   18   19 1     
   37   18   45 1     
   38   19   24 ar    
   39   19   20 ar    
   40   20   21 ar    
   41   20   41 1     
   42   21   22 ar    
   43   21   42 1     
   44   22   23 ar    
   45   22   43 1     
   46   23   24 ar    
   47   23   44 1     
   48    2   46 1     
   49    2   47 1     
   50   11   48 1     
   51   11   49 1     
   52   17   50 1     
   53   17   51 1     
@<TRIPOS>SUBSTRUCTURE
      1 S1             1
@<TRIPOS>SET
LONE_PAIRS      STATIC     ATOMS    <user>   **** ""
6 46 47 48 49 50 51
DONOR_HYDROGENS      STATIC     ATOMS    <user>   **** ""
2 40 45
ATOM$BLUE        STATIC     ATOMS    COLORGROUP SYSTEM
6 46 47 48 49 50 51
ATOM$RED        STATIC     ATOMS    COLORGROUP SYSTEM
2 40 45
