#       Name:                AV-unprocessed.smi:33
#       Creating user name   scv26
#       Creation time:       Thu Mar 26 15:47:03 2020


#       File generated by GOLD software.
#

@<TRIPOS>MOLECULE
AV-unprocessed.smi:33
    80    85     1
SMALL
NO_CHARGES


@<TRIPOS>ATOM
      1 ****        -7.4515   2.3434  -0.7843 O.2            1 S1                 0.0000
      2 ****        -6.2223   2.4314  -0.8130 C.2            1 S1                 0.0000
      3 ****        -5.3958   1.4740  -0.3532 O.3            1 S1                 0.0000
      4 ****        -5.9238   0.2736   0.1858 C.3            1 S1                 0.0000
      5 ****        -4.7552  -0.6416   0.5637 C.3            1 S1                 0.0000
      6 ****        -4.1512  -1.2030  -0.5939 O.3            1 S1                 0.0000
      7 ****        -3.3750  -2.2986  -0.2119 C.3            1 S1                 0.0000
      8 ****        -1.9460  -1.8530  -0.1091 N.pl3          1 S1                 0.0000
      9 ****        -1.4207  -0.5765  -0.1061 C.2            1 S1                 0.0000
     10 ****        -0.1202  -0.5081  -0.0085 N.2            1 S1                 0.0000
     11 ****         0.2822  -1.8358   0.0489 C.ar           1 S1                 0.0000
     12 ****         1.5406  -2.4856   0.1583 C.ar           1 S1                 0.0000
     13 ****         2.7101  -1.8099   0.2454 N.am           1 S1                 0.0000
     14 ****         2.9524  -1.0524   1.4819 C.2            1 S1                 0.0000
     15 ****         2.3960  -1.3979   2.5260 O.2            1 S1                 0.0000
     16 ****         3.9059   0.1085   1.4892 C.ar           1 S1                 0.0000
     17 ****         4.8720   0.2244   2.5126 C.ar           1 S1                 0.0000
     18 ****         5.7579   1.3192   2.5319 C.ar           1 S1                 0.0000
     19 ****         5.6714   2.3136   1.5391 C.ar           1 S1                 0.0000
     20 ****         4.6915   2.2191   0.5328 C.ar           1 S1                 0.0000
     21 ****         3.8053   1.1249   0.5126 C.ar           1 S1                 0.0000
     22 ****         3.6262  -1.8930  -0.9016 C.2            1 S1                 0.0000
     23 ****         3.1772  -2.1482  -2.0207 O.2            1 S1                 0.0000
     24 ****         5.0923  -1.6143  -0.7280 C.ar           1 S1                 0.0000
     25 ****         5.7589  -0.7536  -1.6275 C.ar           1 S1                 0.0000
     26 ****         7.1355  -0.4977  -1.4769 C.ar           1 S1                 0.0000
     27 ****         7.8580  -1.1158  -0.4388 C.ar           1 S1                 0.0000
     28 ****         7.2055  -1.9973   0.4440 C.ar           1 S1                 0.0000
     29 ****         5.8286  -2.2522   0.2956 C.ar           1 S1                 0.0000
     30 ****         1.5571  -3.8440   0.1769 N.ar           1 S1                 0.0000
     31 ****         0.4088  -4.5234   0.0960 C.ar           1 S1                 0.0000
     32 ****        -0.8366  -4.0512  -0.0045 N.ar           1 S1                 0.0000
     33 ****        -0.8529  -2.6869  -0.0253 C.ar           1 S1                 0.0000
     34 ****        -3.9430  -2.8024   1.1402 C.3            1 S1                 0.0000
     35 ****        -3.0521  -2.6985   2.2377 O.3            1 S1                 0.0000
     36 ****        -5.1415  -1.8883   1.3562 C.3            1 S1                 0.0000
     37 ****        -6.2327  -2.4542   0.8358 F              1 S1                 0.0000
     38 ****        -5.4926   3.6108  -1.3618 C.ar           1 S1                 0.0000
     39 ****        -6.2286   4.7040  -1.8752 C.ar           1 S1                 0.0000
     40 ****        -5.5669   5.8310  -2.4003 C.ar           1 S1                 0.0000
     41 ****        -4.1608   5.8785  -2.4188 C.ar           1 S1                 0.0000
     42 ****        -3.4171   4.7971  -1.9118 C.ar           1 S1                 0.0000
     43 ****        -4.0769   3.6693  -1.3857 C.ar           1 S1                 0.0000
     44 ****        -6.5137   0.5102   1.0723 H              1 S1                 0.0000
     45 ****        -6.5824  -0.2164  -0.5327 H              1 S1                 0.0000
     46 ****        -4.0127  -0.0793   1.1324 H              1 S1                 0.0000
     47 ****        -3.3692  -3.0547  -0.9979 H              1 S1                 0.0000
     48 ****        -2.0285   0.3134  -0.1800 H              1 S1                 0.0000
     49 ****         4.9470  -0.5326   3.2798 H              1 S1                 0.0000
     50 ****         6.5033   1.3965   3.3096 H              1 S1                 0.0000
     51 ****         6.3515   3.1525   1.5537 H              1 S1                 0.0000
     52 ****         4.6176   2.9871  -0.2230 H              1 S1                 0.0000
     53 ****         3.0529   1.0658  -0.2609 H              1 S1                 0.0000
     54 ****         5.2140  -0.2731  -2.4274 H              1 S1                 0.0000
     55 ****         7.6369   0.1732  -2.1588 H              1 S1                 0.0000
     56 ****         8.9137  -0.9188  -0.3235 H              1 S1                 0.0000
     57 ****         7.7607  -2.4794   1.2349 H              1 S1                 0.0000
     58 ****         5.3392  -2.9338   0.9766 H              1 S1                 0.0000
     59 ****         0.5007  -5.5993   0.1163 H              1 S1                 0.0000
     60 ****        -4.2482  -3.8446   1.0399 H              1 S1                 0.0000
     61 ****        -2.2798  -3.2080   2.0437 H              1 S1                 0.0000
     62 ****        -5.3563  -1.6821   2.4056 H              1 S1                 0.0000
     63 ****        -7.3091   4.6901  -1.8723 H              1 S1                 0.0000
     64 ****        -6.1398   6.6597  -2.7894 H              1 S1                 0.0000
     65 ****        -3.6535   6.7427  -2.8216 H              1 S1                 0.0000
     66 ****        -2.3377   4.8319  -1.9260 H              1 S1                 0.0000
     67 ****        -3.4753   2.8569  -1.0050 H              1 S1                 0.0000
     68 ****        -7.8856   1.5268  -0.4039 LP             1 S1                 0.0000
     69 ****        -8.0146   3.0887  -1.1414 LP             1 S1                 0.0000
     70 ****        -3.5714  -0.5184  -1.0357 LP             1 S1                 0.0000
     71 ****        -4.8611  -1.5006  -1.2322 LP             1 S1                 0.0000
     72 ****         0.4530   0.3109   0.0186 LP             1 S1                 0.0000
     73 ****         1.7842  -2.1889   2.5285 LP             1 S1                 0.0000
     74 ****         2.5563  -0.8871   3.3707 LP             1 S1                 0.0000
     75 ****         2.1960  -2.2970  -2.1438 LP             1 S1                 0.0000
     76 ****         3.7941  -2.2063  -2.8056 LP             1 S1                 0.0000
     77 ****         2.4256  -4.3340   0.2509 LP             1 S1                 0.0000
     78 ****        -1.6539  -4.6250  -0.0578 LP             1 S1                 0.0000
     79 ****        -3.4911  -3.0516   3.0639 LP             1 S1                 0.0000
     80 ****        -2.7990  -1.7412   2.3779 LP             1 S1                 0.0000
@<TRIPOS>BOND
    1    1    2 2     
    2    2    3 1     
    3    2   38 1     
    4    3    4 1     
    5    4    5 1     
    6    4   44 1     
    7    4   45 1     
    8    5   36 1     
    9    5    6 1     
   10    5   46 1     
   11    6    7 1     
   12    7    8 1     
   13    7   34 1     
   14    7   47 1     
   15    8   33 1     
   16    8    9 1     
   17    9   10 2     
   18    9   48 1     
   19   10   11 1     
   20   11   33 ar    
   21   11   12 ar    
   22   12   13 1     
   23   12   30 ar    
   24   13   14 am    
   25   13   22 am    
   26   14   15 2     
   27   14   16 1     
   28   16   21 ar    
   29   16   17 ar    
   30   17   18 ar    
   31   17   49 1     
   32   18   19 ar    
   33   18   50 1     
   34   19   20 ar    
   35   19   51 1     
   36   20   21 ar    
   37   20   52 1     
   38   21   53 1     
   39   22   23 2     
   40   22   24 1     
   41   24   29 ar    
   42   24   25 ar    
   43   25   26 ar    
   44   25   54 1     
   45   26   27 ar    
   46   26   55 1     
   47   27   28 ar    
   48   27   56 1     
   49   28   29 ar    
   50   28   57 1     
   51   29   58 1     
   52   30   31 ar    
   53   31   32 ar    
   54   31   59 1     
   55   32   33 ar    
   56   34   35 1     
   57   34   36 1     
   58   34   60 1     
   59   35   61 1     
   60   36   37 1     
   61   36   62 1     
   62   38   43 ar    
   63   38   39 ar    
   64   39   40 ar    
   65   39   63 1     
   66   40   41 ar    
   67   40   64 1     
   68   41   42 ar    
   69   41   65 1     
   70   42   43 ar    
   71   42   66 1     
   72   43   67 1     
   73    1   68 1     
   74    1   69 1     
   75    6   70 1     
   76    6   71 1     
   77   10   72 1     
   78   15   73 1     
   79   15   74 1     
   80   23   75 1     
   81   23   76 1     
   82   30   77 1     
   83   32   78 1     
   84   35   79 1     
   85   35   80 1     
@<TRIPOS>SUBSTRUCTURE
      1 S1             1
@<TRIPOS>SET
LONE_PAIRS      STATIC     ATOMS    <user>   **** ""
13 68 69 70 71 72 73 74 75 76 77 78 79 80
DONOR_HYDROGENS      STATIC     ATOMS    <user>   **** ""
1 61
ATOM$BLUE        STATIC     ATOMS    COLORGROUP SYSTEM
13 68 69 70 71 72 73 74 75 76 77 78 79 80
ATOM$RED        STATIC     ATOMS    COLORGROUP SYSTEM
1 61
