AV-unprocessed.smi:1846|AV-procd|sdf|7514|dock7
  -GOLD-   22720 9223D 1   1.00000     0.00000
 Structure written by MMmdl.
 37 38  0  0  0  0  0  0  0  0  1 V2000
  148.9382  140.8302  153.7743 C   0  0  0  0  0  0  0  0  0  0  0  0
  149.2726  139.5131  154.4898 C   0  0  0  0  0  0  0  0  0  0  0  0
  150.7148  139.3793  154.7420 N   0  0  0  0  0  0  0  0  0  0  0  0
  151.3478  138.2384  154.0656 C   0  0  0  0  0  0  0  0  0  0  0  0
  150.8868  136.8985  154.6601 C   0  0  0  0  0  0  0  0  0  0  0  0
  151.3740  140.2636  155.5334 C   0  0  0  0  0  0  0  0  0  0  0  0
  152.5874  140.1736  155.7351 O   0  0  0  0  0  0  0  0  0  0  0  0
  150.5809  141.3946  156.2207 C   0  0  0  0  0  0  0  0  0  0  0  0
  151.3520  142.0237  157.3476 C   0  0  0  0  0  0  0  0  0  0  0  0
  151.3638  143.3513  157.7003 C   0  0  0  0  0  0  0  0  0  0  0  0
  152.3868  143.6521  159.0781 S   0  0  0  0  0  0  0  0  0  0  0  0
  152.7783  141.9305  159.1205 C   0  0  0  0  0  0  0  0  0  0  0  0
  153.6452  141.2817  160.0489 N   0  0  0  0  0  0  0  0  0  0  0  0
  153.7761  141.7435  161.4272 C   0  0  0  0  0  0  0  0  0  0  0  0
  154.7782  140.7732  162.0445 C   0  0  0  0  0  0  0  0  0  0  0  0
  155.0825  139.9028  160.9333 N   0  0  0  0  0  0  0  0  0  0  0  0
  154.4293  140.2116  159.8108 C   0  0  0  0  0  0  0  0  0  0  0  0
  154.5516  139.5963  158.7535 O   0  0  0  0  0  0  0  0  0  0  0  0
  152.1697  141.2294  158.1582 N   0  0  0  0  0  0  0  0  0  0  0  0
  147.8676  140.9046  153.5839 H   0  0  0  0  0  0  0  0  0  0  0  0
  149.4511  140.8967  152.8145 H   0  0  0  0  0  0  0  0  0  0  0  0
  149.2278  141.6960  154.3701 H   0  0  0  0  0  0  0  0  0  0  0  0
  148.7173  139.4498  155.4272 H   0  0  0  0  0  0  0  0  0  0  0  0
  148.9133  138.6752  153.8911 H   0  0  0  0  0  0  0  0  0  0  0  0
  151.1062  138.2609  153.0018 H   0  0  0  0  0  0  0  0  0  0  0  0
  152.4348  138.3117  154.1008 H   0  0  0  0  0  0  0  0  0  0  0  0
  151.3671  136.0646  154.1479 H   0  0  0  0  0  0  0  0  0  0  0  0
  149.8090  136.7731  154.5546 H   0  0  0  0  0  0  0  0  0  0  0  0
  151.1259  136.8164  155.7197 H   0  0  0  0  0  0  0  0  0  0  0  0
  150.3131  142.1637  155.4978 H   0  0  0  0  0  0  0  0  0  0  0  0
  149.6443  140.9801  156.5948 H   0  0  0  0  0  0  0  0  0  0  0  0
  150.8274  144.1670  157.2389 H   0  0  0  0  0  0  0  0  0  0  0  0
  154.1451  142.7698  161.4567 H   0  0  0  0  0  0  0  0  0  0  0  0
  152.8143  141.7040  161.9405 H   0  0  0  0  0  0  0  0  0  0  0  0
  155.6783  141.2802  162.3938 H   0  0  0  0  0  0  0  0  0  0  0  0
  154.3454  140.2059  162.8694 H   0  0  0  0  0  0  0  0  0  0  0  0
  155.7345  139.1355  161.0098 H   0  0  0  0  0  0  0  0  0  0  0  0
  1  2  1  0  0  0  0
  1 20  1  0  0  0  0
  1 21  1  0  0  0  0
  1 22  1  0  0  0  0
  2  3  1  0  0  0  0
  2 23  1  0  0  0  0
  2 24  1  0  0  0  0
  3  4  1  0  0  0  0
  3  6  1  0  0  0  0
  4  5  1  0  0  0  0
  4 25  1  0  0  0  0
  4 26  1  0  0  0  0
  5 27  1  0  0  0  0
  5 28  1  0  0  0  0
  5 29  1  0  0  0  0
  6  7  2  0  0  0  0
  6  8  1  0  0  0  0
  8  9  1  0  0  0  0
  8 30  1  0  0  0  0
  8 31  1  0  0  0  0
  9 19  1  0  0  0  0
  9 10  2  0  0  0  0
 10 11  1  0  0  0  0
 10 32  1  0  0  0  0
 11 12  1  0  0  0  0
 12 13  1  0  0  0  0
 12 19  2  0  0  0  0
 13 17  1  0  0  0  0
 13 14  1  0  0  0  0
 14 15  1  0  0  0  0
 14 33  1  0  0  0  0
 14 34  1  0  0  0  0
 15 16  1  0  0  0  0
 15 35  1  0  0  0  0
 15 36  1  0  0  0  0
 16 17  1  0  0  0  0
 16 37  1  0  0  0  0
 17 18  2  0  0  0  0
M  END
> <s_m_source_file>
AV-unprocessed.smi

> <i_m_source_file_index>
1846

> <i_lp_mmshare_version>
43012

> <i_f3d_flags>
0

> <s_epik_input>
W0NIM11bQ0gyXU4oW0NIMl1bQ0gzXSlDKD1PKVtDSDJdYzFbY0hdc2MobjEpTjJbQ0gyXVtDSDJdW05IXUMyPU8=

> <s_epik_cmdline>
J2VwaWtfcHl0aG9uJywgJy1waCcsICc3LjAnLCAnLXRuJywgJzgnLCAnLW1hJywgJzIwMCcsICctbWV0YWxfYmluZGluZycsICctaW1hZScsICc8aW5maWxlLm1hZT4nLCAnLW9tYWUnLCAnPG91dGZpbGUubWFlPic=

> <r_lp_tautomer_probability>
1

> <r_epik_Ionization_Penalty>
0.000125664

> <r_epik_Ionization_Penalty_Charging>
0

> <r_epik_Ionization_Penalty_Neutral>
0.000125664

> <r_epik_State_Penalty>
-0

> <r_epik_Charging_Adjusted_Penalty>
0

> <i_epik_Tot_Q>
0

> <i_epik_Tot_abs_Q>
0

> <r_epik_Metal_State_Penalty>
-0

> <b_epik_Metal_Only>
0

> <s_lp_Force_Field>
OPLS_2005

> <r_lp_Energy>
40.7708

> <b_lp_Chiralities_Consistent>
1

> <s_lp_Variant>
AV-unprocessed.smi:1846-1

> <Gold.Version>
5.8.1

> <Gold.Id.Protein>
6NUR|6NUR_protein|mol2

> <Gold.PLP.Fitness>
49.0631

> <Gold.PLP.PLP>
-42.4261

> <Gold.PLP.part.hbond>
-2.0000

> <Gold.PLP.part.metal>
0.0000

> <Gold.PLP.part.buried>
0.7725

> <Gold.PLP.part.nonpolar>
-40.2357

> <Gold.PLP.part.repulsive>
0.0150

> <Gold.PLP.ligand.clash>
0.0000

> <Gold.PLP.ligand.torsion>
1.0493

> <Gold.PLP.Chemscore.Hbond>
1.9040

> <Gold.PLP.Chemscore.CHOScore>
1.0000

> <Gold.PLP.Chemscore.Metal>
0.0000

> <Gold.Chemscore.Hbonds>
donor molecule, donor type, donor heavy atom, donor atom, acceptor molecule, acceptor atom, score
      P1  H  7997  8009       L1    18  1.00
      P1  H  7997  8010       L1     7  0.93
      L1  C    10    32       P1  8028  0.99

> <Gold.PLP.Chemscore.Internal.Correction>
0.0236

> <Gold.Rescore>
     Score         DG    S(hbond)    S(metal)    S(lipo)     H(rot)  DE(clash)    DE(int)     intcor
     12.37     -17.80       1.90        0.00      87.40       1.66       1.61       3.82       ----

> <Gold.Chemscore.Fitness>
12.3666

> <Gold.Chemscore.DG>
-17.7975

> <Gold.Chemscore.ZeroCoef>
-5.4800

> <Gold.Chemscore.Hbond>
1.8973

> <Gold.Chemscore.Metal>
0.0000

> <Gold.Chemscore.Lipo>
87.3953

> <Gold.Chemscore.Internal_Hbond>
0.0000

> <Gold.Chemscore.DEClash>
1.6127

> <Gold.Chemscore.DEInternal>
3.8182

> <Gold.Chemscore.Rot>
1.6581

> <Gold.Chemscore.Internal.Correction>
   9.000000E+99

> <Gold.Chemscore.Hbonds>
donor molecule, donor type, donor heavy atom, donor atom, acceptor molecule, acceptor atom, score
      P1  H  7997  8009       L1    18  0.94
      P1  H  7997  8010       L1     7  0.89

> <Gold.Chemscore.Hbond.Weighted>
-6.3370

> <Gold.Chemscore.Metal.Weighted>
-0.0000

> <Gold.Chemscore.Lipo.Weighted>
-10.2252

> <Gold.Chemscore.Internal_Hbond.Weighted>
0.0000

> <Gold.Chemscore.DEClash.Weighted>
1.6127

> <Gold.Chemscore.DEInternal.Weighted>
3.8182

> <Gold.Chemscore.Rot.Weighted>
4.2447

> <Gold.Chemscore.Internal.Correction.Weighted>
   9.000000E+99

> <Gold.Protein.RotatedTorsions>
[ 6907 6896 6895 6894 ] final  129.05 input  -60.11 | X-H torsion
[ 7974 7965 7964 7962 ] final  -39.80 input  175.53 | X-H torsion
[ 8008 7997 7996 7995 ] final  107.44 input   59.86 | X-H torsion
[ 10167 10162 10161 10158 ] final  -70.10 input  -65.29 | X-H torsion
[ 10718 10713 10712 10709 ] final  -89.69 input   66.30 | X-H torsion
[ 10763 10752 10751 10750 ] final -130.56 input  -60.55 | X-H torsion
[ 11005 11000 10999 10996 ] final   81.66 input  -57.11 | X-H torsion

> <Gold.Protein.ActiveResidues>
 VAL166  LYS551  ARG553  GLY616  TRP617  ASP618  TYR619  PRO620  LYS621  CYS622 
 ASP623  PHE694  ASN695  SER759  ASP760  ASP761  ALA762  ILE779  LEU786  VAL792 
 PHE793  MET794  SER795  GLU796  ALA797  LYS798  CYS799  TRP800  GLU811  SER814 

> <Gold.Protein.RotatedAtoms>
  152.3661  133.6358  159.6051 H   0  0  0  0  0  0  0  0  0  0  0  0  # atno 6907 bound_to 6896
  150.7635  133.9346  159.3446 H   0  0  0  0  0  0  0  0  0  0  0  0  # atno 6908 bound_to 6896
  151.7176  135.0901  160.0330 H   0  0  0  0  0  0  0  0  0  0  0  0  # atno 6909 bound_to 6896
  146.0363  140.6666  142.9108 H   0  0  0  0  0  0  0  0  0  0  0  0  # atno 7974 bound_to 7965
  156.1824  140.3095  155.9174 H   0  0  0  0  0  0  0  0  0  0  0  0  # atno 8008 bound_to 7997
  155.3355  140.0463  157.3061 H   0  0  0  0  0  0  0  0  0  0  0  0  # atno 8009 bound_to 7997
  154.5357  140.2245  155.8736 H   0  0  0  0  0  0  0  0  0  0  0  0  # atno 8010 bound_to 7997
  140.5379  143.2317  151.7144 H   0  0  0  0  0  0  0  0  0  0  0  0  # atno 10167 bound_to 10162
  155.9985  130.4882  150.5210 H   0  0  0  0  0  0  0  0  0  0  0  0  # atno 10718 bound_to 10713
  154.8755  135.3858  154.4103 H   0  0  0  0  0  0  0  0  0  0  0  0  # atno 10763 bound_to 10752
  153.4817  135.7030  153.5939 H   0  0  0  0  0  0  0  0  0  0  0  0  # atno 10764 bound_to 10752
  153.4352  135.3869  155.2162 H   0  0  0  0  0  0  0  0  0  0  0  0  # atno 10765 bound_to 10752
  139.9090  134.8013  156.2071 H   0  0  0  0  0  0  0  0  0  0  0  0  # atno 11005 bound_to 11000
  144.7053  140.3827  143.7123 LP  0  0  0  0  0  0  0  0  0  0  0  0  # atno 17320 bound_to 7965
  145.6957  139.1649  143.2621 LP  0  0  0  0  0  0  0  0  0  0  0  0  # atno 17321 bound_to 7965
  139.4977  144.4015  152.0177 LP  0  0  0  0  0  0  0  0  0  0  0  0  # atno 17342 bound_to 10162
  140.3121  144.3525  150.6031 LP  0  0  0  0  0  0  0  0  0  0  0  0  # atno 17343 bound_to 10162
  157.3171  131.0675  151.1959 LP  0  0  0  0  0  0  0  0  0  0  0  0  # atno 17370 bound_to 10713
  157.2885  130.6784  149.6102 LP  0  0  0  0  0  0  0  0  0  0  0  0  # atno 17371 bound_to 10713
  141.0489  133.6899  156.1734 LP  0  0  0  0  0  0  0  0  0  0  0  0  # atno 17394 bound_to 11000
  140.6841  134.4735  157.5589 LP  0  0  0  0  0  0  0  0  0  0  0  0  # atno 17395 bound_to 11000

$$$$
