AV-unprocessed.smi:84|AV-procd|sdf|809|dock5
  -GOLD-   2262017203D 1   1.00000     0.00000
 Structure written by MMmdl.
 51 55  0  0  0  0  0  0  0  0  1 V2000
  154.8065  136.8022  161.1081 O   0  0  0  0  0  0  0  0  0  0  0  0
  155.0555  138.0052  161.0822 C   0  0  0  0  0  0  0  0  0  0  0  0
  154.0662  139.0816  161.4989 C   0  0  0  0  0  0  0  0  0  0  0  0
  154.6917  140.3642  160.9092 C   0  0  2  0  0  0  0  0  0  0  0  0
  154.3918  141.6261  161.7288 C   0  0  0  0  0  0  0  0  0  0  0  0
  153.0278  142.0710  161.2044 C   0  0  0  0  0  0  0  0  0  0  0  0
  153.0282  141.6871  159.8004 N   0  0  0  0  0  0  0  0  0  0  0  0
  151.9141  141.7766  159.0288 C   0  0  0  0  0  0  0  0  0  0  0  0
  150.9670  142.6957  159.3558 N   0  0  0  0  0  0  0  0  0  0  0  0
  149.8569  142.8176  158.6230 C   0  0  0  0  0  0  0  0  0  0  0  0
  149.4962  142.1346  157.5359 N   0  0  0  0  0  0  0  0  0  0  0  0
  150.4437  141.2159  157.1935 C   0  0  0  0  0  0  0  0  0  0  0  0
  151.6737  140.9769  157.8721 C   0  0  0  0  0  0  0  0  0  0  0  0
  152.3873  139.9862  157.2055 N   0  0  0  0  0  0  0  0  0  0  0  0
  151.6239  139.6573  156.1999 C   0  0  0  0  0  0  0  0  0  0  0  0
  150.4245  140.3282  156.1321 N   0  0  0  0  0  0  0  0  0  0  0  0
  149.4172  140.1970  155.1208 C   0  0  0  0  0  0  0  0  0  0  0  0
  148.9000  141.4241  154.3648 C   0  0  0  0  0  0  0  0  0  0  0  0
  147.5107  140.7537  154.2529 C   0  0  0  0  0  0  0  0  0  0  0  0
  146.2726  141.6526  154.4419 C   0  0  0  0  0  0  0  0  0  0  0  0
  145.1153  140.9184  154.7883 O   0  0  0  0  0  0  0  0  0  0  0  0
  147.2789  139.9236  152.9761 C   0  0  0  0  0  0  0  0  0  0  0  0
  146.0981  139.1525  153.0660 O   0  0  0  0  0  0  0  0  0  0  0  0
  147.9525  139.9200  155.4780 C   0  0  0  0  0  0  0  0  0  0  0  0
  154.0652  140.6983  159.5381 C   0  0  0  0  0  0  0  0  0  0  0  0
  156.1884  140.0062  160.7961 C   0  0  0  0  0  0  0  0  0  0  0  0
  156.2042  138.5591  160.6969 N   0  0  0  0  0  0  0  0  0  0  0  0
  153.0612  138.8802  161.1257 H   0  0  0  0  0  0  0  0  0  0  0  0
  154.0268  139.1131  162.5883 H   0  0  0  0  0  0  0  0  0  0  0  0
  154.3983  141.4603  162.8065 H   0  0  0  0  0  0  0  0  0  0  0  0
  155.1330  142.3955  161.5077 H   0  0  0  0  0  0  0  0  0  0  0  0
  152.2281  141.5475  161.7308 H   0  0  0  0  0  0  0  0  0  0  0  0
  152.8789  143.1442  161.3278 H   0  0  0  0  0  0  0  0  0  0  0  0
  149.1570  143.5696  158.9564 H   0  0  0  0  0  0  0  0  0  0  0  0
  151.9181  138.9085  155.4792 H   0  0  0  0  0  0  0  0  0  0  0  0
  149.7920  139.4471  154.4225 H   0  0  0  0  0  0  0  0  0  0  0  0
  148.9047  142.3218  154.9851 H   0  0  0  0  0  0  0  0  0  0  0  0
  149.4039  141.6091  153.4159 H   0  0  0  0  0  0  0  0  0  0  0  0
  146.4387  142.3904  155.2273 H   0  0  0  0  0  0  0  0  0  0  0  0
  146.0548  142.2084  153.5294 H   0  0  0  0  0  0  0  0  0  0  0  0
  144.7569  140.5342  154.0027 H   0  0  0  0  0  0  0  0  0  0  0  0
  147.1931  140.5618  152.0964 H   0  0  0  0  0  0  0  0  0  0  0  0
  148.1192  139.2551  152.7850 H   0  0  0  0  0  0  0  0  0  0  0  0
  145.3631  139.7025  152.8412 H   0  0  0  0  0  0  0  0  0  0  0  0
  147.6725  138.8668  155.4407 H   0  0  0  0  0  0  0  0  0  0  0  0
  147.6679  140.3611  156.4344 H   0  0  0  0  0  0  0  0  0  0  0  0
  154.7964  141.1507  158.8676 H   0  0  0  0  0  0  0  0  0  0  0  0
  153.6727  139.8055  159.0499 H   0  0  0  0  0  0  0  0  0  0  0  0
  156.6786  140.4718  159.9407 H   0  0  0  0  0  0  0  0  0  0  0  0
  156.7325  140.2981  161.6955 H   0  0  0  0  0  0  0  0  0  0  0  0
  157.0093  138.0397  160.3776 H   0  0  0  0  0  0  0  0  0  0  0  0
  1  2  2  0  0  0  0
  2 27  1  0  0  0  0
  2  3  1  0  0  0  0
  3  4  1  0  0  0  0
  3 28  1  0  0  0  0
  3 29  1  0  0  0  0
  4 25  1  0  0  0  0
  4  5  1  0  0  0  0
  4 26  1  0  0  0  0
  5  6  1  0  0  0  0
  5 30  1  0  0  0  0
  5 31  1  0  0  0  0
  6  7  1  0  0  0  0
  6 32  1  0  0  0  0
  6 33  1  0  0  0  0
  7  8  1  0  0  0  0
  7 25  1  0  0  0  0
  8 13  1  0  0  0  0
  8  9  2  0  0  0  0
  9 10  1  0  0  0  0
 10 11  2  0  0  0  0
 10 34  1  0  0  0  0
 11 12  1  0  0  0  0
 12 16  1  0  0  0  0
 12 13  2  0  0  0  0
 13 14  1  0  0  0  0
 14 15  2  0  0  0  0
 15 16  1  0  0  0  0
 15 35  1  0  0  0  0
 16 17  1  0  0  0  0
 17 24  1  0  0  0  0
 17 18  1  0  0  0  0
 17 36  1  0  0  0  0
 18 19  1  0  0  0  0
 18 37  1  0  0  0  0
 18 38  1  0  0  0  0
 19 20  1  0  0  0  0
 19 22  1  0  0  0  0
 19 24  1  0  0  0  0
 20 21  1  0  0  0  0
 20 39  1  0  0  0  0
 20 40  1  0  0  0  0
 21 41  1  0  0  0  0
 22 23  1  0  0  0  0
 22 42  1  0  0  0  0
 22 43  1  0  0  0  0
 23 44  1  0  0  0  0
 24 45  1  0  0  0  0
 24 46  1  0  0  0  0
 25 47  1  0  0  0  0
 25 48  1  0  0  0  0
 26 27  1  0  0  0  0
 26 49  1  0  0  0  0
 26 50  1  0  0  0  0
 27 51  1  0  0  0  0
M  END
> <s_m_source_file>
AV-unprocessed.smi

> <i_m_source_file_index>
84

> <i_lp_mmshare_version>
43012

> <i_f3d_flags>
0

> <s_epik_input>
W0NIMl0xW05IXUMoPU8pW0NIMl1bQ0BdMTJbQ0gyXVtDSDJdTihbQ0gyXTIpYyhuW2NIXW4zKWMoYzM0KW5bY0hdbjRbQ0hdKFtDSDJdNSlbQ0gyXUM1KFtDSDJdW09IXSlbQ0gyXVtPSF0=

> <s_epik_cmdline>
J2VwaWtfcHl0aG9uJywgJy1waCcsICc3LjAnLCAnLXRuJywgJzgnLCAnLW1hJywgJzIwMCcsICctbWV0YWxfYmluZGluZycsICctaW1hZScsICc8aW5maWxlLm1hZT4nLCAnLW9tYWUnLCAnPG91dGZpbGUubWFlPic=

> <r_lp_tautomer_probability>
1

> <r_epik_Ionization_Penalty>
0.00201507

> <r_epik_Ionization_Penalty_Charging>
0

> <r_epik_Ionization_Penalty_Neutral>
0.00201507

> <r_epik_State_Penalty>
0.00133787

> <r_epik_Charging_Adjusted_Penalty>
0.00133787

> <i_epik_Tot_Q>
0

> <i_epik_Tot_abs_Q>
0

> <r_epik_Metal_State_Penalty>
-0

> <b_epik_Metal_Only>
0

> <s_lp_Force_Field>
OPLS_2005

> <r_lp_Energy>
68.8544

> <b_lp_Chiralities_Consistent>
1

> <s_lp_Variant>
AV-unprocessed.smi:84-2

> <Gold.Version>
5.8.1

> <Gold.Id.Protein>
6NUR|6NUR_protein|mol2

> <Gold.PLP.Fitness>
51.8313

> <Gold.PLP.PLP>
-43.0731

> <Gold.PLP.part.hbond>
-3.3120

> <Gold.PLP.part.metal>
0.0000

> <Gold.PLP.part.buried>
2.5634

> <Gold.PLP.part.nonpolar>
-41.6519

> <Gold.PLP.part.repulsive>
0.1706

> <Gold.PLP.ligand.clash>
0.0000

> <Gold.PLP.ligand.torsion>
0.4422

> <Gold.PLP.Chemscore.Hbond>
3.0000

> <Gold.PLP.Chemscore.CHOScore>
0.0000

> <Gold.PLP.Chemscore.Metal>
0.0000

> <Gold.Chemscore.Hbonds>
donor molecule, donor type, donor heavy atom, donor atom, acceptor molecule, acceptor atom, score
      L1  H    21    41       P1 10175  1.00
      L1  H    23    44       P1 10175  1.00
      P1  H  7997  8008       L1    14  0.86

> <Gold.PLP.Chemscore.Internal.Correction>
0.6425

> <Gold.Rescore>
     Score         DG    S(hbond)    S(metal)    S(lipo)     H(rot)  DE(clash)    DE(int)     intcor
     14.99     -18.37       2.92        0.00      91.83       2.96       1.68       1.70       ----

> <Gold.Chemscore.Fitness>
14.9924

> <Gold.Chemscore.DG>
-18.3742

> <Gold.Chemscore.ZeroCoef>
-5.4800

> <Gold.Chemscore.Hbond>
2.9161

> <Gold.Chemscore.Metal>
0.0000

> <Gold.Chemscore.Lipo>
91.8349

> <Gold.Chemscore.Internal_Hbond>
0.0000

> <Gold.Chemscore.DEClash>
1.6816

> <Gold.Chemscore.DEInternal>
1.7003

> <Gold.Chemscore.Rot>
2.9649

> <Gold.Chemscore.Internal.Correction>
   9.000000E+99

> <Gold.Chemscore.Hbonds>
donor molecule, donor type, donor heavy atom, donor atom, acceptor molecule, acceptor atom, score
      L1  H    21    41       P1 10175  0.97
      L1  H    23    44       P1 10175  1.00
      P1  H  7997  8008       L1    14  0.54

> <Gold.Chemscore.Hbond.Weighted>
-9.7397

> <Gold.Chemscore.Metal.Weighted>
-0.0000

> <Gold.Chemscore.Lipo.Weighted>
-10.7447

> <Gold.Chemscore.Internal_Hbond.Weighted>
0.0000

> <Gold.Chemscore.DEClash.Weighted>
1.6816

> <Gold.Chemscore.DEInternal.Weighted>
1.7003

> <Gold.Chemscore.Rot.Weighted>
7.5902

> <Gold.Chemscore.Internal.Correction.Weighted>
   9.000000E+99

> <Gold.Protein.RotatedTorsions>
[ 6907 6896 6895 6894 ] final   62.58 input  -60.11 | X-H torsion
[ 7974 7965 7964 7962 ] final  111.34 input  175.53 | X-H torsion
[ 8008 7997 7996 7995 ] final  -51.02 input   59.86 | X-H torsion
[ 10167 10162 10161 10158 ] final   18.57 input  -65.29 | X-H torsion
[ 10718 10713 10712 10709 ] final -129.88 input   66.30 | X-H torsion
[ 10763 10752 10751 10750 ] final  -57.07 input  -60.55 | X-H torsion
[ 11005 11000 10999 10996 ] final   49.12 input  -57.11 | X-H torsion

> <Gold.Protein.ActiveResidues>
 VAL166  LYS551  ARG553  GLY616  TRP617  ASP618  TYR619  PRO620  LYS621  CYS622 
 ASP623  PHE694  ASN695  SER759  ASP760  ASP761  ALA762  ILE779  LEU786  VAL792 
 PHE793  MET794  SER795  GLU796  ALA797  LYS798  CYS799  TRP800  GLU811  SER814 

> <Gold.Protein.RotatedAtoms>
  152.4183  134.6001  159.9997 H   0  0  0  0  0  0  0  0  0  0  0  0  # atno 6907 bound_to 6896
  151.6158  133.3337  159.3085 H   0  0  0  0  0  0  0  0  0  0  0  0  # atno 6908 bound_to 6896
  150.8072  134.7243  159.6721 H   0  0  0  0  0  0  0  0  0  0  0  0  # atno 6909 bound_to 6896
  145.2434  139.2769  143.4105 H   0  0  0  0  0  0  0  0  0  0  0  0  # atno 7974 bound_to 7965
  154.4074  140.1258  156.4760 H   0  0  0  0  0  0  0  0  0  0  0  0  # atno 8008 bound_to 7997
  155.7132  140.3493  155.4963 H   0  0  0  0  0  0  0  0  0  0  0  0  # atno 8009 bound_to 7997
  155.9281  140.1065  157.1144 H   0  0  0  0  0  0  0  0  0  0  0  0  # atno 8010 bound_to 7997
  140.5643  143.9279  150.6665 H   0  0  0  0  0  0  0  0  0  0  0  0  # atno 10167 bound_to 10162
  156.2089  130.6906  151.0627 H   0  0  0  0  0  0  0  0  0  0  0  0  # atno 10718 bound_to 10713
  154.2167  135.6385  153.5132 H   0  0  0  0  0  0  0  0  0  0  0  0  # atno 10763 bound_to 10752
  152.9978  135.5487  154.6158 H   0  0  0  0  0  0  0  0  0  0  0  0  # atno 10764 bound_to 10752
  154.5608  135.2909  155.0895 H   0  0  0  0  0  0  0  0  0  0  0  0  # atno 10765 bound_to 10752
  140.1131  134.4929  155.8661 H   0  0  0  0  0  0  0  0  0  0  0  0  # atno 11005 bound_to 11000
  146.3322  140.2804  142.8610 LP  0  0  0  0  0  0  0  0  0  0  0  0  # atno 17320 bound_to 7965
  144.9568  140.8234  143.5538 LP  0  0  0  0  0  0  0  0  0  0  0  0  # atno 17321 bound_to 7965
  140.2738  143.3437  152.1214 LP  0  0  0  0  0  0  0  0  0  0  0  0  # atno 17342 bound_to 10162
  139.5085  144.6851  151.5907 LP  0  0  0  0  0  0  0  0  0  0  0  0  # atno 17343 bound_to 10162
  157.7028  131.0769  150.6766 LP  0  0  0  0  0  0  0  0  0  0  0  0  # atno 17370 bound_to 10713
  156.6825  130.4571  149.5623 LP  0  0  0  0  0  0  0  0  0  0  0  0  # atno 17371 bound_to 10713
  141.2135  133.6734  156.6743 LP  0  0  0  0  0  0  0  0  0  0  0  0  # atno 17394 bound_to 11000
  140.3065  134.8121  157.4141 LP  0  0  0  0  0  0  0  0  0  0  0  0  # atno 17395 bound_to 11000

$$$$
