AV-unprocessed.smi:1643|AV-procd|sdf|6583|dock9
  -GOLD-   22720 7273D 1   1.00000     0.00000
 Structure written by MMmdl.
 54 56  0  0  0  0  0  0  0  0  2 V2000
  147.5841  137.4013  158.3459 C   0  0  0  0  0  0  0  0  0  0  0  0
  148.2572  136.0916  157.9278 C   0  0  0  0  0  0  0  0  0  0  0  0
  148.8083  135.4160  158.7974 O   0  0  0  0  0  0  0  0  0  0  0  0
  148.2304  135.7243  156.6242 N   0  0  0  0  0  0  0  0  0  0  0  0
  148.9018  134.5134  156.1389 C   0  0  0  0  0  0  0  0  0  0  0  0
  150.3420  134.8342  155.7070 C   0  0  0  0  0  0  0  0  0  0  0  0
  150.4642  135.9577  154.6560 C   0  0  0  0  0  0  0  0  0  0  0  0
  150.0958  137.2864  155.1642 N   0  0  0  0  0  0  0  0  0  0  0  0
  150.8938  138.3583  154.5665 C   0  0  0  0  0  0  0  0  0  0  0  0
  152.2456  138.6253  155.2602 C   0  0  1  0  0  0  0  0  0  0  0  0
  152.9675  139.5410  154.4620 O   0  0  0  0  0  0  0  0  0  0  0  0
  152.0707  139.2020  156.6807 C   0  0  0  0  0  0  0  0  0  0  0  0
  151.5785  140.5864  156.6781 N   0  0  0  0  0  0  0  0  0  0  0  0
  150.8209  141.2337  155.7520 C   0  0  0  0  0  0  0  0  0  0  0  0
  150.6282  142.5066  156.1953 N   0  3  0  0  0  0  0  0  0  0  0  0
  151.2722  142.6748  157.4229 C   0  0  0  0  0  0  0  0  0  0  0  0
  151.3626  143.7817  158.2584 C   0  0  0  0  0  0  0  0  0  0  0  0
  152.0989  143.6281  159.4548 C   0  0  0  0  0  0  0  0  0  0  0  0
  152.2178  144.8187  160.3911 C   0  0  0  0  0  0  0  0  0  0  0  0
  152.7134  142.3910  159.7800 C   0  0  0  0  0  0  0  0  0  0  0  0
  153.4978  142.2350  161.0716 C   0  0  0  0  0  0  0  0  0  0  0  0
  152.6106  141.2776  158.9160 C   0  0  0  0  0  0  0  0  0  0  0  0
  151.8836  141.4459  157.7399 C   0  0  0  0  0  0  0  0  0  0  0  0
  148.6642  137.5726  154.9864 C   0  0  0  0  0  0  0  0  0  0  0  0
  147.6599  136.5393  155.5453 C   0  0  0  0  0  0  0  0  0  0  0  0
  148.0092  138.2481  157.8074 H   0  0  0  0  0  0  0  0  0  0  0  0
  147.7273  137.5819  159.4119 H   0  0  0  0  0  0  0  0  0  0  0  0
  146.5111  137.3630  158.1573 H   0  0  0  0  0  0  0  0  0  0  0  0
  148.9108  133.7355  156.9041 H   0  0  0  0  0  0  0  0  0  0  0  0
  148.3553  134.0752  155.3031 H   0  0  0  0  0  0  0  0  0  0  0  0
  150.9354  135.0992  156.5830 H   0  0  0  0  0  0  0  0  0  0  0  0
  150.7933  133.9263  155.3063 H   0  0  0  0  0  0  0  0  0  0  0  0
  151.4998  135.9552  154.3217 H   0  0  0  0  0  0  0  0  0  0  0  0
  149.8813  135.7162  153.7659 H   0  0  0  0  0  0  0  0  0  0  0  0
  151.0548  138.1404  153.5095 H   0  0  0  0  0  0  0  0  0  0  0  0
  150.3250  139.2892  154.5937 H   0  0  0  0  0  0  0  0  0  0  0  0
  152.8415  137.7151  155.3123 H   0  0  0  0  0  0  0  0  0  0  0  0
  152.4270  140.3023  154.3156 H   0  0  0  0  0  0  0  0  0  0  0  0
  151.4086  138.5814  157.2850 H   0  0  0  0  0  0  0  0  0  0  0  0
  153.0306  139.2137  157.1988 H   0  0  0  0  0  0  0  0  0  0  0  0
  150.4429  140.8133  154.8311 H   0  0  0  0  0  0  0  0  0  0  0  0
  150.8896  144.7193  158.0054 H   0  0  0  0  0  0  0  0  0  0  0  0
  151.7578  144.5950  161.3540 H   0  0  0  0  0  0  0  0  0  0  0  0
  151.7231  145.7000  159.9813 H   0  0  0  0  0  0  0  0  0  0  0  0
  153.2648  145.0730  160.5576 H   0  0  0  0  0  0  0  0  0  0  0  0
  153.8810  141.2203  161.1848 H   0  0  0  0  0  0  0  0  0  0  0  0
  152.8649  142.4493  161.9332 H   0  0  0  0  0  0  0  0  0  0  0  0
  154.3486  142.9163  161.0875 H   0  0  0  0  0  0  0  0  0  0  0  0
  153.0737  140.3347  159.1670 H   0  0  0  0  0  0  0  0  0  0  0  0
  148.4495  138.5277  155.4667 H   0  0  0  0  0  0  0  0  0  0  0  0
  148.4479  137.7275  153.9283 H   0  0  0  0  0  0  0  0  0  0  0  0
  147.3416  135.8930  154.7267 H   0  0  0  0  0  0  0  0  0  0  0  0
  146.7418  137.0368  155.8582 H   0  0  0  0  0  0  0  0  0  0  0  0
  150.0969  143.2070  155.6943 H   0  0  0  0  0  0  0  0  0  0  0  0
  1  2  1  0  0  0  0
  1 26  1  0  0  0  0
  1 27  1  0  0  0  0
  1 28  1  0  0  0  0
  2  3  2  0  0  0  0
  2  4  1  0  0  0  0
  4 25  1  0  0  0  0
  4  5  1  0  0  0  0
  5  6  1  0  0  0  0
  5 29  1  0  0  0  0
  5 30  1  0  0  0  0
  6  7  1  0  0  0  0
  6 31  1  0  0  0  0
  6 32  1  0  0  0  0
  7  8  1  0  0  0  0
  7 33  1  0  0  0  0
  7 34  1  0  0  0  0
  8  9  1  0  0  0  0
  8 24  1  0  0  0  0
  9 10  1  0  0  0  0
  9 35  1  0  0  0  0
  9 36  1  0  0  0  0
 10 11  1  0  0  0  0
 10 12  1  0  0  0  0
 10 37  1  0  0  0  0
 11 38  1  0  0  0  0
 12 13  1  0  0  0  0
 12 39  1  0  0  0  0
 12 40  1  0  0  0  0
 13 23  1  0  0  0  0
 13 14  1  0  0  0  0
 14 15  2  0  0  0  0
 14 41  1  0  0  0  0
 15 16  1  0  0  0  0
 15 54  1  0  0  0  0
 16 23  2  0  0  0  0
 16 17  1  0  0  0  0
 17 18  2  0  0  0  0
 17 42  1  0  0  0  0
 18 19  1  0  0  0  0
 18 20  1  0  0  0  0
 19 43  1  0  0  0  0
 19 44  1  0  0  0  0
 19 45  1  0  0  0  0
 20 21  1  0  0  0  0
 20 22  2  0  0  0  0
 21 46  1  0  0  0  0
 21 47  1  0  0  0  0
 21 48  1  0  0  0  0
 22 23  1  0  0  0  0
 22 49  1  0  0  0  0
 24 25  1  0  0  0  0
 24 50  1  0  0  0  0
 24 51  1  0  0  0  0
 25 52  1  0  0  0  0
 25 53  1  0  0  0  0
M  CHG  1  15   1
M  END
> <s_m_source_file>
AV-unprocessed.smi

> <i_m_source_file_index>
1643

> <i_lp_mmshare_version>
43012

> <i_f3d_flags>
0

> <s_epik_input>
W0NIM11DKD1PKU4xW0NIMl1bQ0gyXVtDSDJdTihbQ0gyXVtDSDJdMSlbQ0gyXVtDQEhdKFtPSF0pW0NIMl1uKFtjSF1uMiljKGMyMylbY0hdYyhbQ0gzXSljKFtjSF0zKVtDSDNd

> <s_epik_cmdline>
J2VwaWtfcHl0aG9uJywgJy1waCcsICc3LjAnLCAnLXRuJywgJzgnLCAnLW1hJywgJzIwMCcsICctbWV0YWxfYmluZGluZycsICctaW1hZScsICc8aW5maWxlLm1hZT4nLCAnLW9tYWUnLCAnPG91dGZpbGUubWFlPic=

> <r_epik_Ionization_Penalty>
2.25269

> <r_epik_Ionization_Penalty_Charging>
1.20735

> <r_epik_Ionization_Penalty_Neutral>
1.04533

> <r_epik_State_Penalty>
2.37869

> <r_epik_Charging_Adjusted_Penalty>
3.58604

> <i_epik_Tot_Q>
1

> <i_epik_Tot_abs_Q>
1

> <r_epik_Metal_State_Penalty>
6.40045

> <b_epik_Metal_Only>
0

> <s_lp_Force_Field>
OPLS_2005

> <r_lp_Energy>
51.5531

> <b_lp_Chiralities_Consistent>
1

> <s_lp_Variant>
AV-unprocessed.smi:1643-12

> <Gold.Version>
5.8.1

> <Gold.Id.Protein>
6NUR|6NUR_protein|mol2

> <Gold.PLP.Fitness>
57.9058

> <Gold.PLP.PLP>
-47.4512

> <Gold.PLP.part.hbond>
-4.0000

> <Gold.PLP.part.metal>
0.0000

> <Gold.PLP.part.buried>
-7.1436

> <Gold.PLP.part.nonpolar>
-37.1107

> <Gold.PLP.part.repulsive>
0.1874

> <Gold.PLP.ligand.clash>
0.0000

> <Gold.PLP.ligand.torsion>
0.8003

> <Gold.PLP.Chemscore.Hbond>
4.0000

> <Gold.PLP.Chemscore.CHOScore>
0.0000

> <Gold.PLP.Chemscore.Metal>
0.0000

> <Gold.Chemscore.Hbonds>
donor molecule, donor type, donor heavy atom, donor atom, acceptor molecule, acceptor atom, score
      L1  H    15    54       P1  8028  2.00
      P1  H  6896  6908       L1     3  0.62
      P1  H  7997  8010       L1    11  0.71

> <Gold.PLP.Chemscore.Internal.Correction>
0.0552

> <Gold.Rescore>
     Score         DG    S(hbond)    S(metal)    S(lipo)     H(rot)  DE(clash)    DE(int)     intcor
     21.93     -23.29       2.73        0.00     120.77       2.12       0.02       1.34       ----

> <Gold.Chemscore.Fitness>
21.9341

> <Gold.Chemscore.DG>
-23.2922

> <Gold.Chemscore.ZeroCoef>
-5.4800

> <Gold.Chemscore.Hbond>
2.7287

> <Gold.Chemscore.Metal>
0.0000

> <Gold.Chemscore.Lipo>
120.7722

> <Gold.Chemscore.Internal_Hbond>
0.0000

> <Gold.Chemscore.DEClash>
0.0208

> <Gold.Chemscore.DEInternal>
1.3372

> <Gold.Chemscore.Rot>
2.1220

> <Gold.Chemscore.Internal.Correction>
   9.000000E+99

> <Gold.Chemscore.Hbonds>
donor molecule, donor type, donor heavy atom, donor atom, acceptor molecule, acceptor atom, score
      L1  H    15    54       P1  8028  0.96
      P1  H  6896  6908       L1     3  0.60
      P1  H  7997  8010       L1    11  0.16

> <Gold.Chemscore.Hbond.Weighted>
-9.1140

> <Gold.Chemscore.Metal.Weighted>
-0.0000

> <Gold.Chemscore.Lipo.Weighted>
-14.1303

> <Gold.Chemscore.Internal_Hbond.Weighted>
0.0000

> <Gold.Chemscore.DEClash.Weighted>
0.0208

> <Gold.Chemscore.DEInternal.Weighted>
1.3372

> <Gold.Chemscore.Rot.Weighted>
5.4322

> <Gold.Chemscore.Internal.Correction.Weighted>
   9.000000E+99

> <Gold.Protein.RotatedTorsions>
[ 6907 6896 6895 6894 ] final  160.27 input  -60.11 | X-H torsion
[ 7974 7965 7964 7962 ] final  134.90 input  175.53 | X-H torsion
[ 8008 7997 7996 7995 ] final  113.69 input   59.86 | X-H torsion
[ 10167 10162 10161 10158 ] final  105.73 input  -65.29 | X-H torsion
[ 10718 10713 10712 10709 ] final   -6.97 input   66.30 | X-H torsion
[ 10763 10752 10751 10750 ] final   12.66 input  -60.55 | X-H torsion
[ 11005 11000 10999 10996 ] final  -45.90 input  -57.11 | X-H torsion

> <Gold.Protein.ActiveResidues>
 VAL166  LYS551  ARG553  GLY616  TRP617  ASP618  TYR619  PRO620  LYS621  CYS622 
 ASP623  PHE694  ASN695  SER759  ASP760  ASP761  ALA762  ILE779  LEU786  VAL792 
 PHE793  MET794  SER795  GLU796  ALA797  LYS798  CYS799  TRP800  GLU811  SER814 

> <Gold.Protein.RotatedAtoms>
  151.9731  133.3732  159.4078 H   0  0  0  0  0  0  0  0  0  0  0  0  # atno 6907 bound_to 6896
  150.6946  134.4118  159.5174 H   0  0  0  0  0  0  0  0  0  0  0  0  # atno 6908 bound_to 6896
  152.1826  134.8741  160.0576 H   0  0  0  0  0  0  0  0  0  0  0  0  # atno 6909 bound_to 6896
  144.9717  139.4598  143.5430 H   0  0  0  0  0  0  0  0  0  0  0  0  # atno 7974 bound_to 7965
  156.2274  140.2974  156.0102 H   0  0  0  0  0  0  0  0  0  0  0  0  # atno 8008 bound_to 7997
  155.2318  140.0419  157.2980 H   0  0  0  0  0  0  0  0  0  0  0  0  # atno 8009 bound_to 7997
  154.5939  140.2409  155.7891 H   0  0  0  0  0  0  0  0  0  0  0  0  # atno 8010 bound_to 7997
  139.7068  144.7085  151.1093 H   0  0  0  0  0  0  0  0  0  0  0  0  # atno 10167 bound_to 10162
  156.7240  130.5160  149.5861 H   0  0  0  0  0  0  0  0  0  0  0  0  # atno 10718 bound_to 10713
  153.1799  135.6826  153.8492 H   0  0  0  0  0  0  0  0  0  0  0  0  # atno 10763 bound_to 10752
  153.7827  135.3180  155.3369 H   0  0  0  0  0  0  0  0  0  0  0  0  # atno 10764 bound_to 10752
  154.8053  135.4752  154.0472 H   0  0  0  0  0  0  0  0  0  0  0  0  # atno 10765 bound_to 10752
  141.0545  133.6731  156.3079 H   0  0  0  0  0  0  0  0  0  0  0  0  # atno 11005 bound_to 11000
  146.3384  139.8933  142.8805 LP  0  0  0  0  0  0  0  0  0  0  0  0  # atno 17320 bound_to 7965
  145.2549  141.0057  143.3859 LP  0  0  0  0  0  0  0  0  0  0  0  0  # atno 17321 bound_to 7965
  140.7723  143.5348  150.9381 LP  0  0  0  0  0  0  0  0  0  0  0  0  # atno 17342 bound_to 10162
  139.9031  143.6811  152.3128 LP  0  0  0  0  0  0  0  0  0  0  0  0  # atno 17343 bound_to 10162
  156.1574  130.6351  151.0675 LP  0  0  0  0  0  0  0  0  0  0  0  0  # atno 17370 bound_to 10713
  157.6886  131.0817  150.7172 LP  0  0  0  0  0  0  0  0  0  0  0  0  # atno 17371 bound_to 10713
  140.5991  134.5573  157.5514 LP  0  0  0  0  0  0  0  0  0  0  0  0  # atno 17394 bound_to 11000
  139.9378  134.7843  156.0757 LP  0  0  0  0  0  0  0  0  0  0  0  0  # atno 17395 bound_to 11000

$$$$
