AV-unprocessed.smi:814|AV-procd|sdf|3821|dock8
  -GOLD-   22720 1263D 1   1.00000     0.00000
 Structure written by MMmdl.
 37 38  0  0  0  0  0  0  0  0  2 V2000
  149.5577  140.1284  154.3226 C   0  0  0  0  0  0  0  0  0  0  0  0
  148.2520  140.7503  154.0930 N   0  0  0  0  0  0  0  0  0  0  0  0
  147.8945  142.0379  154.4020 C   0  0  0  0  0  0  0  0  0  0  0  0
  146.5878  142.1864  154.0166 C   0  0  0  0  0  0  0  0  0  0  0  0
  146.2014  140.9840  153.4900 N   0  3  0  0  0  0  0  0  0  0  0  0
  147.2137  140.1098  153.5308 C   0  0  0  0  0  0  0  0  0  0  0  0
  147.1526  138.6927  153.0539 C   0  0  0  0  0  0  0  0  0  0  0  0
  146.3998  138.5474  151.7218 C   0  0  0  0  0  0  0  0  0  0  0  0
  146.3826  137.1632  151.2658 N   0  0  0  0  0  0  0  0  0  0  0  0
  145.4158  136.2749  151.5446 C   0  0  0  0  0  0  0  0  0  0  0  0
  144.4212  136.5523  152.2159 O   0  0  0  0  0  0  0  0  0  0  0  0
  145.6027  134.8587  150.9845 C   0  0  2  0  0  0  0  0  0  0  0  0
  144.3484  134.3857  150.2136 C   0  0  0  0  0  0  0  0  0  0  0  0
  144.4100  132.9067  149.8729 C   0  0  0  0  0  0  0  0  0  0  0  0
  145.2662  132.0493  150.4544 C   0  0  0  0  0  0  0  0  0  0  0  0
  146.2646  132.4606  151.5221 C   0  0  0  0  0  0  0  0  0  0  0  0
  145.9572  133.8553  152.1001 C   0  0  0  0  0  0  0  0  0  0  0  0
  150.2191  140.8399  154.8180 H   0  0  0  0  0  0  0  0  0  0  0  0
  149.9934  139.8380  153.3663 H   0  0  0  0  0  0  0  0  0  0  0  0
  149.4359  139.2501  154.9567 H   0  0  0  0  0  0  0  0  0  0  0  0
  148.5785  142.7364  154.8627 H   0  0  0  0  0  0  0  0  0  0  0  0
  145.9208  143.0342  154.0769 H   0  0  0  0  0  0  0  0  0  0  0  0
  148.1836  138.3491  152.9598 H   0  0  0  0  0  0  0  0  0  0  0  0
  146.6859  138.0980  153.8395 H   0  0  0  0  0  0  0  0  0  0  0  0
  145.3678  138.8794  151.8341 H   0  0  0  0  0  0  0  0  0  0  0  0
  146.8478  139.1850  150.9576 H   0  0  0  0  0  0  0  0  0  0  0  0
  147.1665  136.8531  150.7093 H   0  0  0  0  0  0  0  0  0  0  0  0
  146.4397  134.8793  150.2834 H   0  0  0  0  0  0  0  0  0  0  0  0
  143.4379  134.5578  150.7892 H   0  0  0  0  0  0  0  0  0  0  0  0
  144.2493  134.9521  149.2867 H   0  0  0  0  0  0  0  0  0  0  0  0
  143.7113  132.5476  149.1314 H   0  0  0  0  0  0  0  0  0  0  0  0
  145.2701  131.0105  150.1584 H   0  0  0  0  0  0  0  0  0  0  0  0
  146.2646  131.7189  152.3212 H   0  0  0  0  0  0  0  0  0  0  0  0
  147.2597  132.4479  151.0765 H   0  0  0  0  0  0  0  0  0  0  0  0
  146.8104  134.2067  152.6820 H   0  0  0  0  0  0  0  0  0  0  0  0
  145.1214  133.7754  152.7974 H   0  0  0  0  0  0  0  0  0  0  0  0
  145.2806  140.7806  153.1214 H   0  0  0  0  0  0  0  0  0  0  0  0
  1  2  1  0  0  0  0
  1 18  1  0  0  0  0
  1 19  1  0  0  0  0
  1 20  1  0  0  0  0
  2  6  1  0  0  0  0
  2  3  1  0  0  0  0
  3  4  2  0  0  0  0
  3 21  1  0  0  0  0
  4  5  1  0  0  0  0
  4 22  1  0  0  0  0
  5  6  2  0  0  0  0
  5 37  1  0  0  0  0
  6  7  1  0  0  0  0
  7  8  1  0  0  0  0
  7 23  1  0  0  0  0
  7 24  1  0  0  0  0
  8  9  1  0  0  0  0
  8 25  1  0  0  0  0
  8 26  1  0  0  0  0
  9 10  1  0  0  0  0
  9 27  1  0  0  0  0
 10 11  2  0  0  0  0
 10 12  1  0  0  0  0
 12 17  1  0  0  0  0
 12 13  1  0  0  0  0
 12 28  1  0  0  0  0
 13 14  1  0  0  0  0
 13 29  1  0  0  0  0
 13 30  1  0  0  0  0
 14 15  2  0  0  0  0
 14 31  1  0  0  0  0
 15 16  1  0  0  0  0
 15 32  1  0  0  0  0
 16 17  1  0  0  0  0
 16 33  1  0  0  0  0
 16 34  1  0  0  0  0
 17 35  1  0  0  0  0
 17 36  1  0  0  0  0
M  CHG  1   5   1
M  END
> <s_m_source_file>
AV-unprocessed.smi

> <i_m_source_file_index>
814

> <i_lp_mmshare_version>
43012

> <i_f3d_flags>
0

> <s_epik_input>
W0NIM11uMVtjSF1bY0hdbmMxW0NIMl1bQ0gyXVtOSF1DKD1PKVtDQEBIXTJbQ0gyXVtDSF09W0NIXVtDSDJdW0NIMl0y

> <s_epik_cmdline>
J2VwaWtfcHl0aG9uJywgJy1waCcsICc3LjAnLCAnLXRuJywgJzgnLCAnLW1hJywgJzIwMCcsICctbWV0YWxfYmluZGluZycsICctaW1hZScsICc8aW5maWxlLm1hZT4nLCAnLW9tYWUnLCAnPG91dGZpbGUubWFlPic=

> <r_lp_tautomer_probability>
1

> <r_epik_Ionization_Penalty>
0.0819619

> <r_epik_Ionization_Penalty_Charging>
0

> <r_epik_Ionization_Penalty_Neutral>
0.0819619

> <r_epik_State_Penalty>
0.0726933

> <r_epik_Charging_Adjusted_Penalty>
0.0726933

> <i_epik_Tot_Q>
1

> <i_epik_Tot_abs_Q>
1

> <r_epik_Metal_State_Penalty>
0.411758

> <b_epik_Metal_Only>
0

> <s_lp_Force_Field>
OPLS_2005

> <r_lp_Energy>
9.54254

> <b_lp_Chiralities_Consistent>
1

> <s_lp_Variant>
AV-unprocessed.smi:814-1

> <Gold.Version>
5.8.1

> <Gold.Id.Protein>
6NUR|6NUR_protein|mol2

> <Gold.PLP.Fitness>
48.4358

> <Gold.PLP.PLP>
-39.6044

> <Gold.PLP.part.hbond>
-2.1111

> <Gold.PLP.part.metal>
0.0000

> <Gold.PLP.part.buried>
-2.4397

> <Gold.PLP.part.nonpolar>
-35.6565

> <Gold.PLP.part.repulsive>
0.3979

> <Gold.PLP.ligand.clash>
0.0000

> <Gold.PLP.ligand.torsion>
0.6445

> <Gold.PLP.Chemscore.Hbond>
2.3682

> <Gold.PLP.Chemscore.CHOScore>
1.0000

> <Gold.PLP.Chemscore.Metal>
0.0000

> <Gold.Chemscore.Hbonds>
donor molecule, donor type, donor heavy atom, donor atom, acceptor molecule, acceptor atom, score
      L1  H     5    37       P1 10175  2.00
      L1  H     9    27       P1  7948  0.23
      L1  C     3    21       P1  8028  1.00

> <Gold.PLP.Chemscore.Internal.Correction>
0.0158

> <Gold.Rescore>
     Score         DG    S(hbond)    S(metal)    S(lipo)     H(rot)  DE(clash)    DE(int)     intcor
     14.50     -15.06       1.37        0.00      78.85       1.65       0.03       0.53       ----

> <Gold.Chemscore.Fitness>
14.4993

> <Gold.Chemscore.DG>
-15.0636

> <Gold.Chemscore.ZeroCoef>
-5.4800

> <Gold.Chemscore.Hbond>
1.3732

> <Gold.Chemscore.Metal>
0.0000

> <Gold.Chemscore.Lipo>
78.8532

> <Gold.Chemscore.Internal_Hbond>
0.0000

> <Gold.Chemscore.DEClash>
0.0348

> <Gold.Chemscore.DEInternal>
0.5295

> <Gold.Chemscore.Rot>
1.6518

> <Gold.Chemscore.Internal.Correction>
   9.000000E+99

> <Gold.Chemscore.Hbonds>
donor molecule, donor type, donor heavy atom, donor atom, acceptor molecule, acceptor atom, score
      L1  H     5    37       P1 10175  0.65
      L1  H     9    27       P1  7948  0.23

> <Gold.Chemscore.Hbond.Weighted>
-4.5864

> <Gold.Chemscore.Metal.Weighted>
-0.0000

> <Gold.Chemscore.Lipo.Weighted>
-9.2258

> <Gold.Chemscore.Internal_Hbond.Weighted>
0.0000

> <Gold.Chemscore.DEClash.Weighted>
0.0348

> <Gold.Chemscore.DEInternal.Weighted>
0.5295

> <Gold.Chemscore.Rot.Weighted>
4.2287

> <Gold.Chemscore.Internal.Correction.Weighted>
   9.000000E+99

> <Gold.Protein.RotatedTorsions>
[ 6907 6896 6895 6894 ] final  -77.32 input  -60.11 | X-H torsion
[ 7974 7965 7964 7962 ] final  101.52 input  175.53 | X-H torsion
[ 8008 7997 7996 7995 ] final  -59.32 input   59.86 | X-H torsion
[ 10167 10162 10161 10158 ] final  -57.08 input  -65.29 | X-H torsion
[ 10718 10713 10712 10709 ] final   12.17 input   66.30 | X-H torsion
[ 10763 10752 10751 10750 ] final   88.92 input  -60.55 | X-H torsion
[ 11005 11000 10999 10996 ] final  104.00 input  -57.11 | X-H torsion

> <Gold.Protein.ActiveResidues>
 VAL166  LYS551  ARG553  GLY616  TRP617  ASP618  TYR619  PRO620  LYS621  CYS622 
 ASP623  PHE694  ASN695  SER759  ASP760  ASP761  ALA762  ILE779  LEU786  VAL792 
 PHE793  MET794  SER795  GLU796  ALA797  LYS798  CYS799  TRP800  GLU811  SER814 

> <Gold.Protein.RotatedAtoms>
  150.7002  134.4440  159.5305 H   0  0  0  0  0  0  0  0  0  0  0  0  # atno 6907 bound_to 6896
  152.2145  134.8468  160.0502 H   0  0  0  0  0  0  0  0  0  0  0  0  # atno 6908 bound_to 6896
  151.9341  133.3584  159.3978 H   0  0  0  0  0  0  0  0  0  0  0  0  # atno 6909 bound_to 6896
  145.3713  139.2397  143.3454 H   0  0  0  0  0  0  0  0  0  0  0  0  # atno 7974 bound_to 7965
  154.4347  140.1064  156.6097 H   0  0  0  0  0  0  0  0  0  0  0  0  # atno 8008 bound_to 7997
  155.5823  140.3491  155.4525 H   0  0  0  0  0  0  0  0  0  0  0  0  # atno 8009 bound_to 7997
  156.0309  140.1260  157.0248 H   0  0  0  0  0  0  0  0  0  0  0  0  # atno 8010 bound_to 7997
  140.6279  143.2446  151.5316 H   0  0  0  0  0  0  0  0  0  0  0  0  # atno 10167 bound_to 10162
  157.0063  130.6099  149.5702 H   0  0  0  0  0  0  0  0  0  0  0  0  # atno 10718 bound_to 10713
  153.1818  135.4489  155.0037 H   0  0  0  0  0  0  0  0  0  0  0  0  # atno 10763 bound_to 10752
  154.8035  135.3265  154.7494 H   0  0  0  0  0  0  0  0  0  0  0  0  # atno 10764 bound_to 10752
  153.7957  135.6966  153.4919 H   0  0  0  0  0  0  0  0  0  0  0  0  # atno 10765 bound_to 10752
  139.8788  134.9284  156.5296 H   0  0  0  0  0  0  0  0  0  0  0  0  # atno 11005 bound_to 11000
  146.2884  140.4364  142.8749 LP  0  0  0  0  0  0  0  0  0  0  0  0  # atno 17320 bound_to 7965
  144.8574  140.7091  143.6129 LP  0  0  0  0  0  0  0  0  0  0  0  0  # atno 17321 bound_to 7965
  139.5497  144.2428  152.1508 LP  0  0  0  0  0  0  0  0  0  0  0  0  # atno 17342 bound_to 10162
  140.1664  144.4977  150.6603 LP  0  0  0  0  0  0  0  0  0  0  0  0  # atno 17343 bound_to 10162
  156.0152  130.5246  150.8114 LP  0  0  0  0  0  0  0  0  0  0  0  0  # atno 17370 bound_to 10713
  157.5353  131.0938  150.9900 LP  0  0  0  0  0  0  0  0  0  0  0  0  # atno 17371 bound_to 10713
  140.8391  133.8219  155.9057 LP  0  0  0  0  0  0  0  0  0  0  0  0  # atno 17394 bound_to 11000
  140.9255  134.2088  157.4898 LP  0  0  0  0  0  0  0  0  0  0  0  0  # atno 17395 bound_to 11000

$$$$
