#       Name:                AV-unprocessed.smi:671
#       Creating user name   scv26
#       Creation time:       Fri Mar 27 00:24:22 2020


#       File generated by GOLD software.
#

@<TRIPOS>MOLECULE
AV-unprocessed.smi:671
    52    53     1
SMALL
NO_CHARGES


@<TRIPOS>ATOM
      1 ****        -1.4453  -4.4829  -4.6270 C.3            1 S1                 0.0000
      2 ****        -2.7163  -4.0111  -4.0035 C.2            1 S1                 0.0000
      3 ****        -3.9504  -4.4772  -4.3332 N.pl3          1 S1                 1.0000
      4 ****        -4.8894  -3.8577  -3.6045 N.pl3          1 S1                 0.0000
      5 ****        -6.2945  -4.2113  -3.8072 C.3            1 S1                 0.0000
      6 ****        -4.3138  -2.9519  -2.7640 C.2            1 S1                 0.0000
      7 ****        -5.0760  -2.0861  -1.8137 C.3            1 S1                 0.0000
      8 ****        -2.9371  -3.0481  -3.0115 C.2            1 S1                 0.0000
      9 ****        -1.8563  -2.2515  -2.3337 C.3            1 S1                 0.0000
     10 ****        -1.1765  -3.0082  -1.1757 C.3            1 S1                 0.0000
     11 ****        -2.1375  -3.3305  -0.0172 C.3            1 S1                 0.0000
     12 ****        -0.0519  -2.2094  -0.6828 N.am           1 S1                 0.0000
     13 ****         1.1166  -2.6369  -0.1709 C.2            1 S1                 0.0000
     14 ****         1.3752  -3.8336  -0.0634 O.2            1 S1                 0.0000
     15 ****         1.9574  -1.6557   0.1977 N.am           1 S1                 0.0000
     16 ****         3.2656  -1.8295   0.8281 C.3            1 S1                 0.0000
     17 ****         4.3439  -1.0624   0.0347 C.3            1 S1                 0.0000
     18 ****         4.9961  -0.0838   1.0161 C.3            1 S1                 0.0000
     19 ****         3.9563   0.1234   2.1135 C.3            1 S1                 0.0000
     20 ****         3.3034  -1.2518   2.2629 C.3            1 S1                 0.0000
     21 ****         1.9722  -1.2242   3.0355 C.3            1 S1                 0.0000
     22 ****        -0.7026  -4.7009  -3.8599 H              1 S1                 0.0000
     23 ****        -1.0458  -3.7151  -5.2896 H              1 S1                 0.0000
     24 ****        -1.6155  -5.3896  -5.2081 H              1 S1                 0.0000
     25 ****        -6.7995  -4.2484  -2.8418 H              1 S1                 0.0000
     26 ****        -6.3702  -5.1872  -4.2889 H              1 S1                 0.0000
     27 ****        -6.7640  -3.4547  -4.4364 H              1 S1                 0.0000
     28 ****        -4.4048  -1.4792  -1.2076 H              1 S1                 0.0000
     29 ****        -5.6760  -2.7018  -1.1437 H              1 S1                 0.0000
     30 ****        -5.7411  -1.4204  -2.3639 H              1 S1                 0.0000
     31 ****        -1.0992  -1.9813  -3.0714 H              1 S1                 0.0000
     32 ****        -2.2498  -1.3014  -1.9718 H              1 S1                 0.0000
     33 ****        -0.8010  -3.9482  -1.5823 H              1 S1                 0.0000
     34 ****        -2.9546  -3.9741  -0.3428 H              1 S1                 0.0000
     35 ****        -2.5735  -2.4227   0.4009 H              1 S1                 0.0000
     36 ****        -1.6222  -3.8516   0.7905 H              1 S1                 0.0000
     37 ****        -0.1523  -1.2092  -0.7811 H              1 S1                 0.0000
     38 ****         1.6548  -0.7038   0.0532 H              1 S1                 0.0000
     39 ****         3.5295  -2.8878   0.8679 H              1 S1                 0.0000
     40 ****         5.0825  -1.7373  -0.3991 H              1 S1                 0.0000
     41 ****         3.8996  -0.5059  -0.7923 H              1 S1                 0.0000
     42 ****         5.8906  -0.5384   1.4440 H              1 S1                 0.0000
     43 ****         5.2955   0.8505   0.5404 H              1 S1                 0.0000
     44 ****         4.3975   0.4819   3.0441 H              1 S1                 0.0000
     45 ****         3.2184   0.8580   1.7878 H              1 S1                 0.0000
     46 ****         3.9965  -1.8714   2.8345 H              1 S1                 0.0000
     47 ****         1.2417  -0.5656   2.5647 H              1 S1                 0.0000
     48 ****         2.1247  -0.8672   4.0542 H              1 S1                 0.0000
     49 ****         1.5356  -2.2214   3.0977 H              1 S1                 0.0000
     50 ****        -4.1982  -5.1824  -5.0159 H              1 S1                 0.0000
     51 ****         0.7089  -4.5177  -0.3602 LP             1 S1                 0.0000
     52 ****         2.2518  -4.1231   0.3208 LP             1 S1                 0.0000
@<TRIPOS>BOND
    1    1    2 1     
    2    1   22 1     
    3    1   23 1     
    4    1   24 1     
    5    2    8 1     
    6    2    3 2     
    7    3    4 1     
    8    3   50 1     
    9    4    5 1     
   10    4    6 1     
   11    5   25 1     
   12    5   26 1     
   13    5   27 1     
   14    6    7 1     
   15    6    8 2     
   16    7   28 1     
   17    7   29 1     
   18    7   30 1     
   19    8    9 1     
   20    9   10 1     
   21    9   31 1     
   22    9   32 1     
   23   10   11 1     
   24   10   12 1     
   25   10   33 1     
   26   11   34 1     
   27   11   35 1     
   28   11   36 1     
   29   12   13 am    
   30   12   37 1     
   31   13   14 2     
   32   13   15 am    
   33   15   16 1     
   34   15   38 1     
   35   16   20 1     
   36   16   17 1     
   37   16   39 1     
   38   17   18 1     
   39   17   40 1     
   40   17   41 1     
   41   18   19 1     
   42   18   42 1     
   43   18   43 1     
   44   19   20 1     
   45   19   44 1     
   46   19   45 1     
   47   20   21 1     
   48   20   46 1     
   49   21   47 1     
   50   21   48 1     
   51   21   49 1     
   52   14   51 1     
   53   14   52 1     
@<TRIPOS>SUBSTRUCTURE
      1 S1             1
@<TRIPOS>SET
LONE_PAIRS      STATIC     ATOMS    <user>   **** ""
2 51 52
DONOR_HYDROGENS      STATIC     ATOMS    <user>   **** ""
3 50 37 38
ATOM$BLUE        STATIC     ATOMS    COLORGROUP SYSTEM
2 51 52
ATOM$RED        STATIC     ATOMS    COLORGROUP SYSTEM
3 50 37 38
