#       Name:                AV-unprocessed.smi:2462
#       Creating user name   scv26
#       Creation time:       Fri Mar 27 13:35:49 2020


#       File generated by GOLD software.
#

@<TRIPOS>MOLECULE
AV-unprocessed.smi:2462
    45    46     1
SMALL
NO_CHARGES


@<TRIPOS>ATOM
      1 ****        -5.1004  -0.9692   0.1424 C.3            1 S1                 0.0000
      2 ****        -3.7183  -0.3652   0.3157 C.2            1 S1                 0.0000
      3 ****        -3.4974   0.8396  -0.3556 N.2            1 S1                 0.0000
      4 ****        -2.3410   1.4130  -0.2859 C.2            1 S1                 0.0000
      5 ****        -1.2751   0.8534   0.4405 N.am           1 S1                 0.0000
      6 ****        -0.0066   1.6142   0.4144 C.3            1 S1                 0.0000
      7 ****         0.8463   1.4539  -0.8849 C.3            1 S1                 0.0000
      8 ****         0.2842   2.3182  -1.8550 O.3            1 S1                 0.0000
      9 ****         2.2854   1.9869  -0.6799 C.3            1 S1                 0.0000
     10 ****         3.1791   1.0188   0.1159 C.3            1 S1                 0.0000
     11 ****         3.2240  -0.3743  -0.5368 C.3            1 S1                 0.0000
     12 ****         4.1152  -1.3388   0.2583 C.3            1 S1                 0.0000
     13 ****         1.7991  -0.9315  -0.7020 C.3            1 S1                 0.0000
     14 ****         0.8982   0.0305  -1.4961 C.3            1 S1                 0.0000
     15 ****        -1.4320  -0.2828   1.1835 C.2            1 S1                 0.0000
     16 ****        -0.5310  -0.7275   1.8963 O.2            1 S1                 0.0000
     17 ****        -2.7455  -0.9387   1.0743 C.2            1 S1                 0.0000
     18 ****        -2.9298  -2.2482   1.8315 C.3            1 S1                 0.0000
     19 ****        -5.6019  -1.0584   1.1064 H              1 S1                 0.0000
     20 ****        -5.0306  -1.9593  -0.3086 H              1 S1                 0.0000
     21 ****        -5.7258  -0.3518  -0.5038 H              1 S1                 0.0000
     22 ****        -2.1240   2.3607  -0.7810 H              1 S1                 0.0000
     23 ****        -0.2130   2.6716   0.5934 H              1 S1                 0.0000
     24 ****         0.6025   1.3325   1.2724 H              1 S1                 0.0000
     25 ****         0.8121   2.2745  -2.6376 H              1 S1                 0.0000
     26 ****         2.7565   2.1550  -1.6500 H              1 S1                 0.0000
     27 ****         2.2626   2.9597  -0.1862 H              1 S1                 0.0000
     28 ****         4.1875   1.4293   0.1782 H              1 S1                 0.0000
     29 ****         2.8246   0.9362   1.1433 H              1 S1                 0.0000
     30 ****         3.6609  -0.2671  -1.5307 H              1 S1                 0.0000
     31 ****         3.7331  -1.4906   1.2684 H              1 S1                 0.0000
     32 ****         5.1325  -0.9553   0.3411 H              1 S1                 0.0000
     33 ****         4.1691  -2.3139  -0.2268 H              1 S1                 0.0000
     34 ****         1.8348  -1.8948  -1.2117 H              1 S1                 0.0000
     35 ****         1.3702  -1.1251   0.2785 H              1 S1                 0.0000
     36 ****        -0.1009  -0.3921  -1.6034 H              1 S1                 0.0000
     37 ****         1.2949   0.0931  -2.5107 H              1 S1                 0.0000
     38 ****        -2.2006  -2.9844   1.4918 H              1 S1                 0.0000
     39 ****        -3.9192  -2.6839   1.7026 H              1 S1                 0.0000
     40 ****        -2.7784  -2.0898   2.8997 H              1 S1                 0.0000
     41 ****        -4.2326   1.2579  -0.8892 LP             1 S1                 0.0000
     42 ****         0.2745   3.2555  -1.5066 LP             1 S1                 0.0000
     43 ****        -0.6507   2.0301  -2.0623 LP             1 S1                 0.0000
     44 ****         0.3486  -0.2542   1.9438 LP             1 S1                 0.0000
     45 ****        -0.6793  -1.5617   2.4273 LP             1 S1                 0.0000
@<TRIPOS>BOND
    1    1    2 1     
    2    1   19 1     
    3    1   20 1     
    4    1   21 1     
    5    2   17 2     
    6    2    3 1     
    7    3    4 2     
    8    4    5 1     
    9    4   22 1     
   10    5    6 1     
   11    5   15 am    
   12    6    7 1     
   13    6   23 1     
   14    6   24 1     
   15    7   14 1     
   16    7    8 1     
   17    7    9 1     
   18    8   25 1     
   19    9   10 1     
   20    9   26 1     
   21    9   27 1     
   22   10   11 1     
   23   10   28 1     
   24   10   29 1     
   25   11   12 1     
   26   11   13 1     
   27   11   30 1     
   28   12   31 1     
   29   12   32 1     
   30   12   33 1     
   31   13   14 1     
   32   13   34 1     
   33   13   35 1     
   34   14   36 1     
   35   14   37 1     
   36   15   16 2     
   37   15   17 1     
   38   17   18 1     
   39   18   38 1     
   40   18   39 1     
   41   18   40 1     
   42    3   41 1     
   43    8   42 1     
   44    8   43 1     
   45   16   44 1     
   46   16   45 1     
@<TRIPOS>SUBSTRUCTURE
      1 S1             1
@<TRIPOS>SET
LONE_PAIRS      STATIC     ATOMS    <user>   **** ""
5 41 42 43 44 45
DONOR_HYDROGENS      STATIC     ATOMS    <user>   **** ""
1 25
ATOM$BLUE        STATIC     ATOMS    COLORGROUP SYSTEM
5 41 42 43 44 45
ATOM$RED        STATIC     ATOMS    COLORGROUP SYSTEM
1 25
