AV-unprocessed.smi:703|AV-procd|sdf|3433|dock10
  -GOLD-   22720 0423D 1   1.00000     0.00000
 Structure written by MMmdl.
 38 39  0  0  0  0  0  0  0  0  2 V2000
  146.6761  133.3168  151.7736 C   0  0  0  0  0  0  0  0  0  0  0  0
  146.5540  133.9152  153.1816 C   0  0  0  0  0  0  0  0  0  0  0  0
  147.8269  134.5130  153.6498 N   0  3  2  0  0  0  0  0  0  0  0  0
  148.8626  133.5370  154.0545 C   0  0  0  0  0  0  0  0  0  0  0  0
  149.7271  134.2694  155.0793 C   0  0  2  0  0  0  0  0  0  0  0  0
  150.6279  133.3635  155.9353 C   0  0  0  0  0  0  0  0  0  0  0  0
  148.7091  135.1352  155.8320 C   0  0  2  0  0  0  0  0  0  0  0  0
  148.0763  134.3903  156.9277 N   0  0  0  0  0  0  0  0  0  0  0  0
  148.5622  134.5710  158.5740 S   0  0  0  0  0  0  0  0  0  0  0  0
  148.5798  133.2338  159.1873 O   0  0  0  0  0  0  0  0  0  0  0  0
  149.7756  135.4015  158.5650 O   0  0  0  0  0  0  0  0  0  0  0  0
  147.1897  135.5780  159.2975 C   0  0  0  0  0  0  0  0  0  0  0  0
  147.4269  135.8583  160.7555 C   0  0  0  0  0  0  0  0  0  0  0  0
  147.4348  134.9364  161.8390 C   0  0  0  0  0  0  0  0  0  0  0  0
  147.6875  135.7226  162.9261 C   0  0  0  0  0  0  0  0  0  0  0  0
  147.8169  137.0204  162.5535 O   0  0  0  0  0  0  0  0  0  0  0  0
  147.6408  137.0981  161.1674 N   0  0  0  0  0  0  0  0  0  0  0  0
  147.6682  135.4896  154.7551 C   0  0  0  0  0  0  0  0  0  0  0  0
  145.7119  132.9412  151.4306 H   0  0  0  0  0  0  0  0  0  0  0  0
  147.3785  132.4833  151.7492 H   0  0  0  0  0  0  0  0  0  0  0  0
  147.0140  134.0639  151.0552 H   0  0  0  0  0  0  0  0  0  0  0  0
  145.7895  134.6931  153.1638 H   0  0  0  0  0  0  0  0  0  0  0  0
  146.2153  133.1578  153.8902 H   0  0  0  0  0  0  0  0  0  0  0  0
  148.3930  132.6685  154.5198 H   0  0  0  0  0  0  0  0  0  0  0  0
  149.4398  133.1880  153.1977 H   0  0  0  0  0  0  0  0  0  0  0  0
  150.3789  134.9495  154.5279 H   0  0  0  0  0  0  0  0  0  0  0  0
  150.0543  132.6107  156.4764 H   0  0  0  0  0  0  0  0  0  0  0  0
  151.1881  133.9468  156.6656 H   0  0  0  0  0  0  0  0  0  0  0  0
  151.3498  132.8365  155.3112 H   0  0  0  0  0  0  0  0  0  0  0  0
  149.1774  136.0316  156.2384 H   0  0  0  0  0  0  0  0  0  0  0  0
  147.1523  133.9904  156.7654 H   0  0  0  0  0  0  0  0  0  0  0  0
  147.1343  136.5121  158.7379 H   0  0  0  0  0  0  0  0  0  0  0  0
  146.2502  135.0493  159.1382 H   0  0  0  0  0  0  0  0  0  0  0  0
  147.2796  133.8683  161.8224 H   0  0  0  0  0  0  0  0  0  0  0  0
  147.7961  135.5189  163.9811 H   0  0  0  0  0  0  0  0  0  0  0  0
  147.8623  136.4850  154.3547 H   0  0  0  0  0  0  0  0  0  0  0  0
  146.6521  135.5005  155.1537 H   0  0  0  0  0  0  0  0  0  0  0  0
  148.2118  135.0369  152.8769 H   0  0  0  0  0  0  0  0  0  0  0  0
  1  2  1  0  0  0  0
  1 19  1  0  0  0  0
  1 20  1  0  0  0  0
  1 21  1  0  0  0  0
  2  3  1  0  0  0  0
  2 22  1  0  0  0  0
  2 23  1  0  0  0  0
  3 18  1  0  0  0  0
  3  4  1  0  0  0  0
  3 38  1  0  0  0  0
  4  5  1  0  0  0  0
  4 24  1  0  0  0  0
  4 25  1  0  0  0  0
  5  6  1  0  0  0  0
  5  7  1  0  0  0  0
  5 26  1  0  0  0  0
  6 27  1  0  0  0  0
  6 28  1  0  0  0  0
  6 29  1  0  0  0  0
  7  8  1  0  0  0  0
  7 18  1  0  0  0  0
  7 30  1  0  0  0  0
  8  9  1  0  0  0  0
  8 31  1  0  0  0  0
  9 10  2  0  0  0  0
  9 11  2  0  0  0  0
  9 12  1  0  0  0  0
 12 13  1  0  0  0  0
 12 32  1  0  0  0  0
 12 33  1  0  0  0  0
 13 17  2  0  0  0  0
 13 14  1  0  0  0  0
 14 15  2  0  0  0  0
 14 34  1  0  0  0  0
 15 16  1  0  0  0  0
 15 35  1  0  0  0  0
 16 17  1  0  0  0  0
 18 36  1  0  0  0  0
 18 37  1  0  0  0  0
M  CHG  1   3   1
M  END
> <s_m_source_file>
AV-unprocessed.smi

> <i_m_source_file_index>
703

> <i_lp_mmshare_version>
43012

> <i_f3d_flags>
0

> <s_epik_input>
W0NIM11bQ0gyXU4xW0NIMl1bQ0BASF0oW0NIM10pW0NASF0oW0NIMl0xKVtOSF1TKD1PKSg9TylbQ0gyXWMyW2NIXVtjSF1vbjI=

> <s_epik_cmdline>
J2VwaWtfcHl0aG9uJywgJy1waCcsICc3LjAnLCAnLXRuJywgJzgnLCAnLW1hJywgJzIwMCcsICctbWV0YWxfYmluZGluZycsICctaW1hZScsICc8aW5maWxlLm1hZT4nLCAnLW9tYWUnLCAnPG91dGZpbGUubWFlPic=

> <r_epik_Ionization_Penalty>
0.00324529

> <r_epik_Ionization_Penalty_Charging>
0.0019384

> <r_epik_Ionization_Penalty_Neutral>
0.00130689

> <r_epik_State_Penalty>
0.00218682

> <r_epik_Charging_Adjusted_Penalty>
0.00412522

> <i_epik_Tot_Q>
1

> <i_epik_Tot_abs_Q>
1

> <r_epik_Metal_State_Penalty>
0.310831

> <b_epik_Metal_Only>
0

> <s_lp_Force_Field>
OPLS_2005

> <r_lp_Energy>
18.8873

> <b_lp_Chiralities_Consistent>
1

> <s_lp_Variant>
AV-unprocessed.smi:703-8

> <Gold.Version>
5.8.1

> <Gold.Id.Protein>
6NUR|6NUR_protein|mol2

> <Gold.PLP.Fitness>
40.3266

> <Gold.PLP.PLP>
-29.5387

> <Gold.PLP.part.hbond>
-6.3118

> <Gold.PLP.part.metal>
0.0000

> <Gold.PLP.part.buried>
-3.5710

> <Gold.PLP.part.nonpolar>
-19.9135

> <Gold.PLP.part.repulsive>
0.0202

> <Gold.PLP.ligand.clash>
0.0000

> <Gold.PLP.ligand.torsion>
1.0628

> <Gold.PLP.Chemscore.Hbond>
3.9280

> <Gold.PLP.Chemscore.CHOScore>
0.0000

> <Gold.PLP.Chemscore.Metal>
0.0000

> <Gold.Chemscore.Hbonds>
donor molecule, donor type, donor heavy atom, donor atom, acceptor molecule, acceptor atom, score
      L1  H     3    38       P1  7948  2.00
      P1  H  6896  6907       L1    11  1.00
      P1  H  6934  6947       L1    17  0.90

> <Gold.PLP.Chemscore.Internal.Correction>
1.1295

> <Gold.Rescore>
     Score         DG    S(hbond)    S(metal)    S(lipo)     H(rot)  DE(clash)    DE(int)     intcor
     15.74     -16.80       2.81        0.00      53.08       1.68       0.01       1.05       ----

> <Gold.Chemscore.Fitness>
15.7366

> <Gold.Chemscore.DG>
-16.7984

> <Gold.Chemscore.ZeroCoef>
-5.4800

> <Gold.Chemscore.Hbond>
2.8149

> <Gold.Chemscore.Metal>
0.0000

> <Gold.Chemscore.Lipo>
53.0752

> <Gold.Chemscore.Internal_Hbond>
0.0000

> <Gold.Chemscore.DEClash>
0.0073

> <Gold.Chemscore.DEInternal>
1.0545

> <Gold.Chemscore.Rot>
1.6770

> <Gold.Chemscore.Internal.Correction>
   9.000000E+99

> <Gold.Chemscore.Hbonds>
donor molecule, donor type, donor heavy atom, donor atom, acceptor molecule, acceptor atom, score
      L1  H     3    38       P1  7948  0.88
      P1  H  6896  6907       L1    11  0.33
      P1  H  6934  6947       L1    17  0.26

> <Gold.Chemscore.Hbond.Weighted>
-9.4019

> <Gold.Chemscore.Metal.Weighted>
-0.0000

> <Gold.Chemscore.Lipo.Weighted>
-6.2098

> <Gold.Chemscore.Internal_Hbond.Weighted>
0.0000

> <Gold.Chemscore.DEClash.Weighted>
0.0073

> <Gold.Chemscore.DEInternal.Weighted>
1.0545

> <Gold.Chemscore.Rot.Weighted>
4.2932

> <Gold.Chemscore.Internal.Correction.Weighted>
   9.000000E+99

> <Gold.Protein.RotatedTorsions>
[ 6907 6896 6895 6894 ] final  -66.19 input  -60.11 | X-H torsion
[ 7974 7965 7964 7962 ] final -150.82 input  175.53 | X-H torsion
[ 8008 7997 7996 7995 ] final -128.22 input   59.86 | X-H torsion
[ 10167 10162 10161 10158 ] final   64.16 input  -65.29 | X-H torsion
[ 10718 10713 10712 10709 ] final  -93.09 input   66.30 | X-H torsion
[ 10763 10752 10751 10750 ] final    9.43 input  -60.55 | X-H torsion
[ 11005 11000 10999 10996 ] final -139.72 input  -57.11 | X-H torsion

> <Gold.Protein.ActiveResidues>
 VAL166  LYS551  ARG553  GLY616  TRP617  ASP618  TYR619  PRO620  LYS621  CYS622 
 ASP623  PHE694  ASN695  SER759  ASP760  ASP761  ALA762  ILE779  LEU786  VAL792 
 PHE793  MET794  SER795  GLU796  ALA797  LYS798  CYS799  TRP800  GLU811  SER814 

> <Gold.Protein.RotatedAtoms>
  150.7480  134.6056  159.6058 H   0  0  0  0  0  0  0  0  0  0  0  0  # atno 6907 bound_to 6896
  152.3405  134.7138  160.0274 H   0  0  0  0  0  0  0  0  0  0  0  0  # atno 6908 bound_to 6896
  151.7592  133.3296  159.3449 H   0  0  0  0  0  0  0  0  0  0  0  0  # atno 6909 bound_to 6896
  144.7885  140.4881  143.5789 H   0  0  0  0  0  0  0  0  0  0  0  0  # atno 7974 bound_to 7965
  155.2591  140.0435  157.2995 H   0  0  0  0  0  0  0  0  0  0  0  0  # atno 8008 bound_to 7997
  154.5721  140.2377  155.8145 H   0  0  0  0  0  0  0  0  0  0  0  0  # atno 8009 bound_to 7997
  156.2131  140.2993  155.9784 H   0  0  0  0  0  0  0  0  0  0  0  0  # atno 8010 bound_to 7997
  140.1252  144.4694  150.6897 H   0  0  0  0  0  0  0  0  0  0  0  0  # atno 10167 bound_to 10162
  156.0009  130.5013  150.5724 H   0  0  0  0  0  0  0  0  0  0  0  0  # atno 10718 bound_to 10713
  153.2141  135.6873  153.8078 H   0  0  0  0  0  0  0  0  0  0  0  0  # atno 10763 bound_to 10752
  153.7300  135.3254  155.3285 H   0  0  0  0  0  0  0  0  0  0  0  0  # atno 10764 bound_to 10752
  154.8237  135.4633  154.0961 H   0  0  0  0  0  0  0  0  0  0  0  0  # atno 10765 bound_to 10752
  140.8492  134.2307  157.4769 H   0  0  0  0  0  0  0  0  0  0  0  0  # atno 11005 bound_to 11000
  145.5856  139.1492  143.3211 LP  0  0  0  0  0  0  0  0  0  0  0  0  # atno 17320 bound_to 7965
  146.2128  140.5984  142.9052 LP  0  0  0  0  0  0  0  0  0  0  0  0  # atno 17321 bound_to 7965
  140.6849  143.2345  151.5287 LP  0  0  0  0  0  0  0  0  0  0  0  0  # atno 17342 bound_to 10162
  139.5548  144.2304  152.1593 LP  0  0  0  0  0  0  0  0  0  0  0  0  # atno 17343 bound_to 10162
  157.3617  131.0751  151.1631 LP  0  0  0  0  0  0  0  0  0  0  0  0  # atno 17370 bound_to 10713
  157.2413  130.6571  149.5891 LP  0  0  0  0  0  0  0  0  0  0  0  0  # atno 17371 bound_to 10713
  139.8704  134.9674  156.4597 LP  0  0  0  0  0  0  0  0  0  0  0  0  # atno 17394 bound_to 11000
  140.8809  133.7918  155.9466 LP  0  0  0  0  0  0  0  0  0  0  0  0  # atno 17395 bound_to 11000

$$$$
