AV-unprocessed.smi:1686|AV-procd|sdf|6763|dock1
  -GOLD-   22720 7523D 1   1.00000     0.00000
 Structure written by MMmdl.
 41 43  0  0  0  0  0  0  0  0  1 V2000
  145.1342  143.7854  154.4592 C   0  0  0  0  0  0  0  0  0  0  0  0
  145.2202  142.3500  154.8920 C   0  0  0  0  0  0  0  0  0  0  0  0
  144.1090  141.7143  155.2402 N   0  0  0  0  0  0  0  0  0  0  0  0
  144.4903  140.4116  155.5814 O   0  0  0  0  0  0  0  0  0  0  0  0
  145.8309  140.3357  155.4179 C   0  0  0  0  0  0  0  0  0  0  0  0
  146.7152  138.8932  155.7231 Cl  0  0  0  0  0  0  0  0  0  0  0  0
  146.3713  141.5138  154.9897 C   0  0  0  0  0  0  0  0  0  0  0  0
  147.8119  141.8507  154.6875 C   0  0  0  0  0  0  0  0  0  0  0  0
  148.7593  141.3333  155.7769 C   0  0  0  0  0  0  0  0  0  0  0  0
  148.9944  140.1302  155.9021 O   0  0  0  0  0  0  0  0  0  0  0  0
  149.2983  142.2727  156.5688 N   0  0  0  0  0  0  0  0  0  0  0  0
  150.2078  142.0257  157.6858 C   0  0  1  0  0  0  0  0  0  0  0  0
  151.4617  141.3010  157.1634 C   0  0  0  0  0  0  0  0  0  0  0  0
  150.5527  143.3619  158.3881 C   0  0  2  0  0  0  0  0  0  0  0  0
  151.3359  144.3515  157.4906 C   0  0  0  0  0  0  0  0  0  0  0  0
  152.5730  144.6978  158.3377 C   0  0  1  0  0  0  0  0  0  0  0  0
  152.1473  145.5471  159.5490 C   0  0  0  0  0  0  0  0  0  0  0  0
  151.4287  144.5205  160.4441 C   0  0  0  0  0  0  0  0  0  0  0  0
  151.5026  143.2285  159.6076 C   0  0  2  0  0  0  0  0  0  0  0  0
  152.8876  143.3544  158.9813 C   0  0  0  0  0  0  0  0  0  0  0  0
  146.1095  144.1757  154.1694 H   0  0  0  0  0  0  0  0  0  0  0  0
  144.7517  144.4149  155.2629 H   0  0  0  0  0  0  0  0  0  0  0  0
  144.4690  143.8969  153.6025 H   0  0  0  0  0  0  0  0  0  0  0  0
  148.1183  141.4285  153.7301 H   0  0  0  0  0  0  0  0  0  0  0  0
  147.9523  142.9283  154.5986 H   0  0  0  0  0  0  0  0  0  0  0  0
  149.0494  143.2354  156.3938 H   0  0  0  0  0  0  0  0  0  0  0  0
  149.7102  141.3764  158.4083 H   0  0  0  0  0  0  0  0  0  0  0  0
  152.1523  141.0588  157.9706 H   0  0  0  0  0  0  0  0  0  0  0  0
  152.0000  141.9133  156.4391 H   0  0  0  0  0  0  0  0  0  0  0  0
  151.1991  140.3627  156.6736 H   0  0  0  0  0  0  0  0  0  0  0  0
  149.6172  143.8222  158.7108 H   0  0  0  0  0  0  0  0  0  0  0  0
  151.6515  143.8831  156.5575 H   0  0  0  0  0  0  0  0  0  0  0  0
  150.7476  145.2332  157.2336 H   0  0  0  0  0  0  0  0  0  0  0  0
  153.3890  145.1345  157.7613 H   0  0  0  0  0  0  0  0  0  0  0  0
  153.0164  145.9612  160.0614 H   0  0  0  0  0  0  0  0  0  0  0  0
  151.4992  146.3763  159.2632 H   0  0  0  0  0  0  0  0  0  0  0  0
  151.9609  144.3993  161.3884 H   0  0  0  0  0  0  0  0  0  0  0  0
  150.4042  144.8129  160.6763 H   0  0  0  0  0  0  0  0  0  0  0  0
  151.3548  142.3300  160.2066 H   0  0  0  0  0  0  0  0  0  0  0  0
  153.1139  142.5687  158.2588 H   0  0  0  0  0  0  0  0  0  0  0  0
  153.6925  143.4047  159.7169 H   0  0  0  0  0  0  0  0  0  0  0  0
  1  2  1  0  0  0  0
  1 21  1  0  0  0  0
  1 22  1  0  0  0  0
  1 23  1  0  0  0  0
  2  7  1  0  0  0  0
  2  3  2  0  0  0  0
  3  4  1  0  0  0  0
  4  5  1  0  0  0  0
  5  6  1  0  0  0  0
  5  7  2  0  0  0  0
  7  8  1  0  0  0  0
  8  9  1  0  0  0  0
  8 24  1  0  0  0  0
  8 25  1  0  0  0  0
  9 10  2  0  0  0  0
  9 11  1  0  0  0  0
 11 12  1  0  0  0  0
 11 26  1  0  0  0  0
 12 13  1  0  0  0  0
 12 14  1  0  0  0  0
 12 27  1  0  0  0  0
 13 28  1  0  0  0  0
 13 29  1  0  0  0  0
 13 30  1  0  0  0  0
 14 19  1  0  0  0  0
 14 15  1  0  0  0  0
 14 31  1  0  0  0  0
 15 16  1  0  0  0  0
 15 32  1  0  0  0  0
 15 33  1  0  0  0  0
 16 20  1  0  0  0  0
 16 17  1  0  0  0  0
 16 34  1  0  0  0  0
 17 18  1  0  0  0  0
 17 35  1  0  0  0  0
 17 36  1  0  0  0  0
 18 19  1  0  0  0  0
 18 37  1  0  0  0  0
 18 38  1  0  0  0  0
 19 20  1  0  0  0  0
 19 39  1  0  0  0  0
 20 40  1  0  0  0  0
 20 41  1  0  0  0  0
M  END
> <s_m_source_file>
AV-unprocessed.smi

> <i_m_source_file_index>
1686

> <i_lp_mmshare_version>
43012

> <i_f3d_flags>
0

> <s_epik_input>
W0NIM11jMW5vYyhDbCljMVtDSDJdQyg9TylbTkhdW0NASF0oW0NIM10pW0NASF0oW0NIMl1bQ0BIXTIzKVtDQEhdKFtDSDJdMylbQ0gyXVtDSDJdMg==

> <s_epik_cmdline>
J2VwaWtfcHl0aG9uJywgJy1waCcsICc3LjAnLCAnLXRuJywgJzgnLCAnLW1hJywgJzIwMCcsICctbWV0YWxfYmluZGluZycsICctaW1hZScsICc8aW5maWxlLm1hZT4nLCAnLW9tYWUnLCAnPG91dGZpbGUubWFlPic=

> <r_lp_tautomer_probability>
1

> <r_epik_Ionization_Penalty>
2.01576e-08

> <r_epik_Ionization_Penalty_Charging>
0

> <r_epik_Ionization_Penalty_Neutral>
2.01576e-08

> <r_epik_State_Penalty>
-0

> <r_epik_Charging_Adjusted_Penalty>
0

> <i_epik_Tot_Q>
0

> <i_epik_Tot_abs_Q>
0

> <r_epik_Metal_State_Penalty>
-0

> <b_epik_Metal_Only>
0

> <s_lp_Force_Field>
OPLS_2005

> <r_lp_Energy>
46.9039

> <b_lp_Chiralities_Consistent>
1

> <s_lp_Variant>
AV-unprocessed.smi:1686-6

> <Gold.Version>
5.8.1

> <Gold.Id.Protein>
6NUR|6NUR_protein|mol2

> <Gold.PLP.Fitness>
40.7475

> <Gold.PLP.PLP>
-38.3658

> <Gold.PLP.part.hbond>
-1.0000

> <Gold.PLP.part.metal>
0.0000

> <Gold.PLP.part.buried>
-3.7800

> <Gold.PLP.part.nonpolar>
-33.9215

> <Gold.PLP.part.repulsive>
0.5998

> <Gold.PLP.ligand.clash>
0.0000

> <Gold.PLP.ligand.torsion>
0.3222

> <Gold.PLP.Chemscore.Hbond>
1.0000

> <Gold.PLP.Chemscore.CHOScore>
0.0000

> <Gold.PLP.Chemscore.Metal>
0.0000

> <Gold.Chemscore.Hbonds>
donor molecule, donor type, donor heavy atom, donor atom, acceptor molecule, acceptor atom, score
      L1  H    11    26       P1  8028  1.00

> <Gold.PLP.Chemscore.Internal.Correction>
0.0261

> <Gold.Rescore>
     Score         DG    S(hbond)    S(metal)    S(lipo)     H(rot)  DE(clash)    DE(int)     intcor
     16.99     -18.57       0.98        0.00     115.89       1.46       0.02       1.56       ----

> <Gold.Chemscore.Fitness>
16.9896

> <Gold.Chemscore.DG>
-18.5699

> <Gold.Chemscore.ZeroCoef>
-5.4800

> <Gold.Chemscore.Hbond>
0.9824

> <Gold.Chemscore.Metal>
0.0000

> <Gold.Chemscore.Lipo>
115.8852

> <Gold.Chemscore.Internal_Hbond>
0.0000

> <Gold.Chemscore.DEClash>
0.0236

> <Gold.Chemscore.DEInternal>
1.5567

> <Gold.Chemscore.Rot>
1.4648

> <Gold.Chemscore.Internal.Correction>
   9.000000E+99

> <Gold.Chemscore.Hbonds>
donor molecule, donor type, donor heavy atom, donor atom, acceptor molecule, acceptor atom, score
      L1  H    11    26       P1  8028  0.99

> <Gold.Chemscore.Hbond.Weighted>
-3.2813

> <Gold.Chemscore.Metal.Weighted>
-0.0000

> <Gold.Chemscore.Lipo.Weighted>
-13.5586

> <Gold.Chemscore.Internal_Hbond.Weighted>
0.0000

> <Gold.Chemscore.DEClash.Weighted>
0.0236

> <Gold.Chemscore.DEInternal.Weighted>
1.5567

> <Gold.Chemscore.Rot.Weighted>
3.7500

> <Gold.Chemscore.Internal.Correction.Weighted>
   9.000000E+99

> <Gold.Protein.RotatedTorsions>
[ 6907 6896 6895 6894 ] final   87.12 input  -60.11 | X-H torsion
[ 7974 7965 7964 7962 ] final  145.06 input  175.53 | X-H torsion
[ 8008 7997 7996 7995 ] final  -93.45 input   59.86 | X-H torsion
[ 10167 10162 10161 10158 ] final -177.29 input  -65.29 | X-H torsion
[ 10718 10713 10712 10709 ] final  144.32 input   66.30 | X-H torsion
[ 10763 10752 10751 10750 ] final  155.28 input  -60.55 | X-H torsion
[ 11005 11000 10999 10996 ] final -174.85 input  -57.11 | X-H torsion

> <Gold.Protein.ActiveResidues>
 VAL166  LYS551  ARG553  GLY616  TRP617  ASP618  TYR619  PRO620  LYS621  CYS622 
 ASP623  PHE694  ASN695  SER759  ASP760  ASP761  ALA762  ILE779  LEU786  VAL792 
 PHE793  MET794  SER795  GLU796  ALA797  LYS798  CYS799  TRP800  GLU811  SER814 

> <Gold.Protein.RotatedAtoms>
  152.5406  134.2325  159.8830 H   0  0  0  0  0  0  0  0  0  0  0  0  # atno 6907 bound_to 6896
  151.2297  133.4450  159.2611 H   0  0  0  0  0  0  0  0  0  0  0  0  # atno 6908 bound_to 6896
  151.0727  134.9822  159.8373 H   0  0  0  0  0  0  0  0  0  0  0  0  # atno 6909 bound_to 6896
  144.8784  139.5737  143.5854 H   0  0  0  0  0  0  0  0  0  0  0  0  # atno 7974 bound_to 7965
  154.7358  140.0499  157.0767 H   0  0  0  0  0  0  0  0  0  0  0  0  # atno 8008 bound_to 7997
  155.0243  140.3150  155.4762 H   0  0  0  0  0  0  0  0  0  0  0  0  # atno 8009 bound_to 7997
  156.2852  140.2161  156.5362 H   0  0  0  0  0  0  0  0  0  0  0  0  # atno 8010 bound_to 7997
  139.5487  144.2166  152.1037 H   0  0  0  0  0  0  0  0  0  0  0  0  # atno 10167 bound_to 10162
  157.3585  131.0961  151.0936 H   0  0  0  0  0  0  0  0  0  0  0  0  # atno 10718 bound_to 10713
  154.1659  135.2807  155.3095 H   0  0  0  0  0  0  0  0  0  0  0  0  # atno 10763 bound_to 10752
  154.6112  135.5498  153.7478 H   0  0  0  0  0  0  0  0  0  0  0  0  # atno 10764 bound_to 10752
  153.0179  135.6416  154.1800 H   0  0  0  0  0  0  0  0  0  0  0  0  # atno 10765 bound_to 10752
  140.4698  134.6176  157.4877 H   0  0  0  0  0  0  0  0  0  0  0  0  # atno 11005 bound_to 11000
  146.2978  139.7331  142.9114 LP  0  0  0  0  0  0  0  0  0  0  0  0  # atno 17320 bound_to 7965
  145.4000  141.0384  143.3076 LP  0  0  0  0  0  0  0  0  0  0  0  0  # atno 17321 bound_to 7965
  140.1657  144.4983  150.6607 LP  0  0  0  0  0  0  0  0  0  0  0  0  # atno 17342 bound_to 10162
  140.6744  143.2299  151.5545 LP  0  0  0  0  0  0  0  0  0  0  0  0  # atno 17343 bound_to 10162
  157.2085  130.6427  149.5765 LP  0  0  0  0  0  0  0  0  0  0  0  0  # atno 17370 bound_to 10713
  155.9733  130.4668  150.6301 LP  0  0  0  0  0  0  0  0  0  0  0  0  # atno 17371 bound_to 10713
  139.9892  134.7012  155.9719 LP  0  0  0  0  0  0  0  0  0  0  0  0  # atno 17394 bound_to 11000
  141.1582  133.6541  156.4231 LP  0  0  0  0  0  0  0  0  0  0  0  0  # atno 17395 bound_to 11000

$$$$
