AV-unprocessed.smi:2160|AV-procd|sdf|8797|dock6
  -GOLD-   2272011583D 1   1.00000     0.00000
 Structure written by MMmdl.
 43 45  0  0  0  0  0  0  0  0  1 V2000
  153.3268  142.8585  161.8653 C   0  0  0  0  0  0  0  0  0  0  0  0
  152.9412  143.6465  160.7485 O   0  0  0  0  0  0  0  0  0  0  0  0
  152.4226  143.0002  159.6469 C   0  0  0  0  0  0  0  0  0  0  0  0
  152.3777  141.5912  159.4976 C   0  0  0  0  0  0  0  0  0  0  0  0
  151.8292  141.0138  158.3357 C   0  0  0  0  0  0  0  0  0  0  0  0
  151.3117  141.8297  157.3098 C   0  0  0  0  0  0  0  0  0  0  0  0
  150.7411  141.1980  156.0536 C   0  0  0  0  0  0  0  0  0  0  0  0
  151.6338  140.2606  155.4743 O   0  0  0  0  0  0  0  0  0  0  0  0
  150.9747  139.2665  154.7079 C   0  0  0  0  0  0  0  0  0  0  0  0
  151.3670  137.8843  155.2486 C   0  0  2  0  0  0  0  0  0  0  0  0
  152.6479  137.5497  154.7520 O   0  0  0  0  0  0  0  0  0  0  0  0
  150.3542  136.7900  154.8589 C   0  0  0  0  0  0  0  0  0  0  0  0
  150.5375  135.5717  155.6260 N   0  0  0  0  0  0  0  0  0  0  0  0
  151.1082  135.4470  156.8397 C   0  0  0  0  0  0  0  0  0  0  0  0
  151.1709  134.2244  157.3607 N   0  0  0  0  0  0  0  0  0  0  0  0
  150.5701  133.4673  156.3693 C   0  0  0  0  0  0  0  0  0  0  0  0
  150.3189  132.0781  156.2998 C   0  0  0  0  0  0  0  0  0  0  0  0
  149.6829  131.5226  155.1696 C   0  0  0  0  0  0  0  0  0  0  0  0
  149.2892  132.3449  154.0939 C   0  0  0  0  0  0  0  0  0  0  0  0
  149.5289  133.7317  154.1403 C   0  0  0  0  0  0  0  0  0  0  0  0
  150.1634  134.2814  155.2696 C   0  0  0  0  0  0  0  0  0  0  0  0
  151.3625  143.2319  157.4493 C   0  0  0  0  0  0  0  0  0  0  0  0
  151.9111  143.8083  158.6110 C   0  0  0  0  0  0  0  0  0  0  0  0
  153.7122  143.5100  162.6494 H   0  0  0  0  0  0  0  0  0  0  0  0
  154.1185  142.1552  161.6032 H   0  0  0  0  0  0  0  0  0  0  0  0
  152.4789  142.3113  162.2794 H   0  0  0  0  0  0  0  0  0  0  0  0
  152.7598  140.9299  160.2602 H   0  0  0  0  0  0  0  0  0  0  0  0
  151.8069  139.9386  158.2359 H   0  0  0  0  0  0  0  0  0  0  0  0
  149.8021  140.7073  156.3142 H   0  0  0  0  0  0  0  0  0  0  0  0
  150.5116  141.9801  155.3279 H   0  0  0  0  0  0  0  0  0  0  0  0
  149.8926  139.4016  154.7521 H   0  0  0  0  0  0  0  0  0  0  0  0
  151.2763  139.3605  153.6632 H   0  0  0  0  0  0  0  0  0  0  0  0
  151.4428  137.9414  156.3354 H   0  0  0  0  0  0  0  0  0  0  0  0
  153.1335  138.3479  154.6109 H   0  0  0  0  0  0  0  0  0  0  0  0
  149.3352  137.1411  155.0260 H   0  0  0  0  0  0  0  0  0  0  0  0
  150.4309  136.5535  153.7966 H   0  0  0  0  0  0  0  0  0  0  0  0
  151.4981  136.3026  157.3715 H   0  0  0  0  0  0  0  0  0  0  0  0
  150.6156  131.4387  157.1177 H   0  0  0  0  0  0  0  0  0  0  0  0
  149.4961  130.4595  155.1283 H   0  0  0  0  0  0  0  0  0  0  0  0
  148.8027  131.9109  153.2326 H   0  0  0  0  0  0  0  0  0  0  0  0
  149.2285  134.3661  153.3197 H   0  0  0  0  0  0  0  0  0  0  0  0
  150.9819  143.8731  156.6679 H   0  0  0  0  0  0  0  0  0  0  0  0
  151.9414  144.8838  158.7071 H   0  0  0  0  0  0  0  0  0  0  0  0
  1  2  1  0  0  0  0
  1 24  1  0  0  0  0
  1 25  1  0  0  0  0
  1 26  1  0  0  0  0
  2  3  1  0  0  0  0
  3 23  1  0  0  0  0
  3  4  2  0  0  0  0
  4  5  1  0  0  0  0
  4 27  1  0  0  0  0
  5  6  2  0  0  0  0
  5 28  1  0  0  0  0
  6  7  1  0  0  0  0
  6 22  1  0  0  0  0
  7  8  1  0  0  0  0
  7 29  1  0  0  0  0
  7 30  1  0  0  0  0
  8  9  1  0  0  0  0
  9 10  1  0  0  0  0
  9 31  1  0  0  0  0
  9 32  1  0  0  0  0
 10 11  1  0  0  0  0
 10 12  1  0  0  0  0
 10 33  1  0  0  0  0
 11 34  1  0  0  0  0
 12 13  1  0  0  0  0
 12 35  1  0  0  0  0
 12 36  1  0  0  0  0
 13 21  1  0  0  0  0
 13 14  1  0  0  0  0
 14 15  2  0  0  0  0
 14 37  1  0  0  0  0
 15 16  1  0  0  0  0
 16 21  2  0  0  0  0
 16 17  1  0  0  0  0
 17 18  2  0  0  0  0
 17 38  1  0  0  0  0
 18 19  1  0  0  0  0
 18 39  1  0  0  0  0
 19 20  2  0  0  0  0
 19 40  1  0  0  0  0
 20 21  1  0  0  0  0
 20 41  1  0  0  0  0
 22 23  2  0  0  0  0
 22 42  1  0  0  0  0
 23 43  1  0  0  0  0
M  END
> <s_m_source_file>
AV-unprocessed.smi

> <i_m_source_file_index>
2160

> <i_lp_mmshare_version>
43012

> <i_f3d_flags>
0

> <s_epik_input>
W0NIM11PYzFbY0hdW2NIXWMoW2NIXVtjSF0xKVtDSDJdT1tDSDJdW0NASF0oW09IXSlbQ0gyXW4oW2NIXW4yKWMoYzIzKVtjSF1bY0hdW2NIXVtjSF0z

> <s_epik_cmdline>
J2VwaWtfcHl0aG9uJywgJy1waCcsICc3LjAnLCAnLXRuJywgJzgnLCAnLW1hJywgJzIwMCcsICctbWV0YWxfYmluZGluZycsICctaW1hZScsICc8aW5maWxlLm1hZT4nLCAnLW9tYWUnLCAnPG91dGZpbGUubWFlPic=

> <r_lp_tautomer_probability>
1

> <r_epik_Ionization_Penalty>
0.0713119

> <r_epik_Ionization_Penalty_Charging>
0

> <r_epik_Ionization_Penalty_Neutral>
0.0713119

> <r_epik_State_Penalty>
0.06259

> <r_epik_Charging_Adjusted_Penalty>
0.06259

> <i_epik_Tot_Q>
0

> <i_epik_Tot_abs_Q>
0

> <r_epik_Metal_State_Penalty>
6.60119e-05

> <b_epik_Metal_Only>
0

> <s_lp_Force_Field>
OPLS_2005

> <r_lp_Energy>
16.653

> <b_lp_Chiralities_Consistent>
1

> <s_lp_Variant>
AV-unprocessed.smi:2160-1

> <Gold.Version>
5.8.1

> <Gold.Id.Protein>
6NUR|6NUR_protein|mol2

> <Gold.PLP.Fitness>
50.5680

> <Gold.PLP.PLP>
-50.0548

> <Gold.PLP.part.hbond>
-3.0000

> <Gold.PLP.part.metal>
0.0000

> <Gold.PLP.part.buried>
-4.4977

> <Gold.PLP.part.nonpolar>
-42.5823

> <Gold.PLP.part.repulsive>
0.0655

> <Gold.PLP.ligand.clash>
0.0000

> <Gold.PLP.ligand.torsion>
1.2463

> <Gold.PLP.Chemscore.Hbond>
0.9640

> <Gold.PLP.Chemscore.CHOScore>
0.0000

> <Gold.PLP.Chemscore.Metal>
0.0000

> <Gold.Chemscore.Hbonds>
donor molecule, donor type, donor heavy atom, donor atom, acceptor molecule, acceptor atom, score
      P1  H  6896  6907       L1    15  0.34
      P1  H 10752 10764       L1    11  0.50

> <Gold.PLP.Chemscore.Internal.Correction>
0.1139

> <Gold.Rescore>
     Score         DG    S(hbond)    S(metal)    S(lipo)     H(rot)  DE(clash)    DE(int)     intcor
     17.54     -19.15       1.72        0.00     125.19       2.63       0.24       1.37       ----

> <Gold.Chemscore.Fitness>
17.5404

> <Gold.Chemscore.DG>
-19.1512

> <Gold.Chemscore.ZeroCoef>
-5.4800

> <Gold.Chemscore.Hbond>
1.7241

> <Gold.Chemscore.Metal>
0.0000

> <Gold.Chemscore.Lipo>
125.1921

> <Gold.Chemscore.Internal_Hbond>
0.0000

> <Gold.Chemscore.DEClash>
0.2413

> <Gold.Chemscore.DEInternal>
1.3695

> <Gold.Chemscore.Rot>
2.6308

> <Gold.Chemscore.Internal.Correction>
   9.000000E+99

> <Gold.Chemscore.Hbonds>
donor molecule, donor type, donor heavy atom, donor atom, acceptor molecule, acceptor atom, score
      P1  H  6896  6907       L1    15  0.33
      P1  H 10752 10764       L1    11  0.47

> <Gold.Chemscore.Hbond.Weighted>
-5.7585

> <Gold.Chemscore.Metal.Weighted>
-0.0000

> <Gold.Chemscore.Lipo.Weighted>
-14.6475

> <Gold.Chemscore.Internal_Hbond.Weighted>
0.0000

> <Gold.Chemscore.DEClash.Weighted>
0.2413

> <Gold.Chemscore.DEInternal.Weighted>
1.3695

> <Gold.Chemscore.Rot.Weighted>
6.7347

> <Gold.Chemscore.Internal.Correction.Weighted>
   9.000000E+99

> <Gold.Protein.RotatedTorsions>
[ 6907 6896 6895 6894 ] final -122.45 input  -60.11 | X-H torsion
[ 7974 7965 7964 7962 ] final -174.99 input  175.53 | X-H torsion
[ 8008 7997 7996 7995 ] final  -40.52 input   59.86 | X-H torsion
[ 10167 10162 10161 10158 ] final   14.73 input  -65.29 | X-H torsion
[ 10718 10713 10712 10709 ] final  102.11 input   66.30 | X-H torsion
[ 10763 10752 10751 10750 ] final  -73.76 input  -60.55 | X-H torsion
[ 11005 11000 10999 10996 ] final   61.79 input  -57.11 | X-H torsion

> <Gold.Protein.ActiveResidues>
 VAL166  LYS551  ARG553  GLY616  TRP617  ASP618  TYR619  PRO620  LYS621  CYS622 
 ASP623  PHE694  ASN695  SER759  ASP760  ASP761  ALA762  ILE779  LEU786  VAL792 
 PHE793  MET794  SER795  GLU796  ALA797  LYS798  CYS799  TRP800  GLU811  SER814 

> <Gold.Protein.RotatedAtoms>
  150.8577  133.7690  159.3002 H   0  0  0  0  0  0  0  0  0  0  0  0  # atno 6907 bound_to 6896
  151.5342  135.1067  159.9920 H   0  0  0  0  0  0  0  0  0  0  0  0  # atno 6908 bound_to 6896
  152.4602  133.7763  159.6882 H   0  0  0  0  0  0  0  0  0  0  0  0  # atno 6909 bound_to 6896
  144.7129  140.1388  143.6393 H   0  0  0  0  0  0  0  0  0  0  0  0  # atno 7974 bound_to 7965
  154.4011  140.1523  156.3040 H   0  0  0  0  0  0  0  0  0  0  0  0  # atno 8008 bound_to 7997
  155.8675  140.3450  155.5776 H   0  0  0  0  0  0  0  0  0  0  0  0  # atno 8009 bound_to 7997
  155.7812  140.0843  157.2049 H   0  0  0  0  0  0  0  0  0  0  0  0  # atno 8010 bound_to 7997
  140.5916  143.8784  150.6879 H   0  0  0  0  0  0  0  0  0  0  0  0  # atno 10167 bound_to 10162
  157.6811  131.0744  150.5355 H   0  0  0  0  0  0  0  0  0  0  0  0  # atno 10718 bound_to 10713
  154.4638  135.5887  153.6274 H   0  0  0  0  0  0  0  0  0  0  0  0  # atno 10763 bound_to 10752
  152.9826  135.6050  154.3452 H   0  0  0  0  0  0  0  0  0  0  0  0  # atno 10764 bound_to 10752
  154.3327  135.2842  155.2442 H   0  0  0  0  0  0  0  0  0  0  0  0  # atno 10765 bound_to 10752
  140.0136  134.6258  155.9742 H   0  0  0  0  0  0  0  0  0  0  0  0  # atno 11005 bound_to 11000
  145.9220  139.2552  143.1375 LP  0  0  0  0  0  0  0  0  0  0  0  0  # atno 17320 bound_to 7965
  145.9610  140.8835  143.0211 LP  0  0  0  0  0  0  0  0  0  0  0  0  # atno 17321 bound_to 7965
  140.2309  143.3737  152.1567 LP  0  0  0  0  0  0  0  0  0  0  0  0  # atno 17342 bound_to 10162
  139.5231  144.7067  151.5332 LP  0  0  0  0  0  0  0  0  0  0  0  0  # atno 17343 bound_to 10162
  156.5663  130.4268  149.6040 LP  0  0  0  0  0  0  0  0  0  0  0  0  # atno 17370 bound_to 10713
  156.2778  130.7054  151.1869 LP  0  0  0  0  0  0  0  0  0  0  0  0  # atno 17371 bound_to 10713
  141.1728  133.6538  156.4715 LP  0  0  0  0  0  0  0  0  0  0  0  0  # atno 17394 bound_to 11000
  140.4510  134.6929  157.5039 LP  0  0  0  0  0  0  0  0  0  0  0  0  # atno 17395 bound_to 11000

$$$$
