AV-unprocessed.smi:3018|AV-procd|sdf|11484|dock7
  -GOLD-   2272016423D 1   1.00000     0.00000
 Structure written by MMmdl.
 44 45  0  0  0  0  0  0  0  0  2 V2000
  153.1968  137.6068  160.5148 C   0  0  0  0  0  0  0  0  0  0  0  0
  154.0881  138.8407  160.3271 C   0  0  0  0  0  0  0  0  0  0  0  0
  153.2861  140.1036  159.9619 C   0  0  1  0  0  0  0  0  0  0  0  0
  154.2127  141.1679  159.7521 O   0  0  0  0  0  0  0  0  0  0  0  0
  153.7341  142.4852  160.0109 C   0  0  0  0  0  0  0  0  0  0  0  0
  153.0585  142.4682  161.3929 C   0  0  0  0  0  0  0  0  0  0  0  0
  152.4245  143.8289  161.7249 C   0  0  0  0  0  0  0  0  0  0  0  0
  151.4277  144.2577  160.6365 C   0  0  0  0  0  0  0  0  0  0  0  0
  152.0916  144.2717  159.2503 C   0  0  0  0  0  0  0  0  0  0  0  0
  152.7279  142.9111  158.9222 C   0  0  0  0  0  0  0  0  0  0  0  0
  152.4555  139.8829  158.6887 C   0  0  0  0  0  0  0  0  0  0  0  0
  153.0008  139.5024  157.6527 O   0  0  0  0  0  0  0  0  0  0  0  0
  151.1396  140.1290  158.7876 N   0  0  0  0  0  0  0  0  0  0  0  0
  150.1533  139.9236  157.7295 C   0  0  0  0  0  0  0  0  0  0  0  0
  149.9133  141.2060  156.9073 C   0  0  0  0  0  0  0  0  0  0  0  0
  149.3537  140.9227  155.5369 C   0  0  0  0  0  0  0  0  0  0  0  0
  149.9865  140.3930  154.5570 N   0  0  0  0  0  0  0  0  0  0  0  0
  149.0671  140.3756  153.5785 N   0  0  0  0  0  0  0  0  0  0  0  0
  147.9024  140.8876  153.9826 C   0  0  0  0  0  0  0  0  0  0  0  0
  146.9116  140.9750  153.2604 O   0  0  0  0  0  0  0  0  0  0  0  0
  148.0625  141.2516  155.2674 N   0  5  0  0  0  0  0  0  0  0  0  0
  149.2988  140.0050  152.6686 H   0  0  0  0  0  0  0  0  0  0  0  0
  153.7959  136.7292  160.7581 H   0  0  0  0  0  0  0  0  0  0  0  0
  152.6356  137.3849  159.6067 H   0  0  0  0  0  0  0  0  0  0  0  0
  152.4811  137.7556  161.3238 H   0  0  0  0  0  0  0  0  0  0  0  0
  154.6628  139.0124  161.2385 H   0  0  0  0  0  0  0  0  0  0  0  0
  154.8160  138.6280  159.5422 H   0  0  0  0  0  0  0  0  0  0  0  0
  152.6185  140.3370  160.7927 H   0  0  0  0  0  0  0  0  0  0  0  0
  154.5563  143.2009  160.0467 H   0  0  0  0  0  0  0  0  0  0  0  0
  152.2910  141.6934  161.4176 H   0  0  0  0  0  0  0  0  0  0  0  0
  153.7890  142.2038  162.1583 H   0  0  0  0  0  0  0  0  0  0  0  0
  151.9212  143.7790  162.6907 H   0  0  0  0  0  0  0  0  0  0  0  0
  153.2073  144.5826  161.8218 H   0  0  0  0  0  0  0  0  0  0  0  0
  150.5795  143.5721  160.6279 H   0  0  0  0  0  0  0  0  0  0  0  0
  151.0255  145.2447  160.8670 H   0  0  0  0  0  0  0  0  0  0  0  0
  151.3555  144.5313  158.4890 H   0  0  0  0  0  0  0  0  0  0  0  0
  152.8564  145.0488  159.2195 H   0  0  0  0  0  0  0  0  0  0  0  0
  153.2147  142.9676  157.9490 H   0  0  0  0  0  0  0  0  0  0  0  0
  151.9460  142.1558  158.8321 H   0  0  0  0  0  0  0  0  0  0  0  0
  150.7868  140.4438  159.6793 H   0  0  0  0  0  0  0  0  0  0  0  0
  150.5453  139.1481  157.0714 H   0  0  0  0  0  0  0  0  0  0  0  0
  149.2113  139.5350  158.1212 H   0  0  0  0  0  0  0  0  0  0  0  0
  149.2426  141.8735  157.4496 H   0  0  0  0  0  0  0  0  0  0  0  0
  150.8549  141.7479  156.8092 H   0  0  0  0  0  0  0  0  0  0  0  0
  1  2  1  0  0  0  0
  1 23  1  0  0  0  0
  1 24  1  0  0  0  0
  1 25  1  0  0  0  0
  2  3  1  0  0  0  0
  2 26  1  0  0  0  0
  2 27  1  0  0  0  0
  3  4  1  0  0  0  0
  3 11  1  0  0  0  0
  3 28  1  0  0  0  0
  4  5  1  0  0  0  0
  5 10  1  0  0  0  0
  5  6  1  0  0  0  0
  5 29  1  0  0  0  0
  6  7  1  0  0  0  0
  6 30  1  0  0  0  0
  6 31  1  0  0  0  0
  7  8  1  0  0  0  0
  7 32  1  0  0  0  0
  7 33  1  0  0  0  0
  8  9  1  0  0  0  0
  8 34  1  0  0  0  0
  8 35  1  0  0  0  0
  9 10  1  0  0  0  0
  9 36  1  0  0  0  0
  9 37  1  0  0  0  0
 10 38  1  0  0  0  0
 10 39  1  0  0  0  0
 11 12  2  0  0  0  0
 11 13  1  0  0  0  0
 13 14  1  0  0  0  0
 13 40  1  0  0  0  0
 14 15  1  0  0  0  0
 14 41  1  0  0  0  0
 14 42  1  0  0  0  0
 15 16  1  0  0  0  0
 15 43  1  0  0  0  0
 15 44  1  0  0  0  0
 16 21  1  0  0  0  0
 16 17  2  0  0  0  0
 17 18  1  0  0  0  0
 18 22  1  0  0  0  0
 18 19  1  0  0  0  0
 19 20  2  0  0  0  0
 19 21  1  0  0  0  0
M  CHG  1  21  -1
M  END
> <s_m_source_file>
AV-unprocessed.smi

> <i_m_source_file_index>
3018

> <i_lp_mmshare_version>
43012

> <i_f3d_flags>
0

> <s_epik_input>
W0NIMl0xW0NIMl1bQ0gyXVtDSDJdW0NIMl1bQ0hdMU9bQ0BASF0oW0NIMl1bQ0gzXSlDKD1PKVtOSF1bQ0gyXVtDSDJdYzJuW25IXWMoPU8pW25IXTI=

> <s_epik_cmdline>
J2VwaWtfcHl0aG9uJywgJy1waCcsICc3LjAnLCAnLXRuJywgJzgnLCAnLW1hJywgJzIwMCcsICctbWV0YWxfYmluZGluZycsICctaW1hZScsICc8aW5maWxlLm1hZT4nLCAnLW9tYWUnLCAnPG91dGZpbGUubWFlPic=

> <r_lp_tautomer_probability>
1

> <r_epik_Ionization_Penalty>
13.7173

> <r_epik_Ionization_Penalty_Charging>
13.7173

> <r_epik_Ionization_Penalty_Neutral>
5.37575e-06

> <r_epik_State_Penalty>
4.05785

> <r_epik_Charging_Adjusted_Penalty>
17.7751

> <i_epik_Tot_Q>
-1

> <i_epik_Tot_abs_Q>
1

> <r_epik_Metal_State_Penalty>
0.460256

> <b_epik_Metal_Only>
1

> <s_lp_Force_Field>
OPLS_2005

> <r_lp_Energy>
25.1559

> <b_lp_Chiralities_Consistent>
1

> <s_lp_Variant>
AV-unprocessed.smi:3018-6

> <Gold.Version>
5.8.1

> <Gold.Id.Protein>
6NUR|6NUR_protein|mol2

> <Gold.PLP.Fitness>
49.4507

> <Gold.PLP.PLP>
-42.3892

> <Gold.PLP.part.hbond>
-2.9493

> <Gold.PLP.part.metal>
0.0000

> <Gold.PLP.part.buried>
-7.7510

> <Gold.PLP.part.nonpolar>
-32.6587

> <Gold.PLP.part.repulsive>
0.7722

> <Gold.PLP.ligand.clash>
0.0000

> <Gold.PLP.ligand.torsion>
0.8446

> <Gold.PLP.Chemscore.Hbond>
2.8640

> <Gold.PLP.Chemscore.CHOScore>
0.0000

> <Gold.PLP.Chemscore.Metal>
0.0000

> <Gold.Chemscore.Hbonds>
donor molecule, donor type, donor heavy atom, donor atom, acceptor molecule, acceptor atom, score
      L1  H    18    22       P1  7957  1.00
      P1  H  7989  7998       L1    17  0.93
      P1  H  7997  8009       L1    12  1.00

> <Gold.PLP.Chemscore.Internal.Correction>
0.1588

> <Gold.Rescore>
     Score         DG    S(hbond)    S(metal)    S(lipo)     H(rot)  DE(clash)    DE(int)     intcor
     16.54     -17.51       2.36        0.00     100.54       2.98       0.00       0.96       ----

> <Gold.Chemscore.Fitness>
16.5449

> <Gold.Chemscore.DG>
-17.5115

> <Gold.Chemscore.ZeroCoef>
-5.4800

> <Gold.Chemscore.Hbond>
2.3621

> <Gold.Chemscore.Metal>
0.0000

> <Gold.Chemscore.Lipo>
100.5442

> <Gold.Chemscore.Internal_Hbond>
0.0000

> <Gold.Chemscore.DEClash>
0.0038

> <Gold.Chemscore.DEInternal>
0.9628

> <Gold.Chemscore.Rot>
2.9772

> <Gold.Chemscore.Internal.Correction>
   9.000000E+99

> <Gold.Chemscore.Hbonds>
donor molecule, donor type, donor heavy atom, donor atom, acceptor molecule, acceptor atom, score
      L1  H    18    22       P1  7957  0.93
      P1  H  7989  7998       L1    17  0.22
      P1  H  7997  8009       L1    12  1.00

> <Gold.Chemscore.Hbond.Weighted>
-7.8894

> <Gold.Chemscore.Metal.Weighted>
-0.0000

> <Gold.Chemscore.Lipo.Weighted>
-11.7637

> <Gold.Chemscore.Internal_Hbond.Weighted>
0.0000

> <Gold.Chemscore.DEClash.Weighted>
0.0038

> <Gold.Chemscore.DEInternal.Weighted>
0.9628

> <Gold.Chemscore.Rot.Weighted>
7.6216

> <Gold.Chemscore.Internal.Correction.Weighted>
   9.000000E+99

> <Gold.Protein.RotatedTorsions>
[ 6907 6896 6895 6894 ] final   48.30 input  -60.11 | X-H torsion
[ 7974 7965 7964 7962 ] final  100.21 input  175.53 | X-H torsion
[ 8008 7997 7996 7995 ] final  155.68 input   59.86 | X-H torsion
[ 10167 10162 10161 10158 ] final  153.75 input  -65.29 | X-H torsion
[ 10718 10713 10712 10709 ] final   55.85 input   66.30 | X-H torsion
[ 10763 10752 10751 10750 ] final   42.70 input  -60.55 | X-H torsion
[ 11005 11000 10999 10996 ] final   74.75 input  -57.11 | X-H torsion

> <Gold.Protein.ActiveResidues>
 VAL166  LYS551  ARG553  GLY616  TRP617  ASP618  TYR619  PRO620  LYS621  CYS622 
 ASP623  PHE694  ASN695  SER759  ASP760  ASP761  ALA762  ILE779  LEU786  VAL792 
 PHE793  MET794  SER795  GLU796  ALA797  LYS798  CYS799  TRP800  GLU811  SER814 

> <Gold.Protein.RotatedAtoms>
  152.2779  134.7861  160.0401 H   0  0  0  0  0  0  0  0  0  0  0  0  # atno 6907 bound_to 6896
  151.8450  133.3425  159.3663 H   0  0  0  0  0  0  0  0  0  0  0  0  # atno 6908 bound_to 6896
  150.7178  134.5282  159.5732 H   0  0  0  0  0  0  0  0  0  0  0  0  # atno 6909 bound_to 6896
  145.3886  139.2367  143.3364 H   0  0  0  0  0  0  0  0  0  0  0  0  # atno 7974 bound_to 7965
  156.2465  140.1933  156.6839 H   0  0  0  0  0  0  0  0  0  0  0  0  # atno 8008 bound_to 7997
  154.6301  140.0597  156.9748 H   0  0  0  0  0  0  0  0  0  0  0  0  # atno 8009 bound_to 7997
  155.1724  140.3269  155.4393 H   0  0  0  0  0  0  0  0  0  0  0  0  # atno 8010 bound_to 7997
  139.4826  144.5246  151.7821 H   0  0  0  0  0  0  0  0  0  0  0  0  # atno 10167 bound_to 10162
  157.5381  130.8677  149.8782 H   0  0  0  0  0  0  0  0  0  0  0  0  # atno 10718 bound_to 10713
  152.9877  135.6124  154.2992 H   0  0  0  0  0  0  0  0  0  0  0  0  # atno 10763 bound_to 10752
  154.2714  135.2779  155.2738 H   0  0  0  0  0  0  0  0  0  0  0  0  # atno 10764 bound_to 10752
  154.5119  135.5838  153.6668 H   0  0  0  0  0  0  0  0  0  0  0  0  # atno 10765 bound_to 10752
  139.9376  134.7460  156.1187 H   0  0  0  0  0  0  0  0  0  0  0  0  # atno 11005 bound_to 11000
  146.2808  140.4565  142.8777 LP  0  0  0  0  0  0  0  0  0  0  0  0  # atno 17320 bound_to 7965
  144.8456  140.6924  143.6201 LP  0  0  0  0  0  0  0  0  0  0  0  0  # atno 17321 bound_to 7965
  140.4764  144.1512  150.5925 LP  0  0  0  0  0  0  0  0  0  0  0  0  # atno 17342 bound_to 10162
  140.4325  143.2561  151.9577 LP  0  0  0  0  0  0  0  0  0  0  0  0  # atno 17343 bound_to 10162
  156.0474  130.3725  150.1283 LP  0  0  0  0  0  0  0  0  0  0  0  0  # atno 17370 bound_to 10713
  156.9464  130.9761  151.3506 LP  0  0  0  0  0  0  0  0  0  0  0  0  # atno 17371 bound_to 10713
  141.0996  133.6682  156.2725 LP  0  0  0  0  0  0  0  0  0  0  0  0  # atno 17394 bound_to 11000
  140.6036  134.5530  157.5522 LP  0  0  0  0  0  0  0  0  0  0  0  0  # atno 17395 bound_to 11000

$$$$
