#       Name:                AV-unprocessed.smi:3278
#       Creating user name   scv26
#       Creation time:       Fri Mar 27 18:45:49 2020


#       File generated by GOLD software.
#

@<TRIPOS>MOLECULE
AV-unprocessed.smi:3278
    42    43     1
SMALL
NO_CHARGES


@<TRIPOS>ATOM
      1 ****        -3.0803   0.3389  -4.0846 C.3            1 S1                 0.0000
      2 ****        -2.8973   0.1603  -2.6602 N.pl3          1 S1                 0.0000
      3 ****        -2.2725   0.9961  -1.7607 C.2            1 S1                 0.0000
      4 ****        -2.3484   0.4098  -0.5267 C.2            1 S1                 0.0000
      5 ****        -1.8074   0.9152   0.7943 C.3            1 S1                 0.0000
      6 ****        -2.3752   2.3124   1.1001 C.3            1 S1                 0.0000
      7 ****        -2.2033   0.0922   1.8760 O.3            1 S1                 0.0000
      8 ****        -0.2639   0.9490   0.7851 C.3            1 S1                 0.0000
      9 ****         0.3125  -0.3755   0.4588 N.4            1 S1                 1.0000
     10 ****         1.7888  -0.4276   0.3806 C.3            1 S1                 0.0000
     11 ****         2.4195  -0.4508   1.7908 C.3            1 S1                 0.0000
     12 ****         3.9568  -0.4573   1.7577 C.3            1 S1                 0.0000
     13 ****         4.5238  -1.6859   1.0345 C.3            1 S1                 0.0000
     14 ****         4.0007  -1.7171  -0.7001 S.3            1 S1                 0.0000
     15 ****         2.2070  -1.6622  -0.4383 C.3            1 S1                 0.0000
     16 ****        -3.0555  -0.8013  -0.7886 C.2            1 S1                 0.0000
     17 ****        -3.3764  -0.9488  -2.0628 N.2            1 S1                 0.0000
     18 ****        -2.6177   1.2720  -4.4077 H              1 S1                 0.0000
     19 ****        -4.1449   0.3714  -4.3187 H              1 S1                 0.0000
     20 ****        -2.6197  -0.4900  -4.6233 H              1 S1                 0.0000
     21 ****        -1.8285   1.9313  -2.0695 H              1 S1                 0.0000
     22 ****        -2.0927   3.0346   0.3335 H              1 S1                 0.0000
     23 ****        -2.0093   2.6930   2.0547 H              1 S1                 0.0000
     24 ****        -3.4649   2.2954   1.1486 H              1 S1                 0.0000
     25 ****        -1.9186   0.4935   2.6833 H              1 S1                 0.0000
     26 ****         0.0830   1.6692   0.0426 H              1 S1                 0.0000
     27 ****         0.1070   1.2915   1.7513 H              1 S1                 0.0000
     28 ****        -0.0069  -1.0518   1.1377 H              1 S1                 0.0000
     29 ****         2.1304   0.4610  -0.1532 H              1 S1                 0.0000
     30 ****         2.0974   0.4188   2.3625 H              1 S1                 0.0000
     31 ****         2.0643  -1.3235   2.3407 H              1 S1                 0.0000
     32 ****         4.3205   0.4525   1.2782 H              1 S1                 0.0000
     33 ****         4.3377  -0.4361   2.7793 H              1 S1                 0.0000
     34 ****         5.6133  -1.6774   1.0723 H              1 S1                 0.0000
     35 ****         4.1932  -2.6028   1.5237 H              1 S1                 0.0000
     36 ****         1.8951  -2.5799   0.0622 H              1 S1                 0.0000
     37 ****         1.7234  -1.6527  -1.4158 H              1 S1                 0.0000
     38 ****        -3.3386  -1.5778  -0.0932 H              1 S1                 0.0000
     39 ****        -0.0526  -0.6394  -0.4454 H              1 S1                 0.0000
     40 ****        -1.7835  -0.8106   1.7829 LP             1 S1                 0.0000
     41 ****        -3.1988  -0.0020   1.8801 LP             1 S1                 0.0000
     42 ****        -3.8645  -1.7113  -2.4875 LP             1 S1                 0.0000
@<TRIPOS>BOND
    1    1    2 1     
    2    1   18 1     
    3    1   19 1     
    4    1   20 1     
    5    2   17 1     
    6    2    3 1     
    7    3    4 2     
    8    3   21 1     
    9    4    5 1     
   10    4   16 1     
   11    5    6 1     
   12    5    7 1     
   13    5    8 1     
   14    6   22 1     
   15    6   23 1     
   16    6   24 1     
   17    7   25 1     
   18    8    9 1     
   19    8   26 1     
   20    8   27 1     
   21    9   10 1     
   22    9   28 1     
   23    9   39 1     
   24   10   15 1     
   25   10   11 1     
   26   10   29 1     
   27   11   12 1     
   28   11   30 1     
   29   11   31 1     
   30   12   13 1     
   31   12   32 1     
   32   12   33 1     
   33   13   14 1     
   34   13   34 1     
   35   13   35 1     
   36   14   15 1     
   37   15   36 1     
   38   15   37 1     
   39   16   17 2     
   40   16   38 1     
   41    7   40 1     
   42    7   41 1     
   43   17   42 1     
@<TRIPOS>SUBSTRUCTURE
      1 S1             1
@<TRIPOS>SET
LONE_PAIRS      STATIC     ATOMS    <user>   **** ""
3 40 41 42
DONOR_HYDROGENS      STATIC     ATOMS    <user>   **** ""
3 25 28 39
ATOM$BLUE        STATIC     ATOMS    COLORGROUP SYSTEM
3 40 41 42
ATOM$RED        STATIC     ATOMS    COLORGROUP SYSTEM
3 25 28 39
