AV-unprocessed.smi:34|AV-procd|sdf|230|dock5
  -GOLD-   2262015563D 1   1.00000     0.00000
 Structure written by MMmdl.
 55 59  0  0  0  0  0  0  0  0  1 V2000
  153.0389  140.0159  158.3490 O   0  0  0  0  0  0  0  0  0  0  0  0
  152.2994  140.8305  157.7959 C   0  0  0  0  0  0  0  0  0  0  0  0
  151.4486  140.4678  156.6764 N   0  0  0  0  0  0  0  0  0  0  0  0
  151.3880  139.2854  156.0207 C   0  0  0  0  0  0  0  0  0  0  0  0
  151.6319  139.1760  154.6878 N   0  0  0  0  0  0  0  0  0  0  0  0
  151.5543  137.9861  154.0842 C   0  0  0  0  0  0  0  0  0  0  0  0
  151.2489  136.7996  154.6148 N   0  0  0  0  0  0  0  0  0  0  0  0
  150.9997  136.9041  155.9519 C   0  0  0  0  0  0  0  0  0  0  0  0
  151.0495  138.0987  156.7215 C   0  0  0  0  0  0  0  0  0  0  0  0
  150.7418  137.8159  158.0461 N   0  0  0  0  0  0  0  0  0  0  0  0
  150.5267  136.5273  158.0537 C   0  0  0  0  0  0  0  0  0  0  0  0
  150.6473  135.9024  156.8289 N   0  0  0  0  0  0  0  0  0  0  0  0
  150.4776  134.4579  156.4729 C   0  0  1  0  0  0  0  0  0  0  0  0
  150.2238  133.7493  157.6502 O   0  0  0  0  0  0  0  0  0  0  0  0
  148.8175  133.5798  157.7896 C   0  0  2  0  0  0  0  0  0  0  0  0
  148.4940  132.4856  158.8125 C   0  0  0  0  0  0  0  0  0  0  0  0
  147.2230  132.7622  159.3770 O   0  0  0  0  0  0  0  0  0  0  0  0
  147.0784  133.7664  160.2614 C   0  0  0  0  0  0  0  0  0  0  0  0
  147.9625  134.5880  160.5122 O   0  0  0  0  0  0  0  0  0  0  0  0
  145.7342  133.7781  160.9077 C   0  0  0  0  0  0  0  0  0  0  0  0
  144.7904  132.7824  160.5632 C   0  0  0  0  0  0  0  0  0  0  0  0
  143.5135  132.7682  161.1573 C   0  0  0  0  0  0  0  0  0  0  0  0
  143.1653  133.7486  162.1046 C   0  0  0  0  0  0  0  0  0  0  0  0
  144.0954  134.7439  162.4568 C   0  0  0  0  0  0  0  0  0  0  0  0
  145.3724  134.7607  161.8627 C   0  0  0  0  0  0  0  0  0  0  0  0
  148.4141  133.2594  156.3531 C   0  0  2  0  0  0  0  0  0  0  0  0
  148.8024  132.0133  156.0657 F   0  0  0  0  0  0  0  0  0  0  0  0
  149.2344  134.2830  155.5780 C   0  0  2  0  0  0  0  0  0  0  0  0
  149.5330  133.8319  154.2723 O   0  0  0  0  0  0  0  0  0  0  0  0
  152.1568  142.2370  158.2996 C   0  0  0  0  0  0  0  0  0  0  0  0
  152.6984  142.5973  159.5540 C   0  0  0  0  0  0  0  0  0  0  0  0
  152.5815  143.9186  160.0277 C   0  0  0  0  0  0  0  0  0  0  0  0
  151.9296  144.8924  159.2479 C   0  0  0  0  0  0  0  0  0  0  0  0
  151.3985  144.5452  157.9915 C   0  0  0  0  0  0  0  0  0  0  0  0
  151.5141  143.2240  157.5168 C   0  0  0  0  0  0  0  0  0  0  0  0
  150.8353  141.1934  156.3353 H   0  0  0  0  0  0  0  0  0  0  0  0
  151.7662  137.9852  153.0252 H   0  0  0  0  0  0  0  0  0  0  0  0
  150.2707  136.0012  158.9621 H   0  0  0  0  0  0  0  0  0  0  0  0
  151.4245  134.1621  156.0194 H   0  0  0  0  0  0  0  0  0  0  0  0
  148.3566  134.5222  158.0920 H   0  0  0  0  0  0  0  0  0  0  0  0
  148.4611  131.5130  158.3198 H   0  0  0  0  0  0  0  0  0  0  0  0
  149.2595  132.4405  159.5883 H   0  0  0  0  0  0  0  0  0  0  0  0
  145.0355  132.0185  159.8392 H   0  0  0  0  0  0  0  0  0  0  0  0
  142.8010  132.0034  160.8855 H   0  0  0  0  0  0  0  0  0  0  0  0
  142.1862  133.7371  162.5607 H   0  0  0  0  0  0  0  0  0  0  0  0
  143.8291  135.4967  163.1840 H   0  0  0  0  0  0  0  0  0  0  0  0
  146.0622  135.5382  162.1570 H   0  0  0  0  0  0  0  0  0  0  0  0
  147.3416  133.3314  156.1711 H   0  0  0  0  0  0  0  0  0  0  0  0
  148.6841  135.2238  155.5195 H   0  0  0  0  0  0  0  0  0  0  0  0
  149.6509  134.5868  153.7156 H   0  0  0  0  0  0  0  0  0  0  0  0
  153.2024  141.8615  160.1641 H   0  0  0  0  0  0  0  0  0  0  0  0
  152.9934  144.1850  160.9900 H   0  0  0  0  0  0  0  0  0  0  0  0
  151.8408  145.9054  159.6115 H   0  0  0  0  0  0  0  0  0  0  0  0
  150.9040  145.2934  157.3897 H   0  0  0  0  0  0  0  0  0  0  0  0
  151.1083  142.9812  156.5455 H   0  0  0  0  0  0  0  0  0  0  0  0
  1  2  2  0  0  0  0
  2  3  1  0  0  0  0
  2 30  1  0  0  0  0
  3  4  1  0  0  0  0
  3 36  1  0  0  0  0
  4  9  1  0  0  0  0
  4  5  2  0  0  0  0
  5  6  1  0  0  0  0
  6  7  2  0  0  0  0
  6 37  1  0  0  0  0
  7  8  1  0  0  0  0
  8 12  1  0  0  0  0
  8  9  2  0  0  0  0
  9 10  1  0  0  0  0
 10 11  2  0  0  0  0
 11 12  1  0  0  0  0
 11 38  1  0  0  0  0
 12 13  1  0  0  0  0
 13 28  1  0  0  0  0
 13 14  1  0  0  0  0
 13 39  1  0  0  0  0
 14 15  1  0  0  0  0
 15 16  1  0  0  0  0
 15 26  1  0  0  0  0
 15 40  1  0  0  0  0
 16 17  1  0  0  0  0
 16 41  1  0  0  0  0
 16 42  1  0  0  0  0
 17 18  1  0  0  0  0
 18 19  2  0  0  0  0
 18 20  1  0  0  0  0
 20 25  1  0  0  0  0
 20 21  2  0  0  0  0
 21 22  1  0  0  0  0
 21 43  1  0  0  0  0
 22 23  2  0  0  0  0
 22 44  1  0  0  0  0
 23 24  1  0  0  0  0
 23 45  1  0  0  0  0
 24 25  2  0  0  0  0
 24 46  1  0  0  0  0
 25 47  1  0  0  0  0
 26 27  1  0  0  0  0
 26 28  1  0  0  0  0
 26 48  1  0  0  0  0
 28 29  1  0  0  0  0
 28 49  1  0  0  0  0
 29 50  1  0  0  0  0
 30 35  1  0  0  0  0
 30 31  2  0  0  0  0
 31 32  1  0  0  0  0
 31 51  1  0  0  0  0
 32 33  2  0  0  0  0
 32 52  1  0  0  0  0
 33 34  1  0  0  0  0
 33 53  1  0  0  0  0
 34 35  2  0  0  0  0
 34 54  1  0  0  0  0
 35 55  1  0  0  0  0
M  END
> <s_m_source_file>
AV-unprocessed.smi

> <i_m_source_file_index>
34

> <i_lp_mmshare_version>
43012

> <i_f3d_flags>
0

> <s_epik_input>
W2NIXTFbY0hdW2NIXVtjSF1bY0hdYzFDKD1PKVtOSF1jKG5bY0hdbjIpYyhjMjMpbltjSF1uM1tDQEBIXTRPW0NASF0oW0NAQEhdKEYpW0NASF00W09IXSlbQ0gyXU9DKD1PKWM1W2NIXVtjSF1bY0hdW2NIXVtjSF01

> <s_epik_cmdline>
J2VwaWtfcHl0aG9uJywgJy1waCcsICc3LjAnLCAnLXRuJywgJzgnLCAnLW1hJywgJzIwMCcsICctbWV0YWxfYmluZGluZycsICctaW1hZScsICc8aW5maWxlLm1hZT4nLCAnLW9tYWUnLCAnPG91dGZpbGUubWFlPic=

> <r_lp_tautomer_probability>
1

> <r_epik_Ionization_Penalty>
0.00257489

> <r_epik_Ionization_Penalty_Charging>
0

> <r_epik_Ionization_Penalty_Neutral>
0.00257489

> <r_epik_State_Penalty>
0.00519398

> <r_epik_Charging_Adjusted_Penalty>
0.00519398

> <i_epik_Tot_Q>
0

> <i_epik_Tot_abs_Q>
0

> <r_epik_Metal_State_Penalty>
0.335891

> <b_epik_Metal_Only>
0

> <s_epik_Chemistry_Notes>
This compound has an ester and may undergo hydrolysis at high or low pH. This compound contains an acetal/aminal-like group ( X-CH(R)-Y where X, Y are N, S, or O) that may be acid/base labile, releasing an aldehyde.

> <s_lp_Force_Field>
OPLS_2005

> <r_lp_Energy>
45.4918

> <b_lp_Chiralities_Consistent>
1

> <s_lp_Variant>
AV-unprocessed.smi:34-16

> <Gold.Version>
5.8.1

> <Gold.Id.Protein>
6NUR|6NUR_protein|mol2

> <Gold.PLP.Fitness>
57.8814

> <Gold.PLP.PLP>
-46.3861

> <Gold.PLP.part.hbond>
-3.9845

> <Gold.PLP.part.metal>
0.0000

> <Gold.PLP.part.buried>
-7.5326

> <Gold.PLP.part.nonpolar>
-35.5529

> <Gold.PLP.part.repulsive>
0.3541

> <Gold.PLP.ligand.clash>
0.0000

> <Gold.PLP.ligand.torsion>
1.2193

> <Gold.PLP.Chemscore.Hbond>
3.8685

> <Gold.PLP.Chemscore.CHOScore>
0.7488

> <Gold.PLP.Chemscore.Metal>
0.0000

> <Gold.Chemscore.Hbonds>
donor molecule, donor type, donor heavy atom, donor atom, acceptor molecule, acceptor atom, score
      P1  H  6896  6909       L1    14  0.98
      P1  H  7989  7998       L1     5  0.93
      P1  H  7997  8008       L1     1  0.96
      P1  H 10752 10763       L1     7  0.94
      L1  C     6    37       P1  7949  0.75

> <Gold.PLP.Chemscore.Internal.Correction>
0.0819

> <Gold.Rescore>
     Score         DG    S(hbond)    S(metal)    S(lipo)     H(rot)  DE(clash)    DE(int)     intcor
     17.97     -20.11       2.32        0.00     118.38       2.72       0.16       1.98       ----

> <Gold.Chemscore.Fitness>
17.9748

> <Gold.Chemscore.DG>
-20.1138

> <Gold.Chemscore.ZeroCoef>
-5.4800

> <Gold.Chemscore.Hbond>
2.3206

> <Gold.Chemscore.Metal>
0.0000

> <Gold.Chemscore.Lipo>
118.3763

> <Gold.Chemscore.Internal_Hbond>
0.0000

> <Gold.Chemscore.DEClash>
0.1615

> <Gold.Chemscore.DEInternal>
1.9776

> <Gold.Chemscore.Rot>
2.7215

> <Gold.Chemscore.Internal.Correction>
   9.000000E+99

> <Gold.Chemscore.Hbonds>
donor molecule, donor type, donor heavy atom, donor atom, acceptor molecule, acceptor atom, score
      P1  H  6896  6909       L1    14  0.47
      P1  H  7989  7998       L1     5  0.81
      P1  H  7997  8008       L1     1  0.26
      P1  H 10752 10763       L1     7  0.32

> <Gold.Chemscore.Hbond.Weighted>
-7.7508

> <Gold.Chemscore.Metal.Weighted>
-0.0000

> <Gold.Chemscore.Lipo.Weighted>
-13.8500

> <Gold.Chemscore.Internal_Hbond.Weighted>
0.0000

> <Gold.Chemscore.DEClash.Weighted>
0.1615

> <Gold.Chemscore.DEInternal.Weighted>
1.9776

> <Gold.Chemscore.Rot.Weighted>
6.9670

> <Gold.Chemscore.Internal.Correction.Weighted>
   9.000000E+99

> <Gold.Protein.RotatedTorsions>
[ 6907 6896 6895 6894 ] final   -2.87 input  -60.11 | X-H torsion
[ 7974 7965 7964 7962 ] final  -87.82 input  175.53 | X-H torsion
[ 8008 7997 7996 7995 ] final  -91.46 input   59.86 | X-H torsion
[ 10167 10162 10161 10158 ] final  -47.91 input  -65.29 | X-H torsion
[ 10718 10713 10712 10709 ] final   59.15 input   66.30 | X-H torsion
[ 10763 10752 10751 10750 ] final   47.21 input  -60.55 | X-H torsion
[ 11005 11000 10999 10996 ] final -118.46 input  -57.11 | X-H torsion

> <Gold.Protein.ActiveResidues>
 VAL166  LYS551  ARG553  GLY616  TRP617  ASP618  TYR619  PRO620  LYS621  CYS622 
 ASP623  PHE694  ASN695  SER759  ASP760  ASP761  ALA762  ILE779  LEU786  VAL792 
 PHE793  MET794  SER795  GLU796  ALA797  LYS798  CYS799  TRP800  GLU811  SER814 

> <Gold.Protein.RotatedAtoms>
  151.5229  135.1067  159.9882 H   0  0  0  0  0  0  0  0  0  0  0  0  # atno 6907 bound_to 6896
  152.4612  133.7823  159.6868 H   0  0  0  0  0  0  0  0  0  0  0  0  # atno 6908 bound_to 6896
  150.8576  133.7627  159.3028 H   0  0  0  0  0  0  0  0  0  0  0  0  # atno 6909 bound_to 6896
  145.4614  140.9561  143.1967 H   0  0  0  0  0  0  0  0  0  0  0  0  # atno 7974 bound_to 7965
  154.7110  140.0519  157.0550 H   0  0  0  0  0  0  0  0  0  0  0  0  # atno 8008 bound_to 7997
  155.0555  140.3184  155.4659 H   0  0  0  0  0  0  0  0  0  0  0  0  # atno 8009 bound_to 7997
  156.2789  140.2108  156.5681 H   0  0  0  0  0  0  0  0  0  0  0  0  # atno 8010 bound_to 7997
  140.6754  143.2763  151.3995 H   0  0  0  0  0  0  0  0  0  0  0  0  # atno 10167 bound_to 10162
  157.5653  130.8866  149.9177 H   0  0  0  0  0  0  0  0  0  0  0  0  # atno 10718 bound_to 10713
  152.9802  135.5983  154.3726 H   0  0  0  0  0  0  0  0  0  0  0  0  # atno 10763 bound_to 10752
  154.3398  135.2768  155.2430 H   0  0  0  0  0  0  0  0  0  0  0  0  # atno 10764 bound_to 10752
  154.4517  135.5988  153.6251 H   0  0  0  0  0  0  0  0  0  0  0  0  # atno 10765 bound_to 10752
  141.0284  134.0018  157.3179 H   0  0  0  0  0  0  0  0  0  0  0  0  # atno 11005 bound_to 11000
  144.8000  139.6159  143.7076 LP  0  0  0  0  0  0  0  0  0  0  0  0  # atno 17320 bound_to 7965
  146.2449  139.6077  142.9466 LP  0  0  0  0  0  0  0  0  0  0  0  0  # atno 17321 bound_to 7965
  139.6044  144.1228  152.2233 LP  0  0  0  0  0  0  0  0  0  0  0  0  # atno 17342 bound_to 10162
  140.0622  144.5847  150.7254 LP  0  0  0  0  0  0  0  0  0  0  0  0  # atno 17343 bound_to 10162
  156.0702  130.3686  150.0792 LP  0  0  0  0  0  0  0  0  0  0  0  0  # atno 17370 bound_to 10713
  156.8952  130.9602  151.3583 LP  0  0  0  0  0  0  0  0  0  0  0  0  # atno 17371 bound_to 10713
  139.9191  135.0199  156.7997 LP  0  0  0  0  0  0  0  0  0  0  0  0  # atno 17394 bound_to 11000
  140.6450  133.9784  155.7726 LP  0  0  0  0  0  0  0  0  0  0  0  0  # atno 17395 bound_to 11000

$$$$
