AV-unprocessed.smi:2438|AV-procd|sdf|9595|dock9
  -GOLD-   2272013233D 1   1.00000     0.00000
 Structure written by MMmdl.
 43 44  0  0  0  0  0  0  0  0  1 V2000
  150.1166  136.9472  154.9242 C   0  0  0  0  0  0  0  0  0  0  0  0
  150.7265  138.0651  154.2172 N   0  0  0  0  0  0  0  0  0  0  0  0
  152.1832  138.1124  154.2255 C   0  0  0  0  0  0  0  0  0  0  0  0
  150.0604  139.2886  154.4324 C   0  0  0  0  0  0  0  0  0  0  0  0
  150.7293  140.2695  155.0861 N   0  0  0  0  0  0  0  0  0  0  0  0
  150.0859  141.4176  155.3029 C   0  0  0  0  0  0  0  0  0  0  0  0
  148.8393  141.7136  154.9358 N   0  0  0  0  0  0  0  0  0  0  0  0
  148.1544  140.7526  154.2817 C   0  0  0  0  0  0  0  0  0  0  0  0
  148.7219  139.4849  154.0009 C   0  0  0  0  0  0  0  0  0  0  0  0
  148.0462  138.4677  153.2706 N   0  0  0  0  0  0  0  0  0  0  0  0
  146.7268  138.2237  153.2164 C   0  0  0  0  0  0  0  0  0  0  0  0
  145.8588  138.8784  153.7928 O   0  0  0  0  0  0  0  0  0  0  0  0
  146.4666  137.1461  152.4632 N   0  0  0  0  0  0  0  0  0  0  0  0
  145.1403  136.5816  152.2171 C   0  0  2  0  0  0  0  0  0  0  0  0
  144.3704  136.3518  153.5347 C   0  0  0  0  0  0  0  0  0  0  0  0
  144.9719  135.2040  154.3615 C   0  0  0  0  0  0  0  0  0  0  0  0
  145.0553  133.9090  153.5385 C   0  0  0  0  0  0  0  0  0  0  0  0
  145.8593  134.1105  152.2366 C   0  0  1  0  0  0  0  0  0  0  0  0
  145.9604  132.8101  151.4126 C   0  0  0  0  0  0  0  0  0  0  0  0
  146.7678  132.9729  150.3641 F   0  0  0  0  0  0  0  0  0  0  0  0
  146.4356  131.8243  152.1740 F   0  0  0  0  0  0  0  0  0  0  0  0
  144.7530  132.4518  150.9756 F   0  0  0  0  0  0  0  0  0  0  0  0
  145.2573  135.2718  151.4117 C   0  0  0  0  0  0  0  0  0  0  0  0
  149.0739  136.8099  154.6382 H   0  0  0  0  0  0  0  0  0  0  0  0
  150.1567  137.1100  156.0019 H   0  0  0  0  0  0  0  0  0  0  0  0
  150.6465  136.0206  154.7014 H   0  0  0  0  0  0  0  0  0  0  0  0
  152.5494  138.9625  153.6486 H   0  0  0  0  0  0  0  0  0  0  0  0
  152.5921  137.2052  153.7800 H   0  0  0  0  0  0  0  0  0  0  0  0
  152.5643  138.1933  155.2442 H   0  0  0  0  0  0  0  0  0  0  0  0
  150.6327  142.1878  155.8261 H   0  0  0  0  0  0  0  0  0  0  0  0
  147.1601  141.0259  153.9643 H   0  0  0  0  0  0  0  0  0  0  0  0
  148.6447  137.7943  152.8147 H   0  0  0  0  0  0  0  0  0  0  0  0
  147.2468  136.6716  152.0328 H   0  0  0  0  0  0  0  0  0  0  0  0
  144.5804  137.2948  151.6093 H   0  0  0  0  0  0  0  0  0  0  0  0
  144.3423  137.2659  154.1288 H   0  0  0  0  0  0  0  0  0  0  0  0
  143.3317  136.1139  153.3020 H   0  0  0  0  0  0  0  0  0  0  0  0
  145.9669  135.4819  154.7114 H   0  0  0  0  0  0  0  0  0  0  0  0
  144.3688  135.0370  155.2544 H   0  0  0  0  0  0  0  0  0  0  0  0
  145.5119  133.1261  154.1445 H   0  0  0  0  0  0  0  0  0  0  0  0
  144.0476  133.5655  153.3014 H   0  0  0  0  0  0  0  0  0  0  0  0
  146.8755  134.3909  152.5177 H   0  0  0  0  0  0  0  0  0  0  0  0
  144.2647  134.9850  151.0622 H   0  0  0  0  0  0  0  0  0  0  0  0
  145.8520  135.4454  150.5139 H   0  0  0  0  0  0  0  0  0  0  0  0
  1  2  1  0  0  0  0
  1 24  1  0  0  0  0
  1 25  1  0  0  0  0
  1 26  1  0  0  0  0
  2  3  1  0  0  0  0
  2  4  1  0  0  0  0
  3 27  1  0  0  0  0
  3 28  1  0  0  0  0
  3 29  1  0  0  0  0
  4  9  1  0  0  0  0
  4  5  2  0  0  0  0
  5  6  1  0  0  0  0
  6  7  2  0  0  0  0
  6 30  1  0  0  0  0
  7  8  1  0  0  0  0
  8  9  2  0  0  0  0
  8 31  1  0  0  0  0
  9 10  1  0  0  0  0
 10 11  1  0  0  0  0
 10 32  1  0  0  0  0
 11 12  2  0  0  0  0
 11 13  1  0  0  0  0
 13 14  1  0  0  0  0
 13 33  1  0  0  0  0
 14 23  1  0  0  0  0
 14 15  1  0  0  0  0
 14 34  1  0  0  0  0
 15 16  1  0  0  0  0
 15 35  1  0  0  0  0
 15 36  1  0  0  0  0
 16 17  1  0  0  0  0
 16 37  1  0  0  0  0
 16 38  1  0  0  0  0
 17 18  1  0  0  0  0
 17 39  1  0  0  0  0
 17 40  1  0  0  0  0
 18 19  1  0  0  0  0
 18 23  1  0  0  0  0
 18 41  1  0  0  0  0
 19 20  1  0  0  0  0
 19 21  1  0  0  0  0
 19 22  1  0  0  0  0
 23 42  1  0  0  0  0
 23 43  1  0  0  0  0
M  END
> <s_m_source_file>
AV-unprocessed.smi

> <i_m_source_file_index>
2438

> <i_lp_mmshare_version>
43012

> <i_f3d_flags>
0

> <s_epik_input>
W0NIM11OKFtDSDNdKWMxbltjSF1uW2NIXWMxW05IXUMoPU8pW05IXVtDQEBIXTJbQ0gyXVtDSDJdW0NIMl1bQ0BASF0oQyhGKShGKUYpW0NIMl0y

> <s_epik_cmdline>
J2VwaWtfcHl0aG9uJywgJy1waCcsICc3LjAnLCAnLXRuJywgJzgnLCAnLW1hJywgJzIwMCcsICctbWV0YWxfYmluZGluZycsICctaW1hZScsICc8aW5maWxlLm1hZT4nLCAnLW9tYWUnLCAnPG91dGZpbGUubWFlPic=

> <r_lp_tautomer_probability>
1

> <r_epik_Ionization_Penalty>
0.01759

> <r_epik_Ionization_Penalty_Charging>
0

> <r_epik_Ionization_Penalty_Neutral>
0.01759

> <r_epik_State_Penalty>
0.0133536

> <r_epik_Charging_Adjusted_Penalty>
0.0133536

> <i_epik_Tot_Q>
0

> <i_epik_Tot_abs_Q>
0

> <r_epik_Metal_State_Penalty>
0.0129828

> <b_epik_Metal_Only>
0

> <s_lp_Force_Field>
OPLS_2005

> <r_lp_Energy>
11.7103

> <b_lp_Chiralities_Consistent>
1

> <s_lp_Variant>
AV-unprocessed.smi:2438-1

> <Gold.Version>
5.8.1

> <Gold.Id.Protein>
6NUR|6NUR_protein|mol2

> <Gold.PLP.Fitness>
40.9529

> <Gold.PLP.PLP>
-34.2419

> <Gold.PLP.part.hbond>
-4.0000

> <Gold.PLP.part.metal>
0.0000

> <Gold.PLP.part.buried>
-3.8898

> <Gold.PLP.part.nonpolar>
-27.6767

> <Gold.PLP.part.repulsive>
1.8983

> <Gold.PLP.ligand.clash>
0.0000

> <Gold.PLP.ligand.torsion>
0.6048

> <Gold.PLP.Chemscore.Hbond>
2.5250

> <Gold.PLP.Chemscore.CHOScore>
0.0000

> <Gold.PLP.Chemscore.Metal>
0.0000

> <Gold.Chemscore.Hbonds>
donor molecule, donor type, donor heavy atom, donor atom, acceptor molecule, acceptor atom, score
      L1  H    10    32       P1  7948  1.00
      L1  H    13    33       P1  7948  1.00
      P1  H  7989  7998       L1     5  0.53

> <Gold.PLP.Chemscore.Internal.Correction>
0.3456

> <Gold.Rescore>
     Score         DG    S(hbond)    S(metal)    S(lipo)     H(rot)  DE(clash)    DE(int)     intcor
     11.97     -14.99       1.97        0.00      53.56       1.30       0.14       2.87       ----

> <Gold.Chemscore.Fitness>
11.9735

> <Gold.Chemscore.DG>
-14.9894

> <Gold.Chemscore.ZeroCoef>
-5.4800

> <Gold.Chemscore.Hbond>
1.9664

> <Gold.Chemscore.Metal>
0.0000

> <Gold.Chemscore.Lipo>
53.5563

> <Gold.Chemscore.Internal_Hbond>
0.0000

> <Gold.Chemscore.DEClash>
0.1440

> <Gold.Chemscore.DEInternal>
2.8719

> <Gold.Chemscore.Rot>
1.2987

> <Gold.Chemscore.Internal.Correction>
   9.000000E+99

> <Gold.Chemscore.Hbonds>
donor molecule, donor type, donor heavy atom, donor atom, acceptor molecule, acceptor atom, score
      L1  H    10    32       P1  7948  0.98
      L1  H    13    33       P1  7948  0.99
      P1  H  7989  7998       L1     5  0.01

> <Gold.Chemscore.Hbond.Weighted>
-6.5678

> <Gold.Chemscore.Metal.Weighted>
-0.0000

> <Gold.Chemscore.Lipo.Weighted>
-6.2661

> <Gold.Chemscore.Internal_Hbond.Weighted>
0.0000

> <Gold.Chemscore.DEClash.Weighted>
0.1440

> <Gold.Chemscore.DEInternal.Weighted>
2.8719

> <Gold.Chemscore.Rot.Weighted>
3.3246

> <Gold.Chemscore.Internal.Correction.Weighted>
   9.000000E+99

> <Gold.Protein.RotatedTorsions>
[ 6907 6896 6895 6894 ] final -167.16 input  -60.11 | X-H torsion
[ 7974 7965 7964 7962 ] final   42.58 input  175.53 | X-H torsion
[ 8008 7997 7996 7995 ] final -153.30 input   59.86 | X-H torsion
[ 10167 10162 10161 10158 ] final   97.15 input  -65.29 | X-H torsion
[ 10718 10713 10712 10709 ] final   67.24 input   66.30 | X-H torsion
[ 10763 10752 10751 10750 ] final  -73.85 input  -60.55 | X-H torsion
[ 11005 11000 10999 10996 ] final  134.30 input  -57.11 | X-H torsion

> <Gold.Protein.ActiveResidues>
 VAL166  LYS551  ARG553  GLY616  TRP617  ASP618  TYR619  PRO620  LYS621  CYS622 
 ASP623  PHE694  ASN695  SER759  ASP760  ASP761  ALA762  ILE779  LEU786  VAL792 
 PHE793  MET794  SER795  GLU796  ALA797  LYS798  CYS799  TRP800  GLU811  SER814 

> <Gold.Protein.RotatedAtoms>
  151.4552  133.3607  159.2800 H   0  0  0  0  0  0  0  0  0  0  0  0  # atno 6907 bound_to 6896
  150.9064  134.8480  159.7406 H   0  0  0  0  0  0  0  0  0  0  0  0  # atno 6908 bound_to 6896
  152.4908  134.4477  159.9616 H   0  0  0  0  0  0  0  0  0  0  0  0  # atno 6909 bound_to 6896
  146.0728  139.5283  142.9587 H   0  0  0  0  0  0  0  0  0  0  0  0  # atno 7974 bound_to 7965
  155.6687  140.0731  157.2528 H   0  0  0  0  0  0  0  0  0  0  0  0  # atno 8008 bound_to 7997
  154.4127  140.1703  156.1907 H   0  0  0  0  0  0  0  0  0  0  0  0  # atno 8009 bound_to 7997
  155.9635  140.3368  155.6514 H   0  0  0  0  0  0  0  0  0  0  0  0  # atno 8010 bound_to 7997
  139.7827  144.6882  151.0000 H   0  0  0  0  0  0  0  0  0  0  0  0  # atno 10167 bound_to 10162
  157.6218  130.9310  150.0216 H   0  0  0  0  0  0  0  0  0  0  0  0  # atno 10718 bound_to 10713
  154.4651  135.5883  153.6283 H   0  0  0  0  0  0  0  0  0  0  0  0  # atno 10763 bound_to 10752
  152.9828  135.6053  154.3437 H   0  0  0  0  0  0  0  0  0  0  0  0  # atno 10764 bound_to 10752
  154.3313  135.2842  155.2449 H   0  0  0  0  0  0  0  0  0  0  0  0  # atno 10765 bound_to 10752
  139.9906  134.9516  156.9847 H   0  0  0  0  0  0  0  0  0  0  0  0  # atno 11005 bound_to 11000
  145.6361  141.0294  143.1837 LP  0  0  0  0  0  0  0  0  0  0  0  0  # atno 17320 bound_to 7965
  144.7242  139.7929  143.7371 LP  0  0  0  0  0  0  0  0  0  0  0  0  # atno 17321 bound_to 7965
  140.7819  143.4465  151.0475 LP  0  0  0  0  0  0  0  0  0  0  0  0  # atno 17342 bound_to 10162
  139.8145  143.7905  152.3173 LP  0  0  0  0  0  0  0  0  0  0  0  0  # atno 17343 bound_to 10162
  156.1368  130.3642  149.9645 LP  0  0  0  0  0  0  0  0  0  0  0  0  # atno 17370 bound_to 10713
  156.7694  130.9180  151.3644 LP  0  0  0  0  0  0  0  0  0  0  0  0  # atno 17371 bound_to 10713
  140.4916  134.1187  155.7234 LP  0  0  0  0  0  0  0  0  0  0  0  0  # atno 17394 bound_to 11000
  141.1562  133.8877  157.1970 LP  0  0  0  0  0  0  0  0  0  0  0  0  # atno 17395 bound_to 11000

$$$$
