AV-unprocessed.smi:2021|AV-procd|sdf|8181|dock7
  -GOLD-   2272010433D 1   1.00000     0.00000
 Structure written by MMmdl.
 41 42  0  0  0  0  0  0  0  0  3 V2000
  152.6418  144.3992  157.9452 C   0  0  0  0  0  0  0  0  0  0  0  0
  151.7829  143.6998  159.0093 C   0  0  0  0  0  0  0  0  0  0  0  0
  152.2518  144.0914  160.4205 C   0  0  0  0  0  0  0  0  0  0  0  0
  151.8014  142.1699  158.8012 C   0  0  0  0  0  0  0  0  0  0  0  0
  150.7409  141.6903  157.8781 N   0  3  1  0  0  0  0  0  0  0  0  0
  151.0440  141.9360  156.4463 C   0  0  0  0  0  0  0  0  0  0  0  0
  149.8926  141.4351  155.5603 C   0  0  0  0  0  0  0  0  0  0  0  0
  149.6642  140.0584  155.8224 O   0  0  0  0  0  0  0  0  0  0  0  0
  149.2602  139.8210  157.1671 C   0  0  1  0  0  0  0  0  0  0  0  0
  148.9292  138.3274  157.3342 C   0  0  0  0  0  0  0  0  0  0  0  0
  148.4937  138.0240  158.6933 N   0  0  0  0  0  0  0  0  0  0  0  0
  148.7676  136.9042  159.3772 C   0  0  0  0  0  0  0  0  0  0  0  0
  149.4719  136.0282  158.8703 O   0  0  0  0  0  0  0  0  0  0  0  0
  148.2035  136.8681  160.6050 N   0  5  0  0  0  0  0  0  0  0  0  0
  147.5203  135.7801  160.9977 C   0  0  0  0  0  0  0  0  0  0  0  0
  147.2337  134.7706  160.1598 N   0  0  0  0  0  0  0  0  0  0  0  0
  146.5183  133.7459  160.7645 N   0  0  0  0  0  0  0  0  0  0  0  0
  146.2751  134.0144  162.0471 C   0  0  0  0  0  0  0  0  0  0  0  0
  146.8963  135.5432  162.6325 S   0  0  0  0  0  0  0  0  0  0  0  0
  150.4060  140.2627  158.0983 C   0  0  0  0  0  0  0  0  0  0  0  0
  153.6849  144.0871  158.0076 H   0  0  0  0  0  0  0  0  0  0  0  0
  152.6117  145.4826  158.0648 H   0  0  0  0  0  0  0  0  0  0  0  0
  152.2857  144.1714  156.9400 H   0  0  0  0  0  0  0  0  0  0  0  0
  150.7659  144.0684  158.8788 H   0  0  0  0  0  0  0  0  0  0  0  0
  153.2688  143.7463  160.6108 H   0  0  0  0  0  0  0  0  0  0  0  0
  151.6061  143.6661  161.1890 H   0  0  0  0  0  0  0  0  0  0  0  0
  152.2398  145.1739  160.5507 H   0  0  0  0  0  0  0  0  0  0  0  0
  152.7731  141.8442  158.4268 H   0  0  0  0  0  0  0  0  0  0  0  0
  151.6770  141.6920  159.7745 H   0  0  0  0  0  0  0  0  0  0  0  0
  151.1991  142.9981  156.2625 H   0  0  0  0  0  0  0  0  0  0  0  0
  151.9687  141.4247  156.1746 H   0  0  0  0  0  0  0  0  0  0  0  0
  148.9822  142.0103  155.7365 H   0  0  0  0  0  0  0  0  0  0  0  0
  150.1474  141.5561  154.5073 H   0  0  0  0  0  0  0  0  0  0  0  0
  148.3665  140.4077  157.3890 H   0  0  0  0  0  0  0  0  0  0  0  0
  148.1838  138.0093  156.6030 H   0  0  0  0  0  0  0  0  0  0  0  0
  149.8212  137.7307  157.1418 H   0  0  0  0  0  0  0  0  0  0  0  0
  147.9208  138.7154  159.1546 H   0  0  0  0  0  0  0  0  0  0  0  0
  145.7244  133.3094  162.6514 H   0  0  0  0  0  0  0  0  0  0  0  0
  151.2920  139.6492  157.9249 H   0  0  0  0  0  0  0  0  0  0  0  0
  150.1099  140.1133  159.1375 H   0  0  0  0  0  0  0  0  0  0  0  0
  149.9052  142.2128  158.0993 H   0  0  0  0  0  0  0  0  0  0  0  0
  1  2  1  0  0  0  0
  1 21  1  0  0  0  0
  1 22  1  0  0  0  0
  1 23  1  0  0  0  0
  2  3  1  0  0  0  0
  2  4  1  0  0  0  0
  2 24  1  0  0  0  0
  3 25  1  0  0  0  0
  3 26  1  0  0  0  0
  3 27  1  0  0  0  0
  4  5  1  0  0  0  0
  4 28  1  0  0  0  0
  4 29  1  0  0  0  0
  5 20  1  0  0  0  0
  5  6  1  0  0  0  0
  5 41  1  0  0  0  0
  6  7  1  0  0  0  0
  6 30  1  0  0  0  0
  6 31  1  0  0  0  0
  7  8  1  0  0  0  0
  7 32  1  0  0  0  0
  7 33  1  0  0  0  0
  8  9  1  0  0  0  0
  9 10  1  0  0  0  0
  9 20  1  0  0  0  0
  9 34  1  0  0  0  0
 10 11  1  0  0  0  0
 10 35  1  0  0  0  0
 10 36  1  0  0  0  0
 11 12  1  0  0  0  0
 11 37  1  0  0  0  0
 12 13  2  0  0  0  0
 12 14  1  0  0  0  0
 14 15  1  0  0  0  0
 15 19  1  0  0  0  0
 15 16  2  0  0  0  0
 16 17  1  0  0  0  0
 17 18  2  0  0  0  0
 18 19  1  0  0  0  0
 18 38  1  0  0  0  0
 20 39  1  0  0  0  0
 20 40  1  0  0  0  0
M  CHG  1   5   1
M  CHG  1  14  -1
M  END
> <s_m_source_file>
AV-unprocessed.smi

> <i_m_source_file_index>
2021

> <i_lp_mmshare_version>
43012

> <i_f3d_flags>
0

> <s_epik_input>
W0NIM11bQ0hdKFtDSDNdKVtDSDJdTjFbQ0gyXVtDSDJdT1tDQEhdKFtDSDJdMSlbQ0gyXVtOSF1DKD1PKVtOSF1jMm5uW2NIXXMy

> <s_epik_cmdline>
J2VwaWtfcHl0aG9uJywgJy1waCcsICc3LjAnLCAnLXRuJywgJzgnLCAnLW1hJywgJzIwMCcsICctbWV0YWxfYmluZGluZycsICctaW1hZScsICc8aW5maWxlLm1hZT4nLCAnLW9tYWUnLCAnPG91dGZpbGUubWFlPic=

> <r_lp_tautomer_probability>
1

> <r_epik_Ionization_Penalty>
3.15762

> <r_epik_Ionization_Penalty_Charging>
3.12229

> <r_epik_Ionization_Penalty_Neutral>
0.0353298

> <r_epik_State_Penalty>
3.11266

> <r_epik_Charging_Adjusted_Penalty>
6.23495

> <i_epik_Tot_Q>
0

> <i_epik_Tot_abs_Q>
2

> <r_epik_Metal_State_Penalty>
0.541462

> <b_epik_Metal_Only>
1

> <s_lp_Force_Field>
OPLS_2005

> <r_lp_Energy>
10.0285

> <b_lp_Chiralities_Consistent>
1

> <s_lp_Variant>
AV-unprocessed.smi:2021-7

> <Gold.Version>
5.8.1

> <Gold.Id.Protein>
6NUR|6NUR_protein|mol2

> <Gold.PLP.Fitness>
45.4170

> <Gold.PLP.PLP>
-38.6790

> <Gold.PLP.part.hbond>
-2.0000

> <Gold.PLP.part.metal>
0.0000

> <Gold.PLP.part.buried>
-6.9807

> <Gold.PLP.part.nonpolar>
-31.1579

> <Gold.PLP.part.repulsive>
0.2849

> <Gold.PLP.ligand.clash>
0.0000

> <Gold.PLP.ligand.torsion>
1.1774

> <Gold.PLP.Chemscore.Hbond>
2.9840

> <Gold.PLP.Chemscore.CHOScore>
0.0000

> <Gold.PLP.Chemscore.Metal>
0.0000

> <Gold.Chemscore.Hbonds>
donor molecule, donor type, donor heavy atom, donor atom, acceptor molecule, acceptor atom, score
      P1  H  6896  6907       L1    13  1.00
      P1  H  6931  6943       L1    14  1.69
      P1  H  6934  6947       L1    14  0.12

> <Gold.PLP.Chemscore.Internal.Correction>
0.1409

> <Gold.Rescore>
     Score         DG    S(hbond)    S(metal)    S(lipo)     H(rot)  DE(clash)    DE(int)     intcor
     15.16     -17.49       1.85        0.00      90.10       1.85       0.02       2.31       ----

> <Gold.Chemscore.Fitness>
15.1600

> <Gold.Chemscore.DG>
-17.4875

> <Gold.Chemscore.ZeroCoef>
-5.4800

> <Gold.Chemscore.Hbond>
1.8544

> <Gold.Chemscore.Metal>
0.0000

> <Gold.Chemscore.Lipo>
90.0955

> <Gold.Chemscore.Internal_Hbond>
0.0000

> <Gold.Chemscore.DEClash>
0.0174

> <Gold.Chemscore.DEInternal>
2.3102

> <Gold.Chemscore.Rot>
1.8466

> <Gold.Chemscore.Internal.Correction>
   9.000000E+99

> <Gold.Chemscore.Hbonds>
donor molecule, donor type, donor heavy atom, donor atom, acceptor molecule, acceptor atom, score
      P1  H  6896  6907       L1    13  0.98
      P1  H  6931  6943       L1    14  0.64
      P1  H  6934  6947       L1    14  0.04

> <Gold.Chemscore.Hbond.Weighted>
-6.1936

> <Gold.Chemscore.Metal.Weighted>
-0.0000

> <Gold.Chemscore.Lipo.Weighted>
-10.5412

> <Gold.Chemscore.Internal_Hbond.Weighted>
0.0000

> <Gold.Chemscore.DEClash.Weighted>
0.0174

> <Gold.Chemscore.DEInternal.Weighted>
2.3102

> <Gold.Chemscore.Rot.Weighted>
4.7272

> <Gold.Chemscore.Internal.Correction.Weighted>
   9.000000E+99

> <Gold.Protein.RotatedTorsions>
[ 6907 6896 6895 6894 ] final  -52.20 input  -60.11 | X-H torsion
[ 7974 7965 7964 7962 ] final   17.41 input  175.53 | X-H torsion
[ 8008 7997 7996 7995 ] final  161.84 input   59.86 | X-H torsion
[ 10167 10162 10161 10158 ] final  165.41 input  -65.29 | X-H torsion
[ 10718 10713 10712 10709 ] final  149.07 input   66.30 | X-H torsion
[ 10763 10752 10751 10750 ] final  105.54 input  -60.55 | X-H torsion
[ 11005 11000 10999 10996 ] final   90.94 input  -57.11 | X-H torsion

> <Gold.Protein.ActiveResidues>
 VAL166  LYS551  ARG553  GLY616  TRP617  ASP618  TYR619  PRO620  LYS621  CYS622 
 ASP623  PHE694  ASN695  SER759  ASP760  ASP761  ALA762  ILE779  LEU786  VAL792 
 PHE793  MET794  SER795  GLU796  ALA797  LYS798  CYS799  TRP800  GLU811  SER814 

> <Gold.Protein.RotatedAtoms>
  150.8540  134.7873  159.7030 H   0  0  0  0  0  0  0  0  0  0  0  0  # atno 6907 bound_to 6896
  152.4597  134.5210  159.9792 H   0  0  0  0  0  0  0  0  0  0  0  0  # atno 6908 bound_to 6896
  151.5325  133.3408  159.2956 H   0  0  0  0  0  0  0  0  0  0  0  0  # atno 6909 bound_to 6896
  146.2219  139.8606  142.8605 H   0  0  0  0  0  0  0  0  0  0  0  0  # atno 7974 bound_to 7965
  156.2075  140.1766  156.7769 H   0  0  0  0  0  0  0  0  0  0  0  0  # atno 8008 bound_to 7997
  154.5675  140.0688  156.8944 H   0  0  0  0  0  0  0  0  0  0  0  0  # atno 8009 bound_to 7997
  155.2734  140.3344  155.4266 H   0  0  0  0  0  0  0  0  0  0  0  0  # atno 8010 bound_to 7997
  139.4905  144.4135  151.9272 H   0  0  0  0  0  0  0  0  0  0  0  0  # atno 10167 bound_to 10162
  157.3007  131.0870  151.1392 H   0  0  0  0  0  0  0  0  0  0  0  0  # atno 10718 bound_to 10713
  153.3808  135.3906  155.1855 H   0  0  0  0  0  0  0  0  0  0  0  0  # atno 10763 bound_to 10752
  154.8707  135.3725  154.4859 H   0  0  0  0  0  0  0  0  0  0  0  0  # atno 10764 bound_to 10752
  153.5336  135.7085  153.5732 H   0  0  0  0  0  0  0  0  0  0  0  0  # atno 10765 bound_to 10752
  139.8847  134.8644  156.3357 H   0  0  0  0  0  0  0  0  0  0  0  0  # atno 11005 bound_to 11000
  145.2708  141.0108  143.3773 LP  0  0  0  0  0  0  0  0  0  0  0  0  # atno 17320 bound_to 7965
  144.9225  139.4395  143.6534 LP  0  0  0  0  0  0  0  0  0  0  0  0  # atno 17321 bound_to 7965
  140.3577  144.3012  150.5938 LP  0  0  0  0  0  0  0  0  0  0  0  0  # atno 17342 bound_to 10162
  140.5430  143.2220  151.8053 LP  0  0  0  0  0  0  0  0  0  0  0  0  # atno 17343 bound_to 10162
  157.2752  130.6723  149.6039 LP  0  0  0  0  0  0  0  0  0  0  0  0  # atno 17370 bound_to 10713
  155.9671  130.4467  150.5550 LP  0  0  0  0  0  0  0  0  0  0  0  0  # atno 17371 bound_to 10713
  140.9693  133.7338  156.0511 LP  0  0  0  0  0  0  0  0  0  0  0  0  # atno 17394 bound_to 11000
  140.7891  134.3638  157.5469 LP  0  0  0  0  0  0  0  0  0  0  0  0  # atno 17395 bound_to 11000

$$$$
