AV-unprocessed.smi:602|AV-procd|sdf|3035|dock8
  -GOLD-   2262023553D 1   1.00000     0.00000
 Structure written by MMmdl.
 47 48  0  0  0  0  0  0  0  0  1 V2000
  148.3546  141.3301  153.9648 C   0  0  0  0  0  0  0  0  0  0  0  0
  149.0159  140.2998  154.8850 C   0  0  0  0  0  0  0  0  0  0  0  0
  148.3544  140.2461  156.2721 C   0  0  0  0  0  0  0  0  0  0  0  0
  149.0143  139.3150  157.1652 N   0  0  0  0  0  0  0  0  0  0  0  0
  148.3712  138.2233  157.7555 C   0  0  0  0  0  0  0  0  0  0  0  0
  147.0288  138.0244  157.4667 N   0  0  0  0  0  0  0  0  0  0  0  0
  149.0396  137.3483  158.5648 C   0  0  0  0  0  0  0  0  0  0  0  0
  148.3878  136.2560  159.1672 N   0  0  0  0  0  0  0  0  0  0  0  0
  148.3033  135.0153  158.3783 C   0  0  0  0  0  0  0  0  0  0  0  0
  149.4169  134.9235  157.3157 C   0  0  0  0  0  0  0  0  0  0  0  0
  150.6381  134.4240  157.8430 O   0  0  0  0  0  0  0  0  0  0  0  0
  151.6446  134.2148  156.8649 C   0  0  0  0  0  0  0  0  0  0  0  0
  147.9311  136.3083  160.4471 C   0  0  0  0  0  0  0  0  0  0  0  0
  148.0601  137.3150  161.1449 O   0  0  0  0  0  0  0  0  0  0  0  0
  147.2320  135.0682  161.0484 C   0  0  0  0  0  0  0  0  0  0  0  0
  145.7860  135.3206  161.5098 C   0  0  0  0  0  0  0  0  0  0  0  0
  146.0787  134.4751  162.7517 C   0  0  0  0  0  0  0  0  0  0  0  0
  147.5673  134.7460  162.5193 C   0  0  0  0  0  0  0  0  0  0  0  0
  150.4638  137.5479  158.8660 C   0  0  0  0  0  0  0  0  0  0  0  0
  151.1475  136.8403  159.6046 O   0  0  0  0  0  0  0  0  0  0  0  0
  151.0494  138.6393  158.2303 N   0  0  0  0  0  0  0  0  0  0  0  0
  150.3979  139.5253  157.3796 C   0  0  0  0  0  0  0  0  0  0  0  0
  151.0371  140.4384  156.8557 O   0  0  0  0  0  0  0  0  0  0  0  0
  152.0330  138.7965  158.3958 H   0  0  0  0  0  0  0  0  0  0  0  0
  148.8392  141.3474  152.9884 H   0  0  0  0  0  0  0  0  0  0  0  0
  148.4201  142.3333  154.3870 H   0  0  0  0  0  0  0  0  0  0  0  0
  147.3004  141.0993  153.8096 H   0  0  0  0  0  0  0  0  0  0  0  0
  148.9678  139.3160  154.4165 H   0  0  0  0  0  0  0  0  0  0  0  0
  150.0748  140.5391  154.9880 H   0  0  0  0  0  0  0  0  0  0  0  0
  148.3292  141.2249  156.7546 H   0  0  0  0  0  0  0  0  0  0  0  0
  147.3110  139.9386  156.2069 H   0  0  0  0  0  0  0  0  0  0  0  0
  146.5202  138.6423  156.8503 H   0  0  0  0  0  0  0  0  0  0  0  0
  146.4924  137.2913  157.9078 H   0  0  0  0  0  0  0  0  0  0  0  0
  148.4044  134.1597  159.0475 H   0  0  0  0  0  0  0  0  0  0  0  0
  147.3186  134.8953  157.9255 H   0  0  0  0  0  0  0  0  0  0  0  0
  149.1000  134.2552  156.5153 H   0  0  0  0  0  0  0  0  0  0  0  0
  149.5772  135.8952  156.8461 H   0  0  0  0  0  0  0  0  0  0  0  0
  152.5456  133.8372  157.3480 H   0  0  0  0  0  0  0  0  0  0  0  0
  151.9080  135.1365  156.3464 H   0  0  0  0  0  0  0  0  0  0  0  0
  151.3273  133.4776  156.1265 H   0  0  0  0  0  0  0  0  0  0  0  0
  147.3233  134.1733  160.4321 H   0  0  0  0  0  0  0  0  0  0  0  0
  145.5766  136.3656  161.7462 H   0  0  0  0  0  0  0  0  0  0  0  0
  145.0230  134.8986  160.8549 H   0  0  0  0  0  0  0  0  0  0  0  0
  145.6809  134.8792  163.6830 H   0  0  0  0  0  0  0  0  0  0  0  0
  145.8147  133.4248  162.6188 H   0  0  0  0  0  0  0  0  0  0  0  0
  148.2029  133.8704  162.6551 H   0  0  0  0  0  0  0  0  0  0  0  0
  147.9253  135.5914  163.1090 H   0  0  0  0  0  0  0  0  0  0  0  0
  1  2  1  0  0  0  0
  1 25  1  0  0  0  0
  1 26  1  0  0  0  0
  1 27  1  0  0  0  0
  2  3  1  0  0  0  0
  2 28  1  0  0  0  0
  2 29  1  0  0  0  0
  3  4  1  0  0  0  0
  3 30  1  0  0  0  0
  3 31  1  0  0  0  0
  4 22  1  0  0  0  0
  4  5  1  0  0  0  0
  5  6  1  0  0  0  0
  5  7  2  0  0  0  0
  6 32  1  0  0  0  0
  6 33  1  0  0  0  0
  7  8  1  0  0  0  0
  7 19  1  0  0  0  0
  8  9  1  0  0  0  0
  8 13  1  0  0  0  0
  9 10  1  0  0  0  0
  9 34  1  0  0  0  0
  9 35  1  0  0  0  0
 10 11  1  0  0  0  0
 10 36  1  0  0  0  0
 10 37  1  0  0  0  0
 11 12  1  0  0  0  0
 12 38  1  0  0  0  0
 12 39  1  0  0  0  0
 12 40  1  0  0  0  0
 13 14  2  0  0  0  0
 13 15  1  0  0  0  0
 15 18  1  0  0  0  0
 15 16  1  0  0  0  0
 15 41  1  0  0  0  0
 16 17  1  0  0  0  0
 16 42  1  0  0  0  0
 16 43  1  0  0  0  0
 17 18  1  0  0  0  0
 17 44  1  0  0  0  0
 17 45  1  0  0  0  0
 18 46  1  0  0  0  0
 18 47  1  0  0  0  0
 19 20  2  0  0  0  0
 19 21  1  0  0  0  0
 21 24  1  0  0  0  0
 21 22  1  0  0  0  0
 22 23  2  0  0  0  0
M  END
> <s_m_source_file>
AV-unprocessed.smi

> <i_m_source_file_index>
602

> <i_lp_mmshare_version>
43012

> <i_f3d_flags>
0

> <s_epik_input>
W0NIM11bQ0gyXVtDSDJdbjFjKFtOSDJdKWMoYyg9TylbbkhdYzE9TylOKFtDSDJdW0NIMl1PW0NIM10pQyg9TylbQ0hdMltDSDJdW0NIMl1bQ0gyXTI=

> <s_epik_cmdline>
J2VwaWtfcHl0aG9uJywgJy1waCcsICc3LjAnLCAnLXRuJywgJzgnLCAnLW1hJywgJzIwMCcsICctbWV0YWxfYmluZGluZycsICctaW1hZScsICc8aW5maWxlLm1hZT4nLCAnLW9tYWUnLCAnPG91dGZpbGUubWFlPic=

> <r_lp_tautomer_probability>
1

> <r_epik_Ionization_Penalty>
1.77098e-05

> <r_epik_Ionization_Penalty_Charging>
5.46221e-06

> <r_epik_Ionization_Penalty_Neutral>
1.22476e-05

> <r_epik_State_Penalty>
-0

> <r_epik_Charging_Adjusted_Penalty>
5.46221e-06

> <i_epik_Tot_Q>
0

> <i_epik_Tot_abs_Q>
0

> <r_epik_Metal_State_Penalty>
-0

> <b_epik_Metal_Only>
0

> <s_epik_Chemistry_Notes>
This compound has an imine and may undergo hydrolysis.

> <s_lp_Force_Field>
OPLS_2005

> <r_lp_Energy>
36.0285

> <b_lp_Chiralities_Consistent>
1

> <s_lp_Variant>
AV-unprocessed.smi:602-1

> <Gold.Version>
5.8.1

> <Gold.Id.Protein>
6NUR|6NUR_protein|mol2

> <Gold.PLP.Fitness>
38.0608

> <Gold.PLP.PLP>
-29.8150

> <Gold.PLP.part.hbond>
-4.0000

> <Gold.PLP.part.metal>
0.0000

> <Gold.PLP.part.buried>
-4.1596

> <Gold.PLP.part.nonpolar>
-21.8475

> <Gold.PLP.part.repulsive>
0.1178

> <Gold.PLP.ligand.clash>
0.0000

> <Gold.PLP.ligand.torsion>
2.2644

> <Gold.PLP.Chemscore.Hbond>
3.4000

> <Gold.PLP.Chemscore.CHOScore>
0.0000

> <Gold.PLP.Chemscore.Metal>
0.0000

> <Gold.Chemscore.Hbonds>
donor molecule, donor type, donor heavy atom, donor atom, acceptor molecule, acceptor atom, score
      P1  H  6896  6907       L1    11  0.48
      P1  H  6896  6908       L1    20  1.00
      P1  H  6931  6943       L1    14  0.94
      P1  H  6934  6947       L1    14  0.66

> <Gold.PLP.Chemscore.Internal.Correction>
2.5746

> <Gold.Rescore>
     Score         DG    S(hbond)    S(metal)    S(lipo)     H(rot)  DE(clash)    DE(int)     intcor
     13.94     -17.55       3.20        0.00      58.26       2.12       0.17       3.44       ----

> <Gold.Chemscore.Fitness>
13.9398

> <Gold.Chemscore.DG>
-17.5488

> <Gold.Chemscore.ZeroCoef>
-5.4800

> <Gold.Chemscore.Hbond>
3.1995

> <Gold.Chemscore.Metal>
0.0000

> <Gold.Chemscore.Lipo>
58.2581

> <Gold.Chemscore.Internal_Hbond>
0.0000

> <Gold.Chemscore.DEClash>
0.1713

> <Gold.Chemscore.DEInternal>
3.4377

> <Gold.Chemscore.Rot>
2.1226

> <Gold.Chemscore.Internal.Correction>
   9.000000E+99

> <Gold.Chemscore.Hbonds>
donor molecule, donor type, donor heavy atom, donor atom, acceptor molecule, acceptor atom, score
      P1  H  6896  6907       L1    11  0.43
      P1  H  6896  6908       L1    20  1.00
      P1  H  6931  6943       L1    14  0.88
      P1  H  6934  6947       L1    14  0.66

> <Gold.Chemscore.Hbond.Weighted>
-10.6863

> <Gold.Chemscore.Metal.Weighted>
-0.0000

> <Gold.Chemscore.Lipo.Weighted>
-6.8162

> <Gold.Chemscore.Internal_Hbond.Weighted>
0.0000

> <Gold.Chemscore.DEClash.Weighted>
0.1713

> <Gold.Chemscore.DEInternal.Weighted>
3.4377

> <Gold.Chemscore.Rot.Weighted>
5.4338

> <Gold.Chemscore.Internal.Correction.Weighted>
   9.000000E+99

> <Gold.Protein.RotatedTorsions>
[ 6907 6896 6895 6894 ] final -121.98 input  -60.11 | X-H torsion
[ 7974 7965 7964 7962 ] final  -44.50 input  175.53 | X-H torsion
[ 8008 7997 7996 7995 ] final  -20.24 input   59.86 | X-H torsion
[ 10167 10162 10161 10158 ] final   32.90 input  -65.29 | X-H torsion
[ 10718 10713 10712 10709 ] final  -75.51 input   66.30 | X-H torsion
[ 10763 10752 10751 10750 ] final   60.60 input  -60.55 | X-H torsion
[ 11005 11000 10999 10996 ] final  165.31 input  -57.11 | X-H torsion

> <Gold.Protein.ActiveResidues>
 VAL166  LYS551  ARG553  GLY616  TRP617  ASP618  TYR619  PRO620  LYS621  CYS622 
 ASP623  PHE694  ASN695  SER759  ASP760  ASP761  ALA762  ILE779  LEU786  VAL792 
 PHE793  MET794  SER795  GLU796  ALA797  LYS798  CYS799  TRP800  GLU811  SER814 

> <Gold.Protein.RotatedAtoms>
  150.8533  133.7753  159.3017 H   0  0  0  0  0  0  0  0  0  0  0  0  # atno 6907 bound_to 6896
  151.5419  135.1067  159.9938 H   0  0  0  0  0  0  0  0  0  0  0  0  # atno 6908 bound_to 6896
  152.4570  133.7700  159.6849 H   0  0  0  0  0  0  0  0  0  0  0  0  # atno 6909 bound_to 6896
  145.9915  140.7176  142.9315 H   0  0  0  0  0  0  0  0  0  0  0  0  # atno 7974 bound_to 7965
  154.4783  140.2067  155.9825 H   0  0  0  0  0  0  0  0  0  0  0  0  # atno 8008 bound_to 7997
  156.1124  140.3227  155.8062 H   0  0  0  0  0  0  0  0  0  0  0  0  # atno 8009 bound_to 7997
  155.4611  140.0524  157.2981 H   0  0  0  0  0  0  0  0  0  0  0  0  # atno 8010 bound_to 7997
  140.4457  144.1123  150.6182 H   0  0  0  0  0  0  0  0  0  0  0  0  # atno 10167 bound_to 10162
  156.0205  130.4442  150.3053 H   0  0  0  0  0  0  0  0  0  0  0  0  # atno 10718 bound_to 10713
  152.9926  135.5530  154.5900 H   0  0  0  0  0  0  0  0  0  0  0  0  # atno 10763 bound_to 10752
  154.5264  135.2811  155.1220 H   0  0  0  0  0  0  0  0  0  0  0  0  # atno 10764 bound_to 10752
  154.2553  135.6391  153.5308 H   0  0  0  0  0  0  0  0  0  0  0  0  # atno 10765 bound_to 10752
  140.2548  134.7948  157.3536 H   0  0  0  0  0  0  0  0  0  0  0  0  # atno 11005 bound_to 11000
  144.6890  140.3077  143.7253 LP  0  0  0  0  0  0  0  0  0  0  0  0  # atno 17320 bound_to 7965
  145.7623  139.1829  143.2260 LP  0  0  0  0  0  0  0  0  0  0  0  0  # atno 17321 bound_to 7965
  140.4267  143.2587  151.9648 LP  0  0  0  0  0  0  0  0  0  0  0  0  # atno 17342 bound_to 10162
  139.4792  144.5782  151.7977 LP  0  0  0  0  0  0  0  0  0  0  0  0  # atno 17343 bound_to 10162
  157.1156  131.0233  151.3030 LP  0  0  0  0  0  0  0  0  0  0  0  0  # atno 17370 bound_to 10713
  157.4669  130.7686  149.7288 LP  0  0  0  0  0  0  0  0  0  0  0  0  # atno 17371 bound_to 10713
  140.1522  134.4835  155.7953 LP  0  0  0  0  0  0  0  0  0  0  0  0  # atno 17394 bound_to 11000
  141.2197  133.6867  156.7398 LP  0  0  0  0  0  0  0  0  0  0  0  0  # atno 17395 bound_to 11000

$$$$
