AV-unprocessed.smi:2909|AV-procd|sdf|11171|dock5
  -GOLD-   2272016 63D 1   1.00000     0.00000
 Structure written by MMmdl.
 44 45  0  0  0  0  0  0  0  0  1 V2000
  149.2780  133.9252  157.3542 C   0  0  0  0  0  0  0  0  0  0  0  0
  149.8028  135.0607  156.5432 C   0  0  0  0  0  0  0  0  0  0  0  0
  149.1849  136.1648  156.0273 C   0  0  0  0  0  0  0  0  0  0  0  0
  150.2266  136.8727  155.3566 C   0  0  0  0  0  0  0  0  0  0  0  0
  150.1294  138.1726  154.6036 C   0  0  0  0  0  0  0  0  0  0  0  0
  151.0792  139.2036  155.2136 C   0  0  0  0  0  0  0  0  0  0  0  0
  152.1638  139.4340  154.6788 O   0  0  0  0  0  0  0  0  0  0  0  0
  150.6628  139.8115  156.3359 N   0  0  0  0  0  0  0  0  0  0  0  0
  151.4251  140.7992  157.0927 C   0  0  2  0  0  0  0  0  0  0  0  0
  151.5463  140.3749  158.5663 C   0  0  0  0  0  0  0  0  0  0  0  0
  152.2833  141.4344  159.4002 C   0  0  0  0  0  0  0  0  0  0  0  0
  151.6211  142.8319  159.3121 C   0  0  1  0  0  0  0  0  0  0  0  0
  152.3880  143.9019  160.1445 C   0  0  0  0  0  0  0  0  0  0  0  0
  152.5218  143.5153  161.6306 C   0  0  0  0  0  0  0  0  0  0  0  0
  151.7483  145.3010  160.0541 C   0  0  0  0  0  0  0  0  0  0  0  0
  151.4801  143.2315  157.8222 C   0  0  0  0  0  0  0  0  0  0  0  0
  150.7391  142.1694  156.9943 C   0  0  0  0  0  0  0  0  0  0  0  0
  151.3948  136.2518  155.4454 N   0  0  0  0  0  0  0  0  0  0  0  0
  151.1245  135.1524  156.1725 N   0  0  0  0  0  0  0  0  0  0  0  0
  151.8428  134.4812  156.4050 H   0  0  0  0  0  0  0  0  0  0  0  0
  148.2055  133.8020  157.2022 H   0  0  0  0  0  0  0  0  0  0  0  0
  149.4507  134.0978  158.4165 H   0  0  0  0  0  0  0  0  0  0  0  0
  149.7656  132.9897  157.0791 H   0  0  0  0  0  0  0  0  0  0  0  0
  148.1425  136.4321  156.1180 H   0  0  0  0  0  0  0  0  0  0  0  0
  150.3777  138.0338  153.5503 H   0  0  0  0  0  0  0  0  0  0  0  0
  149.1077  138.5531  154.6316 H   0  0  0  0  0  0  0  0  0  0  0  0
  149.7576  139.5570  156.7040 H   0  0  0  0  0  0  0  0  0  0  0  0
  152.4251  140.8866  156.6632 H   0  0  0  0  0  0  0  0  0  0  0  0
  150.5532  140.2104  158.9868 H   0  0  0  0  0  0  0  0  0  0  0  0
  152.0734  139.4230  158.6411 H   0  0  0  0  0  0  0  0  0  0  0  0
  152.3089  141.0834  160.4308 H   0  0  0  0  0  0  0  0  0  0  0  0
  153.3206  141.4979  159.0688 H   0  0  0  0  0  0  0  0  0  0  0  0
  150.6152  142.7475  159.7265 H   0  0  0  0  0  0  0  0  0  0  0  0
  153.3981  143.9842  159.7411 H   0  0  0  0  0  0  0  0  0  0  0  0
  151.5473  143.3185  162.0787 H   0  0  0  0  0  0  0  0  0  0  0  0
  152.9925  144.3145  162.2041 H   0  0  0  0  0  0  0  0  0  0  0  0
  153.1433  142.6316  161.7703 H   0  0  0  0  0  0  0  0  0  0  0  0
  150.6978  145.2769  160.3456 H   0  0  0  0  0  0  0  0  0  0  0  0
  151.8120  145.7161  159.0489 H   0  0  0  0  0  0  0  0  0  0  0  0
  152.2559  146.0087  160.7102 H   0  0  0  0  0  0  0  0  0  0  0  0
  150.9325  144.1677  157.7237 H   0  0  0  0  0  0  0  0  0  0  0  0
  152.4679  143.4030  157.3923 H   0  0  0  0  0  0  0  0  0  0  0  0
  150.6906  142.4876  155.9521 H   0  0  0  0  0  0  0  0  0  0  0  0
  149.7079  142.0950  157.3430 H   0  0  0  0  0  0  0  0  0  0  0  0
  1  2  1  0  0  0  0
  1 21  1  0  0  0  0
  1 22  1  0  0  0  0
  1 23  1  0  0  0  0
  2 19  1  0  0  0  0
  2  3  2  0  0  0  0
  3  4  1  0  0  0  0
  3 24  1  0  0  0  0
  4  5  1  0  0  0  0
  4 18  2  0  0  0  0
  5  6  1  0  0  0  0
  5 25  1  0  0  0  0
  5 26  1  0  0  0  0
  6  7  2  0  0  0  0
  6  8  1  0  0  0  0
  8  9  1  0  0  0  0
  8 27  1  0  0  0  0
  9 17  1  0  0  0  0
  9 10  1  0  0  0  0
  9 28  1  0  0  0  0
 10 11  1  0  0  0  0
 10 29  1  0  0  0  0
 10 30  1  0  0  0  0
 11 12  1  0  0  0  0
 11 31  1  0  0  0  0
 11 32  1  0  0  0  0
 12 13  1  0  0  0  0
 12 16  1  0  0  0  0
 12 33  1  0  0  0  0
 13 14  1  0  0  0  0
 13 15  1  0  0  0  0
 13 34  1  0  0  0  0
 14 35  1  0  0  0  0
 14 36  1  0  0  0  0
 14 37  1  0  0  0  0
 15 38  1  0  0  0  0
 15 39  1  0  0  0  0
 15 40  1  0  0  0  0
 16 17  1  0  0  0  0
 16 41  1  0  0  0  0
 16 42  1  0  0  0  0
 17 43  1  0  0  0  0
 17 44  1  0  0  0  0
 18 19  1  0  0  0  0
 19 20  1  0  0  0  0
M  END
> <s_m_source_file>
AV-unprocessed.smi

> <i_m_source_file_index>
2909

> <i_lp_mmshare_version>
43012

> <i_f3d_flags>
0

> <s_epik_input>
W0NIM11jMVtjSF1jKG5bbkhdMSlbQ0gyXUMoPU8pW05IXVtDQEBIXTJbQ0gyXVtDSDJdW0NAQEhdKFtDSF0oW0NIM10pW0NIM10pW0NIMl1bQ0gyXTI=

> <s_epik_cmdline>
J2VwaWtfcHl0aG9uJywgJy1waCcsICc3LjAnLCAnLXRuJywgJzgnLCAnLW1hJywgJzIwMCcsICctbWV0YWxfYmluZGluZycsICctaW1hZScsICc8aW5maWxlLm1hZT4nLCAnLW9tYWUnLCAnPG91dGZpbGUubWFlPic=

> <r_lp_tautomer_probability>
0.5

> <r_epik_Ionization_Penalty>
9.34828e-05

> <r_epik_Ionization_Penalty_Charging>
0

> <r_epik_Ionization_Penalty_Neutral>
9.34828e-05

> <r_epik_State_Penalty>
0.41068

> <r_epik_Charging_Adjusted_Penalty>
0.41068

> <i_epik_Tot_Q>
0

> <i_epik_Tot_abs_Q>
0

> <r_epik_Metal_State_Penalty>
0.4107

> <b_epik_Metal_Only>
0

> <s_lp_Force_Field>
OPLS_2005

> <r_lp_Energy>
11.82

> <b_lp_Chiralities_Consistent>
1

> <s_lp_Variant>
AV-unprocessed.smi:2909-1

> <Gold.Version>
5.8.1

> <Gold.Id.Protein>
6NUR|6NUR_protein|mol2

> <Gold.PLP.Fitness>
41.7777

> <Gold.PLP.PLP>
-36.9474

> <Gold.PLP.part.hbond>
-2.0000

> <Gold.PLP.part.metal>
0.0000

> <Gold.PLP.part.buried>
-6.3993

> <Gold.PLP.part.nonpolar>
-30.1647

> <Gold.PLP.part.repulsive>
0.3524

> <Gold.PLP.ligand.clash>
0.0000

> <Gold.PLP.ligand.torsion>
0.3198

> <Gold.PLP.Chemscore.Hbond>
1.8160

> <Gold.PLP.Chemscore.CHOScore>
0.0000

> <Gold.PLP.Chemscore.Metal>
0.0000

> <Gold.Chemscore.Hbonds>
donor molecule, donor type, donor heavy atom, donor atom, acceptor molecule, acceptor atom, score
      P1  H  7989  7998       L1     7  0.82
      P1  H 10752 10765       L1    18  0.90

> <Gold.PLP.Chemscore.Internal.Correction>
0.0218

> <Gold.Rescore>
     Score         DG    S(hbond)    S(metal)    S(lipo)     H(rot)  DE(clash)    DE(int)     intcor
     16.97     -17.39       1.27        0.00      98.33       1.50       0.08       0.34       ----

> <Gold.Chemscore.Fitness>
16.9723

> <Gold.Chemscore.DG>
-17.3902

> <Gold.Chemscore.ZeroCoef>
-5.4800

> <Gold.Chemscore.Hbond>
1.2720

> <Gold.Chemscore.Metal>
0.0000

> <Gold.Chemscore.Lipo>
98.3281

> <Gold.Chemscore.Internal_Hbond>
0.0000

> <Gold.Chemscore.DEClash>
0.0757

> <Gold.Chemscore.DEInternal>
0.3422

> <Gold.Chemscore.Rot>
1.5011

> <Gold.Chemscore.Internal.Correction>
   9.000000E+99

> <Gold.Chemscore.Hbonds>
donor molecule, donor type, donor heavy atom, donor atom, acceptor molecule, acceptor atom, score
      P1  H  7989  7998       L1     7  0.24
      P1  H 10752 10765       L1    18  0.18

> <Gold.Chemscore.Hbond.Weighted>
-4.2486

> <Gold.Chemscore.Metal.Weighted>
-0.0000

> <Gold.Chemscore.Lipo.Weighted>
-11.5044

> <Gold.Chemscore.Internal_Hbond.Weighted>
0.0000

> <Gold.Chemscore.DEClash.Weighted>
0.0757

> <Gold.Chemscore.DEInternal.Weighted>
0.3422

> <Gold.Chemscore.Rot.Weighted>
3.8429

> <Gold.Chemscore.Internal.Correction.Weighted>
   9.000000E+99

> <Gold.Protein.RotatedTorsions>
[ 6907 6896 6895 6894 ] final   -7.24 input  -60.11 | X-H torsion
[ 7974 7965 7964 7962 ] final  100.15 input  175.53 | X-H torsion
[ 8008 7997 7996 7995 ] final  104.49 input   59.86 | X-H torsion
[ 10167 10162 10161 10158 ] final  -70.00 input  -65.29 | X-H torsion
[ 10718 10713 10712 10709 ] final  -17.17 input   66.30 | X-H torsion
[ 10763 10752 10751 10750 ] final  175.41 input  -60.55 | X-H torsion
[ 11005 11000 10999 10996 ] final -131.70 input  -57.11 | X-H torsion

> <Gold.Protein.ActiveResidues>
 VAL166  LYS551  ARG553  GLY616  TRP617  ASP618  TYR619  PRO620  LYS621  CYS622 
 ASP623  PHE694  ASN695  SER759  ASP760  ASP761  ALA762  ILE779  LEU786  VAL792 
 PHE793  MET794  SER795  GLU796  ALA797  LYS798  CYS799  TRP800  GLU811  SER814 

> <Gold.Protein.RotatedAtoms>
  151.4527  135.1031  159.9702 H   0  0  0  0  0  0  0  0  0  0  0  0  # atno 6907 bound_to 6896
  152.4882  133.8425  159.7170 H   0  0  0  0  0  0  0  0  0  0  0  0  # atno 6908 bound_to 6896
  150.9011  133.7058  159.2906 H   0  0  0  0  0  0  0  0  0  0  0  0  # atno 6909 bound_to 6896
  145.3894  139.2365  143.3360 H   0  0  0  0  0  0  0  0  0  0  0  0  # atno 7974 bound_to 7965
  156.1577  140.3147  155.8754 H   0  0  0  0  0  0  0  0  0  0  0  0  # atno 8008 bound_to 7997
  155.3844  140.0490  157.3060 H   0  0  0  0  0  0  0  0  0  0  0  0  # atno 8009 bound_to 7997
  154.5117  140.2167  155.9155 H   0  0  0  0  0  0  0  0  0  0  0  0  # atno 8010 bound_to 7997
  140.5386  143.2316  151.7130 H   0  0  0  0  0  0  0  0  0  0  0  0  # atno 10167 bound_to 10162
  156.5774  130.4765  149.6336 H   0  0  0  0  0  0  0  0  0  0  0  0  # atno 10718 bound_to 10713
  154.4672  135.2770  155.1670 H   0  0  0  0  0  0  0  0  0  0  0  0  # atno 10763 bound_to 10752
  154.3433  135.6165  153.5611 H   0  0  0  0  0  0  0  0  0  0  0  0  # atno 10764 bound_to 10752
  152.9860  135.5794  154.5045 H   0  0  0  0  0  0  0  0  0  0  0  0  # atno 10765 bound_to 10752
  140.9236  134.1412  157.4294 H   0  0  0  0  0  0  0  0  0  0  0  0  # atno 11005 bound_to 11000
  146.2804  140.4575  142.8778 LP  0  0  0  0  0  0  0  0  0  0  0  0  # atno 17320 bound_to 7965
  144.8451  140.6916  143.6204 LP  0  0  0  0  0  0  0  0  0  0  0  0  # atno 17321 bound_to 7965
  139.4980  144.4003  152.0188 LP  0  0  0  0  0  0  0  0  0  0  0  0  # atno 17342 bound_to 10162
  140.3111  144.3537  150.6034 LP  0  0  0  0  0  0  0  0  0  0  0  0  # atno 17343 bound_to 10162
  156.2662  130.6990  151.1774 LP  0  0  0  0  0  0  0  0  0  0  0  0  # atno 17370 bound_to 10713
  157.7334  131.0591  150.5576 LP  0  0  0  0  0  0  0  0  0  0  0  0  # atno 17371 bound_to 10713
  139.8780  134.9980  156.5877 LP  0  0  0  0  0  0  0  0  0  0  0  0  # atno 17394 bound_to 11000
  140.7956  133.8547  155.8683 LP  0  0  0  0  0  0  0  0  0  0  0  0  # atno 17395 bound_to 11000

$$$$
