AV-unprocessed.smi:3034|AV-procd|sdf|11580|dock8
  -GOLD-   2272016553D 1   1.00000     0.00000
 Structure written by MMmdl.
 31 31  0  0  0  0  0  0  0  0  2 V2000
  145.3234  133.5803  162.5709 C   0  0  0  0  0  0  0  0  0  0  0  0
  146.0413  134.8975  162.2587 C   0  0  0  0  0  0  0  0  0  0  0  0
  147.1596  134.7248  161.2229 C   0  0  0  0  0  0  0  0  0  0  0  0
  147.9434  136.3484  160.8088 S   0  0  0  0  0  0  0  0  0  0  0  0
  146.8769  137.1881  160.2374 O   0  0  0  0  0  0  0  0  0  0  0  0
  148.5411  136.8170  162.0684 O   0  0  0  0  0  0  0  0  0  0  0  0
  149.0907  135.9160  159.7418 N   0  5  0  0  0  0  0  0  0  0  0  0
  149.1280  136.4830  158.3992 C   0  0  0  0  0  0  0  0  0  0  0  0
  150.4970  137.1601  158.1333 C   0  0  1  0  0  0  0  0  0  0  0  0
  151.5124  136.1963  158.3416 O   0  0  0  0  0  0  0  0  0  0  0  0
  150.6191  137.8374  156.7636 C   0  0  0  0  0  0  0  0  0  0  0  0
  150.8667  139.2270  156.6766 C   0  0  0  0  0  0  0  0  0  0  0  0
  150.9818  139.8181  155.4042 C   0  0  0  0  0  0  0  0  0  0  0  0
  150.8558  139.0030  154.2636 C   0  0  0  0  0  0  0  0  0  0  0  0
  150.6178  137.6272  154.4481 C   0  0  0  0  0  0  0  0  0  0  0  0
  150.5055  137.0503  155.6634 N   0  0  0  0  0  0  0  0  0  0  0  0
  144.5307  133.7346  163.3030 H   0  0  0  0  0  0  0  0  0  0  0  0
  146.0150  132.8426  162.9787 H   0  0  0  0  0  0  0  0  0  0  0  0
  144.8706  133.1568  161.6740 H   0  0  0  0  0  0  0  0  0  0  0  0
  145.3164  135.6259  161.8940 H   0  0  0  0  0  0  0  0  0  0  0  0
  146.4547  135.3082  163.1802 H   0  0  0  0  0  0  0  0  0  0  0  0
  147.9375  134.0628  161.6032 H   0  0  0  0  0  0  0  0  0  0  0  0
  146.7637  134.2855  160.3077 H   0  0  0  0  0  0  0  0  0  0  0  0
  148.9763  135.7058  157.6488 H   0  0  0  0  0  0  0  0  0  0  0  0
  148.3250  137.2040  158.2418 H   0  0  0  0  0  0  0  0  0  0  0  0
  150.6572  137.9238  158.8960 H   0  0  0  0  0  0  0  0  0  0  0  0
  151.4849  135.5793  157.6272 H   0  0  0  0  0  0  0  0  0  0  0  0
  150.9551  139.8292  157.5689 H   0  0  0  0  0  0  0  0  0  0  0  0
  151.1636  140.8781  155.3055 H   0  0  0  0  0  0  0  0  0  0  0  0
  150.9387  139.4217  153.2718 H   0  0  0  0  0  0  0  0  0  0  0  0
  150.5173  136.9715  153.5959 H   0  0  0  0  0  0  0  0  0  0  0  0
  1  2  1  0  0  0  0
  1 17  1  0  0  0  0
  1 18  1  0  0  0  0
  1 19  1  0  0  0  0
  2  3  1  0  0  0  0
  2 20  1  0  0  0  0
  2 21  1  0  0  0  0
  3  4  1  0  0  0  0
  3 22  1  0  0  0  0
  3 23  1  0  0  0  0
  4  5  2  0  0  0  0
  4  6  2  0  0  0  0
  4  7  1  0  0  0  0
  7  8  1  0  0  0  0
  8  9  1  0  0  0  0
  8 24  1  0  0  0  0
  8 25  1  0  0  0  0
  9 10  1  0  0  0  0
  9 11  1  0  0  0  0
  9 26  1  0  0  0  0
 10 27  1  0  0  0  0
 11 16  1  0  0  0  0
 11 12  2  0  0  0  0
 12 13  1  0  0  0  0
 12 28  1  0  0  0  0
 13 14  2  0  0  0  0
 13 29  1  0  0  0  0
 14 15  1  0  0  0  0
 14 30  1  0  0  0  0
 15 16  2  0  0  0  0
 15 31  1  0  0  0  0
M  CHG  1   7  -1
M  END
> <s_m_source_file>
AV-unprocessed.smi

> <i_m_source_file_index>
3034

> <i_lp_mmshare_version>
43012

> <i_f3d_flags>
0

> <s_epik_input>
W0NIM11bQ0gyXVtDSDJdUyg9TykoPU8pW05IXVtDSDJdW0NASF0oW09IXSljMVtjSF1bY0hdW2NIXVtjSF1uMQ==

> <s_epik_cmdline>
J2VwaWtfcHl0aG9uJywgJy1waCcsICc3LjAnLCAnLXRuJywgJzgnLCAnLW1hJywgJzIwMCcsICctbWV0YWxfYmluZGluZycsICctaW1hZScsICc8aW5maWxlLm1hZT4nLCAnLW9tYWUnLCAnPG91dGZpbGUubWFlPic=

> <r_epik_Ionization_Penalty>
6.18156

> <r_epik_Ionization_Penalty_Charging>
6.17474

> <r_epik_Ionization_Penalty_Neutral>
0.0068235

> <r_epik_State_Penalty>
6.17598

> <r_epik_Charging_Adjusted_Penalty>
12.3507

> <i_epik_Tot_Q>
-1

> <i_epik_Tot_abs_Q>
1

> <r_epik_Metal_State_Penalty>
2.11803

> <b_epik_Metal_Only>
1

> <s_lp_Force_Field>
OPLS_2005

> <r_lp_Energy>
1.09161

> <b_lp_Chiralities_Consistent>
1

> <s_lp_Variant>
AV-unprocessed.smi:3034-4

> <Gold.Version>
5.8.1

> <Gold.Id.Protein>
6NUR|6NUR_protein|mol2

> <Gold.PLP.Fitness>
40.9315

> <Gold.PLP.PLP>
-25.6246

> <Gold.PLP.part.hbond>
-3.9645

> <Gold.PLP.part.metal>
0.0000

> <Gold.PLP.part.buried>
-1.4910

> <Gold.PLP.part.nonpolar>
-19.7709

> <Gold.PLP.part.repulsive>
0.0620

> <Gold.PLP.ligand.clash>
0.0000

> <Gold.PLP.ligand.torsion>
0.5461

> <Gold.PLP.Chemscore.Hbond>
3.9913

> <Gold.PLP.Chemscore.CHOScore>
1.1247

> <Gold.PLP.Chemscore.Metal>
0.0000

> <Gold.Chemscore.Hbonds>
donor molecule, donor type, donor heavy atom, donor atom, acceptor molecule, acceptor atom, score
      P1  H  6896  6908       L1     7  2.00
      P1  H  6931  6943       L1     6  0.96
      P1  H  6934  6947       L1     5  1.00
      L1  C    15    31       P1  7948  0.53
      L1  C    15    31       P1  7949  0.49

> <Gold.PLP.Chemscore.Internal.Correction>
1.0512

> <Gold.Rescore>
     Score         DG    S(hbond)    S(metal)    S(lipo)     H(rot)  DE(clash)    DE(int)     intcor
     12.47     -14.74       2.48        0.00      58.32       2.29       1.70       0.57       ----

> <Gold.Chemscore.Fitness>
12.4699

> <Gold.Chemscore.DG>
-14.7374

> <Gold.Chemscore.ZeroCoef>
-5.4800

> <Gold.Chemscore.Hbond>
2.4835

> <Gold.Chemscore.Metal>
0.0000

> <Gold.Chemscore.Lipo>
58.3219

> <Gold.Chemscore.Internal_Hbond>
0.0000

> <Gold.Chemscore.DEClash>
1.7022

> <Gold.Chemscore.DEInternal>
0.5653

> <Gold.Chemscore.Rot>
2.2895

> <Gold.Chemscore.Internal.Correction>
   9.000000E+99

> <Gold.Chemscore.Hbonds>
donor molecule, donor type, donor heavy atom, donor atom, acceptor molecule, acceptor atom, score
      P1  H  6896  6908       L1     7  0.24
      P1  H  6931  6943       L1     6  0.72
      P1  H  6934  6947       L1     5  0.59

> <Gold.Chemscore.Hbond.Weighted>
-8.2949

> <Gold.Chemscore.Metal.Weighted>
-0.0000

> <Gold.Chemscore.Lipo.Weighted>
-6.8237

> <Gold.Chemscore.Internal_Hbond.Weighted>
0.0000

> <Gold.Chemscore.DEClash.Weighted>
1.7022

> <Gold.Chemscore.DEInternal.Weighted>
0.5653

> <Gold.Chemscore.Rot.Weighted>
5.8612

> <Gold.Chemscore.Internal.Correction.Weighted>
   9.000000E+99

> <Gold.Protein.RotatedTorsions>
[ 6907 6896 6895 6894 ] final -174.95 input  -60.11 | X-H torsion
[ 7974 7965 7964 7962 ] final -176.99 input  175.53 | X-H torsion
[ 8008 7997 7996 7995 ] final  -19.67 input   59.86 | X-H torsion
[ 10167 10162 10161 10158 ] final -109.88 input  -65.29 | X-H torsion
[ 10718 10713 10712 10709 ] final -120.34 input   66.30 | X-H torsion
[ 10763 10752 10751 10750 ] final  140.50 input  -60.55 | X-H torsion
[ 11005 11000 10999 10996 ] final   10.73 input  -57.11 | X-H torsion

> <Gold.Protein.ActiveResidues>
 VAL166  LYS551  ARG553  GLY616  TRP617  ASP618  TYR619  PRO620  LYS621  CYS622 
 ASP623  PHE694  ASN695  SER759  ASP760  ASP761  ALA762  ILE779  LEU786  VAL792 
 PHE793  MET794  SER795  GLU796  ALA797  LYS798  CYS799  TRP800  GLU811  SER814 

> <Gold.Protein.RotatedAtoms>
  151.5806  133.3378  159.3007 H   0  0  0  0  0  0  0  0  0  0  0  0  # atno 6907 bound_to 6896
  150.8315  134.7574  159.6869 H   0  0  0  0  0  0  0  0  0  0  0  0  # atno 6908 bound_to 6896
  152.4398  134.5620  159.9948 H   0  0  0  0  0  0  0  0  0  0  0  0  # atno 6909 bound_to 6896
  144.7127  140.1086  143.6412 H   0  0  0  0  0  0  0  0  0  0  0  0  # atno 7974 bound_to 7965
  154.4821  140.2082  155.9740 H   0  0  0  0  0  0  0  0  0  0  0  0  # atno 8008 bound_to 7997
  156.1180  140.3218  155.8137 H   0  0  0  0  0  0  0  0  0  0  0  0  # atno 8009 bound_to 7997
  155.4518  140.0517  157.2991 H   0  0  0  0  0  0  0  0  0  0  0  0  # atno 8010 bound_to 7997
  140.1505  143.4203  152.1498 H   0  0  0  0  0  0  0  0  0  0  0  0  # atno 10167 bound_to 10162
  156.1251  130.6353  150.9528 H   0  0  0  0  0  0  0  0  0  0  0  0  # atno 10718 bound_to 10713
  153.9237  135.2998  155.3447 H   0  0  0  0  0  0  0  0  0  0  0  0  # atno 10763 bound_to 10752
  154.7562  135.4956  153.9383 H   0  0  0  0  0  0  0  0  0  0  0  0  # atno 10764 bound_to 10752
  153.1128  135.6763  153.9573 H   0  0  0  0  0  0  0  0  0  0  0  0  # atno 10765 bound_to 10752
  140.5112  134.0650  155.7819 H   0  0  0  0  0  0  0  0  0  0  0  0  # atno 11005 bound_to 11000
  145.9474  139.2710  143.1232 LP  0  0  0  0  0  0  0  0  0  0  0  0  # atno 17320 bound_to 7965
  145.9359  140.9015  143.0332 LP  0  0  0  0  0  0  0  0  0  0  0  0  # atno 17321 bound_to 7965
  139.5428  144.7272  151.4678 LP  0  0  0  0  0  0  0  0  0  0  0  0  # atno 17342 bound_to 10162
  140.6705  143.8303  150.6994 LP  0  0  0  0  0  0  0  0  0  0  0  0  # atno 17343 bound_to 10162
  157.6433  131.0907  150.8207 LP  0  0  0  0  0  0  0  0  0  0  0  0  # atno 17370 bound_to 10713
  156.8298  130.5012  149.5333 LP  0  0  0  0  0  0  0  0  0  0  0  0  # atno 17371 bound_to 10713
  141.1384  133.9181  157.2381 LP  0  0  0  0  0  0  0  0  0  0  0  0  # atno 17394 bound_to 11000
  139.9658  135.0142  156.9382 LP  0  0  0  0  0  0  0  0  0  0  0  0  # atno 17395 bound_to 11000

$$$$
