AV-unprocessed.smi:1644|AV-procd|sdf|6585|dock6
  -GOLD-   22720 7273D 1   1.00000     0.00000
 Structure written by MMmdl.
 49 51  0  0  0  0  0  0  0  0  1 V2000
  155.4506  137.7967  151.7987 C   0  0  0  0  0  0  0  0  0  0  0  0
  155.4573  138.6256  153.0878 C   0  0  0  0  0  0  0  0  0  0  0  0
  156.6855  138.3340  153.9671 C   0  0  0  0  0  0  0  0  0  0  0  0
  156.5779  137.0388  154.8004 C   0  0  1  0  0  0  0  0  0  0  0  0
  157.7301  136.8717  155.6636 N   0  0  0  0  0  0  0  0  0  0  0  0
  157.4053  136.8306  156.9617 C   0  0  0  0  0  0  0  0  0  0  0  0
  158.2054  136.7179  157.8891 O   0  0  0  0  0  0  0  0  0  0  0  0
  156.0696  136.9394  157.0667 N   0  0  0  0  0  0  0  0  0  0  0  0
  155.3392  136.9697  158.3375 C   0  0  0  0  0  0  0  0  0  0  0  0
  154.6109  138.3146  158.5391 C   0  0  2  0  0  0  0  0  0  0  0  0
  155.5527  139.3642  158.4276 O   0  0  0  0  0  0  0  0  0  0  0  0
  153.9461  138.4082  159.9252 C   0  0  0  0  0  0  0  0  0  0  0  0
  153.9134  139.7705  160.4247 N   0  0  0  0  0  0  0  0  0  0  0  0
  154.7015  140.3139  161.3721 C   0  0  0  0  0  0  0  0  0  0  0  0
  154.4959  141.5931  161.6741 N   0  0  0  0  0  0  0  0  0  0  0  0
  153.4533  141.9166  160.8221 C   0  0  0  0  0  0  0  0  0  0  0  0
  152.7605  143.1336  160.6404 C   0  0  0  0  0  0  0  0  0  0  0  0
  151.7125  143.2372  159.6978 C   0  0  0  0  0  0  0  0  0  0  0  0
  150.9946  144.5654  159.5351 C   0  0  0  0  0  0  0  0  0  0  0  0
  151.3425  142.1113  158.9189 C   0  0  0  0  0  0  0  0  0  0  0  0
  150.2203  142.1990  157.8998 C   0  0  0  0  0  0  0  0  0  0  0  0
  152.0240  140.8880  159.0881 C   0  0  0  0  0  0  0  0  0  0  0  0
  153.0650  140.7979  160.0289 C   0  0  0  0  0  0  0  0  0  0  0  0
  155.4927  137.0710  155.8648 C   0  0  0  0  0  0  0  0  0  0  0  0
  154.2914  137.2014  155.6304 O   0  0  0  0  0  0  0  0  0  0  0  0
  154.5667  138.0177  151.1999 H   0  0  0  0  0  0  0  0  0  0  0  0
  155.4467  136.7283  152.0160 H   0  0  0  0  0  0  0  0  0  0  0  0
  156.3279  138.0123  151.1877 H   0  0  0  0  0  0  0  0  0  0  0  0
  155.4223  139.6817  152.8220 H   0  0  0  0  0  0  0  0  0  0  0  0
  154.5474  138.4190  153.6524 H   0  0  0  0  0  0  0  0  0  0  0  0
  157.5653  138.2653  153.3257 H   0  0  0  0  0  0  0  0  0  0  0  0
  156.8641  139.1844  154.6275 H   0  0  0  0  0  0  0  0  0  0  0  0
  156.4639  136.1596  154.1651 H   0  0  0  0  0  0  0  0  0  0  0  0
  158.6743  136.8106  155.3108 H   0  0  0  0  0  0  0  0  0  0  0  0
  154.6109  136.1570  158.3230 H   0  0  0  0  0  0  0  0  0  0  0  0
  155.9948  136.7465  159.1817 H   0  0  0  0  0  0  0  0  0  0  0  0
  153.8457  138.4481  157.7730 H   0  0  0  0  0  0  0  0  0  0  0  0
  156.3678  139.0799  158.8125 H   0  0  0  0  0  0  0  0  0  0  0  0
  152.9178  138.0479  159.8747 H   0  0  0  0  0  0  0  0  0  0  0  0
  154.4645  137.7758  160.6476 H   0  0  0  0  0  0  0  0  0  0  0  0
  155.4716  139.7389  161.8652 H   0  0  0  0  0  0  0  0  0  0  0  0
  153.0423  143.9910  161.2337 H   0  0  0  0  0  0  0  0  0  0  0  0
  149.9396  144.4619  159.7893 H   0  0  0  0  0  0  0  0  0  0  0  0
  151.0702  144.9181  158.5063 H   0  0  0  0  0  0  0  0  0  0  0  0
  151.4215  145.3314  160.1828 H   0  0  0  0  0  0  0  0  0  0  0  0
  150.0577  141.2416  157.4039 H   0  0  0  0  0  0  0  0  0  0  0  0
  150.4575  142.9368  157.1332 H   0  0  0  0  0  0  0  0  0  0  0  0
  149.2870  142.4885  158.3827 H   0  0  0  0  0  0  0  0  0  0  0  0
  151.7546  140.0221  158.5010 H   0  0  0  0  0  0  0  0  0  0  0  0
  1  2  1  0  0  0  0
  1 26  1  0  0  0  0
  1 27  1  0  0  0  0
  1 28  1  0  0  0  0
  2  3  1  0  0  0  0
  2 29  1  0  0  0  0
  2 30  1  0  0  0  0
  3  4  1  0  0  0  0
  3 31  1  0  0  0  0
  3 32  1  0  0  0  0
  4 24  1  0  0  0  0
  4  5  1  0  0  0  0
  4 33  1  0  0  0  0
  5  6  1  0  0  0  0
  5 34  1  0  0  0  0
  6  7  2  0  0  0  0
  6  8  1  0  0  0  0
  8  9  1  0  0  0  0
  8 24  1  0  0  0  0
  9 10  1  0  0  0  0
  9 35  1  0  0  0  0
  9 36  1  0  0  0  0
 10 11  1  0  0  0  0
 10 12  1  0  0  0  0
 10 37  1  0  0  0  0
 11 38  1  0  0  0  0
 12 13  1  0  0  0  0
 12 39  1  0  0  0  0
 12 40  1  0  0  0  0
 13 23  1  0  0  0  0
 13 14  1  0  0  0  0
 14 15  2  0  0  0  0
 14 41  1  0  0  0  0
 15 16  1  0  0  0  0
 16 23  2  0  0  0  0
 16 17  1  0  0  0  0
 17 18  2  0  0  0  0
 17 42  1  0  0  0  0
 18 19  1  0  0  0  0
 18 20  1  0  0  0  0
 19 43  1  0  0  0  0
 19 44  1  0  0  0  0
 19 45  1  0  0  0  0
 20 21  1  0  0  0  0
 20 22  2  0  0  0  0
 21 46  1  0  0  0  0
 21 47  1  0  0  0  0
 21 48  1  0  0  0  0
 22 23  1  0  0  0  0
 22 49  1  0  0  0  0
 24 25  2  0  0  0  0
M  END
> <s_m_source_file>
AV-unprocessed.smi

> <i_m_source_file_index>
1644

> <i_lp_mmshare_version>
43012

> <i_f3d_flags>
0

> <s_epik_input>
W0NIM11bQ0gyXVtDSDJdW0NAQEhdMVtOSF1DKD1PKU4oQzE9TylbQ0gyXVtDQEhdKFtPSF0pW0NIMl1uKFtjSF1uMiljKGMyMylbY0hdYyhbQ0gzXSljKFtjSF0zKVtDSDNd

> <s_epik_cmdline>
J2VwaWtfcHl0aG9uJywgJy1waCcsICc3LjAnLCAnLXRuJywgJzgnLCAnLW1hJywgJzIwMCcsICctbWV0YWxfYmluZGluZycsICctaW1hZScsICc8aW5maWxlLm1hZT4nLCAnLW9tYWUnLCAnPG91dGZpbGUubWFlPic=

> <r_lp_tautomer_probability>
1

> <r_epik_Ionization_Penalty>
0.10693

> <r_epik_Ionization_Penalty_Charging>
0

> <r_epik_Ionization_Penalty_Neutral>
0.10693

> <r_epik_State_Penalty>
0.096713

> <r_epik_Charging_Adjusted_Penalty>
0.096713

> <i_epik_Tot_Q>
0

> <i_epik_Tot_abs_Q>
0

> <r_epik_Metal_State_Penalty>
0.102757

> <b_epik_Metal_Only>
0

> <s_lp_Force_Field>
OPLS_2005

> <r_lp_Energy>
21.5813

> <b_lp_Chiralities_Consistent>
1

> <s_lp_Variant>
AV-unprocessed.smi:1644-2

> <Gold.Version>
5.8.1

> <Gold.Id.Protein>
6NUR|6NUR_protein|mol2

> <Gold.PLP.Fitness>
51.0237

> <Gold.PLP.PLP>
-47.8499

> <Gold.PLP.part.hbond>
-4.0000

> <Gold.PLP.part.metal>
0.0000

> <Gold.PLP.part.buried>
-5.7272

> <Gold.PLP.part.nonpolar>
-38.5189

> <Gold.PLP.part.repulsive>
0.1053

> <Gold.PLP.ligand.clash>
0.0000

> <Gold.PLP.ligand.torsion>
0.7266

> <Gold.PLP.Chemscore.Hbond>
1.4960

> <Gold.PLP.Chemscore.CHOScore>
0.0000

> <Gold.PLP.Chemscore.Metal>
0.0000

> <Gold.Chemscore.Hbonds>
donor molecule, donor type, donor heavy atom, donor atom, acceptor molecule, acceptor atom, score
      P1  H  7997  8010       L1    11  0.52

> <Gold.PLP.Chemscore.Internal.Correction>
0.1391

> <Gold.Rescore>
     Score         DG    S(hbond)    S(metal)    S(lipo)     H(rot)  DE(clash)    DE(int)     intcor
     14.98     -16.93       1.36        0.00     118.49       2.72       0.05       1.90       ----

> <Gold.Chemscore.Fitness>
14.9786

> <Gold.Chemscore.DG>
-16.9294

> <Gold.Chemscore.ZeroCoef>
-5.4800

> <Gold.Chemscore.Hbond>
1.3628

> <Gold.Chemscore.Metal>
0.0000

> <Gold.Chemscore.Lipo>
118.4946

> <Gold.Chemscore.Internal_Hbond>
0.0000

> <Gold.Chemscore.DEClash>
0.0483

> <Gold.Chemscore.DEInternal>
1.9026

> <Gold.Chemscore.Rot>
2.7212

> <Gold.Chemscore.Internal.Correction>
   9.000000E+99

> <Gold.Chemscore.Hbonds>
donor molecule, donor type, donor heavy atom, donor atom, acceptor molecule, acceptor atom, score
      P1  H  7997  8010       L1    11  0.42

> <Gold.Chemscore.Hbond.Weighted>
-4.5518

> <Gold.Chemscore.Metal.Weighted>
-0.0000

> <Gold.Chemscore.Lipo.Weighted>
-13.8639

> <Gold.Chemscore.Internal_Hbond.Weighted>
0.0000

> <Gold.Chemscore.DEClash.Weighted>
0.0483

> <Gold.Chemscore.DEInternal.Weighted>
1.9026

> <Gold.Chemscore.Rot.Weighted>
6.9663

> <Gold.Chemscore.Internal.Correction.Weighted>
   9.000000E+99

> <Gold.Protein.RotatedTorsions>
[ 6907 6896 6895 6894 ] final -124.70 input  -60.11 | X-H torsion
[ 7974 7965 7964 7962 ] final   14.82 input  175.53 | X-H torsion
[ 8008 7997 7996 7995 ] final  -38.89 input   59.86 | X-H torsion
[ 10167 10162 10161 10158 ] final   91.79 input  -65.29 | X-H torsion
[ 10718 10713 10712 10709 ] final  -97.33 input   66.30 | X-H torsion
[ 10763 10752 10751 10750 ] final -170.97 input  -60.55 | X-H torsion
[ 11005 11000 10999 10996 ] final  -80.12 input  -57.11 | X-H torsion

> <Gold.Protein.ActiveResidues>
 VAL166  LYS551  ARG553  GLY616  TRP617  ASP618  TYR619  PRO620  LYS621  CYS622 
 ASP623  PHE694  ASN695  SER759  ASP760  ASP761  ALA762  ILE779  LEU786  VAL792 
 PHE793  MET794  SER795  GLU796  ALA797  LYS798  CYS799  TRP800  GLU811  SER814 

> <Gold.Protein.RotatedAtoms>
  150.8793  133.7394  159.2936 H   0  0  0  0  0  0  0  0  0  0  0  0  # atno 6907 bound_to 6896
  151.4980  135.1059  159.9831 H   0  0  0  0  0  0  0  0  0  0  0  0  # atno 6908 bound_to 6896
  152.4749  133.8069  159.7038 H   0  0  0  0  0  0  0  0  0  0  0  0  # atno 6909 bound_to 6896
  146.2295  139.8985  142.8543 H   0  0  0  0  0  0  0  0  0  0  0  0  # atno 7974 bound_to 7965
  154.4030  140.1566  156.2774 H   0  0  0  0  0  0  0  0  0  0  0  0  # atno 8008 bound_to 7997
  155.8899  140.3439  155.5927 H   0  0  0  0  0  0  0  0  0  0  0  0  # atno 8009 bound_to 7997
  155.7570  140.0812  157.2164 H   0  0  0  0  0  0  0  0  0  0  0  0  # atno 8010 bound_to 7997
  139.8340  144.6673  150.9364 H   0  0  0  0  0  0  0  0  0  0  0  0  # atno 10167 bound_to 10162
  156.0081  130.5189  150.6358 H   0  0  0  0  0  0  0  0  0  0  0  0  # atno 10718 bound_to 10713
  154.6357  135.2892  155.0164 H   0  0  0  0  0  0  0  0  0  0  0  0  # atno 10763 bound_to 10752
  154.1309  135.6533  153.4925 H   0  0  0  0  0  0  0  0  0  0  0  0  # atno 10764 bound_to 10752
  153.0301  135.5310  154.7202 H   0  0  0  0  0  0  0  0  0  0  0  0  # atno 10765 bound_to 10752
  141.1668  133.7136  156.8225 H   0  0  0  0  0  0  0  0  0  0  0  0  # atno 11005 bound_to 11000
  145.2346  140.9986  143.3971 LP  0  0  0  0  0  0  0  0  0  0  0  0  # atno 17320 bound_to 7965
  144.9502  139.4092  143.6406 LP  0  0  0  0  0  0  0  0  0  0  0  0  # atno 17321 bound_to 7965
  140.7804  143.3974  151.1206 LP  0  0  0  0  0  0  0  0  0  0  0  0  # atno 17342 bound_to 10162
  139.7625  143.8613  152.3103 LP  0  0  0  0  0  0  0  0  0  0  0  0  # atno 17343 bound_to 10162
  157.4147  131.0828  151.1187 LP  0  0  0  0  0  0  0  0  0  0  0  0  # atno 17370 bound_to 10713
  157.1808  130.6308  149.5671 LP  0  0  0  0  0  0  0  0  0  0  0  0  # atno 17371 bound_to 10713
  140.2109  134.8828  157.3273 LP  0  0  0  0  0  0  0  0  0  0  0  0  # atno 17394 bound_to 11000
  140.2088  134.4164  155.7624 LP  0  0  0  0  0  0  0  0  0  0  0  0  # atno 17395 bound_to 11000

$$$$
