AV-unprocessed.smi:1893|AV-procd|sdf|7678|dock1
  -GOLD-   22720 9413D 1   1.00000     0.00000
 Structure written by MMmdl.
 43 44  0  0  0  0  0  0  0  0  2 V2000
  145.4768  137.0786  152.3617 C   0  0  0  0  0  0  0  0  0  0  0  0
  145.4948  135.5353  152.3318 C   0  0  1  0  0  0  0  0  0  0  0  0
  145.4456  135.0776  150.8562 C   0  0  0  0  0  0  0  0  0  0  0  0
  145.4643  133.5535  150.7223 C   0  0  0  0  0  0  0  0  0  0  0  0
  146.6941  133.0008  151.4405 C   0  0  0  0  0  0  0  0  0  0  0  0
  146.7069  133.4544  152.9062 C   0  0  0  0  0  0  0  0  0  0  0  0
  146.6799  134.9409  153.0357 N   0  3  2  0  0  0  0  0  0  0  0  0
  146.8268  135.3671  154.4579 C   0  0  0  0  0  0  0  0  0  0  0  0
  148.2405  135.1190  155.0148 C   0  0  0  0  0  0  0  0  0  0  0  0
  149.1097  136.2510  154.7261 N   0  0  0  0  0  0  0  0  0  0  0  0
  150.4141  136.3026  155.0358 C   0  0  0  0  0  0  0  0  0  0  0  0
  151.0013  135.3881  155.6149 O   0  0  0  0  0  0  0  0  0  0  0  0
  151.1603  137.5794  154.6184 C   0  0  1  0  0  0  0  0  0  0  0  0
  150.2152  138.7002  154.1466 C   0  0  0  0  0  0  0  0  0  0  0  0
  152.0152  138.0385  155.7044 N   0  0  0  0  0  0  0  0  0  0  0  0
  152.0827  139.2183  156.3280 C   0  0  0  0  0  0  0  0  0  0  0  0
  152.9895  139.2637  157.2938 N   0  0  0  0  0  0  0  0  0  0  0  0
  153.4797  137.9917  157.2064 C   0  0  0  0  0  0  0  0  0  0  0  0
  152.9269  137.2148  156.2748 N   0  0  0  0  0  0  0  0  0  0  0  0
  144.7147  137.4714  151.6878 H   0  0  0  0  0  0  0  0  0  0  0  0
  146.4348  137.4953  152.0489 H   0  0  0  0  0  0  0  0  0  0  0  0
  145.2342  137.4758  153.3464 H   0  0  0  0  0  0  0  0  0  0  0  0
  144.5930  135.1758  152.8305 H   0  0  0  0  0  0  0  0  0  0  0  0
  144.5486  135.4667  150.3727 H   0  0  0  0  0  0  0  0  0  0  0  0
  146.2931  135.4978  150.3121 H   0  0  0  0  0  0  0  0  0  0  0  0
  144.5565  133.1286  151.1527 H   0  0  0  0  0  0  0  0  0  0  0  0
  145.4790  133.2658  149.6705 H   0  0  0  0  0  0  0  0  0  0  0  0
  146.6980  131.9117  151.3868 H   0  0  0  0  0  0  0  0  0  0  0  0
  147.6021  133.3398  150.9394 H   0  0  0  0  0  0  0  0  0  0  0  0
  145.8523  133.0282  153.4343 H   0  0  0  0  0  0  0  0  0  0  0  0
  147.5987  133.0402  153.3724 H   0  0  0  0  0  0  0  0  0  0  0  0
  146.6449  136.4337  154.5648 H   0  0  0  0  0  0  0  0  0  0  0  0
  146.0752  134.8668  155.0708 H   0  0  0  0  0  0  0  0  0  0  0  0
  148.2306  134.9774  156.0949 H   0  0  0  0  0  0  0  0  0  0  0  0
  148.6586  134.2135  154.5716 H   0  0  0  0  0  0  0  0  0  0  0  0
  148.7007  137.0430  154.2510 H   0  0  0  0  0  0  0  0  0  0  0  0
  151.7997  137.3166  153.7734 H   0  0  0  0  0  0  0  0  0  0  0  0
  149.5881  138.3665  153.3190 H   0  0  0  0  0  0  0  0  0  0  0  0
  150.7824  139.5636  153.7981 H   0  0  0  0  0  0  0  0  0  0  0  0
  149.5569  139.0407  154.9471 H   0  0  0  0  0  0  0  0  0  0  0  0
  151.4541  140.0588  156.0720 H   0  0  0  0  0  0  0  0  0  0  0  0
  154.2643  137.6252  157.8522 H   0  0  0  0  0  0  0  0  0  0  0  0
  147.4934  135.2907  152.5498 H   0  0  0  0  0  0  0  0  0  0  0  0
  1  2  1  0  0  0  0
  1 20  1  0  0  0  0
  1 21  1  0  0  0  0
  1 22  1  0  0  0  0
  2  7  1  0  0  0  0
  2  3  1  0  0  0  0
  2 23  1  0  0  0  0
  3  4  1  0  0  0  0
  3 24  1  0  0  0  0
  3 25  1  0  0  0  0
  4  5  1  0  0  0  0
  4 26  1  0  0  0  0
  4 27  1  0  0  0  0
  5  6  1  0  0  0  0
  5 28  1  0  0  0  0
  5 29  1  0  0  0  0
  6  7  1  0  0  0  0
  6 30  1  0  0  0  0
  6 31  1  0  0  0  0
  7  8  1  0  0  0  0
  7 43  1  0  0  0  0
  8  9  1  0  0  0  0
  8 32  1  0  0  0  0
  8 33  1  0  0  0  0
  9 10  1  0  0  0  0
  9 34  1  0  0  0  0
  9 35  1  0  0  0  0
 10 11  1  0  0  0  0
 10 36  1  0  0  0  0
 11 12  2  0  0  0  0
 11 13  1  0  0  0  0
 13 14  1  0  0  0  0
 13 15  1  0  0  0  0
 13 37  1  0  0  0  0
 14 38  1  0  0  0  0
 14 39  1  0  0  0  0
 14 40  1  0  0  0  0
 15 19  1  0  0  0  0
 15 16  1  0  0  0  0
 16 17  2  0  0  0  0
 16 41  1  0  0  0  0
 17 18  1  0  0  0  0
 18 19  2  0  0  0  0
 18 42  1  0  0  0  0
M  CHG  1   7   1
M  END
> <s_m_source_file>
AV-unprocessed.smi

> <i_m_source_file_index>
1893

> <i_lp_mmshare_version>
43012

> <i_f3d_flags>
0

> <s_epik_input>
W0NIM11bQ0BASF0xW0NIMl1bQ0gyXVtDSDJdW0NIMl1OMVtDSDJdW0NIMl1bTkhdQyg9TylbQ0BIXShbQ0gzXSluMltjSF1uW2NIXW4y

> <s_epik_cmdline>
J2VwaWtfcHl0aG9uJywgJy1waCcsICc3LjAnLCAnLXRuJywgJzgnLCAnLW1hJywgJzIwMCcsICctbWV0YWxfYmluZGluZycsICctaW1hZScsICc8aW5maWxlLm1hZT4nLCAnLW9tYWUnLCAnPG91dGZpbGUubWFlPic=

> <r_lp_tautomer_probability>
1

> <r_epik_Ionization_Penalty>
0.00266409

> <r_epik_Ionization_Penalty_Charging>
0.00265606

> <r_epik_Ionization_Penalty_Neutral>
8.02794e-06

> <r_epik_State_Penalty>
0.00184955

> <r_epik_Charging_Adjusted_Penalty>
0.00450561

> <i_epik_Tot_Q>
1

> <i_epik_Tot_abs_Q>
1

> <r_epik_Metal_State_Penalty>
-0

> <b_epik_Metal_Only>
0

> <s_lp_Force_Field>
OPLS_2005

> <r_lp_Energy>
26.1161

> <b_lp_Chiralities_Consistent>
1

> <s_lp_Variant>
AV-unprocessed.smi:1893-8

> <Gold.Version>
5.8.1

> <Gold.Id.Protein>
6NUR|6NUR_protein|mol2

> <Gold.PLP.Fitness>
41.2903

> <Gold.PLP.PLP>
-30.3840

> <Gold.PLP.part.hbond>
-5.0000

> <Gold.PLP.part.metal>
0.0000

> <Gold.PLP.part.buried>
-3.0582

> <Gold.PLP.part.nonpolar>
-23.2027

> <Gold.PLP.part.repulsive>
0.0960

> <Gold.PLP.ligand.clash>
0.0404

> <Gold.PLP.ligand.torsion>
0.5997

> <Gold.PLP.Chemscore.Hbond>
4.0000

> <Gold.PLP.Chemscore.CHOScore>
0.0000

> <Gold.PLP.Chemscore.Metal>
0.0000

> <Gold.Chemscore.Hbonds>
donor molecule, donor type, donor heavy atom, donor atom, acceptor molecule, acceptor atom, score
      L1  H     7    43       P1  7948  2.00
      P1  H  7997  8008       L1    17  0.80
      P1  H 10752 10763       L1    12  0.68

> <Gold.PLP.Chemscore.Internal.Correction>
0.1460

> <Gold.Rescore>
     Score         DG    S(hbond)    S(metal)    S(lipo)     H(rot)  DE(clash)    DE(int)     intcor
     11.82     -13.98       2.58        0.00      54.53       2.54       0.01       2.14       ----

> <Gold.Chemscore.Fitness>
11.8179

> <Gold.Chemscore.DG>
-13.9750

> <Gold.Chemscore.ZeroCoef>
-5.4800

> <Gold.Chemscore.Hbond>
2.5784

> <Gold.Chemscore.Metal>
0.0000

> <Gold.Chemscore.Lipo>
54.5283

> <Gold.Chemscore.Internal_Hbond>
0.0000

> <Gold.Chemscore.DEClash>
0.0137

> <Gold.Chemscore.DEInternal>
2.1435

> <Gold.Chemscore.Rot>
2.5377

> <Gold.Chemscore.Internal.Correction>
   9.000000E+99

> <Gold.Chemscore.Hbonds>
donor molecule, donor type, donor heavy atom, donor atom, acceptor molecule, acceptor atom, score
      L1  H     7    43       P1  7948  1.00
      P1  H  7997  8008       L1    17  0.10
      P1  H 10752 10763       L1    12  0.37

> <Gold.Chemscore.Hbond.Weighted>
-8.6118

> <Gold.Chemscore.Metal.Weighted>
-0.0000

> <Gold.Chemscore.Lipo.Weighted>
-6.3798

> <Gold.Chemscore.Internal_Hbond.Weighted>
0.0000

> <Gold.Chemscore.DEClash.Weighted>
0.0137

> <Gold.Chemscore.DEInternal.Weighted>
2.1435

> <Gold.Chemscore.Rot.Weighted>
6.4966

> <Gold.Chemscore.Internal.Correction.Weighted>
   9.000000E+99

> <Gold.Protein.RotatedTorsions>
[ 6907 6896 6895 6894 ] final  -94.08 input  -60.11 | X-H torsion
[ 7974 7965 7964 7962 ] final -171.76 input  175.53 | X-H torsion
[ 8008 7997 7996 7995 ] final  -70.16 input   59.86 | X-H torsion
[ 10167 10162 10161 10158 ] final   10.41 input  -65.29 | X-H torsion
[ 10718 10713 10712 10709 ] final -159.09 input   66.30 | X-H torsion
[ 10763 10752 10751 10750 ] final   80.88 input  -60.55 | X-H torsion
[ 11005 11000 10999 10996 ] final -174.10 input  -57.11 | X-H torsion

> <Gold.Protein.ActiveResidues>
 VAL166  LYS551  ARG553  GLY616  TRP617  ASP618  TYR619  PRO620  LYS621  CYS622 
 ASP623  PHE694  ASN695  SER759  ASP760  ASP761  ALA762  ILE779  LEU786  VAL792 
 PHE793  MET794  SER795  GLU796  ALA797  LYS798  CYS799  TRP800  GLU811  SER814 

> <Gold.Protein.RotatedAtoms>
  150.6935  134.1867  159.4269 H   0  0  0  0  0  0  0  0  0  0  0  0  # atno 6907 bound_to 6896
  151.9839  135.0012  160.0568 H   0  0  0  0  0  0  0  0  0  0  0  0  # atno 6908 bound_to 6896
  152.1729  133.4621  159.4955 H   0  0  0  0  0  0  0  0  0  0  0  0  # atno 6909 bound_to 6896
  144.7153  140.1874  143.6352 H   0  0  0  0  0  0  0  0  0  0  0  0  # atno 7974 bound_to 7965
  154.4991  140.0839  156.7761 H   0  0  0  0  0  0  0  0  0  0  0  0  # atno 8008 bound_to 7997
  155.4044  140.3438  155.4241 H   0  0  0  0  0  0  0  0  0  0  0  0  # atno 8009 bound_to 7997
  156.1433  140.1536  156.8873 H   0  0  0  0  0  0  0  0  0  0  0  0  # atno 8010 bound_to 7997
  140.6195  143.8234  150.7158 H   0  0  0  0  0  0  0  0  0  0  0  0  # atno 10167 bound_to 10162
  156.5633  130.8656  151.2816 H   0  0  0  0  0  0  0  0  0  0  0  0  # atno 10718 bound_to 10713
  153.1070  135.4786  154.8969 H   0  0  0  0  0  0  0  0  0  0  0  0  # atno 10763 bound_to 10752
  154.7441  135.3089  154.8679 H   0  0  0  0  0  0  0  0  0  0  0  0  # atno 10764 bound_to 10752
  153.9279  135.6848  153.4799 H   0  0  0  0  0  0  0  0  0  0  0  0  # atno 10765 bound_to 10752
  140.4783  134.6100  157.4909 H   0  0  0  0  0  0  0  0  0  0  0  0  # atno 11005 bound_to 11000
  145.8800  139.2318  143.1611 LP  0  0  0  0  0  0  0  0  0  0  0  0  # atno 17320 bound_to 7965
  146.0003  140.8526  143.0022 LP  0  0  0  0  0  0  0  0  0  0  0  0  # atno 17321 bound_to 7965
  140.1821  143.4106  152.1925 LP  0  0  0  0  0  0  0  0  0  0  0  0  # atno 17342 bound_to 10162
  139.5427  144.7271  151.4682 LP  0  0  0  0  0  0  0  0  0  0  0  0  # atno 17343 bound_to 10162
  157.7364  130.9778  150.2134 LP  0  0  0  0  0  0  0  0  0  0  0  0  # atno 17370 bound_to 10713
  156.2780  130.3730  149.7964 LP  0  0  0  0  0  0  0  0  0  0  0  0  # atno 17371 bound_to 10713
  139.9842  134.7088  155.9804 LP  0  0  0  0  0  0  0  0  0  0  0  0  # atno 17394 bound_to 11000
  141.1544  133.6544  156.4113 LP  0  0  0  0  0  0  0  0  0  0  0  0  # atno 17395 bound_to 11000

$$$$
