AV-unprocessed.smi:1714|AV-procd|sdf|6907|dock9
  -GOLD-   22720 8113D 1   1.00000     0.00000
 Structure written by MMmdl.
 45 46  0  0  0  0  0  0  0  0  1 V2000
  145.2267  135.6230  151.3265 C   0  0  0  0  0  0  0  0  0  0  0  0
  145.1811  134.1070  151.2222 C   0  0  0  0  0  0  0  0  0  0  0  0
  144.0782  133.4905  150.5939 C   0  0  0  0  0  0  0  0  0  0  0  0
  144.0383  132.0888  150.4998 C   0  0  0  0  0  0  0  0  0  0  0  0
  145.1097  131.3586  151.0423 C   0  0  0  0  0  0  0  0  0  0  0  0
  146.1670  131.9396  151.6453 N   0  0  0  0  0  0  0  0  0  0  0  0
  146.2208  133.2915  151.7441 C   0  0  0  0  0  0  0  0  0  0  0  0
  147.3053  133.9740  152.3625 N   0  0  0  0  0  0  0  0  0  0  0  0
  147.9250  133.6883  153.5207 C   0  0  0  0  0  0  0  0  0  0  0  0
  147.6394  132.7594  154.2768 O   0  0  0  0  0  0  0  0  0  0  0  0
  148.9111  134.5600  153.7643 N   0  0  0  0  0  0  0  0  0  0  0  0
  149.7596  134.5447  154.9512 C   0  0  0  0  0  0  0  0  0  0  0  0
  149.5272  135.7914  155.8513 C   0  0  0  0  0  0  0  0  0  0  0  0
  148.0442  135.7661  156.2935 C   0  0  0  0  0  0  0  0  0  0  0  0
  150.3900  135.5760  157.1210 C   0  0  0  0  0  0  0  0  0  0  0  0
  149.9082  137.0518  155.1529 N   0  0  0  0  0  0  0  0  0  0  0  0
  149.4510  138.2821  155.8099 C   0  0  0  0  0  0  0  0  0  0  0  0
  149.7705  139.5365  154.9791 C   0  0  0  0  0  0  0  0  0  0  0  0
  151.1674  139.5971  154.7203 O   0  0  0  0  0  0  0  0  0  0  0  0
  151.6407  138.4484  154.0282 C   0  0  0  0  0  0  0  0  0  0  0  0
  151.3381  137.1848  154.8513 C   0  0  0  0  0  0  0  0  0  0  0  0
  144.3477  136.0796  150.8703 H   0  0  0  0  0  0  0  0  0  0  0  0
  146.1090  136.0150  150.8195 H   0  0  0  0  0  0  0  0  0  0  0  0
  145.2610  135.9322  152.3716 H   0  0  0  0  0  0  0  0  0  0  0  0
  143.2708  134.0823  150.1881 H   0  0  0  0  0  0  0  0  0  0  0  0
  143.2085  131.5868  150.0246 H   0  0  0  0  0  0  0  0  0  0  0  0
  145.1196  130.2798  150.9911 H   0  0  0  0  0  0  0  0  0  0  0  0
  147.6501  134.7782  151.8601 H   0  0  0  0  0  0  0  0  0  0  0  0
  149.0796  135.2977  153.0957 H   0  0  0  0  0  0  0  0  0  0  0  0
  149.5855  133.6201  155.5026 H   0  0  0  0  0  0  0  0  0  0  0  0
  150.8034  134.4977  154.6348 H   0  0  0  0  0  0  0  0  0  0  0  0
  147.8081  134.8362  156.8124 H   0  0  0  0  0  0  0  0  0  0  0  0
  147.3617  135.8332  155.4464 H   0  0  0  0  0  0  0  0  0  0  0  0
  147.8031  136.5779  156.9794 H   0  0  0  0  0  0  0  0  0  0  0  0
  150.2381  134.5824  157.5446 H   0  0  0  0  0  0  0  0  0  0  0  0
  150.1425  136.2825  157.9130 H   0  0  0  0  0  0  0  0  0  0  0  0
  151.4547  135.6784  156.9077 H   0  0  0  0  0  0  0  0  0  0  0  0
  148.3754  138.2597  155.9741 H   0  0  0  0  0  0  0  0  0  0  0  0
  149.9193  138.3824  156.7891 H   0  0  0  0  0  0  0  0  0  0  0  0
  149.2179  139.5275  154.0381 H   0  0  0  0  0  0  0  0  0  0  0  0
  149.4695  140.4342  155.5190 H   0  0  0  0  0  0  0  0  0  0  0  0
  151.1732  138.3886  153.0440 H   0  0  0  0  0  0  0  0  0  0  0  0
  152.7142  138.5471  153.8671 H   0  0  0  0  0  0  0  0  0  0  0  0
  151.9172  137.2197  155.7741 H   0  0  0  0  0  0  0  0  0  0  0  0
  151.6972  136.3286  154.2832 H   0  0  0  0  0  0  0  0  0  0  0  0
  1  2  1  0  0  0  0
  1 22  1  0  0  0  0
  1 23  1  0  0  0  0
  1 24  1  0  0  0  0
  2  7  1  0  0  0  0
  2  3  2  0  0  0  0
  3  4  1  0  0  0  0
  3 25  1  0  0  0  0
  4  5  2  0  0  0  0
  4 26  1  0  0  0  0
  5  6  1  0  0  0  0
  5 27  1  0  0  0  0
  6  7  2  0  0  0  0
  7  8  1  0  0  0  0
  8  9  1  0  0  0  0
  8 28  1  0  0  0  0
  9 10  2  0  0  0  0
  9 11  1  0  0  0  0
 11 12  1  0  0  0  0
 11 29  1  0  0  0  0
 12 13  1  0  0  0  0
 12 30  1  0  0  0  0
 12 31  1  0  0  0  0
 13 14  1  0  0  0  0
 13 15  1  0  0  0  0
 13 16  1  0  0  0  0
 14 32  1  0  0  0  0
 14 33  1  0  0  0  0
 14 34  1  0  0  0  0
 15 35  1  0  0  0  0
 15 36  1  0  0  0  0
 15 37  1  0  0  0  0
 16 21  1  0  0  0  0
 16 17  1  0  0  0  0
 17 18  1  0  0  0  0
 17 38  1  0  0  0  0
 17 39  1  0  0  0  0
 18 19  1  0  0  0  0
 18 40  1  0  0  0  0
 18 41  1  0  0  0  0
 19 20  1  0  0  0  0
 20 21  1  0  0  0  0
 20 42  1  0  0  0  0
 20 43  1  0  0  0  0
 21 44  1  0  0  0  0
 21 45  1  0  0  0  0
M  END
> <s_m_source_file>
AV-unprocessed.smi

> <i_m_source_file_index>
1714

> <i_lp_mmshare_version>
43012

> <i_f3d_flags>
0

> <s_epik_input>
W0NIM11jMVtjSF1bY0hdW2NIXW5jMVtOSF1DKD1PKVtOSF1bQ0gyXUMoW0NIM10pKFtDSDNdKU4yW0NIMl1bQ0gyXU9bQ0gyXVtDSDJdMg==

> <s_epik_cmdline>
J2VwaWtfcHl0aG9uJywgJy1waCcsICc3LjAnLCAnLXRuJywgJzgnLCAnLW1hJywgJzIwMCcsICctbWV0YWxfYmluZGluZycsICctaW1hZScsICc8aW5maWxlLm1hZT4nLCAnLW9tYWUnLCAnPG91dGZpbGUubWFlPic=

> <r_epik_Ionization_Penalty>
0.26605

> <r_epik_Ionization_Penalty_Charging>
0

> <r_epik_Ionization_Penalty_Neutral>
0.26605

> <r_epik_State_Penalty>
0.257924

> <r_epik_Charging_Adjusted_Penalty>
0.257924

> <i_epik_Tot_Q>
0

> <i_epik_Tot_abs_Q>
0

> <r_epik_Metal_State_Penalty>
0.257922

> <b_epik_Metal_Only>
0

> <s_lp_Force_Field>
OPLS_2005

> <r_lp_Energy>
43.6145

> <b_lp_Chiralities_Consistent>
1

> <s_lp_Variant>
AV-unprocessed.smi:1714-1

> <Gold.Version>
5.8.1

> <Gold.Id.Protein>
6NUR|6NUR_protein|mol2

> <Gold.PLP.Fitness>
40.6536

> <Gold.PLP.PLP>
-32.7343

> <Gold.PLP.part.hbond>
-3.0000

> <Gold.PLP.part.metal>
0.0000

> <Gold.PLP.part.buried>
-6.6069

> <Gold.PLP.part.nonpolar>
-23.6673

> <Gold.PLP.part.repulsive>
0.3605

> <Gold.PLP.ligand.clash>
0.0000

> <Gold.PLP.ligand.torsion>
0.5716

> <Gold.PLP.Chemscore.Hbond>
3.0000

> <Gold.PLP.Chemscore.CHOScore>
0.0000

> <Gold.PLP.Chemscore.Metal>
0.0000

> <Gold.Chemscore.Hbonds>
donor molecule, donor type, donor heavy atom, donor atom, acceptor molecule, acceptor atom, score
      L1  H     8    28       P1  7948  0.91
      L1  H    11    29       P1  7948  0.96
      P1  H  7989  7998       L1    19  0.90

> <Gold.PLP.Chemscore.Internal.Correction>
0.0625

> <Gold.Rescore>
     Score         DG    S(hbond)    S(metal)    S(lipo)     H(rot)  DE(clash)    DE(int)     intcor
     14.92     -15.60       1.71        0.00      69.28       1.45       0.00       0.67       ----

> <Gold.Chemscore.Fitness>
14.9249

> <Gold.Chemscore.DG>
-15.5973

> <Gold.Chemscore.ZeroCoef>
-5.4800

> <Gold.Chemscore.Hbond>
1.7135

> <Gold.Chemscore.Metal>
0.0000

> <Gold.Chemscore.Lipo>
69.2801

> <Gold.Chemscore.Internal_Hbond>
0.0000

> <Gold.Chemscore.DEClash>
0.0018

> <Gold.Chemscore.DEInternal>
0.6706

> <Gold.Chemscore.Rot>
1.4498

> <Gold.Chemscore.Internal.Correction>
   9.000000E+99

> <Gold.Chemscore.Hbonds>
donor molecule, donor type, donor heavy atom, donor atom, acceptor molecule, acceptor atom, score
      L1  H     8    28       P1  7948  0.49
      L1  H    11    29       P1  7948  0.23
      P1  H  7989  7998       L1    19  0.16

> <Gold.Chemscore.Hbond.Weighted>
-5.7231

> <Gold.Chemscore.Metal.Weighted>
-0.0000

> <Gold.Chemscore.Lipo.Weighted>
-8.1058

> <Gold.Chemscore.Internal_Hbond.Weighted>
0.0000

> <Gold.Chemscore.DEClash.Weighted>
0.0018

> <Gold.Chemscore.DEInternal.Weighted>
0.6706

> <Gold.Chemscore.Rot.Weighted>
3.7116

> <Gold.Chemscore.Internal.Correction.Weighted>
   9.000000E+99

> <Gold.Protein.RotatedTorsions>
[ 6907 6896 6895 6894 ] final -177.90 input  -60.11 | X-H torsion
[ 7974 7965 7964 7962 ] final  -81.07 input  175.53 | X-H torsion
[ 8008 7997 7996 7995 ] final -127.03 input   59.86 | X-H torsion
[ 10167 10162 10161 10158 ] final  -56.53 input  -65.29 | X-H torsion
[ 10718 10713 10712 10709 ] final    4.90 input   66.30 | X-H torsion
[ 10763 10752 10751 10750 ] final   11.61 input  -60.55 | X-H torsion
[ 11005 11000 10999 10996 ] final  -91.01 input  -57.11 | X-H torsion

> <Gold.Protein.ActiveResidues>
 VAL166  LYS551  ARG553  GLY616  TRP617  ASP618  TYR619  PRO620  LYS621  CYS622 
 ASP623  PHE694  ASN695  SER759  ASP760  ASP761  ALA762  ILE779  LEU786  VAL792 
 PHE793  MET794  SER795  GLU796  ALA797  LYS798  CYS799  TRP800  GLU811  SER814 

> <Gold.Protein.RotatedAtoms>
  151.6286  133.3333  159.3103 H   0  0  0  0  0  0  0  0  0  0  0  0  # atno 6907 bound_to 6896
  150.8068  134.7202  159.6663 H   0  0  0  0  0  0  0  0  0  0  0  0  # atno 6908 bound_to 6896
  152.4164  134.6038  160.0059 H   0  0  0  0  0  0  0  0  0  0  0  0  # atno 6909 bound_to 6896
  145.5515  140.9496  143.1496 H   0  0  0  0  0  0  0  0  0  0  0  0  # atno 7974 bound_to 7965
  155.2395  140.0428  157.2973 H   0  0  0  0  0  0  0  0  0  0  0  0  # atno 8008 bound_to 7997
  154.5837  140.2408  155.7987 H   0  0  0  0  0  0  0  0  0  0  0  0  # atno 8009 bound_to 7997
  156.2211  140.2969  155.9963 H   0  0  0  0  0  0  0  0  0  0  0  0  # atno 8010 bound_to 7997
  140.6312  143.2460  151.5237 H   0  0  0  0  0  0  0  0  0  0  0  0  # atno 10167 bound_to 10162
  156.8994  130.5716  149.5648 H   0  0  0  0  0  0  0  0  0  0  0  0  # atno 10718 bound_to 10713
  153.1908  135.6842  153.8355 H   0  0  0  0  0  0  0  0  0  0  0  0  # atno 10763 bound_to 10752
  153.7654  135.3203  155.3345 H   0  0  0  0  0  0  0  0  0  0  0  0  # atno 10764 bound_to 10752
  154.8116  135.4713  154.0630 H   0  0  0  0  0  0  0  0  0  0  0  0  # atno 10765 bound_to 10752
  141.1554  133.7728  156.9818 H   0  0  0  0  0  0  0  0  0  0  0  0  # atno 11005 bound_to 11000
  144.7527  139.7153  143.7266 LP  0  0  0  0  0  0  0  0  0  0  0  0  # atno 17320 bound_to 7965
  146.1913  139.5155  142.9803 LP  0  0  0  0  0  0  0  0  0  0  0  0  # atno 17321 bound_to 7965
  139.5526  144.2357  152.1556 LP  0  0  0  0  0  0  0  0  0  0  0  0  # atno 17342 bound_to 10162
  140.1601  144.5033  150.6637 LP  0  0  0  0  0  0  0  0  0  0  0  0  # atno 17343 bound_to 10162
  156.0589  130.5646  150.9151 LP  0  0  0  0  0  0  0  0  0  0  0  0  # atno 17370 bound_to 10713
  157.6035  131.0940  150.8919 LP  0  0  0  0  0  0  0  0  0  0  0  0  # atno 17371 bound_to 10713
  140.1060  134.9506  157.1995 LP  0  0  0  0  0  0  0  0  0  0  0  0  # atno 17394 bound_to 11000
  140.3255  134.2868  155.7238 LP  0  0  0  0  0  0  0  0  0  0  0  0  # atno 17395 bound_to 11000

$$$$
