AV-unprocessed.smi:281|AV-procd|sdf|2107|dock6
  -GOLD-   2262021403D 1   1.00000     0.00000
 Structure written by MMmdl.
 55 59  0  0  0  0  0  0  0  0  1 V2000
  147.9958  142.1680  154.1945 C   0  0  0  0  0  0  0  0  0  0  0  0
  148.7749  140.8737  154.4471 C   0  0  2  0  0  0  0  0  0  0  0  0
  147.8490  139.6474  154.5147 C   0  0  0  0  0  0  0  0  0  0  0  0
  148.6234  138.4626  154.8587 N   0  0  0  0  0  0  0  0  0  0  0  0
  148.0255  137.2707  154.6109 C   0  0  0  0  0  0  0  0  0  0  0  0
  148.6163  136.1172  155.0229 N   0  0  0  0  0  0  0  0  0  0  0  0
  148.0375  134.9381  154.7784 C   0  0  0  0  0  0  0  0  0  0  0  0
  146.8907  134.6869  154.1445 N   0  0  0  0  0  0  0  0  0  0  0  0
  146.2946  135.8393  153.7242 C   0  0  0  0  0  0  0  0  0  0  0  0
  146.7897  137.1608  153.9129 C   0  0  0  0  0  0  0  0  0  0  0  0
  145.9231  138.0771  153.3284 N   0  0  0  0  0  0  0  0  0  0  0  0
  144.9685  137.3406  152.8295 C   0  0  0  0  0  0  0  0  0  0  0  0
  145.1071  135.9851  153.0276 N   0  0  0  0  0  0  0  0  0  0  0  0
  144.2039  134.9382  152.5736 C   0  0  0  0  0  0  0  0  0  0  0  0
  144.7094  134.1746  151.3266 C   0  0  2  0  0  0  0  0  0  0  0  0
  144.6423  135.0288  150.1979 O   0  0  0  0  0  0  0  0  0  0  0  0
  143.8881  132.9257  151.0309 C   0  0  0  0  0  0  0  0  0  0  0  0
  144.8983  132.0075  150.3573 C   0  0  0  0  0  0  0  0  0  0  0  0
  146.0813  132.2421  151.1015 O   0  0  0  0  0  0  0  0  0  0  0  0
  146.1468  133.6245  151.4399 C   0  0  0  0  0  0  0  0  0  0  0  0
  149.4007  138.6102  156.0857 C   0  0  0  0  0  0  0  0  0  0  0  0
  150.2823  139.8853  156.0375 C   0  0  1  0  0  0  0  0  0  0  0  0
  150.8619  140.1809  157.4148 C   0  0  0  0  0  0  0  0  0  0  0  0
  152.1794  139.4239  157.3985 C   0  0  0  0  0  0  0  0  0  0  0  0
  152.6721  139.6567  156.0907 O   0  0  0  0  0  0  0  0  0  0  0  0
  151.5812  139.7997  155.1826 C   0  0  1  0  0  0  0  0  0  0  0  0
  151.6694  138.6913  154.1190 C   0  0  0  0  0  0  0  0  0  0  0  0
  149.4691  141.0087  155.6861 O   0  0  0  0  0  0  0  0  0  0  0  0
  147.4535  142.1210  153.2499 H   0  0  0  0  0  0  0  0  0  0  0  0
  148.6689  143.0245  154.1490 H   0  0  0  0  0  0  0  0  0  0  0  0
  147.2718  142.3545  154.9883 H   0  0  0  0  0  0  0  0  0  0  0  0
  149.4941  140.7449  153.6376 H   0  0  0  0  0  0  0  0  0  0  0  0
  147.0808  139.7968  155.2745 H   0  0  0  0  0  0  0  0  0  0  0  0
  147.3325  139.5265  153.5631 H   0  0  0  0  0  0  0  0  0  0  0  0
  148.5709  134.0718  155.1411 H   0  0  0  0  0  0  0  0  0  0  0  0
  144.1341  137.7710  152.2955 H   0  0  0  0  0  0  0  0  0  0  0  0
  144.0472  134.2447  153.4007 H   0  0  0  0  0  0  0  0  0  0  0  0
  143.2326  135.3903  152.3679 H   0  0  0  0  0  0  0  0  0  0  0  0
  144.9913  134.5671  149.4509 H   0  0  0  0  0  0  0  0  0  0  0  0
  143.5547  132.4630  151.9606 H   0  0  0  0  0  0  0  0  0  0  0  0
  143.0045  133.1146  150.4198 H   0  0  0  0  0  0  0  0  0  0  0  0
  144.6040  130.9582  150.3890 H   0  0  0  0  0  0  0  0  0  0  0  0
  145.0555  132.2925  149.3159 H   0  0  0  0  0  0  0  0  0  0  0  0
  146.8410  134.1404  150.7746 H   0  0  0  0  0  0  0  0  0  0  0  0
  146.5437  133.7038  152.4515 H   0  0  0  0  0  0  0  0  0  0  0  0
  148.7006  138.6788  156.9199 H   0  0  0  0  0  0  0  0  0  0  0  0
  150.0156  137.7268  156.2620 H   0  0  0  0  0  0  0  0  0  0  0  0
  151.0667  141.2480  157.5175 H   0  0  0  0  0  0  0  0  0  0  0  0
  150.2112  139.8887  158.2397 H   0  0  0  0  0  0  0  0  0  0  0  0
  152.8785  139.7724  158.1587 H   0  0  0  0  0  0  0  0  0  0  0  0
  152.0184  138.3546  157.5423 H   0  0  0  0  0  0  0  0  0  0  0  0
  151.7373  140.7586  154.6868 H   0  0  0  0  0  0  0  0  0  0  0  0
  150.8862  138.7897  153.3680 H   0  0  0  0  0  0  0  0  0  0  0  0
  151.5938  137.6985  154.5622 H   0  0  0  0  0  0  0  0  0  0  0  0
  152.6247  138.7401  153.5961 H   0  0  0  0  0  0  0  0  0  0  0  0
  1  2  1  0  0  0  0
  1 29  1  0  0  0  0
  1 30  1  0  0  0  0
  1 31  1  0  0  0  0
  2 28  1  0  0  0  0
  2  3  1  0  0  0  0
  2 32  1  0  0  0  0
  3  4  1  0  0  0  0
  3 33  1  0  0  0  0
  3 34  1  0  0  0  0
  4  5  1  0  0  0  0
  4 21  1  0  0  0  0
  5 10  1  0  0  0  0
  5  6  2  0  0  0  0
  6  7  1  0  0  0  0
  7  8  2  0  0  0  0
  7 35  1  0  0  0  0
  8  9  1  0  0  0  0
  9 13  1  0  0  0  0
  9 10  2  0  0  0  0
 10 11  1  0  0  0  0
 11 12  2  0  0  0  0
 12 13  1  0  0  0  0
 12 36  1  0  0  0  0
 13 14  1  0  0  0  0
 14 15  1  0  0  0  0
 14 37  1  0  0  0  0
 14 38  1  0  0  0  0
 15 20  1  0  0  0  0
 15 16  1  0  0  0  0
 15 17  1  0  0  0  0
 16 39  1  0  0  0  0
 17 18  1  0  0  0  0
 17 40  1  0  0  0  0
 17 41  1  0  0  0  0
 18 19  1  0  0  0  0
 18 42  1  0  0  0  0
 18 43  1  0  0  0  0
 19 20  1  0  0  0  0
 20 44  1  0  0  0  0
 20 45  1  0  0  0  0
 21 22  1  0  0  0  0
 21 46  1  0  0  0  0
 21 47  1  0  0  0  0
 22 26  1  0  0  0  0
 22 23  1  0  0  0  0
 22 28  1  0  0  0  0
 23 24  1  0  0  0  0
 23 48  1  0  0  0  0
 23 49  1  0  0  0  0
 24 25  1  0  0  0  0
 24 50  1  0  0  0  0
 24 51  1  0  0  0  0
 25 26  1  0  0  0  0
 26 27  1  0  0  0  0
 26 52  1  0  0  0  0
 27 53  1  0  0  0  0
 27 54  1  0  0  0  0
 27 55  1  0  0  0  0
M  END
> <s_m_source_file>
AV-unprocessed.smi

> <i_m_source_file_index>
281

> <i_lp_mmshare_version>
43012

> <i_f3d_flags>
0

> <s_epik_input>
W0NIM11bQ0BASF0xT1tDSDJdW0NIMl1bQ0BAXTEyW0NIMl1OKFtDSDJdW0NASF0oTzIpW0NIM10pYyhuW2NIXW4zKWMoYzM0KW5bY0hdbjRbQ0gyXVtDQEBdNShbT0hdKVtDSDJdW0NIMl1PW0NIMl01

> <s_epik_cmdline>
J2VwaWtfcHl0aG9uJywgJy1waCcsICc3LjAnLCAnLXRuJywgJzgnLCAnLW1hJywgJzIwMCcsICctbWV0YWxfYmluZGluZycsICctaW1hZScsICc8aW5maWxlLm1hZT4nLCAnLW9tYWUnLCAnPG91dGZpbGUubWFlPic=

> <r_lp_tautomer_probability>
1

> <r_epik_Ionization_Penalty>
0.00571331

> <r_epik_Ionization_Penalty_Charging>
0

> <r_epik_Ionization_Penalty_Neutral>
0.00571331

> <r_epik_State_Penalty>
0.00399586

> <r_epik_Charging_Adjusted_Penalty>
0.00399586

> <i_epik_Tot_Q>
0

> <i_epik_Tot_abs_Q>
0

> <r_epik_Metal_State_Penalty>
-0

> <b_epik_Metal_Only>
0

> <s_lp_Force_Field>
OPLS_2005

> <r_lp_Energy>
55.2886

> <b_lp_Chiralities_Consistent>
1

> <s_lp_Variant>
AV-unprocessed.smi:281-7

> <Gold.Version>
5.8.1

> <Gold.Id.Protein>
6NUR|6NUR_protein|mol2

> <Gold.PLP.Fitness>
43.0766

> <Gold.PLP.PLP>
-32.6897

> <Gold.PLP.part.hbond>
-2.0000

> <Gold.PLP.part.metal>
0.0000

> <Gold.PLP.part.buried>
-2.2746

> <Gold.PLP.part.nonpolar>
-28.0329

> <Gold.PLP.part.repulsive>
0.7229

> <Gold.PLP.ligand.clash>
0.0000

> <Gold.PLP.ligand.torsion>
0.7119

> <Gold.PLP.Chemscore.Hbond>
2.0000

> <Gold.PLP.Chemscore.CHOScore>
1.8060

> <Gold.PLP.Chemscore.Metal>
0.0000

> <Gold.Chemscore.Hbonds>
donor molecule, donor type, donor heavy atom, donor atom, acceptor molecule, acceptor atom, score
      L1  H    16    39       P1  7921  0.59
      P1  H  7997  8009       L1    25  1.00
      L1  C    12    36       P1 10171  0.77
      L1  C    12    36       P1 10175  0.44

> <Gold.PLP.Chemscore.Internal.Correction>
0.3928

> <Gold.Rescore>
     Score         DG    S(hbond)    S(metal)    S(lipo)     H(rot)  DE(clash)    DE(int)     intcor
     13.20     -15.80       1.90        0.00      79.58       2.09       0.39       2.21       ----

> <Gold.Chemscore.Fitness>
13.1967

> <Gold.Chemscore.DG>
-15.7952

> <Gold.Chemscore.ZeroCoef>
-5.4800

> <Gold.Chemscore.Hbond>
1.9048

> <Gold.Chemscore.Metal>
0.0000

> <Gold.Chemscore.Lipo>
79.5780

> <Gold.Chemscore.Internal_Hbond>
0.0000

> <Gold.Chemscore.DEClash>
0.3907

> <Gold.Chemscore.DEInternal>
2.2078

> <Gold.Chemscore.Rot>
2.0927

> <Gold.Chemscore.Internal.Correction>
   9.000000E+99

> <Gold.Chemscore.Hbonds>
donor molecule, donor type, donor heavy atom, donor atom, acceptor molecule, acceptor atom, score
      L1  H    16    39       P1  7921  0.57
      P1  H  7997  8009       L1    25  0.60

> <Gold.Chemscore.Hbond.Weighted>
-6.3619

> <Gold.Chemscore.Metal.Weighted>
-0.0000

> <Gold.Chemscore.Lipo.Weighted>
-9.3106

> <Gold.Chemscore.Internal_Hbond.Weighted>
0.0000

> <Gold.Chemscore.DEClash.Weighted>
0.3907

> <Gold.Chemscore.DEInternal.Weighted>
2.2078

> <Gold.Chemscore.Rot.Weighted>
5.3573

> <Gold.Chemscore.Internal.Correction.Weighted>
   9.000000E+99

> <Gold.Protein.RotatedTorsions>
[ 6907 6896 6895 6894 ] final  171.29 input  -60.11 | X-H torsion
[ 7974 7965 7964 7962 ] final -103.40 input  175.53 | X-H torsion
[ 8008 7997 7996 7995 ] final -157.42 input   59.86 | X-H torsion
[ 10167 10162 10161 10158 ] final  -57.40 input  -65.29 | X-H torsion
[ 10718 10713 10712 10709 ] final  109.79 input   66.30 | X-H torsion
[ 10763 10752 10751 10750 ] final   43.44 input  -60.55 | X-H torsion
[ 11005 11000 10999 10996 ] final   89.58 input  -57.11 | X-H torsion

> <Gold.Protein.ActiveResidues>
 VAL166  LYS551  ARG553  GLY616  TRP617  ASP618  TYR619  PRO620  LYS621  CYS622 
 ASP623  PHE694  ASN695  SER759  ASP760  ASP761  ALA762  ILE779  LEU786  VAL792 
 PHE793  MET794  SER795  GLU796  ALA797  LYS798  CYS799  TRP800  GLU811  SER814 

> <Gold.Protein.RotatedAtoms>
  151.8026  133.3372  159.3531 H   0  0  0  0  0  0  0  0  0  0  0  0  # atno 6907 bound_to 6896
  150.7353  134.5739  159.5913 H   0  0  0  0  0  0  0  0  0  0  0  0  # atno 6908 bound_to 6896
  152.3132  134.7473  160.0383 H   0  0  0  0  0  0  0  0  0  0  0  0  # atno 6909 bound_to 6896
  145.2564  140.9255  143.3065 H   0  0  0  0  0  0  0  0  0  0  0  0  # atno 7974 bound_to 7965
  155.7322  140.0803  157.2284 H   0  0  0  0  0  0  0  0  0  0  0  0  # atno 8008 bound_to 7997
  154.4031  140.1593  156.2576 H   0  0  0  0  0  0  0  0  0  0  0  0  # atno 8009 bound_to 7997
  155.9099  140.3404  155.6093 H   0  0  0  0  0  0  0  0  0  0  0  0  # atno 8010 bound_to 7997
  140.6260  143.2438  151.5362 H   0  0  0  0  0  0  0  0  0  0  0  0  # atno 10167 bound_to 10162
  157.6525  131.0920  150.6506 H   0  0  0  0  0  0  0  0  0  0  0  0  # atno 10718 bound_to 10713
  152.9861  135.6101  154.3112 H   0  0  0  0  0  0  0  0  0  0  0  0  # atno 10763 bound_to 10752
  154.2827  135.2776  155.2692 H   0  0  0  0  0  0  0  0  0  0  0  0  # atno 10764 bound_to 10752
  154.5023  135.5863  153.6597 H   0  0  0  0  0  0  0  0  0  0  0  0  # atno 10765 bound_to 10752
  139.8872  134.8560  156.3162 H   0  0  0  0  0  0  0  0  0  0  0  0  # atno 11005 bound_to 11000
  144.9457  139.4139  143.6427 LP  0  0  0  0  0  0  0  0  0  0  0  0  # atno 17320 bound_to 7965
  146.3288  139.8439  142.8885 LP  0  0  0  0  0  0  0  0  0  0  0  0  # atno 17321 bound_to 7965
  139.5480  144.2469  152.1479 LP  0  0  0  0  0  0  0  0  0  0  0  0  # atno 17342 bound_to 10162
  140.1700  144.4944  150.6584 LP  0  0  0  0  0  0  0  0  0  0  0  0  # atno 17343 bound_to 10162
  156.6816  130.4569  149.5626 LP  0  0  0  0  0  0  0  0  0  0  0  0  # atno 17370 bound_to 10713
  156.1925  130.6569  151.1077 LP  0  0  0  0  0  0  0  0  0  0  0  0  # atno 17371 bound_to 10713
  140.9817  133.7263  156.0682 LP  0  0  0  0  0  0  0  0  0  0  0  0  # atno 17394 bound_to 11000
  140.7741  134.3800  157.5501 LP  0  0  0  0  0  0  0  0  0  0  0  0  # atno 17395 bound_to 11000

$$$$
