AV-unprocessed.smi:2061|AV-procd|sdf|8376|dock3
  -GOLD-   2272011 53D 1   1.00000     0.00000
 Structure written by MMmdl.
 44 45  0  0  0  0  0  0  0  0  2 V2000
  155.9531  137.8183  162.7268 C   0  0  0  0  0  0  0  0  0  0  0  0
  155.2862  137.6921  161.3998 C   0  0  0  0  0  0  0  0  0  0  0  0
  154.5151  136.7143  160.8383 C   0  0  0  0  0  0  0  0  0  0  0  0
  154.2084  137.2399  159.5534 C   0  0  0  0  0  0  0  0  0  0  0  0
  153.4765  136.6325  158.6068 N   0  5  0  0  0  0  0  0  0  0  0  0
  153.1515  137.2898  157.4697 C   0  0  0  0  0  0  0  0  0  0  0  0
  153.2833  136.8685  156.3181 O   0  0  0  0  0  0  0  0  0  0  0  0
  152.6473  138.5145  157.6798 N   0  0  0  0  0  0  0  0  0  0  0  0
  152.2290  139.4580  156.6452 C   0  0  0  0  0  0  0  0  0  0  0  0
  151.2515  140.5548  157.1621 C   0  0  2  0  0  0  0  0  0  0  0  0
  150.4344  141.1001  155.9626 C   0  0  0  0  0  0  0  0  0  0  0  0
  151.9242  141.6293  157.9307 N   0  0  0  0  0  0  0  0  0  0  0  0
  151.0009  142.7027  158.3173 C   0  0  0  0  0  0  0  0  0  0  0  0
  151.6634  143.8242  159.1423 C   0  0  2  0  0  0  0  0  0  0  0  0
  152.5636  144.7479  158.3039 C   0  0  0  0  0  0  0  0  0  0  0  0
  152.3573  143.2764  160.2607 O   0  0  0  0  0  0  0  0  0  0  0  0
  153.2869  142.2479  159.9382 C   0  0  1  0  0  0  0  0  0  0  0  0
  153.8915  141.7280  161.2467 C   0  0  0  0  0  0  0  0  0  0  0  0
  152.5736  141.1356  159.1487 C   0  0  0  0  0  0  0  0  0  0  0  0
  154.7595  138.4243  159.3470 N   0  0  0  0  0  0  0  0  0  0  0  0
  155.4469  138.7246  160.5291 O   0  0  0  0  0  0  0  0  0  0  0  0
  156.8169  137.1564  162.7874 H   0  0  0  0  0  0  0  0  0  0  0  0
  155.2660  137.5535  163.5304 H   0  0  0  0  0  0  0  0  0  0  0  0
  156.2962  138.8388  162.8991 H   0  0  0  0  0  0  0  0  0  0  0  0
  154.2146  135.7743  161.2761 H   0  0  0  0  0  0  0  0  0  0  0  0
  152.5550  138.8185  158.6378 H   0  0  0  0  0  0  0  0  0  0  0  0
  153.1411  139.8823  156.2280 H   0  0  0  0  0  0  0  0  0  0  0  0
  151.7584  138.8910  155.8417 H   0  0  0  0  0  0  0  0  0  0  0  0
  150.5427  140.0634  157.8303 H   0  0  0  0  0  0  0  0  0  0  0  0
  149.9856  140.3051  155.3682 H   0  0  0  0  0  0  0  0  0  0  0  0
  151.0613  141.6927  155.2958 H   0  0  0  0  0  0  0  0  0  0  0  0
  149.5967  141.7196  156.2792 H   0  0  0  0  0  0  0  0  0  0  0  0
  150.5555  143.1677  157.4398 H   0  0  0  0  0  0  0  0  0  0  0  0
  150.1785  142.2786  158.8957 H   0  0  0  0  0  0  0  0  0  0  0  0
  150.8693  144.4473  159.5545 H   0  0  0  0  0  0  0  0  0  0  0  0
  151.9848  145.2552  157.5318 H   0  0  0  0  0  0  0  0  0  0  0  0
  153.3615  144.1998  157.8033 H   0  0  0  0  0  0  0  0  0  0  0  0
  153.0236  145.5138  158.9286 H   0  0  0  0  0  0  0  0  0  0  0  0
  154.0927  142.6631  159.3322 H   0  0  0  0  0  0  0  0  0  0  0  0
  154.6204  140.9398  161.0562 H   0  0  0  0  0  0  0  0  0  0  0  0
  153.1215  141.3210  161.9028 H   0  0  0  0  0  0  0  0  0  0  0  0
  154.4005  142.5274  161.7857 H   0  0  0  0  0  0  0  0  0  0  0  0
  151.8372  140.6434  159.7862 H   0  0  0  0  0  0  0  0  0  0  0  0
  153.3305  140.3928  158.9076 H   0  0  0  0  0  0  0  0  0  0  0  0
  1  2  1  0  0  0  0
  1 22  1  0  0  0  0
  1 23  1  0  0  0  0
  1 24  1  0  0  0  0
  2 21  1  0  0  0  0
  2  3  2  0  0  0  0
  3  4  1  0  0  0  0
  3 25  1  0  0  0  0
  4  5  1  0  0  0  0
  4 20  2  0  0  0  0
  5  6  1  0  0  0  0
  6  7  2  0  0  0  0
  6  8  1  0  0  0  0
  8  9  1  0  0  0  0
  8 26  1  0  0  0  0
  9 10  1  0  0  0  0
  9 27  1  0  0  0  0
  9 28  1  0  0  0  0
 10 11  1  0  0  0  0
 10 12  1  0  0  0  0
 10 29  1  0  0  0  0
 11 30  1  0  0  0  0
 11 31  1  0  0  0  0
 11 32  1  0  0  0  0
 12 19  1  0  0  0  0
 12 13  1  0  0  0  0
 13 14  1  0  0  0  0
 13 33  1  0  0  0  0
 13 34  1  0  0  0  0
 14 15  1  0  0  0  0
 14 16  1  0  0  0  0
 14 35  1  0  0  0  0
 15 36  1  0  0  0  0
 15 37  1  0  0  0  0
 15 38  1  0  0  0  0
 16 17  1  0  0  0  0
 17 18  1  0  0  0  0
 17 19  1  0  0  0  0
 17 39  1  0  0  0  0
 18 40  1  0  0  0  0
 18 41  1  0  0  0  0
 18 42  1  0  0  0  0
 19 43  1  0  0  0  0
 19 44  1  0  0  0  0
 20 21  1  0  0  0  0
M  CHG  1   5  -1
M  END
> <s_m_source_file>
AV-unprocessed.smi

> <i_m_source_file_index>
2061

> <i_lp_mmshare_version>
43012

> <i_f3d_flags>
0

> <s_epik_input>
W0NIM11jMVtjSF1jKG5vMSlbTkhdQyg9TylbTkhdW0NIMl1bQ0BIXShbQ0gzXSlOMltDSDJdW0NAQEhdKFtDSDNdKU9bQ0BASF0oW0NIM10pW0NIMl0y

> <s_epik_cmdline>
J2VwaWtfcHl0aG9uJywgJy1waCcsICc3LjAnLCAnLXRuJywgJzgnLCAnLW1hJywgJzIwMCcsICctbWV0YWxfYmluZGluZycsICctaW1hZScsICc8aW5maWxlLm1hZT4nLCAnLW9tYWUnLCAnPG91dGZpbGUubWFlPic=

> <r_epik_Ionization_Penalty>
6.88367

> <r_epik_Ionization_Penalty_Charging>
6.57198

> <r_epik_Ionization_Penalty_Neutral>
0.311681

> <r_epik_State_Penalty>
6.77619

> <r_epik_Charging_Adjusted_Penalty>
13.3482

> <i_epik_Tot_Q>
-1

> <i_epik_Tot_abs_Q>
1

> <r_epik_Metal_State_Penalty>
2.70524

> <b_epik_Metal_Only>
1

> <s_lp_Force_Field>
OPLS_2005

> <r_lp_Energy>
24.3932

> <b_lp_Chiralities_Consistent>
1

> <s_lp_Variant>
AV-unprocessed.smi:2061-17

> <Gold.Version>
5.8.1

> <Gold.Id.Protein>
6NUR|6NUR_protein|mol2

> <Gold.PLP.Fitness>
45.6733

> <Gold.PLP.PLP>
-38.6188

> <Gold.PLP.part.hbond>
-2.0000

> <Gold.PLP.part.metal>
0.0000

> <Gold.PLP.part.buried>
-5.1713

> <Gold.PLP.part.nonpolar>
-31.8649

> <Gold.PLP.part.repulsive>
0.0957

> <Gold.PLP.ligand.clash>
0.0000

> <Gold.PLP.ligand.torsion>
0.8070

> <Gold.PLP.Chemscore.Hbond>
2.8716

> <Gold.PLP.Chemscore.CHOScore>
0.0000

> <Gold.PLP.Chemscore.Metal>
0.0000

> <Gold.Chemscore.Hbonds>
donor molecule, donor type, donor heavy atom, donor atom, acceptor molecule, acceptor atom, score
      P1  H 10752 10764       L1     7  0.69

> <Gold.PLP.Chemscore.Internal.Correction>
0.0536

> <Gold.Rescore>
     Score         DG    S(hbond)    S(metal)    S(lipo)     H(rot)  DE(clash)    DE(int)     intcor
     15.58     -18.92       1.78        0.00      97.19       1.52       0.01       3.33       ----

> <Gold.Chemscore.Fitness>
15.5802

> <Gold.Chemscore.DG>
-18.9212

> <Gold.Chemscore.ZeroCoef>
-5.4800

> <Gold.Chemscore.Hbond>
1.7841

> <Gold.Chemscore.Metal>
0.0000

> <Gold.Chemscore.Lipo>
97.1891

> <Gold.Chemscore.Internal_Hbond>
0.0000

> <Gold.Chemscore.DEClash>
0.0149

> <Gold.Chemscore.DEInternal>
3.3261

> <Gold.Chemscore.Rot>
1.5190

> <Gold.Chemscore.Internal.Correction>
   9.000000E+99

> <Gold.Chemscore.Hbonds>
donor molecule, donor type, donor heavy atom, donor atom, acceptor molecule, acceptor atom, score
      P1  H 10752 10764       L1     7  0.68

> <Gold.Chemscore.Hbond.Weighted>
-5.9587

> <Gold.Chemscore.Metal.Weighted>
-0.0000

> <Gold.Chemscore.Lipo.Weighted>
-11.3711

> <Gold.Chemscore.Internal_Hbond.Weighted>
0.0000

> <Gold.Chemscore.DEClash.Weighted>
0.0149

> <Gold.Chemscore.DEInternal.Weighted>
3.3261

> <Gold.Chemscore.Rot.Weighted>
3.8886

> <Gold.Chemscore.Internal.Correction.Weighted>
   9.000000E+99

> <Gold.Protein.RotatedTorsions>
[ 6907 6896 6895 6894 ] final  148.81 input  -60.11 | X-H torsion
[ 7974 7965 7964 7962 ] final   93.70 input  175.53 | X-H torsion
[ 8008 7997 7996 7995 ] final   92.63 input   59.86 | X-H torsion
[ 10167 10162 10161 10158 ] final   64.21 input  -65.29 | X-H torsion
[ 10718 10713 10712 10709 ] final   83.22 input   66.30 | X-H torsion
[ 10763 10752 10751 10750 ] final  -17.39 input  -60.55 | X-H torsion
[ 11005 11000 10999 10996 ] final   89.61 input  -57.11 | X-H torsion

> <Gold.Protein.ActiveResidues>
 VAL166  LYS551  ARG553  GLY616  TRP617  ASP618  TYR619  PRO620  LYS621  CYS622 
 ASP623  PHE694  ASN695  SER759  ASP760  ASP761  ALA762  ILE779  LEU786  VAL792 
 PHE793  MET794  SER795  GLU796  ALA797  LYS798  CYS799  TRP800  GLU811  SER814 

> <Gold.Protein.RotatedAtoms>
  152.1364  133.4438  159.4745 H   0  0  0  0  0  0  0  0  0  0  0  0  # atno 6907 bound_to 6896
  150.6882  134.2358  159.4462 H   0  0  0  0  0  0  0  0  0  0  0  0  # atno 6908 bound_to 6896
  152.0246  134.9803  160.0622 H   0  0  0  0  0  0  0  0  0  0  0  0  # atno 6909 bound_to 6896
  145.4754  139.2280  143.2912 H   0  0  0  0  0  0  0  0  0  0  0  0  # atno 7974 bound_to 7965
  156.0375  140.3323  155.7207 H   0  0  0  0  0  0  0  0  0  0  0  0  # atno 8008 bound_to 7997
  155.5793  140.0635  157.2805 H   0  0  0  0  0  0  0  0  0  0  0  0  # atno 8009 bound_to 7997
  154.4379  140.1847  156.0948 H   0  0  0  0  0  0  0  0  0  0  0  0  # atno 8010 bound_to 7997
  140.1246  144.4699  150.6900 H   0  0  0  0  0  0  0  0  0  0  0  0  # atno 10167 bound_to 10162
  157.6874  131.0082  150.2492 H   0  0  0  0  0  0  0  0  0  0  0  0  # atno 10718 bound_to 10713
  153.5731  135.7007  153.5496 H   0  0  0  0  0  0  0  0  0  0  0  0  # atno 10763 bound_to 10752
  153.3326  135.4043  155.1508 H   0  0  0  0  0  0  0  0  0  0  0  0  # atno 10764 bound_to 10752
  154.8630  135.3722  154.5255 H   0  0  0  0  0  0  0  0  0  0  0  0  # atno 10765 bound_to 10752
  139.8872  134.8562  156.3167 H   0  0  0  0  0  0  0  0  0  0  0  0  # atno 11005 bound_to 11000
  146.2372  140.5536  142.8950 LP  0  0  0  0  0  0  0  0  0  0  0  0  # atno 17320 bound_to 7965
  144.7920  140.6050  143.6535 LP  0  0  0  0  0  0  0  0  0  0  0  0  # atno 17321 bound_to 7965
  140.6852  143.2346  151.5279 LP  0  0  0  0  0  0  0  0  0  0  0  0  # atno 17342 bound_to 10162
  139.5551  144.2297  152.1597 LP  0  0  0  0  0  0  0  0  0  0  0  0  # atno 17343 bound_to 10162
  156.3092  130.3769  149.7678 LP  0  0  0  0  0  0  0  0  0  0  0  0  # atno 17370 bound_to 10713
  156.5284  130.8246  151.3228 LP  0  0  0  0  0  0  0  0  0  0  0  0  # atno 17371 bound_to 10713
  140.9814  133.7265  156.0678 LP  0  0  0  0  0  0  0  0  0  0  0  0  # atno 17394 bound_to 11000
  140.7744  134.3796  157.5501 LP  0  0  0  0  0  0  0  0  0  0  0  0  # atno 17395 bound_to 11000

$$$$
