AV-unprocessed.smi:2568|AV-procd|sdf|10093|dock5
  -GOLD-   2272014113D 1   1.00000     0.00000
 Structure written by MMmdl.
 25 26  0  0  0  0  0  0  0  0  2 V2000
  152.0128  140.7600  158.6227 C   0  0  0  0  0  0  0  0  0  0  0  0
  151.2026  141.1834  157.4453 C   0  0  0  0  0  0  0  0  0  0  0  0
  150.9497  142.4687  157.2037 N   0  0  0  0  0  0  0  0  0  0  0  0
  150.2068  142.4021  156.0790 N   0  0  0  0  0  0  0  0  0  0  0  0
  150.0573  141.1240  155.7226 C   0  0  0  0  0  0  0  0  0  0  0  0
  149.2888  140.7208  154.5038 C   0  0  1  0  0  0  0  0  0  0  0  0
  149.3633  139.2051  154.2361 C   0  0  0  0  0  0  0  0  0  0  0  0
  148.5085  138.8538  153.0854 N   0  3  0  0  0  0  0  0  0  0  0  0
  147.1219  139.3226  153.2791 C   0  0  0  0  0  0  0  0  0  0  0  0
  147.1097  140.8308  153.5850 C   0  0  0  0  0  0  0  0  0  0  0  0
  147.9309  141.0984  154.7172 O   0  0  0  0  0  0  0  0  0  0  0  0
  150.6750  140.2907  156.5548 N   0  0  0  0  0  0  0  0  0  0  0  0
  149.8385  143.2197  155.6141 H   0  0  0  0  0  0  0  0  0  0  0  0
  152.4789  141.6202  159.1047 H   0  0  0  0  0  0  0  0  0  0  0  0
  152.7995  140.0720  158.3123 H   0  0  0  0  0  0  0  0  0  0  0  0
  151.3792  140.2560  159.3527 H   0  0  0  0  0  0  0  0  0  0  0  0
  149.6834  141.2720  153.6479 H   0  0  0  0  0  0  0  0  0  0  0  0
  150.3896  138.8986  154.0324 H   0  0  0  0  0  0  0  0  0  0  0  0
  149.0272  138.6456  155.1105 H   0  0  0  0  0  0  0  0  0  0  0  0
  148.8850  139.2904  152.2560 H   0  0  0  0  0  0  0  0  0  0  0  0
  146.5376  139.1065  152.3845 H   0  0  0  0  0  0  0  0  0  0  0  0
  146.6679  138.7682  154.1016 H   0  0  0  0  0  0  0  0  0  0  0  0
  147.4583  141.4054  152.7254 H   0  0  0  0  0  0  0  0  0  0  0  0
  146.0935  141.1628  153.7985 H   0  0  0  0  0  0  0  0  0  0  0  0
  148.5099  137.8515  152.9594 H   0  0  0  0  0  0  0  0  0  0  0  0
  1  2  1  0  0  0  0
  1 14  1  0  0  0  0
  1 15  1  0  0  0  0
  1 16  1  0  0  0  0
  2 12  1  0  0  0  0
  2  3  2  0  0  0  0
  3  4  1  0  0  0  0
  4 13  1  0  0  0  0
  4  5  1  0  0  0  0
  5  6  1  0  0  0  0
  5 12  2  0  0  0  0
  6 11  1  0  0  0  0
  6  7  1  0  0  0  0
  6 17  1  0  0  0  0
  7  8  1  0  0  0  0
  7 18  1  0  0  0  0
  7 19  1  0  0  0  0
  8  9  1  0  0  0  0
  8 20  1  0  0  0  0
  8 25  1  0  0  0  0
  9 10  1  0  0  0  0
  9 21  1  0  0  0  0
  9 22  1  0  0  0  0
 10 11  1  0  0  0  0
 10 23  1  0  0  0  0
 10 24  1  0  0  0  0
M  CHG  1   8   1
M  END
> <s_m_source_file>
AV-unprocessed.smi

> <i_m_source_file_index>
2568

> <i_lp_mmshare_version>
43012

> <i_f3d_flags>
0

> <s_epik_input>
W0NIM11jMW5bbkhdYyhuMSlbQ0BASF0yW0NIMl1bTkhdW0NIMl1bQ0gyXU8y

> <s_epik_cmdline>
J2VwaWtfcHl0aG9uJywgJy1waCcsICc3LjAnLCAnLXRuJywgJzgnLCAnLW1hJywgJzIwMCcsICctbWV0YWxfYmluZGluZycsICctaW1hZScsICc8aW5maWxlLm1hZT4nLCAnLW9tYWUnLCAnPG91dGZpbGUubWFlPic=

> <r_epik_Ionization_Penalty>
0.166663

> <r_epik_Ionization_Penalty_Charging>
0.125708

> <r_epik_Ionization_Penalty_Neutral>
0.0409555

> <r_epik_State_Penalty>
1.3004

> <r_epik_Charging_Adjusted_Penalty>
1.42611

> <i_epik_Tot_Q>
1

> <i_epik_Tot_abs_Q>
1

> <r_epik_Metal_State_Penalty>
1.60166

> <b_epik_Metal_Only>
0

> <s_lp_Force_Field>
OPLS_2005

> <r_lp_Energy>
12.4533

> <b_lp_Chiralities_Consistent>
1

> <s_lp_Variant>
AV-unprocessed.smi:2568-6

> <Gold.Version>
5.8.1

> <Gold.Id.Protein>
6NUR|6NUR_protein|mol2

> <Gold.PLP.Fitness>
32.6488

> <Gold.PLP.PLP>
-21.0445

> <Gold.PLP.part.hbond>
-2.8834

> <Gold.PLP.part.metal>
0.0000

> <Gold.PLP.part.buried>
-4.1947

> <Gold.PLP.part.nonpolar>
-15.6575

> <Gold.PLP.part.repulsive>
0.4212

> <Gold.PLP.ligand.clash>
0.0000

> <Gold.PLP.ligand.torsion>
0.0393

> <Gold.PLP.Chemscore.Hbond>
3.8940

> <Gold.PLP.Chemscore.CHOScore>
0.0000

> <Gold.PLP.Chemscore.Metal>
0.0000

> <Gold.Chemscore.Hbonds>
donor molecule, donor type, donor heavy atom, donor atom, acceptor molecule, acceptor atom, score
      L1  H     4    13       P1  8028  1.00
      L1  H     8    20       P1  7957  0.93
      L1  H     8    25       P1  7948  1.95

> <Gold.PLP.Chemscore.Internal.Correction>
0.0010

> <Gold.Rescore>
     Score         DG    S(hbond)    S(metal)    S(lipo)     H(rot)  DE(clash)    DE(int)     intcor
     16.67     -16.68       2.92        0.00      34.40       1.00       0.00       0.01       ----

> <Gold.Chemscore.Fitness>
16.6710

> <Gold.Chemscore.DG>
-16.6841

> <Gold.Chemscore.ZeroCoef>
-5.4800

> <Gold.Chemscore.Hbond>
2.9158

> <Gold.Chemscore.Metal>
0.0000

> <Gold.Chemscore.Lipo>
34.4035

> <Gold.Chemscore.Internal_Hbond>
0.0000

> <Gold.Chemscore.DEClash>
0.0000

> <Gold.Chemscore.DEInternal>
0.0131

> <Gold.Chemscore.Rot>
1.0000

> <Gold.Chemscore.Internal.Correction>
   9.000000E+99

> <Gold.Chemscore.Hbonds>
donor molecule, donor type, donor heavy atom, donor atom, acceptor molecule, acceptor atom, score
      L1  H     4    13       P1  8028  0.95
      L1  H     8    20       P1  7957  0.89
      L1  H     8    25       P1  7948  0.91

> <Gold.Chemscore.Hbond.Weighted>
-9.7389

> <Gold.Chemscore.Metal.Weighted>
-0.0000

> <Gold.Chemscore.Lipo.Weighted>
-4.0252

> <Gold.Chemscore.Internal_Hbond.Weighted>
0.0000

> <Gold.Chemscore.DEClash.Weighted>
0.0000

> <Gold.Chemscore.DEInternal.Weighted>
0.0131

> <Gold.Chemscore.Rot.Weighted>
2.5600

> <Gold.Chemscore.Internal.Correction.Weighted>
   9.000000E+99

> <Gold.Protein.RotatedTorsions>
[ 6907 6896 6895 6894 ] final  134.26 input  -60.11 | X-H torsion
[ 7974 7965 7964 7962 ] final   92.49 input  175.53 | X-H torsion
[ 8008 7997 7996 7995 ] final   42.85 input   59.86 | X-H torsion
[ 10167 10162 10161 10158 ] final -128.34 input  -65.29 | X-H torsion
[ 10718 10713 10712 10709 ] final  152.67 input   66.30 | X-H torsion
[ 10763 10752 10751 10750 ] final   89.03 input  -60.55 | X-H torsion
[ 11005 11000 10999 10996 ] final  -27.04 input  -57.11 | X-H torsion

> <Gold.Protein.ActiveResidues>
 VAL166  LYS551  ARG553  GLY616  TRP617  ASP618  TYR619  PRO620  LYS621  CYS622 
 ASP623  PHE694  ASN695  SER759  ASP760  ASP761  ALA762  ILE779  LEU786  VAL792 
 PHE793  MET794  SER795  GLU796  ALA797  LYS798  CYS799  TRP800  GLU811  SER814 

> <Gold.Protein.RotatedAtoms>
  152.3132  133.5775  159.5694 H   0  0  0  0  0  0  0  0  0  0  0  0  # atno 6907 bound_to 6896
  150.7333  134.0121  159.3682 H   0  0  0  0  0  0  0  0  0  0  0  0  # atno 6908 bound_to 6896
  151.8012  135.0709  160.0451 H   0  0  0  0  0  0  0  0  0  0  0  0  # atno 6909 bound_to 6896
  145.4916  139.2276  143.2827 H   0  0  0  0  0  0  0  0  0  0  0  0  # atno 7974 bound_to 7965
  155.2929  140.3380  155.4251 H   0  0  0  0  0  0  0  0  0  0  0  0  # atno 8008 bound_to 7997
  156.2037  140.1743  156.7884 H   0  0  0  0  0  0  0  0  0  0  0  0  # atno 8009 bound_to 7997
  154.5593  140.0690  156.8777 H   0  0  0  0  0  0  0  0  0  0  0  0  # atno 8010 bound_to 7997
  139.9513  143.6052  152.2474 H   0  0  0  0  0  0  0  0  0  0  0  0  # atno 10167 bound_to 10162
  157.2547  131.0786  151.1706 H   0  0  0  0  0  0  0  0  0  0  0  0  # atno 10718 bound_to 10713
  153.1829  135.4485  155.0051 H   0  0  0  0  0  0  0  0  0  0  0  0  # atno 10763 bound_to 10752
  154.8042  135.3267  154.7477 H   0  0  0  0  0  0  0  0  0  0  0  0  # atno 10764 bound_to 10752
  153.7939  135.6968  153.4922 H   0  0  0  0  0  0  0  0  0  0  0  0  # atno 10765 bound_to 10752
  140.9084  133.7477  156.0637 H   0  0  0  0  0  0  0  0  0  0  0  0  # atno 11005 bound_to 11000
  146.2281  140.5710  142.8987 LP  0  0  0  0  0  0  0  0  0  0  0  0  # atno 17320 bound_to 7965
  144.7831  140.5881  143.6592 LP  0  0  0  0  0  0  0  0  0  0  0  0  # atno 17321 bound_to 7965
  139.6626  144.7662  151.1934 LP  0  0  0  0  0  0  0  0  0  0  0  0  # atno 17342 bound_to 10162
  140.7582  143.5987  150.8722 LP  0  0  0  0  0  0  0  0  0  0  0  0  # atno 17343 bound_to 10162
  157.3240  130.6951  149.6285 LP  0  0  0  0  0  0  0  0  0  0  0  0  # atno 17370 bound_to 10713
  155.9665  130.4327  150.4975 LP  0  0  0  0  0  0  0  0  0  0  0  0  # atno 17371 bound_to 10713
  140.8142  134.3365  157.5402 LP  0  0  0  0  0  0  0  0  0  0  0  0  # atno 17394 bound_to 11000
  139.8753  134.9271  156.3418 LP  0  0  0  0  0  0  0  0  0  0  0  0  # atno 17395 bound_to 11000

$$$$
