AV-unprocessed.smi:1975|AV-procd|sdf|7982|dock6
  -GOLD-   2272010163D 1   1.00000     0.00000
 Structure written by MMmdl.
 33 34  0  0  0  0  0  0  0  0  1 V2000
  152.9521  142.4353  159.6914 C   0  0  0  0  0  0  0  0  0  0  0  0
  152.0596  141.1853  159.6778 C   0  0  0  0  0  0  0  0  0  0  0  0
  151.7448  140.7339  158.3472 N   0  0  0  0  0  0  0  0  0  0  0  0
  152.0907  139.4733  157.9072 C   0  0  0  0  0  0  0  0  0  0  0  0
  151.8205  139.0403  156.6586 C   0  0  0  0  0  0  0  0  0  0  0  0
  152.1878  137.7344  156.2209 C   0  0  0  0  0  0  0  0  0  0  0  0
  152.4893  136.6673  155.8896 N   0  0  0  0  0  0  0  0  0  0  0  0
  151.1383  139.8996  155.6939 C   0  0  0  0  0  0  0  0  0  0  0  0
  150.8801  139.5536  154.5398 O   0  0  0  0  0  0  0  0  0  0  0  0
  150.7887  141.1907  156.1657 N   0  0  0  0  0  0  0  0  0  0  0  0
  150.1202  142.1298  155.2379 C   0  0  0  0  0  0  0  0  0  0  0  0
  148.7491  141.6367  154.7492 C   0  0  0  0  0  0  0  0  0  0  0  0
  148.5376  140.4385  154.5556 O   0  0  0  0  0  0  0  0  0  0  0  0
  147.8229  142.5877  154.5609 N   0  0  0  0  0  0  0  0  0  0  0  0
  146.4851  142.3666  154.1157 C   0  0  0  0  0  0  0  0  0  0  0  0
  145.6048  143.5797  153.9050 C   0  0  0  0  0  0  0  0  0  0  0  0
  145.3637  142.6769  155.0832 C   0  0  0  0  0  0  0  0  0  0  0  0
  151.0872  141.6339  157.4770 C   0  0  0  0  0  0  0  0  0  0  0  0
  150.7879  142.7738  157.8425 O   0  0  0  0  0  0  0  0  0  0  0  0
  153.1953  142.7237  160.7142 H   0  0  0  0  0  0  0  0  0  0  0  0
  152.4618  143.2860  159.2174 H   0  0  0  0  0  0  0  0  0  0  0  0
  153.8900  142.2540  159.1656 H   0  0  0  0  0  0  0  0  0  0  0  0
  152.5614  140.3492  160.1665 H   0  0  0  0  0  0  0  0  0  0  0  0
  151.1166  141.3361  160.2065 H   0  0  0  0  0  0  0  0  0  0  0  0
  152.6009  138.8064  158.5876 H   0  0  0  0  0  0  0  0  0  0  0  0
  149.9874  143.1115  155.6953 H   0  0  0  0  0  0  0  0  0  0  0  0
  150.7514  142.3285  154.3699 H   0  0  0  0  0  0  0  0  0  0  0  0
  148.0856  143.5446  154.7477 H   0  0  0  0  0  0  0  0  0  0  0  0
  146.3139  141.5281  153.4418 H   0  0  0  0  0  0  0  0  0  0  0  0
  146.0332  144.5604  154.1030 H   0  0  0  0  0  0  0  0  0  0  0  0
  144.8869  143.5424  153.0883 H   0  0  0  0  0  0  0  0  0  0  0  0
  144.4839  142.0373  155.0530 H   0  0  0  0  0  0  0  0  0  0  0  0
  145.6304  143.0553  156.0681 H   0  0  0  0  0  0  0  0  0  0  0  0
  1  2  1  0  0  0  0
  1 20  1  0  0  0  0
  1 21  1  0  0  0  0
  1 22  1  0  0  0  0
  2  3  1  0  0  0  0
  2 23  1  0  0  0  0
  2 24  1  0  0  0  0
  3 18  1  0  0  0  0
  3  4  1  0  0  0  0
  4  5  2  0  0  0  0
  4 25  1  0  0  0  0
  5  6  1  0  0  0  0
  5  8  1  0  0  0  0
  6  7  3  0  0  0  0
  8  9  2  0  0  0  0
  8 10  1  0  0  0  0
 10 11  1  0  0  0  0
 10 18  1  0  0  0  0
 11 12  1  0  0  0  0
 11 26  1  0  0  0  0
 11 27  1  0  0  0  0
 12 13  2  0  0  0  0
 12 14  1  0  0  0  0
 14 15  1  0  0  0  0
 14 28  1  0  0  0  0
 15 17  1  0  0  0  0
 15 16  1  0  0  0  0
 15 29  1  0  0  0  0
 16 17  1  0  0  0  0
 16 30  1  0  0  0  0
 16 31  1  0  0  0  0
 17 32  1  0  0  0  0
 17 33  1  0  0  0  0
 18 19  2  0  0  0  0
M  END
> <s_m_source_file>
AV-unprocessed.smi

> <i_m_source_file_index>
1975

> <i_lp_mmshare_version>
43012

> <i_f3d_flags>
0

> <s_epik_input>
W0NIM11bQ0gyXW4xW2NIXWMoQyNOKWMoPU8pbihjMT1PKVtDSDJdQyg9TylbTkhdW0NIXTJbQ0gyXVtDSDJdMg==

> <s_epik_cmdline>
J2VwaWtfcHl0aG9uJywgJy1waCcsICc3LjAnLCAnLXRuJywgJzgnLCAnLW1hJywgJzIwMCcsICctbWV0YWxfYmluZGluZycsICctaW1hZScsICc8aW5maWxlLm1hZT4nLCAnLW9tYWUnLCAnPG91dGZpbGUubWFlPic=

> <r_lp_tautomer_probability>
1

> <r_epik_Ionization_Penalty>
2.07081e-08

> <r_epik_Ionization_Penalty_Charging>
3.77987e-11

> <r_epik_Ionization_Penalty_Neutral>
2.06703e-08

> <r_epik_State_Penalty>
-0

> <r_epik_Charging_Adjusted_Penalty>
3.77987e-11

> <i_epik_Tot_Q>
0

> <i_epik_Tot_abs_Q>
0

> <r_epik_Metal_State_Penalty>
-0

> <b_epik_Metal_Only>
0

> <s_lp_Force_Field>
OPLS_2005

> <r_lp_Energy>
17.9293

> <b_lp_Chiralities_Consistent>
1

> <s_lp_Variant>
AV-unprocessed.smi:1975-1

> <Gold.Version>
5.8.1

> <Gold.Id.Protein>
6NUR|6NUR_protein|mol2

> <Gold.PLP.Fitness>
43.0910

> <Gold.PLP.PLP>
-34.8225

> <Gold.PLP.part.hbond>
-2.7885

> <Gold.PLP.part.metal>
0.0000

> <Gold.PLP.part.buried>
-3.7238

> <Gold.PLP.part.nonpolar>
-29.2658

> <Gold.PLP.part.repulsive>
0.5466

> <Gold.PLP.ligand.clash>
0.0000

> <Gold.PLP.ligand.torsion>
0.3759

> <Gold.PLP.Chemscore.Hbond>
2.9920

> <Gold.PLP.Chemscore.CHOScore>
0.0000

> <Gold.PLP.Chemscore.Metal>
0.0000

> <Gold.Chemscore.Hbonds>
donor molecule, donor type, donor heavy atom, donor atom, acceptor molecule, acceptor atom, score
      L1  H    14    28       P1  8028  1.00
      P1  H  7989  7998       L1     9  1.00
      P1  H 10752 10764       L1     7  0.96

> <Gold.PLP.Chemscore.Internal.Correction>
0.0443

> <Gold.Rescore>
     Score         DG    S(hbond)    S(metal)    S(lipo)     H(rot)  DE(clash)    DE(int)     intcor
     10.64     -16.17       2.75        0.00      54.17       1.89       1.45       4.07       ----

> <Gold.Chemscore.Fitness>
10.6402

> <Gold.Chemscore.DG>
-16.1657

> <Gold.Chemscore.ZeroCoef>
-5.4800

> <Gold.Chemscore.Hbond>
2.7484

> <Gold.Chemscore.Metal>
0.0000

> <Gold.Chemscore.Lipo>
54.1740

> <Gold.Chemscore.Internal_Hbond>
0.0000

> <Gold.Chemscore.DEClash>
1.4534

> <Gold.Chemscore.DEInternal>
4.0721

> <Gold.Chemscore.Rot>
1.8876

> <Gold.Chemscore.Internal.Correction>
   9.000000E+99

> <Gold.Chemscore.Hbonds>
donor molecule, donor type, donor heavy atom, donor atom, acceptor molecule, acceptor atom, score
      L1  H    14    28       P1  8028  0.80
      P1  H  7989  7998       L1     9  0.50
      P1  H 10752 10764       L1     7  0.90

> <Gold.Chemscore.Hbond.Weighted>
-9.1796

> <Gold.Chemscore.Metal.Weighted>
-0.0000

> <Gold.Chemscore.Lipo.Weighted>
-6.3384

> <Gold.Chemscore.Internal_Hbond.Weighted>
0.0000

> <Gold.Chemscore.DEClash.Weighted>
1.4534

> <Gold.Chemscore.DEInternal.Weighted>
4.0721

> <Gold.Chemscore.Rot.Weighted>
4.8323

> <Gold.Chemscore.Internal.Correction.Weighted>
   9.000000E+99

> <Gold.Protein.RotatedTorsions>
[ 6907 6896 6895 6894 ] final  -81.44 input  -60.11 | X-H torsion
[ 7974 7965 7964 7962 ] final  -28.58 input  175.53 | X-H torsion
[ 8008 7997 7996 7995 ] final  -32.28 input   59.86 | X-H torsion
[ 10167 10162 10161 10158 ] final  176.53 input  -65.29 | X-H torsion
[ 10718 10713 10712 10709 ] final  -90.28 input   66.30 | X-H torsion
[ 10763 10752 10751 10750 ] final  -29.36 input  -60.55 | X-H torsion
[ 11005 11000 10999 10996 ] final -117.37 input  -57.11 | X-H torsion

> <Gold.Protein.ActiveResidues>
 VAL166  LYS551  ARG553  GLY616  TRP617  ASP618  TYR619  PRO620  LYS621  CYS622 
 ASP623  PHE694  ASN695  SER759  ASP760  ASP761  ALA762  ILE779  LEU786  VAL792 
 PHE793  MET794  SER795  GLU796  ALA797  LYS798  CYS799  TRP800  GLU811  SER814 

> <Gold.Protein.RotatedAtoms>
  150.6912  134.3817  159.5036 H   0  0  0  0  0  0  0  0  0  0  0  0  # atno 6907 bound_to 6896
  152.1619  134.8903  160.0550 H   0  0  0  0  0  0  0  0  0  0  0  0  # atno 6908 bound_to 6896
  151.9961  133.3774  159.4200 H   0  0  0  0  0  0  0  0  0  0  0  0  # atno 6909 bound_to 6896
  146.1278  140.5301  142.8707 H   0  0  0  0  0  0  0  0  0  0  0  0  # atno 7974 bound_to 7965
  154.4185  140.1741  156.1702 H   0  0  0  0  0  0  0  0  0  0  0  0  # atno 8008 bound_to 7997
  155.9766  140.3381  155.6600 H   0  0  0  0  0  0  0  0  0  0  0  0  # atno 8009 bound_to 7997
  155.6555  140.0695  157.2563 H   0  0  0  0  0  0  0  0  0  0  0  0  # atno 8010 bound_to 7997
  139.5218  144.2905  152.0468 H   0  0  0  0  0  0  0  0  0  0  0  0  # atno 10167 bound_to 10162
  155.9987  130.4904  150.5299 H   0  0  0  0  0  0  0  0  0  0  0  0  # atno 10718 bound_to 10713
  153.7634  135.6917  153.4921 H   0  0  0  0  0  0  0  0  0  0  0  0  # atno 10763 bound_to 10752
  153.1923  135.4466  155.0163 H   0  0  0  0  0  0  0  0  0  0  0  0  # atno 10764 bound_to 10752
  154.8144  135.3392  154.7148 H   0  0  0  0  0  0  0  0  0  0  0  0  # atno 10765 bound_to 10752
  141.0359  133.9910  157.3071 H   0  0  0  0  0  0  0  0  0  0  0  0  # atno 11005 bound_to 11000
  144.7660  140.5530  143.6703 LP  0  0  0  0  0  0  0  0  0  0  0  0  # atno 17320 bound_to 7965
  145.5327  139.1475  143.3490 LP  0  0  0  0  0  0  0  0  0  0  0  0  # atno 17321 bound_to 7965
  140.2356  144.4323  150.6281 LP  0  0  0  0  0  0  0  0  0  0  0  0  # atno 17342 bound_to 10162
  140.6326  143.2190  151.6464 LP  0  0  0  0  0  0  0  0  0  0  0  0  # atno 17343 bound_to 10162
  157.3249  131.0689  151.1904 LP  0  0  0  0  0  0  0  0  0  0  0  0  # atno 17370 bound_to 10713
  157.2805  130.6747  149.6063 LP  0  0  0  0  0  0  0  0  0  0  0  0  # atno 17371 bound_to 10713
  139.9240  135.0201  156.8169 LP  0  0  0  0  0  0  0  0  0  0  0  0  # atno 17394 bound_to 11000
  140.6322  133.9895  155.7667 LP  0  0  0  0  0  0  0  0  0  0  0  0  # atno 17395 bound_to 11000

$$$$
