AV-unprocessed.smi:3281|AV-procd|sdf|12556|dock3
  -GOLD-   2272018473D 1   1.00000     0.00000
 Structure written by MMmdl.
 37 38  0  0  0  0  0  0  0  0  2 V2000
  146.3789  138.6815  152.1688 C   0  0  0  0  0  0  0  0  0  0  0  0
  146.8019  140.0107  152.8030 C   0  0  0  0  0  0  0  0  0  0  0  0
  147.9573  139.8749  153.7390 C   0  0  0  0  0  0  0  0  0  0  0  0
  148.5789  138.7182  154.1402 C   0  0  0  0  0  0  0  0  0  0  0  0
  149.6396  138.9248  155.0255 N   0  0  0  0  0  0  0  0  0  0  0  0
  149.8184  140.2156  155.3138 C   0  0  0  0  0  0  0  0  0  0  0  0
  150.9048  140.7166  156.2048 C   0  0  0  0  0  0  0  0  0  0  0  0
  151.0246  142.2453  156.1739 C   0  0  0  0  0  0  0  0  0  0  0  0
  150.4746  142.8434  157.4084 N   0  3  0  0  0  0  0  0  0  0  0  0
  151.4781  143.3575  158.3676 C   0  0  2  0  0  0  0  0  0  0  0  0
  152.0942  142.2108  159.2002 C   0  0  0  0  0  0  0  0  0  0  0  0
  153.1760  142.6969  160.1795 C   0  0  0  0  0  0  0  0  0  0  0  0
  152.6360  143.7053  161.2021 C   0  0  0  0  0  0  0  0  0  0  0  0
  152.0183  145.1972  160.3796 S   0  0  0  0  0  0  0  0  0  0  0  0
  150.8156  144.4115  159.2734 C   0  0  0  0  0  0  0  0  0  0  0  0
  148.6926  141.2759  154.4751 S   0  0  0  0  0  0  0  0  0  0  0  0
  145.5362  138.8251  151.4922 H   0  0  0  0  0  0  0  0  0  0  0  0
  146.0761  137.9597  152.9278 H   0  0  0  0  0  0  0  0  0  0  0  0
  147.1959  138.2427  151.5952 H   0  0  0  0  0  0  0  0  0  0  0  0
  147.0529  140.7209  152.0145 H   0  0  0  0  0  0  0  0  0  0  0  0
  145.9541  140.4412  153.3367 H   0  0  0  0  0  0  0  0  0  0  0  0
  148.3350  137.7087  153.8433 H   0  0  0  0  0  0  0  0  0  0  0  0
  150.7043  140.3744  157.2208 H   0  0  0  0  0  0  0  0  0  0  0  0
  151.8467  140.2580  155.9001 H   0  0  0  0  0  0  0  0  0  0  0  0
  152.0715  142.5267  156.0596 H   0  0  0  0  0  0  0  0  0  0  0  0
  150.4871  142.6399  155.3105 H   0  0  0  0  0  0  0  0  0  0  0  0
  149.8971  143.6233  157.1281 H   0  0  0  0  0  0  0  0  0  0  0  0
  152.2665  143.8520  157.7975 H   0  0  0  0  0  0  0  0  0  0  0  0
  151.3099  141.6916  159.7529 H   0  0  0  0  0  0  0  0  0  0  0  0
  152.5450  141.4677  158.5430 H   0  0  0  0  0  0  0  0  0  0  0  0
  153.5921  141.8392  160.7088 H   0  0  0  0  0  0  0  0  0  0  0  0
  154.0031  143.1425  159.6251 H   0  0  0  0  0  0  0  0  0  0  0  0
  151.8309  143.2607  161.7882 H   0  0  0  0  0  0  0  0  0  0  0  0
  153.4212  143.9914  161.9021 H   0  0  0  0  0  0  0  0  0  0  0  0
  150.3510  145.1928  158.6708 H   0  0  0  0  0  0  0  0  0  0  0  0
  150.0254  143.9605  159.8749 H   0  0  0  0  0  0  0  0  0  0  0  0
  149.8901  142.1659  157.8769 H   0  0  0  0  0  0  0  0  0  0  0  0
  1  2  1  0  0  0  0
  1 17  1  0  0  0  0
  1 18  1  0  0  0  0
  1 19  1  0  0  0  0
  2  3  1  0  0  0  0
  2 20  1  0  0  0  0
  2 21  1  0  0  0  0
  3 16  1  0  0  0  0
  3  4  2  0  0  0  0
  4  5  1  0  0  0  0
  4 22  1  0  0  0  0
  5  6  2  0  0  0  0
  6  7  1  0  0  0  0
  6 16  1  0  0  0  0
  7  8  1  0  0  0  0
  7 23  1  0  0  0  0
  7 24  1  0  0  0  0
  8  9  1  0  0  0  0
  8 25  1  0  0  0  0
  8 26  1  0  0  0  0
  9 10  1  0  0  0  0
  9 27  1  0  0  0  0
  9 37  1  0  0  0  0
 10 15  1  0  0  0  0
 10 11  1  0  0  0  0
 10 28  1  0  0  0  0
 11 12  1  0  0  0  0
 11 29  1  0  0  0  0
 11 30  1  0  0  0  0
 12 13  1  0  0  0  0
 12 31  1  0  0  0  0
 12 32  1  0  0  0  0
 13 14  1  0  0  0  0
 13 33  1  0  0  0  0
 13 34  1  0  0  0  0
 14 15  1  0  0  0  0
 15 35  1  0  0  0  0
 15 36  1  0  0  0  0
M  CHG  1   9   1
M  END
> <s_m_source_file>
AV-unprocessed.smi

> <i_m_source_file_index>
3281

> <i_lp_mmshare_version>
43012

> <i_f3d_flags>
0

> <s_epik_input>
W0NIM11bQ0gyXWMxW2NIXW5jKHMxKVtDSDJdW0NIMl1bTkhdW0NAQEhdMltDSDJdW0NIMl1bQ0gyXVNbQ0gyXTI=

> <s_epik_cmdline>
J2VwaWtfcHl0aG9uJywgJy1waCcsICc3LjAnLCAnLXRuJywgJzgnLCAnLW1hJywgJzIwMCcsICctbWV0YWxfYmluZGluZycsICctaW1hZScsICc8aW5maWxlLm1hZT4nLCAnLW9tYWUnLCAnPG91dGZpbGUubWFlPic=

> <r_epik_Ionization_Penalty>
0.00827702

> <r_epik_Ionization_Penalty_Charging>
0.00826679

> <r_epik_Ionization_Penalty_Neutral>
1.02314e-05

> <r_epik_State_Penalty>
0.00622064

> <r_epik_Charging_Adjusted_Penalty>
0.0144874

> <i_epik_Tot_Q>
1

> <i_epik_Tot_abs_Q>
1

> <r_epik_Metal_State_Penalty>
0.0062521

> <b_epik_Metal_Only>
0

> <s_lp_Force_Field>
OPLS_2005

> <r_lp_Energy>
-1.10641

> <b_lp_Chiralities_Consistent>
1

> <s_lp_Variant>
AV-unprocessed.smi:3281-1

> <Gold.Version>
5.8.1

> <Gold.Id.Protein>
6NUR|6NUR_protein|mol2

> <Gold.PLP.Fitness>
45.7524

> <Gold.PLP.PLP>
-38.5835

> <Gold.PLP.part.hbond>
-1.0000

> <Gold.PLP.part.metal>
0.0000

> <Gold.PLP.part.buried>
-2.1238

> <Gold.PLP.part.nonpolar>
-35.4565

> <Gold.PLP.part.repulsive>
0.1049

> <Gold.PLP.ligand.clash>
0.0000

> <Gold.PLP.ligand.torsion>
0.9449

> <Gold.PLP.Chemscore.Hbond>
2.0000

> <Gold.PLP.Chemscore.CHOScore>
1.0000

> <Gold.PLP.Chemscore.Metal>
0.0000

> <Gold.Chemscore.Hbonds>
donor molecule, donor type, donor heavy atom, donor atom, acceptor molecule, acceptor atom, score
      L1  H     9    27       P1  8028  1.76
      L1  C     4    22       P1  7948  0.98

> <Gold.PLP.Chemscore.Internal.Correction>
0.0588

> <Gold.Rescore>
     Score         DG    S(hbond)    S(metal)    S(lipo)     H(rot)  DE(clash)    DE(int)     intcor
     18.42     -19.48       1.00        0.00     121.28       1.38       0.18       0.87       ----

> <Gold.Chemscore.Fitness>
18.4214

> <Gold.Chemscore.DG>
-19.4780

> <Gold.Chemscore.ZeroCoef>
-5.4800

> <Gold.Chemscore.Hbond>
0.9976

> <Gold.Chemscore.Metal>
0.0000

> <Gold.Chemscore.Lipo>
121.2838

> <Gold.Chemscore.Internal_Hbond>
0.0000

> <Gold.Chemscore.DEClash>
0.1822

> <Gold.Chemscore.DEInternal>
0.8744

> <Gold.Chemscore.Rot>
1.3767

> <Gold.Chemscore.Internal.Correction>
   9.000000E+99

> <Gold.Chemscore.Hbonds>
donor molecule, donor type, donor heavy atom, donor atom, acceptor molecule, acceptor atom, score
      L1  H     9    27       P1  8028  0.79

> <Gold.Chemscore.Hbond.Weighted>
-3.3321

> <Gold.Chemscore.Metal.Weighted>
-0.0000

> <Gold.Chemscore.Lipo.Weighted>
-14.1902

> <Gold.Chemscore.Internal_Hbond.Weighted>
0.0000

> <Gold.Chemscore.DEClash.Weighted>
0.1822

> <Gold.Chemscore.DEInternal.Weighted>
0.8744

> <Gold.Chemscore.Rot.Weighted>
3.5243

> <Gold.Chemscore.Internal.Correction.Weighted>
   9.000000E+99

> <Gold.Protein.RotatedTorsions>
[ 6907 6896 6895 6894 ] final  -56.12 input  -60.11 | X-H torsion
[ 7974 7965 7964 7962 ] final  108.24 input  175.53 | X-H torsion
[ 8008 7997 7996 7995 ] final   57.48 input   59.86 | X-H torsion
[ 10167 10162 10161 10158 ] final  108.75 input  -65.29 | X-H torsion
[ 10718 10713 10712 10709 ] final   62.24 input   66.30 | X-H torsion
[ 10763 10752 10751 10750 ] final   50.28 input  -60.55 | X-H torsion
[ 11005 11000 10999 10996 ] final -146.50 input  -57.11 | X-H torsion

> <Gold.Protein.ActiveResidues>
 VAL166  LYS551  ARG553  GLY616  TRP617  ASP618  TYR619  PRO620  LYS621  CYS622 
 ASP623  PHE694  ASN695  SER759  ASP760  ASP761  ALA762  ILE779  LEU786  VAL792 
 PHE793  MET794  SER795  GLU796  ALA797  LYS798  CYS799  TRP800  GLU811  SER814 

> <Gold.Protein.RotatedAtoms>
  150.8194  134.7393  159.6758 H   0  0  0  0  0  0  0  0  0  0  0  0  # atno 6907 bound_to 6896
  152.4310  134.5773  159.9948 H   0  0  0  0  0  0  0  0  0  0  0  0  # atno 6908 bound_to 6896
  151.5962  133.3324  159.3074 H   0  0  0  0  0  0  0  0  0  0  0  0  # atno 6909 bound_to 6896
  145.2832  139.2625  143.3904 H   0  0  0  0  0  0  0  0  0  0  0  0  # atno 7974 bound_to 7965
  155.5345  140.3483  155.4433 H   0  0  0  0  0  0  0  0  0  0  0  0  # atno 8008 bound_to 7997
  156.0695  140.1359  156.9873 H   0  0  0  0  0  0  0  0  0  0  0  0  # atno 8009 bound_to 7997
  154.4520  140.0968  156.6622 H   0  0  0  0  0  0  0  0  0  0  0  0  # atno 8010 bound_to 7997
  139.6821  144.7117  151.1498 H   0  0  0  0  0  0  0  0  0  0  0  0  # atno 10167 bound_to 10162
  157.5886  130.9039  149.9562 H   0  0  0  0  0  0  0  0  0  0  0  0  # atno 10718 bound_to 10713
  152.9785  135.5884  154.4227 H   0  0  0  0  0  0  0  0  0  0  0  0  # atno 10763 bound_to 10752
  154.3849  135.2767  155.2191 H   0  0  0  0  0  0  0  0  0  0  0  0  # atno 10764 bound_to 10752
  154.4088  135.6086  153.5995 H   0  0  0  0  0  0  0  0  0  0  0  0  # atno 10765 bound_to 10752
  140.7813  134.3075  157.5044 H   0  0  0  0  0  0  0  0  0  0  0  0  # atno 11005 bound_to 11000
  146.3209  140.3305  142.8640 LP  0  0  0  0  0  0  0  0  0  0  0  0  # atno 17320 bound_to 7965
  144.9235  140.7895  143.5733 LP  0  0  0  0  0  0  0  0  0  0  0  0  # atno 17321 bound_to 7965
  140.7655  143.5684  150.9022 LP  0  0  0  0  0  0  0  0  0  0  0  0  # atno 17342 bound_to 10162
  139.9357  143.6441  152.3066 LP  0  0  0  0  0  0  0  0  0  0  0  0  # atno 17343 bound_to 10162
  156.0938  130.3661  150.0344 LP  0  0  0  0  0  0  0  0  0  0  0  0  # atno 17370 bound_to 10713
  156.8471  130.9446  151.3628 LP  0  0  0  0  0  0  0  0  0  0  0  0  # atno 17371 bound_to 10713
  139.8742  134.9320  156.3543 LP  0  0  0  0  0  0  0  0  0  0  0  0  # atno 17394 bound_to 11000
  140.9479  133.7470  156.0233 LP  0  0  0  0  0  0  0  0  0  0  0  0  # atno 17395 bound_to 11000

$$$$
