AV-unprocessed.smi:809|AV-procd|sdf|3806|dock9
  -GOLD-   22720 1243D 1   1.00000     0.00000
 Structure written by MMmdl.
 40 41  0  0  0  0  0  0  0  0  2 V2000
  153.9156  141.6354  160.0994 C   0  0  0  0  0  0  0  0  0  0  0  0
  153.0993  142.6564  159.3713 C   0  0  0  0  0  0  0  0  0  0  0  0
  153.0834  144.0123  159.5907 C   0  0  0  0  0  0  0  0  0  0  0  0
  151.9862  144.8359  158.5147 S   0  0  0  0  0  0  0  0  0  0  0  0
  151.5842  143.2828  157.7992 C   0  0  0  0  0  0  0  0  0  0  0  0
  150.6501  143.1633  156.7369 N   0  0  0  0  0  0  0  0  0  0  0  0
  150.3871  142.0823  155.9822 C   0  0  0  0  0  0  0  0  0  0  0  0
  150.9217  140.9802  156.1086 O   0  0  0  0  0  0  0  0  0  0  0  0
  149.4612  142.3535  155.0509 N   0  0  0  0  0  0  0  0  0  0  0  0
  148.9497  141.4133  154.0551 C   0  0  0  0  0  0  0  0  0  0  0  0
  147.4478  141.6306  153.7288 C   0  0  1  0  0  0  0  0  0  0  0  0
  147.1774  142.9967  153.9802 O   0  0  0  0  0  0  0  0  0  0  0  0
  147.0375  141.3119  152.2720 C   0  0  0  0  0  0  0  0  0  0  0  0
  147.0423  139.7991  151.9900 C   0  0  0  0  0  0  0  0  0  0  0  0
  146.1535  139.0798  152.9351 N   0  3  1  0  0  0  0  0  0  0  0  0
  146.0421  137.6400  152.6171 C   0  0  0  0  0  0  0  0  0  0  0  0
  146.5318  139.3172  154.3502 C   0  0  0  0  0  0  0  0  0  0  0  0
  146.5392  140.8223  154.6809 C   0  0  0  0  0  0  0  0  0  0  0  0
  152.2393  142.2523  158.3461 N   0  0  0  0  0  0  0  0  0  0  0  0
  154.6411  142.1051  160.7639 H   0  0  0  0  0  0  0  0  0  0  0  0
  154.4679  141.0028  159.4042 H   0  0  0  0  0  0  0  0  0  0  0  0
  153.2833  140.9872  160.7064 H   0  0  0  0  0  0  0  0  0  0  0  0
  153.6499  144.5750  160.3178 H   0  0  0  0  0  0  0  0  0  0  0  0
  150.1284  144.0003  156.5220 H   0  0  0  0  0  0  0  0  0  0  0  0
  149.0787  143.2876  155.0218 H   0  0  0  0  0  0  0  0  0  0  0  0
  149.5508  141.4756  153.1480 H   0  0  0  0  0  0  0  0  0  0  0  0
  149.1076  140.4025  154.4339 H   0  0  0  0  0  0  0  0  0  0  0  0
  147.8618  143.3467  154.5296 H   0  0  0  0  0  0  0  0  0  0  0  0
  146.0301  141.6900  152.0895 H   0  0  0  0  0  0  0  0  0  0  0  0
  147.6757  141.8302  151.5563 H   0  0  0  0  0  0  0  0  0  0  0  0
  146.7047  139.6222  150.9680 H   0  0  0  0  0  0  0  0  0  0  0  0
  148.0523  139.3957  152.0612 H   0  0  0  0  0  0  0  0  0  0  0  0
  147.0040  137.1380  152.7303 H   0  0  0  0  0  0  0  0  0  0  0  0
  145.7000  137.4967  151.5915 H   0  0  0  0  0  0  0  0  0  0  0  0
  145.3229  137.1546  153.2776 H   0  0  0  0  0  0  0  0  0  0  0  0
  145.8211  138.8092  155.0032 H   0  0  0  0  0  0  0  0  0  0  0  0
  147.5072  138.8722  154.5490 H   0  0  0  0  0  0  0  0  0  0  0  0
  146.8447  140.9726  155.7173 H   0  0  0  0  0  0  0  0  0  0  0  0
  145.5148  141.1924  154.6121 H   0  0  0  0  0  0  0  0  0  0  0  0
  145.2302  139.4711  152.8142 H   0  0  0  0  0  0  0  0  0  0  0  0
  1  2  1  0  0  0  0
  1 20  1  0  0  0  0
  1 21  1  0  0  0  0
  1 22  1  0  0  0  0
  2 19  1  0  0  0  0
  2  3  2  0  0  0  0
  3  4  1  0  0  0  0
  3 23  1  0  0  0  0
  4  5  1  0  0  0  0
  5  6  1  0  0  0  0
  5 19  2  0  0  0  0
  6  7  1  0  0  0  0
  6 24  1  0  0  0  0
  7  8  2  0  0  0  0
  7  9  1  0  0  0  0
  9 10  1  0  0  0  0
  9 25  1  0  0  0  0
 10 11  1  0  0  0  0
 10 26  1  0  0  0  0
 10 27  1  0  0  0  0
 11 18  1  0  0  0  0
 11 12  1  0  0  0  0
 11 13  1  0  0  0  0
 12 28  1  0  0  0  0
 13 14  1  0  0  0  0
 13 29  1  0  0  0  0
 13 30  1  0  0  0  0
 14 15  1  0  0  0  0
 14 31  1  0  0  0  0
 14 32  1  0  0  0  0
 15 16  1  0  0  0  0
 15 17  1  0  0  0  0
 15 40  1  0  0  0  0
 16 33  1  0  0  0  0
 16 34  1  0  0  0  0
 16 35  1  0  0  0  0
 17 18  1  0  0  0  0
 17 36  1  0  0  0  0
 17 37  1  0  0  0  0
 18 38  1  0  0  0  0
 18 39  1  0  0  0  0
M  CHG  1  15   1
M  END
> <s_m_source_file>
AV-unprocessed.smi

> <i_m_source_file_index>
809

> <i_lp_mmshare_version>
43012

> <i_f3d_flags>
0

> <s_epik_input>
W0NIM11jMVtjSF1zYyhuMSlbTkhdQyg9TylbTkhdW0NIMl1DMihbT0hdKVtDSDJdW0NIMl1OKFtDSDNdKVtDSDJdW0NIMl0y

> <s_epik_cmdline>
J2VwaWtfcHl0aG9uJywgJy1waCcsICc3LjAnLCAnLXRuJywgJzgnLCAnLW1hJywgJzIwMCcsICctbWV0YWxfYmluZGluZycsICctaW1hZScsICc8aW5maWxlLm1hZT4nLCAnLW9tYWUnLCAnPG91dGZpbGUubWFlPic=

> <r_lp_tautomer_probability>
0.999

> <r_epik_Ionization_Penalty>
0.00116503

> <r_epik_Ionization_Penalty_Charging>
0.000767707

> <r_epik_Ionization_Penalty_Neutral>
0.00039732

> <r_epik_State_Penalty>
0.000177984

> <r_epik_Charging_Adjusted_Penalty>
0.00094569

> <i_epik_Tot_Q>
1

> <i_epik_Tot_abs_Q>
1

> <r_epik_Metal_State_Penalty>
0.00775393

> <b_epik_Metal_Only>
0

> <s_lp_Force_Field>
OPLS_2005

> <r_lp_Energy>
16.2661

> <b_lp_Chiralities_Consistent>
1

> <s_lp_Variant>
AV-unprocessed.smi:809-2

> <Gold.Version>
5.8.1

> <Gold.Id.Protein>
6NUR|6NUR_protein|mol2

> <Gold.PLP.Fitness>
50.2506

> <Gold.PLP.PLP>
-36.8466

> <Gold.PLP.part.hbond>
-4.6845

> <Gold.PLP.part.metal>
0.0000

> <Gold.PLP.part.buried>
-1.3528

> <Gold.PLP.part.nonpolar>
-31.1892

> <Gold.PLP.part.repulsive>
0.2466

> <Gold.PLP.ligand.clash>
0.0000

> <Gold.PLP.ligand.torsion>
0.8014

> <Gold.PLP.Chemscore.Hbond>
5.0000

> <Gold.PLP.Chemscore.CHOScore>
0.0000

> <Gold.PLP.Chemscore.Metal>
0.0000

> <Gold.Chemscore.Hbonds>
donor molecule, donor type, donor heavy atom, donor atom, acceptor molecule, acceptor atom, score
      L1  H     6    24       P1  8028  0.99
      L1  H     9    25       P1  8028  1.00
      L1  H    12    28       P1  8028  1.00
      L1  H    15    40       P1 10175  2.00

> <Gold.PLP.Chemscore.Internal.Correction>
0.0068

> <Gold.Rescore>
     Score         DG    S(hbond)    S(metal)    S(lipo)     H(rot)  DE(clash)    DE(int)     intcor
     19.53     -24.39       3.73        0.00      95.48       1.85       2.72       2.14       ----

> <Gold.Chemscore.Fitness>
19.5297

> <Gold.Chemscore.DG>
-24.3874

> <Gold.Chemscore.ZeroCoef>
-5.4800

> <Gold.Chemscore.Hbond>
3.7320

> <Gold.Chemscore.Metal>
0.0000

> <Gold.Chemscore.Lipo>
95.4805

> <Gold.Chemscore.Internal_Hbond>
0.0000

> <Gold.Chemscore.DEClash>
2.7172

> <Gold.Chemscore.DEInternal>
2.1404

> <Gold.Chemscore.Rot>
1.8471

> <Gold.Chemscore.Internal.Correction>
   9.000000E+99

> <Gold.Chemscore.Hbonds>
donor molecule, donor type, donor heavy atom, donor atom, acceptor molecule, acceptor atom, score
      L1  H     6    24       P1  8028  0.94
      L1  H     9    25       P1  8028  0.93
      L1  H    12    28       P1  8028  0.70
      L1  H    15    40       P1 10175  1.00

> <Gold.Chemscore.Hbond.Weighted>
-12.4648

> <Gold.Chemscore.Metal.Weighted>
-0.0000

> <Gold.Chemscore.Lipo.Weighted>
-11.1712

> <Gold.Chemscore.Internal_Hbond.Weighted>
0.0000

> <Gold.Chemscore.DEClash.Weighted>
2.7172

> <Gold.Chemscore.DEInternal.Weighted>
2.1404

> <Gold.Chemscore.Rot.Weighted>
4.7286

> <Gold.Chemscore.Internal.Correction.Weighted>
   9.000000E+99

> <Gold.Protein.RotatedTorsions>
[ 6907 6896 6895 6894 ] final -150.88 input  -60.11 | X-H torsion
[ 7974 7965 7964 7962 ] final   91.51 input  175.53 | X-H torsion
[ 8008 7997 7996 7995 ] final -179.42 input   59.86 | X-H torsion
[ 10167 10162 10161 10158 ] final  127.30 input  -65.29 | X-H torsion
[ 10718 10713 10712 10709 ] final   77.98 input   66.30 | X-H torsion
[ 10763 10752 10751 10750 ] final   51.01 input  -60.55 | X-H torsion
[ 11005 11000 10999 10996 ] final  -94.40 input  -57.11 | X-H torsion

> <Gold.Protein.ActiveResidues>
 VAL166  LYS551  ARG553  GLY616  TRP617  ASP618  TYR619  PRO620  LYS621  CYS622 
 ASP623  PHE694  ASN695  SER759  ASP760  ASP761  ALA762  ILE779  LEU786  VAL792 
 PHE793  MET794  SER795  GLU796  ALA797  LYS798  CYS799  TRP800  GLU811  SER814 

> <Gold.Protein.RotatedAtoms>
  151.2049  133.4589  159.2596 H   0  0  0  0  0  0  0  0  0  0  0  0  # atno 6907 bound_to 6896
  151.1033  134.9984  159.8469 H   0  0  0  0  0  0  0  0  0  0  0  0  # atno 6908 bound_to 6896
  152.5445  134.1974  159.8751 H   0  0  0  0  0  0  0  0  0  0  0  0  # atno 6909 bound_to 6896
  145.5047  139.2276  143.2758 H   0  0  0  0  0  0  0  0  0  0  0  0  # atno 7974 bound_to 7965
  156.0303  140.1280  157.0265 H   0  0  0  0  0  0  0  0  0  0  0  0  # atno 8008 bound_to 7997
  154.4347  140.1051  156.6160 H   0  0  0  0  0  0  0  0  0  0  0  0  # atno 8009 bound_to 7997
  155.5817  140.3468  155.4544 H   0  0  0  0  0  0  0  0  0  0  0  0  # atno 8010 bound_to 7997
  139.5585  144.6865  151.4111 H   0  0  0  0  0  0  0  0  0  0  0  0  # atno 10167 bound_to 10162
  157.6729  130.9847  150.1721 H   0  0  0  0  0  0  0  0  0  0  0  0  # atno 10718 bound_to 10713
  152.9785  135.5860  154.4345 H   0  0  0  0  0  0  0  0  0  0  0  0  # atno 10763 bound_to 10752
  154.3954  135.2768  155.2131 H   0  0  0  0  0  0  0  0  0  0  0  0  # atno 10764 bound_to 10752
  154.3985  135.6109  153.5938 H   0  0  0  0  0  0  0  0  0  0  0  0  # atno 10765 bound_to 10752
  141.1471  133.7953  157.0292 H   0  0  0  0  0  0  0  0  0  0  0  0  # atno 11005 bound_to 11000
  146.2204  140.5850  142.9019 LP  0  0  0  0  0  0  0  0  0  0  0  0  # atno 17320 bound_to 7965
  144.7761  140.5741  143.6637 LP  0  0  0  0  0  0  0  0  0  0  0  0  # atno 17321 bound_to 7965
  140.6862  143.7969  150.7189 LP  0  0  0  0  0  0  0  0  0  0  0  0  # atno 17342 bound_to 10162
  140.1437  143.4418  152.2177 LP  0  0  0  0  0  0  0  0  0  0  0  0  # atno 17343 bound_to 10162
  156.2472  130.3697  149.8271 LP  0  0  0  0  0  0  0  0  0  0  0  0  # atno 17370 bound_to 10713
  156.6054  130.8564  151.3442 LP  0  0  0  0  0  0  0  0  0  0  0  0  # atno 17371 bound_to 10713
  140.0765  134.9673  157.1554 LP  0  0  0  0  0  0  0  0  0  0  0  0  # atno 17394 bound_to 11000
  140.3637  134.2466  155.7184 LP  0  0  0  0  0  0  0  0  0  0  0  0  # atno 17395 bound_to 11000

$$$$
