AV-unprocessed.smi:737|AV-procd|sdf|3537|dock1
  -GOLD-   22720 0533D 1   1.00000     0.00000
 Structure written by MMmdl.
 45 47  0  0  0  0  0  0  0  0  1 V2000
  148.5939  140.5522  154.6265 C   0  0  0  0  0  0  0  0  0  0  0  0
  149.4296  139.6632  153.8359 N   0  0  0  0  0  0  0  0  0  0  0  0
  150.3957  138.8545  154.4504 C   0  0  0  0  0  0  0  0  0  0  0  0
  151.6857  139.2608  154.4959 N   0  0  0  0  0  0  0  0  0  0  0  0
  152.5743  138.4590  155.0971 C   0  0  0  0  0  0  0  0  0  0  0  0
  152.3771  137.2695  155.6867 N   0  0  0  0  0  0  0  0  0  0  0  0
  151.1029  136.8572  155.6455 C   0  0  0  0  0  0  0  0  0  0  0  0
  150.6144  135.6745  156.1739 N   0  0  0  0  0  0  0  0  0  0  0  0
  149.3221  135.7539  155.8665 C   0  0  0  0  0  0  0  0  0  0  0  0
  148.9075  136.8494  155.2005 N   0  0  0  0  0  0  0  0  0  0  0  0
  147.5499  137.1337  154.7686 C   0  0  0  0  0  0  0  0  0  0  0  0
  146.5263  136.1266  155.3319 C   0  0  1  0  0  0  0  0  0  0  0  0
  145.2809  136.7344  155.6134 O   0  0  0  0  0  0  0  0  0  0  0  0
  146.2919  134.9164  154.4152 C   0  0  0  0  0  0  0  0  0  0  0  0
  146.2590  135.3418  153.0597 O   0  0  0  0  0  0  0  0  0  0  0  0
  145.8446  134.3717  152.1849 C   0  0  0  0  0  0  0  0  0  0  0  0
  144.5773  134.4843  151.5675 C   0  0  0  0  0  0  0  0  0  0  0  0
  143.6790  135.6700  151.8660 C   0  0  0  0  0  0  0  0  0  0  0  0
  144.1449  133.4890  150.6674 C   0  0  0  0  0  0  0  0  0  0  0  0
  144.9649  132.3795  150.3907 C   0  0  0  0  0  0  0  0  0  0  0  0
  146.2183  132.2568  151.0187 C   0  0  0  0  0  0  0  0  0  0  0  0
  146.6609  133.2455  151.9216 C   0  0  0  0  0  0  0  0  0  0  0  0
  148.0075  133.0807  152.6024 C   0  0  0  0  0  0  0  0  0  0  0  0
  150.0602  137.6154  155.0328 C   0  0  0  0  0  0  0  0  0  0  0  0
  147.9013  141.0864  153.9761 H   0  0  0  0  0  0  0  0  0  0  0  0
  149.2028  141.2875  155.1536 H   0  0  0  0  0  0  0  0  0  0  0  0
  148.0112  139.9895  155.3565 H   0  0  0  0  0  0  0  0  0  0  0  0
  149.2641  139.5877  152.8423 H   0  0  0  0  0  0  0  0  0  0  0  0
  153.5919  138.8209  155.1098 H   0  0  0  0  0  0  0  0  0  0  0  0
  148.6341  134.9679  156.1419 H   0  0  0  0  0  0  0  0  0  0  0  0
  147.2999  138.1543  155.0555 H   0  0  0  0  0  0  0  0  0  0  0  0
  147.5254  137.1145  153.6783 H   0  0  0  0  0  0  0  0  0  0  0  0
  146.9007  135.7546  156.2864 H   0  0  0  0  0  0  0  0  0  0  0  0
  144.6023  136.2504  155.1679 H   0  0  0  0  0  0  0  0  0  0  0  0
  147.1083  134.2044  154.5456 H   0  0  0  0  0  0  0  0  0  0  0  0
  145.3730  134.3970  154.6908 H   0  0  0  0  0  0  0  0  0  0  0  0
  142.6546  135.4798  151.5448 H   0  0  0  0  0  0  0  0  0  0  0  0
  144.0400  136.5576  151.3466 H   0  0  0  0  0  0  0  0  0  0  0  0
  143.6608  135.8804  152.9358 H   0  0  0  0  0  0  0  0  0  0  0  0
  143.1809  133.5715  150.1866 H   0  0  0  0  0  0  0  0  0  0  0  0
  144.6297  131.6186  149.7013 H   0  0  0  0  0  0  0  0  0  0  0  0
  146.8379  131.3976  150.8078 H   0  0  0  0  0  0  0  0  0  0  0  0
  148.2703  132.0265  152.6937 H   0  0  0  0  0  0  0  0  0  0  0  0
  147.9982  133.5081  153.6054 H   0  0  0  0  0  0  0  0  0  0  0  0
  148.7865  133.5764  152.0235 H   0  0  0  0  0  0  0  0  0  0  0  0
  1  2  1  0  0  0  0
  1 25  1  0  0  0  0
  1 26  1  0  0  0  0
  1 27  1  0  0  0  0
  2  3  1  0  0  0  0
  2 28  1  0  0  0  0
  3 24  1  0  0  0  0
  3  4  2  0  0  0  0
  4  5  1  0  0  0  0
  5  6  2  0  0  0  0
  5 29  1  0  0  0  0
  6  7  1  0  0  0  0
  7 24  2  0  0  0  0
  7  8  1  0  0  0  0
  8  9  2  0  0  0  0
  9 10  1  0  0  0  0
  9 30  1  0  0  0  0
 10 11  1  0  0  0  0
 10 24  1  0  0  0  0
 11 12  1  0  0  0  0
 11 31  1  0  0  0  0
 11 32  1  0  0  0  0
 12 13  1  0  0  0  0
 12 14  1  0  0  0  0
 12 33  1  0  0  0  0
 13 34  1  0  0  0  0
 14 15  1  0  0  0  0
 14 35  1  0  0  0  0
 14 36  1  0  0  0  0
 15 16  1  0  0  0  0
 16 22  1  0  0  0  0
 16 17  2  0  0  0  0
 17 18  1  0  0  0  0
 17 19  1  0  0  0  0
 18 37  1  0  0  0  0
 18 38  1  0  0  0  0
 18 39  1  0  0  0  0
 19 20  2  0  0  0  0
 19 40  1  0  0  0  0
 20 21  1  0  0  0  0
 20 41  1  0  0  0  0
 21 22  2  0  0  0  0
 21 42  1  0  0  0  0
 22 23  1  0  0  0  0
 23 43  1  0  0  0  0
 23 44  1  0  0  0  0
 23 45  1  0  0  0  0
M  END
> <s_m_source_file>
AV-unprocessed.smi

> <i_m_source_file_index>
737

> <i_lp_mmshare_version>
43012

> <i_f3d_flags>
0

> <s_epik_input>
bjFbY0hdbmMoW05IXVtDSDNdKWMoYzEyKW4oW2NIXW4yKVtDSDJdW0NASF0oW09IXSlbQ0gyXU9jM2MoW0NIM10pW2NIXVtjSF1bY0hdYzNbQ0gzXQ==

> <s_epik_cmdline>
J2VwaWtfcHl0aG9uJywgJy1waCcsICc3LjAnLCAnLXRuJywgJzgnLCAnLW1hJywgJzIwMCcsICctbWV0YWxfYmluZGluZycsICctaW1hZScsICc8aW5maWxlLm1hZT4nLCAnLW9tYWUnLCAnPG91dGZpbGUubWFlPic=

> <r_lp_tautomer_probability>
1

> <r_epik_Ionization_Penalty>
0.0070961

> <r_epik_Ionization_Penalty_Charging>
0

> <r_epik_Ionization_Penalty_Neutral>
0.0070961

> <r_epik_State_Penalty>
-0

> <r_epik_Charging_Adjusted_Penalty>
0

> <i_epik_Tot_Q>
0

> <i_epik_Tot_abs_Q>
0

> <r_epik_Metal_State_Penalty>
-0

> <b_epik_Metal_Only>
0

> <s_lp_Force_Field>
OPLS_2005

> <r_lp_Energy>
18.2804

> <b_lp_Chiralities_Consistent>
1

> <s_lp_Variant>
AV-unprocessed.smi:737-2

> <Gold.Version>
5.8.1

> <Gold.Id.Protein>
6NUR|6NUR_protein|mol2

> <Gold.PLP.Fitness>
40.4348

> <Gold.PLP.PLP>
-35.0897

> <Gold.PLP.part.hbond>
-3.0000

> <Gold.PLP.part.metal>
0.0000

> <Gold.PLP.part.buried>
-6.1642

> <Gold.PLP.part.nonpolar>
-27.9098

> <Gold.PLP.part.repulsive>
0.8005

> <Gold.PLP.ligand.clash>
0.0000

> <Gold.PLP.ligand.torsion>
1.5955

> <Gold.PLP.Chemscore.Hbond>
2.6256

> <Gold.PLP.Chemscore.CHOScore>
0.0000

> <Gold.PLP.Chemscore.Metal>
0.0000

> <Gold.Chemscore.Hbonds>
donor molecule, donor type, donor heavy atom, donor atom, acceptor molecule, acceptor atom, score
      L1  H     2    28       P1  7957  1.00
      P1  H  7989  7998       L1     4  1.00
      P1  H 10752 10765       L1     6  0.55

> <Gold.PLP.Chemscore.Internal.Correction>
0.6594

> <Gold.Rescore>
     Score         DG    S(hbond)    S(metal)    S(lipo)     H(rot)  DE(clash)    DE(int)     intcor
     11.24     -12.87       2.10        0.00      66.70       2.91       0.06       1.57       ----

> <Gold.Chemscore.Fitness>
11.2430

> <Gold.Chemscore.DG>
-12.8690

> <Gold.Chemscore.ZeroCoef>
-5.4800

> <Gold.Chemscore.Hbond>
2.1037

> <Gold.Chemscore.Metal>
0.0000

> <Gold.Chemscore.Lipo>
66.6992

> <Gold.Chemscore.Internal_Hbond>
0.0000

> <Gold.Chemscore.DEClash>
0.0608

> <Gold.Chemscore.DEInternal>
1.5652

> <Gold.Chemscore.Rot>
2.9067

> <Gold.Chemscore.Internal.Correction>
   9.000000E+99

> <Gold.Chemscore.Hbonds>
donor molecule, donor type, donor heavy atom, donor atom, acceptor molecule, acceptor atom, score
      L1  H     2    28       P1  7957  0.96
      P1  H  7989  7998       L1     4  0.38
      P1  H 10752 10765       L1     6  0.06

> <Gold.Chemscore.Hbond.Weighted>
-7.0264

> <Gold.Chemscore.Metal.Weighted>
-0.0000

> <Gold.Chemscore.Lipo.Weighted>
-7.8038

> <Gold.Chemscore.Internal_Hbond.Weighted>
0.0000

> <Gold.Chemscore.DEClash.Weighted>
0.0608

> <Gold.Chemscore.DEInternal.Weighted>
1.5652

> <Gold.Chemscore.Rot.Weighted>
7.4412

> <Gold.Chemscore.Internal.Correction.Weighted>
   9.000000E+99

> <Gold.Protein.RotatedTorsions>
[ 6907 6896 6895 6894 ] final  145.72 input  -60.11 | X-H torsion
[ 7974 7965 7964 7962 ] final  -66.96 input  175.53 | X-H torsion
[ 8008 7997 7996 7995 ] final   24.89 input   59.86 | X-H torsion
[ 10167 10162 10161 10158 ] final -136.48 input  -65.29 | X-H torsion
[ 10718 10713 10712 10709 ] final  -95.88 input   66.30 | X-H torsion
[ 10763 10752 10751 10750 ] final -150.51 input  -60.55 | X-H torsion
[ 11005 11000 10999 10996 ] final  -82.63 input  -57.11 | X-H torsion

> <Gold.Protein.ActiveResidues>
 VAL166  LYS551  ARG553  GLY616  TRP617  ASP618  TYR619  PRO620  LYS621  CYS622 
 ASP623  PHE694  ASN695  SER759  ASP760  ASP761  ALA762  ILE779  LEU786  VAL792 
 PHE793  MET794  SER795  GLU796  ALA797  LYS798  CYS799  TRP800  GLU811  SER814 

> <Gold.Protein.RotatedAtoms>
  152.1772  133.4683  159.4939 H   0  0  0  0  0  0  0  0  0  0  0  0  # atno 6907 bound_to 6896
  150.6929  134.1878  159.4282 H   0  0  0  0  0  0  0  0  0  0  0  0  # atno 6908 bound_to 6896
  151.9788  135.0039  160.0607 H   0  0  0  0  0  0  0  0  0  0  0  0  # atno 6909 bound_to 6896
  145.7351  140.8979  143.0559 H   0  0  0  0  0  0  0  0  0  0  0  0  # atno 7974 bound_to 7965
  155.0032  140.3128  155.4859 H   0  0  0  0  0  0  0  0  0  0  0  0  # atno 8008 bound_to 7997
  156.2921  140.2228  156.5084 H   0  0  0  0  0  0  0  0  0  0  0  0  # atno 8009 bound_to 7997
  154.7600  140.0460  157.0953 H   0  0  0  0  0  0  0  0  0  0  0  0  # atno 8010 bound_to 7997
  139.8673  143.7001  152.2644 H   0  0  0  0  0  0  0  0  0  0  0  0  # atno 10167 bound_to 10162
  156.0051  130.5128  150.6142 H   0  0  0  0  0  0  0  0  0  0  0  0  # atno 10718 bound_to 10713
  154.8114  135.3282  154.7293 H   0  0  0  0  0  0  0  0  0  0  0  0  # atno 10763 bound_to 10752
  153.7942  135.6908  153.4871 H   0  0  0  0  0  0  0  0  0  0  0  0  # atno 10764 bound_to 10752
  153.1897  135.4556  155.0079 H   0  0  0  0  0  0  0  0  0  0  0  0  # atno 10765 bound_to 10752
  141.1662  133.7254  156.8600 H   0  0  0  0  0  0  0  0  0  0  0  0  # atno 11005 bound_to 11000
  144.6883  139.9384  143.7474 LP  0  0  0  0  0  0  0  0  0  0  0  0  # atno 17320 bound_to 7965
  146.0500  139.3502  143.0645 LP  0  0  0  0  0  0  0  0  0  0  0  0  # atno 17321 bound_to 7965
  139.7317  144.7581  151.0792 LP  0  0  0  0  0  0  0  0  0  0  0  0  # atno 17342 bound_to 10162
  140.7766  143.5080  150.9688 LP  0  0  0  0  0  0  0  0  0  0  0  0  # atno 17343 bound_to 10162
  157.3969  131.0804  151.1343 LP  0  0  0  0  0  0  0  0  0  0  0  0  # atno 17370 bound_to 10713
  157.2017  130.6398  149.5741 LP  0  0  0  0  0  0  0  0  0  0  0  0  # atno 17371 bound_to 10713
  140.1855  134.9003  157.2999 LP  0  0  0  0  0  0  0  0  0  0  0  0  # atno 17394 bound_to 11000
  140.2347  134.3867  155.7506 LP  0  0  0  0  0  0  0  0  0  0  0  0  # atno 17395 bound_to 11000

$$$$
