AV-unprocessed.smi:1692|AV-procd|sdf|6779|dock6
  -GOLD-   22720 7543D 1   1.00000     0.00000
 Structure written by MMmdl.
 46 47  0  0  0  0  0  0  0  0  2 V2000
  150.3391  134.4527  156.0744 C   0  0  0  0  0  0  0  0  0  0  0  0
  150.1683  135.7185  155.2271 C   0  0  1  0  0  0  0  0  0  0  0  0
  148.7517  136.3114  155.3467 C   0  0  0  0  0  0  0  0  0  0  0  0
  148.6482  137.5723  154.5747 N   0  3  1  0  0  0  0  0  0  0  0  0
  147.2797  138.1464  154.6080 C   0  0  0  0  0  0  0  0  0  0  0  0
  147.1032  139.3029  153.6097 C   0  0  0  0  0  0  0  0  0  0  0  0
  146.5934  138.8189  152.2419 C   0  0  0  0  0  0  0  0  0  0  0  0
  147.0214  137.4540  151.9572 N   0  0  0  0  0  0  0  0  0  0  0  0
  146.2088  136.4594  151.5710 C   0  0  0  0  0  0  0  0  0  0  0  0
  144.9975  136.6038  151.4013 O   0  0  0  0  0  0  0  0  0  0  0  0
  146.8892  135.3126  151.3970 N   0  0  0  0  0  0  0  0  0  0  0  0
  146.3855  134.0446  151.0021 C   0  0  0  0  0  0  0  0  0  0  0  0
  144.9942  133.8710  151.1802 C   0  0  0  0  0  0  0  0  0  0  0  0
  144.3963  132.6486  150.8173 C   0  0  0  0  0  0  0  0  0  0  0  0
  145.2058  131.6303  150.2833 C   0  0  0  0  0  0  0  0  0  0  0  0
  146.5820  131.8846  150.1389 C   0  0  0  0  0  0  0  0  0  0  0  0
  147.1575  133.0548  150.4878 N   0  0  0  0  0  0  0  0  0  0  0  0
  149.7023  138.5246  155.0026 C   0  0  0  0  0  0  0  0  0  0  0  0
  151.0944  137.8735  154.8931 C   0  0  1  0  0  0  0  0  0  0  0  0
  152.2072  138.7972  155.4008 C   0  0  0  0  0  0  0  0  0  0  0  0
  151.1146  136.6833  155.6738 O   0  0  0  0  0  0  0  0  0  0  0  0
  149.6386  133.6763  155.7659 H   0  0  0  0  0  0  0  0  0  0  0  0
  150.1674  134.6582  157.1312 H   0  0  0  0  0  0  0  0  0  0  0  0
  151.3470  134.0494  155.9737 H   0  0  0  0  0  0  0  0  0  0  0  0
  150.3756  135.4681  154.1850 H   0  0  0  0  0  0  0  0  0  0  0  0
  148.0214  135.5913  154.9753 H   0  0  0  0  0  0  0  0  0  0  0  0
  148.5087  136.5048  156.3930 H   0  0  0  0  0  0  0  0  0  0  0  0
  146.5616  137.3665  154.3502 H   0  0  0  0  0  0  0  0  0  0  0  0
  147.0347  138.4678  155.6215 H   0  0  0  0  0  0  0  0  0  0  0  0
  146.4058  140.0385  154.0096 H   0  0  0  0  0  0  0  0  0  0  0  0
  148.0554  139.8189  153.4792 H   0  0  0  0  0  0  0  0  0  0  0  0
  145.5037  138.8414  152.2214 H   0  0  0  0  0  0  0  0  0  0  0  0
  146.9322  139.4875  151.4484 H   0  0  0  0  0  0  0  0  0  0  0  0
  148.0031  137.2492  152.0752 H   0  0  0  0  0  0  0  0  0  0  0  0
  147.8826  135.3487  151.5715 H   0  0  0  0  0  0  0  0  0  0  0  0
  144.3862  134.6644  151.5901 H   0  0  0  0  0  0  0  0  0  0  0  0
  143.3351  132.4958  150.9459 H   0  0  0  0  0  0  0  0  0  0  0  0
  144.7835  130.6799  149.9919 H   0  0  0  0  0  0  0  0  0  0  0  0
  147.2386  131.1297  149.7326 H   0  0  0  0  0  0  0  0  0  0  0  0
  149.6767  139.4218  154.3853 H   0  0  0  0  0  0  0  0  0  0  0  0
  149.5134  138.8390  156.0306 H   0  0  0  0  0  0  0  0  0  0  0  0
  151.3015  137.6224  153.8512 H   0  0  0  0  0  0  0  0  0  0  0  0
  152.2407  139.7241  154.8277 H   0  0  0  0  0  0  0  0  0  0  0  0
  153.1823  138.3175  155.3123 H   0  0  0  0  0  0  0  0  0  0  0  0
  152.0585  139.0571  156.4493 H   0  0  0  0  0  0  0  0  0  0  0  0
  148.8378  137.3314  153.6123 H   0  0  0  0  0  0  0  0  0  0  0  0
  1  2  1  0  0  0  0
  1 22  1  0  0  0  0
  1 23  1  0  0  0  0
  1 24  1  0  0  0  0
  2 21  1  0  0  0  0
  2  3  1  0  0  0  0
  2 25  1  0  0  0  0
  3  4  1  0  0  0  0
  3 26  1  0  0  0  0
  3 27  1  0  0  0  0
  4  5  1  0  0  0  0
  4 18  1  0  0  0  0
  4 46  1  0  0  0  0
  5  6  1  0  0  0  0
  5 28  1  0  0  0  0
  5 29  1  0  0  0  0
  6  7  1  0  0  0  0
  6 30  1  0  0  0  0
  6 31  1  0  0  0  0
  7  8  1  0  0  0  0
  7 32  1  0  0  0  0
  7 33  1  0  0  0  0
  8  9  1  0  0  0  0
  8 34  1  0  0  0  0
  9 10  2  0  0  0  0
  9 11  1  0  0  0  0
 11 12  1  0  0  0  0
 11 35  1  0  0  0  0
 12 17  1  0  0  0  0
 12 13  2  0  0  0  0
 13 14  1  0  0  0  0
 13 36  1  0  0  0  0
 14 15  2  0  0  0  0
 14 37  1  0  0  0  0
 15 16  1  0  0  0  0
 15 38  1  0  0  0  0
 16 17  2  0  0  0  0
 16 39  1  0  0  0  0
 18 19  1  0  0  0  0
 18 40  1  0  0  0  0
 18 41  1  0  0  0  0
 19 20  1  0  0  0  0
 19 21  1  0  0  0  0
 19 42  1  0  0  0  0
 20 43  1  0  0  0  0
 20 44  1  0  0  0  0
 20 45  1  0  0  0  0
M  CHG  1   4   1
M  END
> <s_m_source_file>
AV-unprocessed.smi

> <i_m_source_file_index>
1692

> <i_lp_mmshare_version>
43012

> <i_f3d_flags>
0

> <s_epik_input>
W0NIM11bQ0BASF0xW0NIMl1OKFtDSDJdW0NASF0oTzEpW0NIM10pW0NIMl1bQ0gyXVtDSDJdW05IXUMoPU8pW05IXWMyW2NIXVtjSF1bY0hdW2NIXW4y

> <s_epik_cmdline>
J2VwaWtfcHl0aG9uJywgJy1waCcsICc3LjAnLCAnLXRuJywgJzgnLCAnLW1hJywgJzIwMCcsICctbWV0YWxfYmluZGluZycsICctaW1hZScsICc8aW5maWxlLm1hZT4nLCAnLW9tYWUnLCAnPG91dGZpbGUubWFlPic=

> <r_epik_Ionization_Penalty>
0.270538

> <r_epik_Ionization_Penalty_Charging>
0.270496

> <r_epik_Ionization_Penalty_Neutral>
4.22978e-05

> <r_epik_State_Penalty>
0.262618

> <r_epik_Charging_Adjusted_Penalty>
0.533114

> <i_epik_Tot_Q>
1

> <i_epik_Tot_abs_Q>
1

> <r_epik_Metal_State_Penalty>
0.262618

> <b_epik_Metal_Only>
0

> <s_lp_Force_Field>
OPLS_2005

> <r_lp_Energy>
16.7861

> <b_lp_Chiralities_Consistent>
1

> <s_lp_Variant>
AV-unprocessed.smi:1692-2

> <Gold.Version>
5.8.1

> <Gold.Id.Protein>
6NUR|6NUR_protein|mol2

> <Gold.PLP.Fitness>
52.5145

> <Gold.PLP.PLP>
-36.4061

> <Gold.PLP.part.hbond>
-3.8220

> <Gold.PLP.part.metal>
0.0000

> <Gold.PLP.part.buried>
-5.1639

> <Gold.PLP.part.nonpolar>
-30.5938

> <Gold.PLP.part.repulsive>
2.7883

> <Gold.PLP.ligand.clash>
0.3016

> <Gold.PLP.ligand.torsion>
0.5496

> <Gold.PLP.Chemscore.Hbond>
4.9760

> <Gold.PLP.Chemscore.CHOScore>
0.8494

> <Gold.PLP.Chemscore.Metal>
0.0000

> <Gold.Chemscore.Hbonds>
donor molecule, donor type, donor heavy atom, donor atom, acceptor molecule, acceptor atom, score
      L1  H     4    46       P1  7948  1.85
      L1  H     8    34       P1  7948  0.54
      L1  H    11    35       P1  7948  0.52
      P1  H 10752 10765       L1    21  0.04
      L1  C    16    39       P1 10747  0.43

> <Gold.PLP.Chemscore.Internal.Correction>
0.0328

> <Gold.Rescore>
     Score         DG    S(hbond)    S(metal)    S(lipo)     H(rot)  DE(clash)    DE(int)     intcor
     16.92     -22.67       3.36        0.00      90.01       1.78       2.73       3.03       ----

> <Gold.Chemscore.Fitness>
16.9169

> <Gold.Chemscore.DG>
-22.6713

> <Gold.Chemscore.ZeroCoef>
-5.4800

> <Gold.Chemscore.Hbond>
3.3594

> <Gold.Chemscore.Metal>
0.0000

> <Gold.Chemscore.Lipo>
90.0117

> <Gold.Chemscore.Internal_Hbond>
0.0000

> <Gold.Chemscore.DEClash>
2.7268

> <Gold.Chemscore.DEInternal>
3.0276

> <Gold.Chemscore.Rot>
1.7814

> <Gold.Chemscore.Internal.Correction>
   9.000000E+99

> <Gold.Chemscore.Hbonds>
donor molecule, donor type, donor heavy atom, donor atom, acceptor molecule, acceptor atom, score
      L1  H     4    46       P1  7948  0.88
      L1  H     8    34       P1  7948  0.54
      L1  H    11    35       P1  7948  0.31

> <Gold.Chemscore.Hbond.Weighted>
-11.2202

> <Gold.Chemscore.Metal.Weighted>
-0.0000

> <Gold.Chemscore.Lipo.Weighted>
-10.5314

> <Gold.Chemscore.Internal_Hbond.Weighted>
0.0000

> <Gold.Chemscore.DEClash.Weighted>
2.7268

> <Gold.Chemscore.DEInternal.Weighted>
3.0276

> <Gold.Chemscore.Rot.Weighted>
4.5603

> <Gold.Chemscore.Internal.Correction.Weighted>
   9.000000E+99

> <Gold.Protein.RotatedTorsions>
[ 6907 6896 6895 6894 ] final  152.67 input  -60.11 | X-H torsion
[ 7974 7965 7964 7962 ] final  -66.18 input  175.53 | X-H torsion
[ 8008 7997 7996 7995 ] final   53.00 input   59.86 | X-H torsion
[ 10167 10162 10161 10158 ] final  -20.48 input  -65.29 | X-H torsion
[ 10718 10713 10712 10709 ] final  -62.53 input   66.30 | X-H torsion
[ 10763 10752 10751 10750 ] final  175.37 input  -60.55 | X-H torsion
[ 11005 11000 10999 10996 ] final  152.23 input  -57.11 | X-H torsion

> <Gold.Protein.ActiveResidues>
 VAL166  LYS551  ARG553  GLY616  TRP617  ASP618  TYR619  PRO620  LYS621  CYS622 
 ASP623  PHE694  ASN695  SER759  ASP760  ASP761  ALA762  ILE779  LEU786  VAL792 
 PHE793  MET794  SER795  GLU796  ALA797  LYS798  CYS799  TRP800  GLU811  SER814 

> <Gold.Protein.RotatedAtoms>
  152.0834  133.4164  159.4511 H   0  0  0  0  0  0  0  0  0  0  0  0  # atno 6907 bound_to 6896
  150.6862  134.2955  159.4694 H   0  0  0  0  0  0  0  0  0  0  0  0  # atno 6908 bound_to 6896
  152.0799  134.9477  160.0624 H   0  0  0  0  0  0  0  0  0  0  0  0  # atno 6909 bound_to 6896
  145.7450  140.8935  143.0510 H   0  0  0  0  0  0  0  0  0  0  0  0  # atno 7974 bound_to 7965
  155.4610  140.3462  155.4313 H   0  0  0  0  0  0  0  0  0  0  0  0  # atno 8008 bound_to 7997
  156.1161  140.1474  156.9300 H   0  0  0  0  0  0  0  0  0  0  0  0  # atno 8009 bound_to 7997
  154.4790  140.0876  156.7310 H   0  0  0  0  0  0  0  0  0  0  0  0  # atno 8010 bound_to 7997
  140.7276  143.4718  151.0236 H   0  0  0  0  0  0  0  0  0  0  0  0  # atno 10167 bound_to 10162
  156.0849  130.4210  150.1148 H   0  0  0  0  0  0  0  0  0  0  0  0  # atno 10718 bound_to 10713
  154.4666  135.2769  155.1674 H   0  0  0  0  0  0  0  0  0  0  0  0  # atno 10763 bound_to 10752
  154.3440  135.6164  153.5613 H   0  0  0  0  0  0  0  0  0  0  0  0  # atno 10764 bound_to 10752
  152.9860  135.5795  154.5039 H   0  0  0  0  0  0  0  0  0  0  0  0  # atno 10765 bound_to 10752
  140.1289  134.8815  157.2176 H   0  0  0  0  0  0  0  0  0  0  0  0  # atno 11005 bound_to 11000
  144.6862  139.9513  143.7478 LP  0  0  0  0  0  0  0  0  0  0  0  0  # atno 17320 bound_to 7965
  146.0411  139.3422  143.0697 LP  0  0  0  0  0  0  0  0  0  0  0  0  # atno 17321 bound_to 7965
  139.8411  143.7563  152.3180 LP  0  0  0  0  0  0  0  0  0  0  0  0  # atno 17342 bound_to 10162
  139.7712  144.7476  151.0222 LP  0  0  0  0  0  0  0  0  0  0  0  0  # atno 17343 bound_to 10162
  156.9171  130.9671  151.3554 LP  0  0  0  0  0  0  0  0  0  0  0  0  # atno 17370 bound_to 10713
  157.5980  130.8492  149.8758 LP  0  0  0  0  0  0  0  0  0  0  0  0  # atno 17371 bound_to 10713
  140.2868  134.3287  155.7327 LP  0  0  0  0  0  0  0  0  0  0  0  0  # atno 17394 bound_to 11000
  141.2166  133.7510  156.9444 LP  0  0  0  0  0  0  0  0  0  0  0  0  # atno 17395 bound_to 11000

$$$$
