AV-unprocessed.smi:1464|AV-procd|sdf|5941|dock7
  -GOLD-   22720 6 23D 1   1.00000     0.00000
 Structure written by MMmdl.
 40 41  0  0  0  0  0  0  0  0  2 V2000
  151.0115  145.3368  160.1034 C   0  0  0  0  0  0  0  0  0  0  0  0
  151.4743  143.9670  160.6275 C   0  0  2  0  0  0  0  0  0  0  0  0
  152.4795  144.1085  161.7886 C   0  0  0  0  0  0  0  0  0  0  0  0
  152.8607  142.7395  162.3737 C   0  0  0  0  0  0  0  0  0  0  0  0
  153.3833  141.7870  161.2878 C   0  0  0  0  0  0  0  0  0  0  0  0
  152.3722  141.6462  160.1337 C   0  0  2  0  0  0  0  0  0  0  0  0
  152.8846  140.7060  159.1393 N   0  0  0  0  0  0  0  0  0  0  0  0
  152.2842  139.5662  158.7633 C   0  0  0  0  0  0  0  0  0  0  0  0
  151.2083  139.1881  159.2304 O   0  0  0  0  0  0  0  0  0  0  0  0
  153.0237  138.7494  157.6915 C   0  0  0  0  0  0  0  0  0  0  0  0
  152.1933  138.3801  156.5355 N   0  0  0  0  0  0  0  0  0  0  0  0
  151.6195  139.5242  155.8321 N   0  5  0  0  0  0  0  0  0  0  0  0
  150.8051  139.3058  154.7659 C   0  0  0  0  0  0  0  0  0  0  0  0
  150.2717  140.2170  154.1371 O   0  0  0  0  0  0  0  0  0  0  0  0
  150.5664  137.9314  154.3571 C   0  0  0  0  0  0  0  0  0  0  0  0
  151.1330  136.8958  155.0073 C   0  0  0  0  0  0  0  0  0  0  0  0
  152.0082  137.0827  156.1583 C   0  0  0  0  0  0  0  0  0  0  0  0
  152.5370  136.1416  156.7508 O   0  0  0  0  0  0  0  0  0  0  0  0
  152.0117  143.0261  159.5162 C   0  0  2  0  0  0  0  0  0  0  0  0
  153.1625  143.6425  158.6870 C   0  0  0  0  0  0  0  0  0  0  0  0
  151.8491  145.9460  159.7638 H   0  0  0  0  0  0  0  0  0  0  0  0
  150.4991  145.8982  160.8851 H   0  0  0  0  0  0  0  0  0  0  0  0
  150.3167  145.2256  159.2706 H   0  0  0  0  0  0  0  0  0  0  0  0
  150.5839  143.4875  161.0378 H   0  0  0  0  0  0  0  0  0  0  0  0
  153.3769  144.6264  161.4490 H   0  0  0  0  0  0  0  0  0  0  0  0
  152.0513  144.7291  162.5765 H   0  0  0  0  0  0  0  0  0  0  0  0
  153.6134  142.8643  163.1525 H   0  0  0  0  0  0  0  0  0  0  0  0
  151.9890  142.2955  162.8563 H   0  0  0  0  0  0  0  0  0  0  0  0
  154.3397  142.1509  160.9108 H   0  0  0  0  0  0  0  0  0  0  0  0
  153.5816  140.8098  161.7298 H   0  0  0  0  0  0  0  0  0  0  0  0
  151.4621  141.2157  160.5566 H   0  0  0  0  0  0  0  0  0  0  0  0
  153.7634  140.9410  158.7014 H   0  0  0  0  0  0  0  0  0  0  0  0
  153.8913  139.3256  157.3648 H   0  0  0  0  0  0  0  0  0  0  0  0
  153.4306  137.8479  158.1531 H   0  0  0  0  0  0  0  0  0  0  0  0
  149.9228  137.7369  153.5118 H   0  0  0  0  0  0  0  0  0  0  0  0
  150.9294  135.8914  154.6676 H   0  0  0  0  0  0  0  0  0  0  0  0
  151.1900  142.8610  158.8178 H   0  0  0  0  0  0  0  0  0  0  0  0
  154.0343  143.8699  159.2992 H   0  0  0  0  0  0  0  0  0  0  0  0
  152.8526  144.5654  158.1982 H   0  0  0  0  0  0  0  0  0  0  0  0
  153.4868  142.9713  157.8919 H   0  0  0  0  0  0  0  0  0  0  0  0
  1  2  1  0  0  0  0
  1 21  1  0  0  0  0
  1 22  1  0  0  0  0
  1 23  1  0  0  0  0
  2 19  1  0  0  0  0
  2  3  1  0  0  0  0
  2 24  1  0  0  0  0
  3  4  1  0  0  0  0
  3 25  1  0  0  0  0
  3 26  1  0  0  0  0
  4  5  1  0  0  0  0
  4 27  1  0  0  0  0
  4 28  1  0  0  0  0
  5  6  1  0  0  0  0
  5 29  1  0  0  0  0
  5 30  1  0  0  0  0
  6  7  1  0  0  0  0
  6 19  1  0  0  0  0
  6 31  1  0  0  0  0
  7  8  1  0  0  0  0
  7 32  1  0  0  0  0
  8  9  2  0  0  0  0
  8 10  1  0  0  0  0
 10 33  1  0  0  0  0
 10 34  1  0  0  0  0
 10 11  1  0  0  0  0
 11 12  1  0  0  0  0
 11 17  1  0  0  0  0
 12 13  1  0  0  0  0
 13 14  2  0  0  0  0
 13 15  1  0  0  0  0
 15 35  1  0  0  0  0
 15 16  2  0  0  0  0
 16 36  1  0  0  0  0
 16 17  1  0  0  0  0
 17 18  2  0  0  0  0
 19 20  1  0  0  0  0
 19 37  1  0  0  0  0
 20 38  1  0  0  0  0
 20 39  1  0  0  0  0
 20 40  1  0  0  0  0
M  CHG  1  12  -1
M  END
> <s_m_source_file>
AV-unprocessed.smi

> <i_m_source_file_index>
1464

> <i_lp_mmshare_version>
43012

> <i_f3d_flags>
0

> <s_epik_input>
W0NIM11bQ0BASF0xW0NIMl1bQ0gyXVtDSDJdW0NASF0oW0NASF0xW0NIM10pW05IXUMoPU8pW0NIMl1uMltuSF1jKD1PKVtjSF1bY0hdYzI9Tw==

> <s_epik_cmdline>
J2VwaWtfcHl0aG9uJywgJy1waCcsICc3LjAnLCAnLXRuJywgJzgnLCAnLW1hJywgJzIwMCcsICctbWV0YWxfYmluZGluZycsICctaW1hZScsICc8aW5maWxlLm1hZT4nLCAnLW9tYWUnLCAnPG91dGZpbGUubWFlPic=

> <r_lp_tautomer_probability>
1

> <r_epik_Ionization_Penalty>
0.101366

> <r_epik_Ionization_Penalty_Charging>
0.101366

> <r_epik_Ionization_Penalty_Neutral>
1.90469e-08

> <r_epik_State_Penalty>
0.035861

> <r_epik_Charging_Adjusted_Penalty>
0.137227

> <i_epik_Tot_Q>
-1

> <i_epik_Tot_abs_Q>
1

> <r_epik_Metal_State_Penalty>
0.035861

> <b_epik_Metal_Only>
0

> <s_lp_Force_Field>
OPLS_2005

> <r_lp_Energy>
29.9934

> <b_lp_Chiralities_Consistent>
1

> <s_lp_Variant>
AV-unprocessed.smi:1464-7

> <Gold.Version>
5.8.1

> <Gold.Id.Protein>
6NUR|6NUR_protein|mol2

> <Gold.PLP.Fitness>
47.0305

> <Gold.PLP.PLP>
-41.2133

> <Gold.PLP.part.hbond>
-2.3154

> <Gold.PLP.part.metal>
0.0000

> <Gold.PLP.part.buried>
-4.0758

> <Gold.PLP.part.nonpolar>
-35.0979

> <Gold.PLP.part.repulsive>
0.7263

> <Gold.PLP.ligand.clash>
0.0000

> <Gold.PLP.ligand.torsion>
0.0864

> <Gold.PLP.Chemscore.Hbond>
1.9920

> <Gold.PLP.Chemscore.CHOScore>
0.0000

> <Gold.PLP.Chemscore.Metal>
0.0000

> <Gold.Chemscore.Hbonds>
donor molecule, donor type, donor heavy atom, donor atom, acceptor molecule, acceptor atom, score
      P1  H  7989  7998       L1    14  0.93
      P1  H 10752 10765       L1    18  1.00

> <Gold.PLP.Chemscore.Internal.Correction>
0.0139

> <Gold.Rescore>
     Score         DG    S(hbond)    S(metal)    S(lipo)     H(rot)  DE(clash)    DE(int)     intcor
     15.83     -16.62       0.68        0.00     111.83       1.64       0.70       0.09       ----

> <Gold.Chemscore.Fitness>
15.8266

> <Gold.Chemscore.DG>
-16.6197

> <Gold.Chemscore.ZeroCoef>
-5.4800

> <Gold.Chemscore.Hbond>
0.6778

> <Gold.Chemscore.Metal>
0.0000

> <Gold.Chemscore.Lipo>
111.8275

> <Gold.Chemscore.Internal_Hbond>
0.0000

> <Gold.Chemscore.DEClash>
0.7019

> <Gold.Chemscore.DEInternal>
0.0911

> <Gold.Chemscore.Rot>
1.6438

> <Gold.Chemscore.Internal.Correction>
   9.000000E+99

> <Gold.Chemscore.Hbonds>
donor molecule, donor type, donor heavy atom, donor atom, acceptor molecule, acceptor atom, score
      P1  H  7989  7998       L1    14  0.20
      P1  H 10752 10765       L1    18  0.29

> <Gold.Chemscore.Hbond.Weighted>
-2.2639

> <Gold.Chemscore.Metal.Weighted>
-0.0000

> <Gold.Chemscore.Lipo.Weighted>
-13.0838

> <Gold.Chemscore.Internal_Hbond.Weighted>
0.0000

> <Gold.Chemscore.DEClash.Weighted>
0.7019

> <Gold.Chemscore.DEInternal.Weighted>
0.0911

> <Gold.Chemscore.Rot.Weighted>
4.2080

> <Gold.Chemscore.Internal.Correction.Weighted>
   9.000000E+99

> <Gold.Protein.RotatedTorsions>
[ 6907 6896 6895 6894 ] final  -89.16 input  -60.11 | X-H torsion
[ 7974 7965 7964 7962 ] final   69.62 input  175.53 | X-H torsion
[ 8008 7997 7996 7995 ] final  112.13 input   59.86 | X-H torsion
[ 10167 10162 10161 10158 ] final   -2.70 input  -65.29 | X-H torsion
[ 10718 10713 10712 10709 ] final  -59.97 input   66.30 | X-H torsion
[ 10763 10752 10751 10750 ] final -116.36 input  -60.55 | X-H torsion
[ 11005 11000 10999 10996 ] final   28.28 input  -57.11 | X-H torsion

> <Gold.Protein.ActiveResidues>
 VAL166  LYS551  ARG553  GLY616  TRP617  ASP618  TYR619  PRO620  LYS621  CYS622 
 ASP623  PHE694  ASN695  SER759  ASP760  ASP761  ALA762  ILE779  LEU786  VAL792 
 PHE793  MET794  SER795  GLU796  ALA797  LYS798  CYS799  TRP800  GLU811  SER814 

> <Gold.Protein.RotatedAtoms>
  150.6872  134.2630  159.4556 H   0  0  0  0  0  0  0  0  0  0  0  0  # atno 6907 bound_to 6896
  152.0558  134.9622  160.0584 H   0  0  0  0  0  0  0  0  0  0  0  0  # atno 6908 bound_to 6896
  152.1069  133.4245  159.4650 H   0  0  0  0  0  0  0  0  0  0  0  0  # atno 6909 bound_to 6896
  145.7882  139.2921  143.1226 H   0  0  0  0  0  0  0  0  0  0  0  0  # atno 7974 bound_to 7965
  156.2171  140.3005  155.9865 H   0  0  0  0  0  0  0  0  0  0  0  0  # atno 8008 bound_to 7997
  155.2577  140.0428  157.3011 H   0  0  0  0  0  0  0  0  0  0  0  0  # atno 8009 bound_to 7997
  154.5784  140.2368  155.8097 H   0  0  0  0  0  0  0  0  0  0  0  0  # atno 8010 bound_to 7997
  140.6861  143.6626  150.8253 H   0  0  0  0  0  0  0  0  0  0  0  0  # atno 10167 bound_to 10162
  156.1024  130.4184  150.0788 H   0  0  0  0  0  0  0  0  0  0  0  0  # atno 10718 bound_to 10713
  154.8516  135.4348  154.1808 H   0  0  0  0  0  0  0  0  0  0  0  0  # atno 10763 bound_to 10752
  153.2899  135.6960  153.7309 H   0  0  0  0  0  0  0  0  0  0  0  0  # atno 10764 bound_to 10752
  153.6480  135.3456  155.3066 H   0  0  0  0  0  0  0  0  0  0  0  0  # atno 10765 bound_to 10752
  140.3173  134.2583  155.7723 H   0  0  0  0  0  0  0  0  0  0  0  0  # atno 11005 bound_to 11000
  146.0004  140.8525  143.0021 LP  0  0  0  0  0  0  0  0  0  0  0  0  # atno 17320 bound_to 7965
  144.6786  140.2344  143.7351 LP  0  0  0  0  0  0  0  0  0  0  0  0  # atno 17321 bound_to 7965
  140.0333  143.5421  152.2750 LP  0  0  0  0  0  0  0  0  0  0  0  0  # atno 17342 bound_to 10162
  139.6221  144.7631  151.2717 LP  0  0  0  0  0  0  0  0  0  0  0  0  # atno 17343 bound_to 10162
  156.8772  130.9544  151.3603 LP  0  0  0  0  0  0  0  0  0  0  0  0  # atno 17370 bound_to 10713
  157.6196  130.8645  149.9086 LP  0  0  0  0  0  0  0  0  0  0  0  0  # atno 17371 bound_to 10713
  141.2095  133.7748  156.9995 LP  0  0  0  0  0  0  0  0  0  0  0  0  # atno 17394 bound_to 11000
  140.0972  134.9557  157.1868 LP  0  0  0  0  0  0  0  0  0  0  0  0  # atno 17395 bound_to 11000

$$$$
