AV-unprocessed.smi:2534|AV-procd|sdf|9974|dock1
  -GOLD-   2272014 23D 1   1.00000     0.00000
 Structure written by MMmdl.
 40 42  0  0  0  0  0  0  0  0  1 V2000
  143.8348  132.7330  149.3010 C   0  0  0  0  0  0  0  0  0  0  0  0
  144.4635  132.2200  150.6042 C   0  0  2  0  0  0  0  0  0  0  0  0
  145.0049  133.3772  151.4610 C   0  0  0  0  0  0  0  0  0  0  0  0
  145.6255  132.8682  152.7739 C   0  0  0  0  0  0  0  0  0  0  0  0
  146.7280  131.8062  152.5559 C   0  0  1  0  0  0  0  0  0  0  0  0
  147.8242  132.4319  151.9119 O   0  0  0  0  0  0  0  0  0  0  0  0
  147.2156  131.2717  153.9285 C   0  0  0  0  0  0  0  0  0  0  0  0
  148.4106  130.4386  153.8647 N   0  0  0  0  0  0  0  0  0  0  0  0
  148.3882  129.2836  153.1489 N   0  0  0  0  0  0  0  0  0  0  0  0
  149.6019  128.7523  153.2768 C   0  0  0  0  0  0  0  0  0  0  0  0
  150.4468  129.5471  154.0984 C   0  0  0  0  0  0  0  0  0  0  0  0
  151.8252  129.4467  154.5655 C   0  0  0  0  0  0  0  0  0  0  0  0
  152.2828  130.3863  155.3319 N   0  0  0  0  0  0  0  0  0  0  0  0
  151.4858  131.4718  155.7124 N   0  0  0  0  0  0  0  0  0  0  0  0
  152.1767  132.4259  156.5791 C   0  0  0  0  0  0  0  0  0  0  0  0
  150.1818  131.6539  155.3373 C   0  0  0  0  0  0  0  0  0  0  0  0
  149.4830  132.6035  155.6917 O   0  0  0  0  0  0  0  0  0  0  0  0
  149.6539  130.5897  154.4487 C   0  0  0  0  0  0  0  0  0  0  0  0
  146.2132  130.6759  151.6305 C   0  0  0  0  0  0  0  0  0  0  0  0
  145.5826  131.2010  150.3279 C   0  0  0  0  0  0  0  0  0  0  0  0
  144.5708  133.2453  148.6804 H   0  0  0  0  0  0  0  0  0  0  0  0
  143.0255  133.4343  149.5056 H   0  0  0  0  0  0  0  0  0  0  0  0
  143.4189  131.9123  148.7159 H   0  0  0  0  0  0  0  0  0  0  0  0
  143.6798  131.7161  151.1717 H   0  0  0  0  0  0  0  0  0  0  0  0
  145.7486  133.9405  150.8958 H   0  0  0  0  0  0  0  0  0  0  0  0
  144.2007  134.0774  151.6893 H   0  0  0  0  0  0  0  0  0  0  0  0
  146.0200  133.7114  153.3422 H   0  0  0  0  0  0  0  0  0  0  0  0
  144.8314  132.4393  153.3869 H   0  0  0  0  0  0  0  0  0  0  0  0
  148.2165  131.8125  151.3153 H   0  0  0  0  0  0  0  0  0  0  0  0
  147.4040  132.0967  154.6155 H   0  0  0  0  0  0  0  0  0  0  0  0
  146.4223  130.6841  154.3932 H   0  0  0  0  0  0  0  0  0  0  0  0
  149.8227  127.8196  152.7790 H   0  0  0  0  0  0  0  0  0  0  0  0
  152.4484  128.6014  154.2746 H   0  0  0  0  0  0  0  0  0  0  0  0
  151.5654  133.2806  156.8710 H   0  0  0  0  0  0  0  0  0  0  0  0
  153.0614  132.8163  156.0746 H   0  0  0  0  0  0  0  0  0  0  0  0
  152.5039  131.9305  157.4939 H   0  0  0  0  0  0  0  0  0  0  0  0
  147.0209  129.9880  151.3787 H   0  0  0  0  0  0  0  0  0  0  0  0
  145.4685  130.0857  152.1665 H   0  0  0  0  0  0  0  0  0  0  0  0
  145.1876  130.3621  149.7541 H   0  0  0  0  0  0  0  0  0  0  0  0
  146.3536  131.6583  149.7062 H   0  0  0  0  0  0  0  0  0  0  0  0
  1  2  1  0  0  0  0
  1 21  1  0  0  0  0
  1 22  1  0  0  0  0
  1 23  1  0  0  0  0
  2 20  1  0  0  0  0
  2  3  1  0  0  0  0
  2 24  1  0  0  0  0
  3  4  1  0  0  0  0
  3 25  1  0  0  0  0
  3 26  1  0  0  0  0
  4  5  1  0  0  0  0
  4 27  1  0  0  0  0
  4 28  1  0  0  0  0
  5  6  1  0  0  0  0
  5  7  1  0  0  0  0
  5 19  1  0  0  0  0
  6 29  1  0  0  0  0
  7  8  1  0  0  0  0
  7 30  1  0  0  0  0
  7 31  1  0  0  0  0
  8 18  1  0  0  0  0
  8  9  1  0  0  0  0
  9 10  2  0  0  0  0
 10 11  1  0  0  0  0
 10 32  1  0  0  0  0
 11 18  2  0  0  0  0
 11 12  1  0  0  0  0
 12 13  2  0  0  0  0
 12 33  1  0  0  0  0
 13 14  1  0  0  0  0
 14 15  1  0  0  0  0
 14 16  1  0  0  0  0
 15 34  1  0  0  0  0
 15 35  1  0  0  0  0
 15 36  1  0  0  0  0
 16 17  2  0  0  0  0
 16 18  1  0  0  0  0
 19 20  1  0  0  0  0
 19 37  1  0  0  0  0
 19 38  1  0  0  0  0
 20 39  1  0  0  0  0
 20 40  1  0  0  0  0
M  END
> <s_m_source_file>
AV-unprocessed.smi

> <i_m_source_file_index>
2534

> <i_lp_mmshare_version>
43012

> <i_f3d_flags>
0

> <s_epik_input>
W0NIMl0xW0NIMl1bQ0BIXShbQ0gzXSlbQ0gyXVtDSDJdW0NAQF0xKFtPSF0pW0NIMl1uKG5bY0hdMiljKGMyMyljKD1PKW4oW0NIM10pbltjSF0z

> <s_epik_cmdline>
J2VwaWtfcHl0aG9uJywgJy1waCcsICc3LjAnLCAnLXRuJywgJzgnLCAnLW1hJywgJzIwMCcsICctbWV0YWxfYmluZGluZycsICctaW1hZScsICc8aW5maWxlLm1hZT4nLCAnLW9tYWUnLCAnPG91dGZpbGUubWFlPic=

> <r_lp_tautomer_probability>
1

> <r_epik_Ionization_Penalty>
4.4666e-07

> <r_epik_Ionization_Penalty_Charging>
3.10141e-10

> <r_epik_Ionization_Penalty_Neutral>
4.46349e-07

> <r_epik_State_Penalty>
-0

> <r_epik_Charging_Adjusted_Penalty>
3.10141e-10

> <i_epik_Tot_Q>
0

> <i_epik_Tot_abs_Q>
0

> <r_epik_Metal_State_Penalty>
-0

> <b_epik_Metal_Only>
0

> <s_lp_Force_Field>
OPLS_2005

> <r_lp_Energy>
31.1347

> <b_lp_Chiralities_Consistent>
1

> <s_lp_Variant>
AV-unprocessed.smi:2534-1

> <Gold.Version>
5.8.1

> <Gold.Id.Protein>
6NUR|6NUR_protein|mol2

> <Gold.PLP.Fitness>
39.3103

> <Gold.PLP.PLP>
-33.6007

> <Gold.PLP.part.hbond>
-1.0000

> <Gold.PLP.part.metal>
0.0000

> <Gold.PLP.part.buried>
-4.1827

> <Gold.PLP.part.nonpolar>
-27.8051

> <Gold.PLP.part.repulsive>
0.1470

> <Gold.PLP.ligand.clash>
0.0000

> <Gold.PLP.ligand.torsion>
0.0540

> <Gold.PLP.Chemscore.Hbond>
1.0000

> <Gold.PLP.Chemscore.CHOScore>
0.9379

> <Gold.PLP.Chemscore.Metal>
0.0000

> <Gold.Chemscore.Hbonds>
donor molecule, donor type, donor heavy atom, donor atom, acceptor molecule, acceptor atom, score
      L1  H     6    29       P1 10747  1.00
      L1  C    10    32       P1 10737  0.70
      L1  C    12    33       P1 10737  0.41

> <Gold.PLP.Chemscore.Internal.Correction>
0.0038

> <Gold.Rescore>
     Score         DG    S(hbond)    S(metal)    S(lipo)     H(rot)  DE(clash)    DE(int)     intcor
     14.24     -14.51       1.00        0.00      85.34       1.68       0.10       0.18       ----

> <Gold.Chemscore.Fitness>
14.2380

> <Gold.Chemscore.DG>
-14.5096

> <Gold.Chemscore.ZeroCoef>
-5.4800

> <Gold.Chemscore.Hbond>
0.9983

> <Gold.Chemscore.Metal>
0.0000

> <Gold.Chemscore.Lipo>
85.3440

> <Gold.Chemscore.Internal_Hbond>
0.0000

> <Gold.Chemscore.DEClash>
0.0959

> <Gold.Chemscore.DEInternal>
0.1757

> <Gold.Chemscore.Rot>
1.6758

> <Gold.Chemscore.Internal.Correction>
   9.000000E+99

> <Gold.Chemscore.Hbonds>
donor molecule, donor type, donor heavy atom, donor atom, acceptor molecule, acceptor atom, score
      L1  H     6    29       P1 10747  0.99

> <Gold.Chemscore.Hbond.Weighted>
-3.3342

> <Gold.Chemscore.Metal.Weighted>
-0.0000

> <Gold.Chemscore.Lipo.Weighted>
-9.9852

> <Gold.Chemscore.Internal_Hbond.Weighted>
0.0000

> <Gold.Chemscore.DEClash.Weighted>
0.0959

> <Gold.Chemscore.DEInternal.Weighted>
0.1757

> <Gold.Chemscore.Rot.Weighted>
4.2899

> <Gold.Chemscore.Internal.Correction.Weighted>
   9.000000E+99

> <Gold.Protein.RotatedTorsions>
[ 6907 6896 6895 6894 ] final   -4.10 input  -60.11 | X-H torsion
[ 7974 7965 7964 7962 ] final  -77.02 input  175.53 | X-H torsion
[ 8008 7997 7996 7995 ] final   69.09 input   59.86 | X-H torsion
[ 10167 10162 10161 10158 ] final   51.67 input  -65.29 | X-H torsion
[ 10718 10713 10712 10709 ] final   98.45 input   66.30 | X-H torsion
[ 10763 10752 10751 10750 ] final  170.72 input  -60.55 | X-H torsion
[ 11005 11000 10999 10996 ] final  -56.16 input  -57.11 | X-H torsion

> <Gold.Protein.ActiveResidues>
 VAL166  LYS551  ARG553  GLY616  TRP617  ASP618  TYR619  PRO620  LYS621  CYS622 
 ASP623  PHE694  ASN695  SER759  ASP760  ASP761  ALA762  ILE779  LEU786  VAL792 
 PHE793  MET794  SER795  GLU796  ALA797  LYS798  CYS799  TRP800  GLU811  SER814 

> <Gold.Protein.RotatedAtoms>
  151.5031  135.1062  159.9833 H   0  0  0  0  0  0  0  0  0  0  0  0  # atno 6907 bound_to 6896
  152.4693  133.7990  159.6953 H   0  0  0  0  0  0  0  0  0  0  0  0  # atno 6908 bound_to 6896
  150.8694  133.7464  159.2992 H   0  0  0  0  0  0  0  0  0  0  0  0  # atno 6909 bound_to 6896
  145.6051  140.9400  143.1219 H   0  0  0  0  0  0  0  0  0  0  0  0  # atno 7974 bound_to 7965
  155.7183  140.3493  155.5005 H   0  0  0  0  0  0  0  0  0  0  0  0  # atno 8008 bound_to 7997
  155.9292  140.1081  157.1167 H   0  0  0  0  0  0  0  0  0  0  0  0  # atno 8009 bound_to 7997
  154.4082  140.1234  156.4768 H   0  0  0  0  0  0  0  0  0  0  0  0  # atno 8010 bound_to 7997
  140.2595  144.3389  150.6322 H   0  0  0  0  0  0  0  0  0  0  0  0  # atno 10167 bound_to 10162
  157.6895  131.0640  150.4797 H   0  0  0  0  0  0  0  0  0  0  0  0  # atno 10718 bound_to 10713
  154.4017  135.2755  155.2092 H   0  0  0  0  0  0  0  0  0  0  0  0  # atno 10763 bound_to 10752
  154.4115  135.6021  153.5959 H   0  0  0  0  0  0  0  0  0  0  0  0  # atno 10764 bound_to 10752
  152.9831  135.5950  154.4286 H   0  0  0  0  0  0  0  0  0  0  0  0  # atno 10765 bound_to 10752
  141.1107  133.6611  156.4577 H   0  0  0  0  0  0  0  0  0  0  0  0  # atno 11005 bound_to 11000
  144.7293  139.7775  143.7353 LP  0  0  0  0  0  0  0  0  0  0  0  0  # atno 17320 bound_to 7965
  146.1546  139.4640  143.0027 LP  0  0  0  0  0  0  0  0  0  0  0  0  # atno 17321 bound_to 7965
  140.5977  143.2167  151.7132 LP  0  0  0  0  0  0  0  0  0  0  0  0  # atno 17342 bound_to 10162
  139.5021  144.3842  152.0346 LP  0  0  0  0  0  0  0  0  0  0  0  0  # atno 17343 bound_to 10162
  156.5130  130.4144  149.6291 LP  0  0  0  0  0  0  0  0  0  0  0  0  # atno 17370 bound_to 10713
  156.3223  130.7287  151.2201 LP  0  0  0  0  0  0  0  0  0  0  0  0  # atno 17371 bound_to 10713
  140.4782  134.6689  157.5159 LP  0  0  0  0  0  0  0  0  0  0  0  0  # atno 17394 bound_to 11000
  140.0000  134.6852  155.9546 LP  0  0  0  0  0  0  0  0  0  0  0  0  # atno 17395 bound_to 11000

$$$$
