#       Name:                AV-unprocessed.smi:2337
#       Creating user name   scv26
#       Creation time:       Fri Mar 27 12:55:32 2020


#       File generated by GOLD software.
#

@<TRIPOS>MOLECULE
AV-unprocessed.smi:2337
    51    52     1
SMALL
NO_CHARGES


@<TRIPOS>ATOM
      1 ****        -3.7991   1.7434  -3.6673 C.3            1 S1                 0.0000
      2 ****        -4.1725   0.7565  -2.7146 O.3            1 S1                 0.0000
      3 ****        -3.7056  -0.5685  -2.9712 C.3            1 S1                 0.0000
      4 ****        -2.1761  -0.6633  -2.8824 C.3            1 S1                 0.0000
      5 ****        -1.7039  -0.1778  -1.5926 N.am           1 S1                 0.0000
      6 ****        -0.4480  -0.3065  -1.1465 C.2            1 S1                 0.0000
      7 ****         0.4453  -0.8604  -1.7879 O.2            1 S1                 0.0000
      8 ****        -0.3049   0.2470   0.0700 N.am           1 S1                 0.0000
      9 ****         0.8602   0.2896   0.8800 C.ar           1 S1                 0.0000
     10 ****         0.7226   0.9793   2.1012 C.ar           1 S1                 0.0000
     11 ****         1.8348   1.0578   2.9559 C.ar           1 S1                 0.0000
     12 ****         3.0319   0.4343   2.5370 C.ar           1 S1                 0.0000
     13 ****         4.3217   0.4362   3.3773 C.3            1 S1                 0.0000
     14 ****         5.4611   1.1096   2.5842 C.3            1 S1                 0.0000
     15 ****         4.7145  -1.0134   3.7297 C.3            1 S1                 0.0000
     16 ****         4.1604   1.2107   4.7050 C.3            1 S1                 0.0000
     17 ****         3.1021  -0.2165   1.3500 N.ar           1 S1                 0.0000
     18 ****         2.0410  -0.2857   0.5407 N.ar           1 S1                 0.0000
     19 ****        -4.5333  -1.5404  -2.1089 C.3            1 S1                 0.0000
     20 ****        -4.6971  -2.4331  -3.3405 C.3            1 S1                 0.0000
     21 ****        -4.4190  -1.1909  -4.1884 C.3            1 S1                 0.0000
     22 ****        -4.2922   2.6832  -3.4197 H              1 S1                 0.0000
     23 ****        -4.1000   1.4691  -4.6785 H              1 S1                 0.0000
     24 ****        -2.7255   1.9291  -3.6590 H              1 S1                 0.0000
     25 ****        -1.8573  -1.6988  -3.0118 H              1 S1                 0.0000
     26 ****        -1.6949  -0.0996  -3.6818 H              1 S1                 0.0000
     27 ****        -2.3796   0.2927  -1.0082 H              1 S1                 0.0000
     28 ****        -1.1251   0.6829   0.4645 H              1 S1                 0.0000
     29 ****        -0.2138   1.4396   2.3811 H              1 S1                 0.0000
     30 ****         1.7453   1.5818   3.8946 H              1 S1                 0.0000
     31 ****         6.3844   1.1409   3.1638 H              1 S1                 0.0000
     32 ****         5.2046   2.1358   2.3183 H              1 S1                 0.0000
     33 ****         5.6823   0.5763   1.6589 H              1 S1                 0.0000
     34 ****         4.9151  -1.6070   2.8371 H              1 S1                 0.0000
     35 ****         3.9202  -1.5137   4.2850 H              1 S1                 0.0000
     36 ****         5.6150  -1.0438   4.3439 H              1 S1                 0.0000
     37 ****         5.0852   1.2008   5.2832 H              1 S1                 0.0000
     38 ****         3.3868   0.7722   5.3366 H              1 S1                 0.0000
     39 ****         3.9038   2.2568   4.5330 H              1 S1                 0.0000
     40 ****        -3.9891  -2.0050  -1.2859 H              1 S1                 0.0000
     41 ****        -5.4811  -1.1173  -1.7712 H              1 S1                 0.0000
     42 ****        -3.9147  -3.1890  -3.4247 H              1 S1                 0.0000
     43 ****        -5.6919  -2.8609  -3.4672 H              1 S1                 0.0000
     44 ****        -5.3353  -0.6680  -4.4685 H              1 S1                 0.0000
     45 ****        -3.7787  -1.3679  -5.0531 H              1 S1                 0.0000
     46 ****        -5.1714   0.7276  -2.6793 LP             1 S1                 0.0000
     47 ****        -3.8156   1.0398  -1.8245 LP             1 S1                 0.0000
     48 ****         0.2492  -1.2423  -2.6911 LP             1 S1                 0.0000
     49 ****         1.3669  -0.9283  -1.4057 LP             1 S1                 0.0000
     50 ****         3.9601  -0.6509   1.0760 LP             1 S1                 0.0000
     51 ****         2.1187  -0.7702  -0.3306 LP             1 S1                 0.0000
@<TRIPOS>BOND
    1    1    2 1     
    2    1   22 1     
    3    1   23 1     
    4    1   24 1     
    5    2    3 1     
    6    3   21 1     
    7    3    4 1     
    8    3   19 1     
    9    4    5 1     
   10    4   25 1     
   11    4   26 1     
   12    5    6 am    
   13    5   27 1     
   14    6    7 2     
   15    6    8 am    
   16    8    9 1     
   17    8   28 1     
   18    9   18 ar    
   19    9   10 ar    
   20   10   11 ar    
   21   10   29 1     
   22   11   12 ar    
   23   11   30 1     
   24   12   13 1     
   25   12   17 ar    
   26   13   14 1     
   27   13   15 1     
   28   13   16 1     
   29   14   31 1     
   30   14   32 1     
   31   14   33 1     
   32   15   34 1     
   33   15   35 1     
   34   15   36 1     
   35   16   37 1     
   36   16   38 1     
   37   16   39 1     
   38   17   18 ar    
   39   19   20 1     
   40   19   40 1     
   41   19   41 1     
   42   20   21 1     
   43   20   42 1     
   44   20   43 1     
   45   21   44 1     
   46   21   45 1     
   47    2   46 1     
   48    2   47 1     
   49    7   48 1     
   50    7   49 1     
   51   17   50 1     
   52   18   51 1     
@<TRIPOS>SUBSTRUCTURE
      1 S1             1
@<TRIPOS>SET
LONE_PAIRS      STATIC     ATOMS    <user>   **** ""
6 46 47 48 49 50 51
DONOR_HYDROGENS      STATIC     ATOMS    <user>   **** ""
2 27 28
ATOM$BLUE        STATIC     ATOMS    COLORGROUP SYSTEM
6 46 47 48 49 50 51
ATOM$RED        STATIC     ATOMS    COLORGROUP SYSTEM
2 27 28
