#       Name:                AV-unprocessed.smi:1883
#       Creating user name   scv26
#       Creation time:       Fri Mar 27 09:37:14 2020


#       File generated by GOLD software.
#

@<TRIPOS>MOLECULE
AV-unprocessed.smi:1883
    38    40     1
SMALL
NO_CHARGES


@<TRIPOS>ATOM
      1 ****        -1.0893   1.1151  -2.8094 C.3            1 S1                 0.0000
      2 ****        -1.2993   1.6834  -1.4418 C.2            1 S1                 0.0000
      3 ****        -1.7647   2.9175  -1.2483 N.2            1 S1                 0.0000
      4 ****        -1.8020   3.0141   0.1294 C.ar           1 S1                 0.0000
      5 ****        -2.2042   4.0815   0.9639 C.ar           1 S1                 0.0000
      6 ****        -2.1550   3.9479   2.3670 C.ar           1 S1                 0.0000
      7 ****        -1.7036   2.7484   2.9545 C.ar           1 S1                 0.0000
      8 ****        -1.2982   1.6725   2.1412 C.ar           1 S1                 0.0000
      9 ****        -1.3496   1.8103   0.7411 C.ar           1 S1                 0.0000
     10 ****        -1.0306   0.9695  -0.3212 N.pl3          1 S1                 0.0000
     11 ****        -0.5176  -0.3909  -0.2296 C.3            1 S1                 0.0000
     12 ****         1.0222  -0.4544  -0.2797 C.3            1 S1                 0.0000
     13 ****         1.5718   0.2933   0.7891 O.3            1 S1                 0.0000
     14 ****         1.5123  -1.8964  -0.2974 C.ar           1 S1                 0.0000
     15 ****         1.7222  -2.6001   0.9103 C.ar           1 S1                 0.0000
     16 ****         2.1716  -3.9344   0.8883 C.ar           1 S1                 0.0000
     17 ****         2.3739  -4.5994   2.0501 F              1 S1                 0.0000
     18 ****         2.4095  -4.5773  -0.3411 C.ar           1 S1                 0.0000
     19 ****         2.1926  -3.8865  -1.5484 C.ar           1 S1                 0.0000
     20 ****         1.7431  -2.5516  -1.5285 C.ar           1 S1                 0.0000
     21 ****         1.5306  -1.9046  -2.6996 F              1 S1                 0.0000
     22 ****        -1.2967   1.8672  -3.5715 H              1 S1                 0.0000
     23 ****        -1.7570   0.2690  -2.9720 H              1 S1                 0.0000
     24 ****        -0.0593   0.7810  -2.9306 H              1 S1                 0.0000
     25 ****        -2.5504   5.0048   0.5234 H              1 S1                 0.0000
     26 ****        -2.4641   4.7702   2.9954 H              1 S1                 0.0000
     27 ****        -1.6677   2.6547   4.0301 H              1 S1                 0.0000
     28 ****        -0.9483   0.7537   2.5878 H              1 S1                 0.0000
     29 ****        -0.8857  -0.8406   0.6934 H              1 S1                 0.0000
     30 ****        -0.9460  -0.9788  -1.0419 H              1 S1                 0.0000
     31 ****         1.3683   0.0326  -1.1913 H              1 S1                 0.0000
     32 ****         2.5094   0.3315   0.6773 H              1 S1                 0.0000
     33 ****         1.5377  -2.1209   1.8607 H              1 S1                 0.0000
     34 ****         2.7542  -5.6008  -0.3581 H              1 S1                 0.0000
     35 ****         2.3692  -4.3819  -2.4918 H              1 S1                 0.0000
     36 ****        -2.0224   3.6023  -1.9300 LP             1 S1                 0.0000
     37 ****         1.3535  -0.1502   1.6583 LP             1 S1                 0.0000
     38 ****         1.1934   1.2189   0.7829 LP             1 S1                 0.0000
@<TRIPOS>BOND
    1    1    2 1     
    2    1   22 1     
    3    1   23 1     
    4    1   24 1     
    5    2   10 1     
    6    2    3 2     
    7    3    4 1     
    8    4    9 ar    
    9    4    5 ar    
   10    5    6 ar    
   11    5   25 1     
   12    6    7 ar    
   13    6   26 1     
   14    7    8 ar    
   15    7   27 1     
   16    8    9 ar    
   17    8   28 1     
   18    9   10 1     
   19   10   11 1     
   20   11   12 1     
   21   11   29 1     
   22   11   30 1     
   23   12   13 1     
   24   12   14 1     
   25   12   31 1     
   26   13   32 1     
   27   14   20 ar    
   28   14   15 ar    
   29   15   16 ar    
   30   15   33 1     
   31   16   17 1     
   32   16   18 ar    
   33   18   19 ar    
   34   18   34 1     
   35   19   20 ar    
   36   19   35 1     
   37   20   21 1     
   38    3   36 1     
   39   13   37 1     
   40   13   38 1     
@<TRIPOS>SUBSTRUCTURE
      1 S1             1
@<TRIPOS>SET
LONE_PAIRS      STATIC     ATOMS    <user>   **** ""
3 36 37 38
DONOR_HYDROGENS      STATIC     ATOMS    <user>   **** ""
1 32
ATOM$BLUE        STATIC     ATOMS    COLORGROUP SYSTEM
3 36 37 38
ATOM$RED        STATIC     ATOMS    COLORGROUP SYSTEM
1 32
