#       Name:                AV-unprocessed.smi:3185
#       Creating user name   scv26
#       Creation time:       Fri Mar 27 18:00:37 2020


#       File generated by GOLD software.
#

@<TRIPOS>MOLECULE
AV-unprocessed.smi:3185
    40    41     1
SMALL
NO_CHARGES


@<TRIPOS>ATOM
      1 ****        -6.0193   0.0671  -1.2825 N.1            1 S1                 0.0000
      2 ****        -4.8791  -0.1242  -1.2406 C.1            1 S1                 0.0000
      3 ****        -3.4300  -0.3674  -1.1867 C.3            1 S1                 0.0000
      4 ****        -3.0458  -1.4139  -0.1320 C.3            1 S1                 0.0000
      5 ****        -1.5362  -1.6823  -0.0905 C.3            1 S1                 0.0000
      6 ****        -0.8515  -0.5269   0.4687 N.3            1 S1                 0.0000
      7 ****         0.6014  -0.6461   0.3944 C.3            1 S1                 0.0000
      8 ****         1.1138  -1.5237   1.5582 C.3            1 S1                 0.0000
      9 ****         2.6486  -1.5768   1.5950 C.3            1 S1                 0.0000
     10 ****         3.2510  -0.1671   1.6749 C.3            1 S1                 0.0000
     11 ****         2.7657   0.7031   0.5069 C.3            1 S1                 0.0000
     12 ****         1.2246   0.7731   0.4553 C.3            1 S1                 0.0000
     13 ****         0.7808   1.6121  -0.6529 N.pl3          1 S1                 0.0000
     14 ****         0.0505   2.7812  -0.5945 C.2            1 S1                 0.0000
     15 ****        -0.1437   3.2077  -1.8769 C.2            1 S1                 0.0000
     16 ****         0.5139   2.2219  -2.6638 C.2            1 S1                 0.0000
     17 ****         1.0657   1.2694  -1.9303 N.2            1 S1                 0.0000
     18 ****        -3.1075  -0.6883  -2.1773 H              1 S1                 0.0000
     19 ****        -2.9421   0.5856  -0.9809 H              1 S1                 0.0000
     20 ****        -3.4016  -1.1042   0.8516 H              1 S1                 0.0000
     21 ****        -3.5619  -2.3466  -0.3618 H              1 S1                 0.0000
     22 ****        -1.3353  -2.5602   0.5235 H              1 S1                 0.0000
     23 ****        -1.1682  -1.8936  -1.0952 H              1 S1                 0.0000
     24 ****        -1.1445  -0.3622   1.4210 H              1 S1                 0.0000
     25 ****         0.8813  -1.1056  -0.5550 H              1 S1                 0.0000
     26 ****         0.7467  -1.1319   2.5080 H              1 S1                 0.0000
     27 ****         0.7265  -2.5393   1.4732 H              1 S1                 0.0000
     28 ****         2.9797  -2.1705   2.4475 H              1 S1                 0.0000
     29 ****         3.0186  -2.0833   0.7027 H              1 S1                 0.0000
     30 ****         2.9733   0.2988   2.6211 H              1 S1                 0.0000
     31 ****         4.3397  -0.2265   1.6663 H              1 S1                 0.0000
     32 ****         3.1812   1.7071   0.6011 H              1 S1                 0.0000
     33 ****         3.1550   0.2945  -0.4268 H              1 S1                 0.0000
     34 ****         0.8884   1.2547   1.3756 H              1 S1                 0.0000
     35 ****        -0.2702   3.2063   0.3452 H              1 S1                 0.0000
     36 ****        -0.6753   4.0891  -2.2031 H              1 S1                 0.0000
     37 ****         0.6055   2.1702  -3.7385 H              1 S1                 0.0000
     38 ****        -7.0049   0.2324  -1.3187 LP             1 S1                 0.0000
     39 ****        -1.1104   0.2598  -0.0917 LP             1 S1                 0.0000
     40 ****         1.5794   0.4728  -2.2492 LP             1 S1                 0.0000
@<TRIPOS>BOND
    1    1    2 3     
    2    2    3 1     
    3    3    4 1     
    4    3   18 1     
    5    3   19 1     
    6    4    5 1     
    7    4   20 1     
    8    4   21 1     
    9    5    6 1     
   10    5   22 1     
   11    5   23 1     
   12    6    7 1     
   13    6   24 1     
   14    7   12 1     
   15    7    8 1     
   16    7   25 1     
   17    8    9 1     
   18    8   26 1     
   19    8   27 1     
   20    9   10 1     
   21    9   28 1     
   22    9   29 1     
   23   10   11 1     
   24   10   30 1     
   25   10   31 1     
   26   11   12 1     
   27   11   32 1     
   28   11   33 1     
   29   12   13 1     
   30   12   34 1     
   31   13   17 1     
   32   13   14 1     
   33   14   15 2     
   34   14   35 1     
   35   15   16 1     
   36   15   36 1     
   37   16   17 2     
   38   16   37 1     
   39    1   38 1     
   40    6   39 1     
   41   17   40 1     
@<TRIPOS>SUBSTRUCTURE
      1 S1             1
@<TRIPOS>SET
LONE_PAIRS      STATIC     ATOMS    <user>   **** ""
3 38 39 40
DONOR_HYDROGENS      STATIC     ATOMS    <user>   **** ""
1 24
ATOM$BLUE        STATIC     ATOMS    COLORGROUP SYSTEM
3 38 39 40
ATOM$RED        STATIC     ATOMS    COLORGROUP SYSTEM
1 24
