AV-unprocessed.smi:3006|AV-procd|sdf|11444|dock8
  -GOLD-   2272016373D 1   1.00000     0.00000
 Structure written by MMmdl.
 45 46  0  0  0  0  0  0  0  0  2 V2000
  152.8252  142.9330  162.0124 C   0  0  0  0  0  0  0  0  0  0  0  0
  152.1897  143.1671  160.6849 C   0  0  0  0  0  0  0  0  0  0  0  0
  151.9050  142.1911  159.8188 N   0  0  0  0  0  0  0  0  0  0  0  0
  151.3049  142.6677  158.6489 C   0  0  0  0  0  0  0  0  0  0  0  0
  150.9070  141.7090  157.5681 C   0  0  0  0  0  0  0  0  0  0  0  0
  150.9145  142.3676  156.1791 C   0  0  0  0  0  0  0  0  0  0  0  0
  149.7082  142.0446  155.4259 N   0  0  0  0  0  0  0  0  0  0  0  0
  149.5197  140.9237  154.7091 C   0  0  0  0  0  0  0  0  0  0  0  0
  150.3727  140.0380  154.6410 O   0  0  0  0  0  0  0  0  0  0  0  0
  148.3102  140.8344  154.1011 N   0  0  0  0  0  0  0  0  0  0  0  0
  147.5500  139.6073  153.8418 C   0  0  0  0  0  0  0  0  0  0  0  0
  146.3808  139.5231  154.8402 C   0  0  0  0  0  0  0  0  0  0  0  0
  145.5109  140.7392  154.8103 N   0  3  0  0  0  0  0  0  0  0  0  0
  144.3985  140.6950  155.8143 C   0  0  0  0  0  0  0  0  0  0  0  0
  143.4878  139.4637  155.6285 C   0  0  0  0  0  0  0  0  0  0  0  0
  143.5211  141.9643  155.7823 C   0  0  0  0  0  0  0  0  0  0  0  0
  146.3051  142.0046  154.8623 C   0  0  0  0  0  0  0  0  0  0  0  0
  147.4715  142.0071  153.8582 C   0  0  0  0  0  0  0  0  0  0  0  0
  151.1432  144.0308  158.6402 C   0  0  0  0  0  0  0  0  0  0  0  0
  151.7361  144.7650  160.1047 S   0  0  0  0  0  0  0  0  0  0  0  0
  153.0677  141.8777  162.1423 H   0  0  0  0  0  0  0  0  0  0  0  0
  152.1455  143.2358  162.8087 H   0  0  0  0  0  0  0  0  0  0  0  0
  153.7433  143.5150  162.0937 H   0  0  0  0  0  0  0  0  0  0  0  0
  151.5813  140.8516  157.5711 H   0  0  0  0  0  0  0  0  0  0  0  0
  149.9143  141.3077  157.7764 H   0  0  0  0  0  0  0  0  0  0  0  0
  150.9672  143.4519  156.2814 H   0  0  0  0  0  0  0  0  0  0  0  0
  151.8015  142.0671  155.6183 H   0  0  0  0  0  0  0  0  0  0  0  0
  148.9602  142.7222  155.4542 H   0  0  0  0  0  0  0  0  0  0  0  0
  147.1649  139.6347  152.8212 H   0  0  0  0  0  0  0  0  0  0  0  0
  148.1480  138.6976  153.8972 H   0  0  0  0  0  0  0  0  0  0  0  0
  145.8030  138.6341  154.5923 H   0  0  0  0  0  0  0  0  0  0  0  0
  146.7699  139.3823  155.8501 H   0  0  0  0  0  0  0  0  0  0  0  0
  144.8472  140.6287  156.8068 H   0  0  0  0  0  0  0  0  0  0  0  0
  142.6261  139.5088  156.2953 H   0  0  0  0  0  0  0  0  0  0  0  0
  143.9998  138.5307  155.8627 H   0  0  0  0  0  0  0  0  0  0  0  0
  143.1092  139.3992  154.6078 H   0  0  0  0  0  0  0  0  0  0  0  0
  142.6579  141.8606  156.4402 H   0  0  0  0  0  0  0  0  0  0  0  0
  143.1457  142.1644  154.7782 H   0  0  0  0  0  0  0  0  0  0  0  0
  144.0580  142.8470  156.1289 H   0  0  0  0  0  0  0  0  0  0  0  0
  145.6750  142.8628  154.6335 H   0  0  0  0  0  0  0  0  0  0  0  0
  146.6894  142.1476  155.8739 H   0  0  0  0  0  0  0  0  0  0  0  0
  148.0259  142.9439  153.9319 H   0  0  0  0  0  0  0  0  0  0  0  0
  147.0881  141.9741  152.8371 H   0  0  0  0  0  0  0  0  0  0  0  0
  150.7103  144.6452  157.8645 H   0  0  0  0  0  0  0  0  0  0  0  0
  145.0699  140.7352  153.9016 H   0  0  0  0  0  0  0  0  0  0  0  0
  1  2  1  0  0  0  0
  1 21  1  0  0  0  0
  1 22  1  0  0  0  0
  1 23  1  0  0  0  0
  2 20  1  0  0  0  0
  2  3  2  0  0  0  0
  3  4  1  0  0  0  0
  4  5  1  0  0  0  0
  4 19  2  0  0  0  0
  5  6  1  0  0  0  0
  5 24  1  0  0  0  0
  5 25  1  0  0  0  0
  6  7  1  0  0  0  0
  6 26  1  0  0  0  0
  6 27  1  0  0  0  0
  7  8  1  0  0  0  0
  7 28  1  0  0  0  0
  8  9  2  0  0  0  0
  8 10  1  0  0  0  0
 10 18  1  0  0  0  0
 10 11  1  0  0  0  0
 11 12  1  0  0  0  0
 11 29  1  0  0  0  0
 11 30  1  0  0  0  0
 12 13  1  0  0  0  0
 12 31  1  0  0  0  0
 12 32  1  0  0  0  0
 13 14  1  0  0  0  0
 13 17  1  0  0  0  0
 13 45  1  0  0  0  0
 14 15  1  0  0  0  0
 14 16  1  0  0  0  0
 14 33  1  0  0  0  0
 15 34  1  0  0  0  0
 15 35  1  0  0  0  0
 15 36  1  0  0  0  0
 16 37  1  0  0  0  0
 16 38  1  0  0  0  0
 16 39  1  0  0  0  0
 17 18  1  0  0  0  0
 17 40  1  0  0  0  0
 17 41  1  0  0  0  0
 18 42  1  0  0  0  0
 18 43  1  0  0  0  0
 19 20  1  0  0  0  0
 19 44  1  0  0  0  0
M  CHG  1  13   1
M  END
> <s_m_source_file>
AV-unprocessed.smi

> <i_m_source_file_index>
3006

> <i_lp_mmshare_version>
43012

> <i_f3d_flags>
0

> <s_epik_input>
W0NIM11jMW5jKFtjSF1zMSlbQ0gyXVtDSDJdW05IXUMoPU8pTjJbQ0gyXVtDSDJdTihbQ0hdKFtDSDNdKVtDSDNdKVtDSDJdW0NIMl0y

> <s_epik_cmdline>
J2VwaWtfcHl0aG9uJywgJy1waCcsICc3LjAnLCAnLXRuJywgJzgnLCAnLW1hJywgJzIwMCcsICctbWV0YWxfYmluZGluZycsICctaW1hZScsICc8aW5maWxlLm1hZT4nLCAnLW9tYWUnLCAnPG91dGZpbGUubWFlPic=

> <r_epik_Ionization_Penalty>
0.155723

> <r_epik_Ionization_Penalty_Charging>
0.153999

> <r_epik_Ionization_Penalty_Neutral>
0.00172372

> <r_epik_State_Penalty>
0.139716

> <r_epik_Charging_Adjusted_Penalty>
0.293715

> <i_epik_Tot_Q>
1

> <i_epik_Tot_abs_Q>
1

> <r_epik_Metal_State_Penalty>
0.138566

> <b_epik_Metal_Only>
0

> <s_lp_Force_Field>
OPLS_2005

> <r_lp_Energy>
45.5874

> <b_lp_Chiralities_Consistent>
1

> <s_lp_Variant>
AV-unprocessed.smi:3006-1

> <Gold.Version>
5.8.1

> <Gold.Id.Protein>
6NUR|6NUR_protein|mol2

> <Gold.PLP.Fitness>
49.1678

> <Gold.PLP.PLP>
-39.3465

> <Gold.PLP.part.hbond>
-3.0000

> <Gold.PLP.part.metal>
0.0000

> <Gold.PLP.part.buried>
-5.3276

> <Gold.PLP.part.nonpolar>
-30.1168

> <Gold.PLP.part.repulsive>
0.2622

> <Gold.PLP.ligand.clash>
0.6634

> <Gold.PLP.ligand.torsion>
1.1889

> <Gold.PLP.Chemscore.Hbond>
3.6880

> <Gold.PLP.Chemscore.CHOScore>
0.5660

> <Gold.PLP.Chemscore.Metal>
0.0000

> <Gold.Chemscore.Hbonds>
donor molecule, donor type, donor heavy atom, donor atom, acceptor molecule, acceptor atom, score
      L1  H     7    28       P1  8028  0.70
      L1  H    13    45       P1 10175  2.00
      P1  H  7989  7998       L1     9  1.00
      L1  C    19    44       P1  8028  0.27

> <Gold.PLP.Chemscore.Internal.Correction>
0.1006

> <Gold.Rescore>
     Score         DG    S(hbond)    S(metal)    S(lipo)     H(rot)  DE(clash)    DE(int)     intcor
     19.10     -20.33       2.20        0.00      95.14       1.42       0.17       1.06       ----

> <Gold.Chemscore.Fitness>
19.0988

> <Gold.Chemscore.DG>
-20.3326

> <Gold.Chemscore.ZeroCoef>
-5.4800

> <Gold.Chemscore.Hbond>
2.2049

> <Gold.Chemscore.Metal>
0.0000

> <Gold.Chemscore.Lipo>
95.1398

> <Gold.Chemscore.Internal_Hbond>
0.0000

> <Gold.Chemscore.DEClash>
0.1702

> <Gold.Chemscore.DEInternal>
1.0637

> <Gold.Chemscore.Rot>
1.4230

> <Gold.Chemscore.Internal.Correction>
   9.000000E+99

> <Gold.Chemscore.Hbonds>
donor molecule, donor type, donor heavy atom, donor atom, acceptor molecule, acceptor atom, score
      L1  H     7    28       P1  8028  0.67
      L1  H    13    45       P1 10175  0.93
      P1  H  7989  7998       L1     9  0.25

> <Gold.Chemscore.Hbond.Weighted>
-7.3642

> <Gold.Chemscore.Metal.Weighted>
-0.0000

> <Gold.Chemscore.Lipo.Weighted>
-11.1314

> <Gold.Chemscore.Internal_Hbond.Weighted>
0.0000

> <Gold.Chemscore.DEClash.Weighted>
0.1702

> <Gold.Chemscore.DEInternal.Weighted>
1.0637

> <Gold.Chemscore.Rot.Weighted>
3.6430

> <Gold.Chemscore.Internal.Correction.Weighted>
   9.000000E+99

> <Gold.Protein.RotatedTorsions>
[ 6907 6896 6895 6894 ] final  177.70 input  -60.11 | X-H torsion
[ 7974 7965 7964 7962 ] final   -5.87 input  175.53 | X-H torsion
[ 8008 7997 7996 7995 ] final  115.78 input   59.86 | X-H torsion
[ 10167 10162 10161 10158 ] final   -7.58 input  -65.29 | X-H torsion
[ 10718 10713 10712 10709 ] final  -83.45 input   66.30 | X-H torsion
[ 10763 10752 10751 10750 ] final  123.50 input  -60.55 | X-H torsion
[ 11005 11000 10999 10996 ] final -113.62 input  -57.11 | X-H torsion

> <Gold.Protein.ActiveResidues>
 VAL166  LYS551  ARG553  GLY616  TRP617  ASP618  TYR619  PRO620  LYS621  CYS622 
 ASP623  PHE694  ASN695  SER759  ASP760  ASP761  ALA762  ILE779  LEU786  VAL792 
 PHE793  MET794  SER795  GLU796  ALA797  LYS798  CYS799  TRP800  GLU811  SER814 

> <Gold.Protein.RotatedAtoms>
  151.6997  133.3311  159.3263 H   0  0  0  0  0  0  0  0  0  0  0  0  # atno 6907 bound_to 6896
  150.7741  134.6626  159.6357 H   0  0  0  0  0  0  0  0  0  0  0  0  # atno 6908 bound_to 6896
  152.3777  134.6641  160.0206 H   0  0  0  0  0  0  0  0  0  0  0  0  # atno 6909 bound_to 6896
  146.2343  140.2085  142.8335 H   0  0  0  0  0  0  0  0  0  0  0  0  # atno 7974 bound_to 7965
  156.2401  140.2931  156.0421 H   0  0  0  0  0  0  0  0  0  0  0  0  # atno 8008 bound_to 7997
  155.1975  140.0408  157.2929 H   0  0  0  0  0  0  0  0  0  0  0  0  # atno 8009 bound_to 7997
  154.6153  140.2462  155.7625 H   0  0  0  0  0  0  0  0  0  0  0  0  # atno 8010 bound_to 7997
  140.7033  143.6065  150.8746 H   0  0  0  0  0  0  0  0  0  0  0  0  # atno 10167 bound_to 10162
  156.0018  130.4666  150.4259 H   0  0  0  0  0  0  0  0  0  0  0  0  # atno 10718 bound_to 10713
  153.6464  135.3370  155.3087 H   0  0  0  0  0  0  0  0  0  0  0  0  # atno 10763 bound_to 10752
  154.8548  135.4330  154.1950 H   0  0  0  0  0  0  0  0  0  0  0  0  # atno 10764 bound_to 10752
  153.2882  135.7015  153.7393 H   0  0  0  0  0  0  0  0  0  0  0  0  # atno 10765 bound_to 10752
  141.0603  133.9546  157.2679 H   0  0  0  0  0  0  0  0  0  0  0  0  # atno 11005 bound_to 11000
  144.9725  140.8382  143.5446 LP  0  0  0  0  0  0  0  0  0  0  0  0  # atno 17320 bound_to 7965
  145.2068  139.2224  143.5164 LP  0  0  0  0  0  0  0  0  0  0  0  0  # atno 17321 bound_to 7965
  139.9788  143.5974  152.2949 LP  0  0  0  0  0  0  0  0  0  0  0  0  # atno 17342 bound_to 10162
  139.6587  144.7662  151.2004 LP  0  0  0  0  0  0  0  0  0  0  0  0  # atno 17343 bound_to 10162
  157.2311  131.0504  151.2491 LP  0  0  0  0  0  0  0  0  0  0  0  0  # atno 17370 bound_to 10713
  157.3710  130.7181  149.6565 LP  0  0  0  0  0  0  0  0  0  0  0  0  # atno 17371 bound_to 10713
  139.9426  135.0189  156.8756 LP  0  0  0  0  0  0  0  0  0  0  0  0  # atno 17394 bound_to 11000
  140.5882  134.0287  155.7489 LP  0  0  0  0  0  0  0  0  0  0  0  0  # atno 17395 bound_to 11000

$$$$
