AV-unprocessed.smi:2046|AV-procd|sdf|8311|dock4
  -GOLD-   2272010573D 1   1.00000     0.00000
 Structure written by MMmdl.
 30 31  0  0  0  0  0  0  0  0  1 V2000
  144.5720  136.6518  153.1129 O   0  0  0  0  0  0  0  0  0  0  0  0
  145.7204  136.6167  152.6695 C   0  0  0  0  0  0  0  0  0  0  0  0
  146.6377  137.5903  152.8070 N   0  0  0  0  0  0  0  0  0  0  0  0
  146.5039  138.8392  153.4695 C   0  0  0  0  0  0  0  0  0  0  0  0
  145.9151  138.9881  154.6668 N   0  0  0  0  0  0  0  0  0  0  0  0
  145.9178  140.3123  155.0860 N   0  0  0  0  0  0  0  0  0  0  0  0
  146.5076  141.1088  154.1900 C   0  0  0  0  0  0  0  0  0  0  0  0
  147.1176  140.3191  152.7461 S   0  0  0  0  0  0  0  0  0  0  0  0
  146.2153  135.5798  151.9779 N   0  0  0  0  0  0  0  0  0  0  0  0
  145.4838  134.3643  151.6205 C   0  0  2  0  0  0  0  0  0  0  0  0
  146.4644  133.1959  151.3421 C   0  0  0  0  0  0  0  0  0  0  0  0
  145.9362  132.0703  150.4282 C   0  0  0  0  0  0  0  0  0  0  0  0
  144.5913  131.4460  150.8525 C   0  0  0  0  0  0  0  0  0  0  0  0
  143.3998  132.4168  151.0353 C   0  0  0  0  0  0  0  0  0  0  0  0
  143.5200  133.6697  150.2903 N   0  0  0  0  0  0  0  0  0  0  0  0
  144.4382  134.6245  150.5189 C   0  0  0  0  0  0  0  0  0  0  0  0
  144.4622  135.6634  149.8599 O   0  0  0  0  0  0  0  0  0  0  0  0
  147.5388  137.4185  152.3859 H   0  0  0  0  0  0  0  0  0  0  0  0
  146.5837  142.1691  154.3808 H   0  0  0  0  0  0  0  0  0  0  0  0
  147.1681  135.6391  151.6487 H   0  0  0  0  0  0  0  0  0  0  0  0
  144.9016  134.0964  152.5033 H   0  0  0  0  0  0  0  0  0  0  0  0
  147.3732  133.5887  150.8838 H   0  0  0  0  0  0  0  0  0  0  0  0
  146.7794  132.7663  152.2940 H   0  0  0  0  0  0  0  0  0  0  0  0
  145.8535  132.4422  149.4061 H   0  0  0  0  0  0  0  0  0  0  0  0
  146.6869  131.2810  150.3799 H   0  0  0  0  0  0  0  0  0  0  0  0
  144.3193  130.7094  150.0956 H   0  0  0  0  0  0  0  0  0  0  0  0
  144.7275  130.8782  151.7734 H   0  0  0  0  0  0  0  0  0  0  0  0
  142.4779  131.9223  150.7283 H   0  0  0  0  0  0  0  0  0  0  0  0
  143.2627  132.6441  152.0931 H   0  0  0  0  0  0  0  0  0  0  0  0
  142.8432  133.8326  149.5588 H   0  0  0  0  0  0  0  0  0  0  0  0
  1  2  2  0  0  0  0
  2  3  1  0  0  0  0
  2  9  1  0  0  0  0
  3  4  1  0  0  0  0
  3 18  1  0  0  0  0
  4  8  1  0  0  0  0
  4  5  2  0  0  0  0
  5  6  1  0  0  0  0
  6  7  2  0  0  0  0
  7  8  1  0  0  0  0
  7 19  1  0  0  0  0
  9 10  1  0  0  0  0
  9 20  1  0  0  0  0
 10 16  1  0  0  0  0
 10 11  1  0  0  0  0
 10 21  1  0  0  0  0
 11 12  1  0  0  0  0
 11 22  1  0  0  0  0
 11 23  1  0  0  0  0
 12 13  1  0  0  0  0
 12 24  1  0  0  0  0
 12 25  1  0  0  0  0
 13 14  1  0  0  0  0
 13 26  1  0  0  0  0
 13 27  1  0  0  0  0
 14 15  1  0  0  0  0
 14 28  1  0  0  0  0
 14 29  1  0  0  0  0
 15 16  1  0  0  0  0
 15 30  1  0  0  0  0
 16 17  2  0  0  0  0
M  END
> <s_m_source_file>
AV-unprocessed.smi

> <i_m_source_file_index>
2046

> <i_lp_mmshare_version>
43012

> <i_f3d_flags>
0

> <s_epik_input>
czFbY0hdbm5jMVtOSF1DKD1PKVtOSF1bQ0BASF0yW0NIMl1bQ0gyXVtDSDJdW0NIMl1bTkhdQzI9Tw==

> <s_epik_cmdline>
J2VwaWtfcHl0aG9uJywgJy1waCcsICc3LjAnLCAnLXRuJywgJzgnLCAnLW1hJywgJzIwMCcsICctbWV0YWxfYmluZGluZycsICctaW1hZScsICc8aW5maWxlLm1hZT4nLCAnLW9tYWUnLCAnPG91dGZpbGUubWFlPic=

> <r_lp_tautomer_probability>
1

> <r_epik_Ionization_Penalty>
0.000691558

> <r_epik_Ionization_Penalty_Charging>
0

> <r_epik_Ionization_Penalty_Neutral>
0.000691558

> <r_epik_State_Penalty>
-0

> <r_epik_Charging_Adjusted_Penalty>
0

> <i_epik_Tot_Q>
0

> <i_epik_Tot_abs_Q>
0

> <r_epik_Metal_State_Penalty>
0.252698

> <b_epik_Metal_Only>
0

> <s_lp_Force_Field>
OPLS_2005

> <r_lp_Energy>
13.4172

> <b_lp_Chiralities_Consistent>
1

> <s_lp_Variant>
AV-unprocessed.smi:2046-1

> <Gold.Version>
5.8.1

> <Gold.Id.Protein>
6NUR|6NUR_protein|mol2

> <Gold.PLP.Fitness>
32.4038

> <Gold.PLP.PLP>
-25.2627

> <Gold.PLP.part.hbond>
-3.0000

> <Gold.PLP.part.metal>
0.0000

> <Gold.PLP.part.buried>
-4.8758

> <Gold.PLP.part.nonpolar>
-20.3397

> <Gold.PLP.part.repulsive>
2.8539

> <Gold.PLP.ligand.clash>
0.0000

> <Gold.PLP.ligand.torsion>
0.5837

> <Gold.PLP.Chemscore.Hbond>
2.7520

> <Gold.PLP.Chemscore.CHOScore>
0.0000

> <Gold.PLP.Chemscore.Metal>
0.0000

> <Gold.Chemscore.Hbonds>
donor molecule, donor type, donor heavy atom, donor atom, acceptor molecule, acceptor atom, score
      L1  H     3    18       P1  7948  1.00
      L1  H     9    20       P1  7948  1.00
      L1  H    15    30       P1 10186  0.69

> <Gold.PLP.Chemscore.Internal.Correction>
0.0524

> <Gold.Rescore>
     Score         DG    S(hbond)    S(metal)    S(lipo)     H(rot)  DE(clash)    DE(int)     intcor
     17.79     -18.76       2.86        0.00      53.71       1.00       0.49       0.49       ----

> <Gold.Chemscore.Fitness>
17.7851

> <Gold.Chemscore.DG>
-18.7604

> <Gold.Chemscore.ZeroCoef>
-5.4800

> <Gold.Chemscore.Hbond>
2.8613

> <Gold.Chemscore.Metal>
0.0000

> <Gold.Chemscore.Lipo>
53.7063

> <Gold.Chemscore.Internal_Hbond>
0.0000

> <Gold.Chemscore.DEClash>
0.4898

> <Gold.Chemscore.DEInternal>
0.4856

> <Gold.Chemscore.Rot>
1.0000

> <Gold.Chemscore.Internal.Correction>
   9.000000E+99

> <Gold.Chemscore.Hbonds>
donor molecule, donor type, donor heavy atom, donor atom, acceptor molecule, acceptor atom, score
      L1  H     3    18       P1  7948  0.96
      L1  H     9    20       P1  7948  0.97
      L1  H    15    30       P1 10186  0.68

> <Gold.Chemscore.Hbond.Weighted>
-9.5568

> <Gold.Chemscore.Metal.Weighted>
-0.0000

> <Gold.Chemscore.Lipo.Weighted>
-6.2836

> <Gold.Chemscore.Internal_Hbond.Weighted>
0.0000

> <Gold.Chemscore.DEClash.Weighted>
0.4898

> <Gold.Chemscore.DEInternal.Weighted>
0.4856

> <Gold.Chemscore.Rot.Weighted>
2.5600

> <Gold.Chemscore.Internal.Correction.Weighted>
   9.000000E+99

> <Gold.Protein.RotatedTorsions>
[ 6907 6896 6895 6894 ] final -145.05 input  -60.11 | X-H torsion
[ 7974 7965 7964 7962 ] final  119.56 input  175.53 | X-H torsion
[ 8008 7997 7996 7995 ] final   -7.61 input   59.86 | X-H torsion
[ 10167 10162 10161 10158 ] final -106.85 input  -65.29 | X-H torsion
[ 10718 10713 10712 10709 ] final   98.31 input   66.30 | X-H torsion
[ 10763 10752 10751 10750 ] final    2.08 input  -60.55 | X-H torsion
[ 11005 11000 10999 10996 ] final    6.80 input  -57.11 | X-H torsion

> <Gold.Protein.ActiveResidues>
 VAL166  LYS551  ARG553  GLY616  TRP617  ASP618  TYR619  PRO620  LYS621  CYS622 
 ASP623  PHE694  ASN695  SER759  ASP760  ASP761  ALA762  ILE779  LEU786  VAL792 
 PHE793  MET794  SER795  GLU796  ALA797  LYS798  CYS799  TRP800  GLU811  SER814 

> <Gold.Protein.RotatedAtoms>
  151.1225  133.5094  159.2601 H   0  0  0  0  0  0  0  0  0  0  0  0  # atno 6907 bound_to 6896
  151.1846  135.0375  159.8817 H   0  0  0  0  0  0  0  0  0  0  0  0  # atno 6908 bound_to 6896
  152.5456  134.1073  159.8396 H   0  0  0  0  0  0  0  0  0  0  0  0  # atno 6909 bound_to 6896
  145.1417  139.3264  143.4612 H   0  0  0  0  0  0  0  0  0  0  0  0  # atno 7974 bound_to 7965
  154.5822  140.2402  155.8038 H   0  0  0  0  0  0  0  0  0  0  0  0  # atno 8008 bound_to 7997
  156.2187  140.3004  155.9857 H   0  0  0  0  0  0  0  0  0  0  0  0  # atno 8009 bound_to 7997
  155.2521  140.0411  157.2978 H   0  0  0  0  0  0  0  0  0  0  0  0  # atno 8010 bound_to 7997
  140.1833  143.3950  152.1264 H   0  0  0  0  0  0  0  0  0  0  0  0  # atno 10167 bound_to 10162
  157.6898  131.0636  150.4776 H   0  0  0  0  0  0  0  0  0  0  0  0  # atno 10718 bound_to 10713
  153.3000  135.6955  153.7212 H   0  0  0  0  0  0  0  0  0  0  0  0  # atno 10763 bound_to 10752
  153.6130  135.3441  155.2986 H   0  0  0  0  0  0  0  0  0  0  0  0  # atno 10764 bound_to 10752
  154.8548  135.4368  154.2108 H   0  0  0  0  0  0  0  0  0  0  0  0  # atno 10765 bound_to 10752
  140.5554  134.0243  155.7952 H   0  0  0  0  0  0  0  0  0  0  0  0  # atno 11005 bound_to 11000
  146.3504  140.1457  142.8593 LP  0  0  0  0  0  0  0  0  0  0  0  0  # atno 17320 bound_to 7965
  145.0525  140.9028  143.4987 LP  0  0  0  0  0  0  0  0  0  0  0  0  # atno 17321 bound_to 7965
  139.5287  144.7133  151.5135 LP  0  0  0  0  0  0  0  0  0  0  0  0  # atno 17342 bound_to 10162
  140.6505  143.8706  150.6781 LP  0  0  0  0  0  0  0  0  0  0  0  0  # atno 17343 bound_to 10162
  156.5110  130.4139  149.6301 LP  0  0  0  0  0  0  0  0  0  0  0  0  # atno 17370 bound_to 10713
  156.3241  130.7296  151.2213 LP  0  0  0  0  0  0  0  0  0  0  0  0  # atno 17371 bound_to 10713
  141.1146  133.9560  157.2846 LP  0  0  0  0  0  0  0  0  0  0  0  0  # atno 17394 bound_to 11000
  139.9434  135.0188  156.8778 LP  0  0  0  0  0  0  0  0  0  0  0  0  # atno 17395 bound_to 11000

$$$$
