AV-unprocessed.smi:342|AV-procd|sdf|2384|dock7
  -GOLD-   2262022313D 1   1.00000     0.00000
 Structure written by MMmdl.
 41 43  0  0  0  0  0  0  0  0  1 V2000
  149.6931  140.2611  157.6323 O   0  0  0  0  0  0  0  0  0  0  0  0
  150.6114  140.6008  156.6146 C   0  0  2  0  0  0  0  0  0  0  0  0
  150.1862  139.8853  155.3136 C   0  0  0  0  0  0  0  0  0  0  0  0
  148.8047  140.1181  154.8908 N   0  0  0  0  0  0  0  0  0  0  0  0
  148.5834  141.4832  154.4144 C   0  0  0  0  0  0  0  0  0  0  0  0
  147.1361  141.6981  153.9376 C   0  0  0  0  0  0  0  0  0  0  0  0
  146.8175  140.7490  152.9257 O   0  0  0  0  0  0  0  0  0  0  0  0
  146.9751  139.4048  153.3666 C   0  0  0  0  0  0  0  0  0  0  0  0
  148.4235  139.1853  153.8351 C   0  0  0  0  0  0  0  0  0  0  0  0
  152.0206  140.2071  157.1036 C   0  0  0  0  0  0  0  0  0  0  0  0
  152.3729  140.8295  158.3742 N   0  0  0  0  0  0  0  0  0  0  0  0
  152.9230  140.2567  159.4778 C   0  0  0  0  0  0  0  0  0  0  0  0
  153.2556  138.7915  159.5484 C   0  0  0  0  0  0  0  0  0  0  0  0
  153.8008  138.4827  160.7260 F   0  0  0  0  0  0  0  0  0  0  0  0
  152.1550  138.0533  159.4040 F   0  0  0  0  0  0  0  0  0  0  0  0
  154.1281  138.4550  158.5990 F   0  0  0  0  0  0  0  0  0  0  0  0
  153.1406  141.0819  160.5047 N   0  0  0  0  0  0  0  0  0  0  0  0
  152.6812  142.2936  160.0305 C   0  0  0  0  0  0  0  0  0  0  0  0
  152.6370  143.5635  160.6490 C   0  0  0  0  0  0  0  0  0  0  0  0
  152.1089  144.6748  159.9601 C   0  0  0  0  0  0  0  0  0  0  0  0
  151.6147  144.5312  158.6476 C   0  0  0  0  0  0  0  0  0  0  0  0
  151.6496  143.2744  158.0138 C   0  0  0  0  0  0  0  0  0  0  0  0
  152.1845  142.1690  158.7031 C   0  0  0  0  0  0  0  0  0  0  0  0
  150.1429  140.3017  158.4629 H   0  0  0  0  0  0  0  0  0  0  0  0
  150.5818  141.6810  156.4883 H   0  0  0  0  0  0  0  0  0  0  0  0
  150.8492  140.1770  154.4983 H   0  0  0  0  0  0  0  0  0  0  0  0
  150.3464  138.8152  155.4527 H   0  0  0  0  0  0  0  0  0  0  0  0
  148.7952  142.2044  155.2021 H   0  0  0  0  0  0  0  0  0  0  0  0
  149.2690  141.7057  153.5950 H   0  0  0  0  0  0  0  0  0  0  0  0
  146.4375  141.6008  154.7700 H   0  0  0  0  0  0  0  0  0  0  0  0
  147.0152  142.7033  153.5338 H   0  0  0  0  0  0  0  0  0  0  0  0
  146.2712  139.1925  154.1727 H   0  0  0  0  0  0  0  0  0  0  0  0
  146.7355  138.7294  152.5453 H   0  0  0  0  0  0  0  0  0  0  0  0
  149.0969  139.2943  152.9833 H   0  0  0  0  0  0  0  0  0  0  0  0
  148.5336  138.1598  154.1897 H   0  0  0  0  0  0  0  0  0  0  0  0
  152.0809  139.1257  157.2334 H   0  0  0  0  0  0  0  0  0  0  0  0
  152.7628  140.4619  156.3486 H   0  0  0  0  0  0  0  0  0  0  0  0
  153.0090  143.6825  161.6559 H   0  0  0  0  0  0  0  0  0  0  0  0
  152.0802  145.6412  160.4419 H   0  0  0  0  0  0  0  0  0  0  0  0
  151.2084  145.3866  158.1278 H   0  0  0  0  0  0  0  0  0  0  0  0
  151.2683  143.1637  157.0098 H   0  0  0  0  0  0  0  0  0  0  0  0
  1  2  1  0  0  0  0
  1 24  1  0  0  0  0
  2  3  1  0  0  0  0
  2 10  1  0  0  0  0
  2 25  1  0  0  0  0
  3  4  1  0  0  0  0
  3 26  1  0  0  0  0
  3 27  1  0  0  0  0
  4  9  1  0  0  0  0
  4  5  1  0  0  0  0
  5  6  1  0  0  0  0
  5 28  1  0  0  0  0
  5 29  1  0  0  0  0
  6  7  1  0  0  0  0
  6 30  1  0  0  0  0
  6 31  1  0  0  0  0
  7  8  1  0  0  0  0
  8  9  1  0  0  0  0
  8 32  1  0  0  0  0
  8 33  1  0  0  0  0
  9 34  1  0  0  0  0
  9 35  1  0  0  0  0
 10 11  1  0  0  0  0
 10 36  1  0  0  0  0
 10 37  1  0  0  0  0
 11 23  1  0  0  0  0
 11 12  1  0  0  0  0
 12 13  1  0  0  0  0
 12 17  2  0  0  0  0
 13 14  1  0  0  0  0
 13 15  1  0  0  0  0
 13 16  1  0  0  0  0
 17 18  1  0  0  0  0
 18 23  2  0  0  0  0
 18 19  1  0  0  0  0
 19 20  2  0  0  0  0
 19 38  1  0  0  0  0
 20 21  1  0  0  0  0
 20 39  1  0  0  0  0
 21 22  2  0  0  0  0
 21 40  1  0  0  0  0
 22 23  1  0  0  0  0
 22 41  1  0  0  0  0
M  END
> <s_m_source_file>
AV-unprocessed.smi

> <i_m_source_file_index>
342

> <i_lp_mmshare_version>
43012

> <i_f3d_flags>
0

> <s_epik_input>
W2NIXTFbY0hdW2NIXVtjSF1jKGMxMiluKGMobjIpQyhGKShGKUYpW0NIMl1bQ0BIXShbT0hdKVtDSDJdTjNbQ0gyXVtDSDJdT1tDSDJdW0NIMl0z

> <s_epik_cmdline>
J2VwaWtfcHl0aG9uJywgJy1waCcsICc3LjAnLCAnLXRuJywgJzgnLCAnLW1hJywgJzIwMCcsICctbWV0YWxfYmluZGluZycsICctaW1hZScsICc8aW5maWxlLm1hZT4nLCAnLW9tYWUnLCAnPG91dGZpbGUubWFlPic=

> <r_epik_Ionization_Penalty>
0.263195

> <r_epik_Ionization_Penalty_Charging>
0

> <r_epik_Ionization_Penalty_Neutral>
0.263195

> <r_epik_State_Penalty>
0.254683

> <r_epik_Charging_Adjusted_Penalty>
0.254683

> <i_epik_Tot_Q>
0

> <i_epik_Tot_abs_Q>
0

> <r_epik_Metal_State_Penalty>
0.254691

> <b_epik_Metal_Only>
0

> <s_lp_Force_Field>
OPLS_2005

> <r_lp_Energy>
34.5918

> <b_lp_Chiralities_Consistent>
1

> <s_lp_Variant>
AV-unprocessed.smi:342-1

> <Gold.Version>
5.8.1

> <Gold.Id.Protein>
6NUR|6NUR_protein|mol2

> <Gold.PLP.Fitness>
44.9177

> <Gold.PLP.PLP>
-45.3483

> <Gold.PLP.part.hbond>
0.0000

> <Gold.PLP.part.metal>
0.0000

> <Gold.PLP.part.buried>
-4.4259

> <Gold.PLP.part.nonpolar>
-41.1107

> <Gold.PLP.part.repulsive>
0.2945

> <Gold.PLP.ligand.clash>
0.0000

> <Gold.PLP.ligand.torsion>
0.2546

> <Gold.PLP.Chemscore.Hbond>
0.0000

> <Gold.PLP.Chemscore.CHOScore>
0.0000

> <Gold.PLP.Chemscore.Metal>
0.0000

> <Gold.PLP.Chemscore.Internal.Correction>
0.0786

> <Gold.Rescore>
     Score         DG    S(hbond)    S(metal)    S(lipo)     H(rot)  DE(clash)    DE(int)     intcor
     13.69     -13.98       0.00        0.00     121.69       2.24       0.07       0.22       ----

> <Gold.Chemscore.Fitness>
13.6915

> <Gold.Chemscore.DG>
-13.9774

> <Gold.Chemscore.ZeroCoef>
-5.4800

> <Gold.Chemscore.Hbond>
0.0000

> <Gold.Chemscore.Metal>
0.0000

> <Gold.Chemscore.Lipo>
121.6858

> <Gold.Chemscore.Internal_Hbond>
0.0000

> <Gold.Chemscore.DEClash>
0.0688

> <Gold.Chemscore.DEInternal>
0.2171

> <Gold.Chemscore.Rot>
2.2421

> <Gold.Chemscore.Internal.Correction>
   9.000000E+99

> <Gold.Chemscore.Hbond.Weighted>
-0.0000

> <Gold.Chemscore.Metal.Weighted>
-0.0000

> <Gold.Chemscore.Lipo.Weighted>
-14.2372

> <Gold.Chemscore.Internal_Hbond.Weighted>
0.0000

> <Gold.Chemscore.DEClash.Weighted>
0.0688

> <Gold.Chemscore.DEInternal.Weighted>
0.2171

> <Gold.Chemscore.Rot.Weighted>
5.7399

> <Gold.Chemscore.Internal.Correction.Weighted>
   9.000000E+99

> <Gold.Protein.RotatedTorsions>
[ 6907 6896 6895 6894 ] final  131.21 input  -60.11 | X-H torsion
[ 7974 7965 7964 7962 ] final  -14.16 input  175.53 | X-H torsion
[ 8008 7997 7996 7995 ] final -168.78 input   59.86 | X-H torsion
[ 10167 10162 10161 10158 ] final  -95.18 input  -65.29 | X-H torsion
[ 10718 10713 10712 10709 ] final  117.37 input   66.30 | X-H torsion
[ 10763 10752 10751 10750 ] final   97.53 input  -60.55 | X-H torsion
[ 11005 11000 10999 10996 ] final  126.72 input  -57.11 | X-H torsion

> <Gold.Protein.ActiveResidues>
 VAL166  LYS551  ARG553  GLY616  TRP617  ASP618  TYR619  PRO620  LYS621  CYS622 
 ASP623  PHE694  ASN695  SER759  ASP760  ASP761  ALA762  ILE779  LEU786  VAL792 
 PHE793  MET794  SER795  GLU796  ALA797  LYS798  CYS799  TRP800  GLU811  SER814 

> <Gold.Protein.RotatedAtoms>
  152.3448  133.6110  159.5902 H   0  0  0  0  0  0  0  0  0  0  0  0  # atno 6907 bound_to 6896
  150.7501  133.9665  159.3541 H   0  0  0  0  0  0  0  0  0  0  0  0  # atno 6908 bound_to 6896
  151.7525  135.0830  160.0384 H   0  0  0  0  0  0  0  0  0  0  0  0  # atno 6909 bound_to 6896
  146.2085  140.3308  142.8399 H   0  0  0  0  0  0  0  0  0  0  0  0  # atno 7974 bound_to 7965
  155.8960  140.1033  157.1384 H   0  0  0  0  0  0  0  0  0  0  0  0  # atno 8008 bound_to 7997
  154.4020  140.1301  156.4440 H   0  0  0  0  0  0  0  0  0  0  0  0  # atno 8009 bound_to 7997
  155.7478  140.3465  155.5138 H   0  0  0  0  0  0  0  0  0  0  0  0  # atno 8010 bound_to 7997
  140.3068  143.3129  152.0191 H   0  0  0  0  0  0  0  0  0  0  0  0  # atno 10167 bound_to 10162
  157.6100  131.1036  150.7606 H   0  0  0  0  0  0  0  0  0  0  0  0  # atno 10718 bound_to 10713
  153.2780  135.4180  155.1052 H   0  0  0  0  0  0  0  0  0  0  0  0  # atno 10763 bound_to 10752
  154.8479  135.3488  154.6151 H   0  0  0  0  0  0  0  0  0  0  0  0  # atno 10764 bound_to 10752
  153.6571  135.7050  153.5247 H   0  0  0  0  0  0  0  0  0  0  0  0  # atno 10765 bound_to 10752
  139.9471  134.9628  156.8749 H   0  0  0  0  0  0  0  0  0  0  0  0  # atno 11005 bound_to 11000
  144.8853  140.7454  143.5960 LP  0  0  0  0  0  0  0  0  0  0  0  0  # atno 17320 bound_to 7965
  145.3229  139.1783  143.4578 LP  0  0  0  0  0  0  0  0  0  0  0  0  # atno 17321 bound_to 7965
  139.4902  144.6415  151.6867 LP  0  0  0  0  0  0  0  0  0  0  0  0  # atno 17342 bound_to 10162
  140.5603  144.0279  150.6167 LP  0  0  0  0  0  0  0  0  0  0  0  0  # atno 17343 bound_to 10162
  156.7985  130.4913  149.5373 LP  0  0  0  0  0  0  0  0  0  0  0  0  # atno 17370 bound_to 10713
  156.1200  130.6103  151.0179 LP  0  0  0  0  0  0  0  0  0  0  0  0  # atno 17371 bound_to 10713
  140.5809  134.0353  155.7464 LP  0  0  0  0  0  0  0  0  0  0  0  0  # atno 17394 bound_to 11000
  141.1124  133.9595  157.2886 LP  0  0  0  0  0  0  0  0  0  0  0  0  # atno 17395 bound_to 11000

$$$$
