AV-unprocessed.smi:342|AV-procd|sdf|2387|dock1
  -GOLD-   2262022313D 1   1.00000     0.00000
 Structure written by MMmdl.
 42 44  0  0  0  0  0  0  0  0  2 V2000
  151.5992  139.9096  154.9812 O   0  0  0  0  0  0  0  0  0  0  0  0
  151.0609  140.8220  155.9182 C   0  0  1  0  0  0  0  0  0  0  0  0
  149.7610  141.4108  155.3358 C   0  0  0  0  0  0  0  0  0  0  0  0
  148.9215  140.3878  154.6613 N   0  3  0  0  0  0  0  0  0  0  0  0
  148.3497  139.4050  155.6126 C   0  0  0  0  0  0  0  0  0  0  0  0
  147.5432  138.3337  154.8596 C   0  0  0  0  0  0  0  0  0  0  0  0
  146.5231  138.9591  154.0910 O   0  0  0  0  0  0  0  0  0  0  0  0
  147.0594  139.8415  153.1130 C   0  0  0  0  0  0  0  0  0  0  0  0
  147.8527  140.9622  153.8063 C   0  0  0  0  0  0  0  0  0  0  0  0
  150.8060  140.1031  157.2597 C   0  0  0  0  0  0  0  0  0  0  0  0
  151.6449  140.6015  158.3428 N   0  0  0  0  0  0  0  0  0  0  0  0
  152.4481  139.8941  159.1809 C   0  0  0  0  0  0  0  0  0  0  0  0
  152.6092  138.4018  159.0762 C   0  0  0  0  0  0  0  0  0  0  0  0
  151.4296  137.7869  159.1729 F   0  0  0  0  0  0  0  0  0  0  0  0
  153.1485  138.0580  157.9072 F   0  0  0  0  0  0  0  0  0  0  0  0
  153.3892  137.9475  160.0570 F   0  0  0  0  0  0  0  0  0  0  0  0
  153.1136  140.6171  160.0846 N   0  0  0  0  0  0  0  0  0  0  0  0
  152.7124  141.9078  159.8050 C   0  0  0  0  0  0  0  0  0  0  0  0
  153.0686  143.1324  160.4138 C   0  0  0  0  0  0  0  0  0  0  0  0
  152.5257  144.3467  159.9455 C   0  0  0  0  0  0  0  0  0  0  0  0
  151.6218  144.3538  158.8636 C   0  0  0  0  0  0  0  0  0  0  0  0
  151.2539  143.1445  158.2433 C   0  0  0  0  0  0  0  0  0  0  0  0
  151.7966  141.9342  158.7162 C   0  0  0  0  0  0  0  0  0  0  0  0
  151.8375  139.1157  155.4369 H   0  0  0  0  0  0  0  0  0  0  0  0
  151.7953  141.6097  156.0747 H   0  0  0  0  0  0  0  0  0  0  0  0
  149.1963  141.8717  156.1482 H   0  0  0  0  0  0  0  0  0  0  0  0
  149.9844  142.2122  154.6297 H   0  0  0  0  0  0  0  0  0  0  0  0
  149.1500  138.9276  156.1794 H   0  0  0  0  0  0  0  0  0  0  0  0
  147.7092  139.9198  156.3309 H   0  0  0  0  0  0  0  0  0  0  0  0
  148.1913  137.7396  154.2131 H   0  0  0  0  0  0  0  0  0  0  0  0
  147.0811  137.6446  155.5668 H   0  0  0  0  0  0  0  0  0  0  0  0
  147.6916  139.2903  152.4148 H   0  0  0  0  0  0  0  0  0  0  0  0
  146.2395  140.2659  152.5332 H   0  0  0  0  0  0  0  0  0  0  0  0
  147.1810  141.5683  154.4164 H   0  0  0  0  0  0  0  0  0  0  0  0
  148.2778  141.6210  153.0499 H   0  0  0  0  0  0  0  0  0  0  0  0
  149.7601  140.2054  157.5472 H   0  0  0  0  0  0  0  0  0  0  0  0
  150.9807  139.0316  157.1533 H   0  0  0  0  0  0  0  0  0  0  0  0
  153.7624  143.1380  161.2415 H   0  0  0  0  0  0  0  0  0  0  0  0
  152.8056  145.2771  160.4175 H   0  0  0  0  0  0  0  0  0  0  0  0
  151.2117  145.2886  158.5098 H   0  0  0  0  0  0  0  0  0  0  0  0
  150.5621  143.1490  157.4143 H   0  0  0  0  0  0  0  0  0  0  0  0
  149.5412  139.8671  154.0562 H   0  0  0  0  0  0  0  0  0  0  0  0
  1  2  1  0  0  0  0
  1 24  1  0  0  0  0
  2  3  1  0  0  0  0
  2 10  1  0  0  0  0
  2 25  1  0  0  0  0
  3  4  1  0  0  0  0
  3 26  1  0  0  0  0
  3 27  1  0  0  0  0
  4  9  1  0  0  0  0
  4  5  1  0  0  0  0
  4 42  1  0  0  0  0
  5  6  1  0  0  0  0
  5 28  1  0  0  0  0
  5 29  1  0  0  0  0
  6  7  1  0  0  0  0
  6 30  1  0  0  0  0
  6 31  1  0  0  0  0
  7  8  1  0  0  0  0
  8  9  1  0  0  0  0
  8 32  1  0  0  0  0
  8 33  1  0  0  0  0
  9 34  1  0  0  0  0
  9 35  1  0  0  0  0
 10 11  1  0  0  0  0
 10 36  1  0  0  0  0
 10 37  1  0  0  0  0
 11 23  1  0  0  0  0
 11 12  1  0  0  0  0
 12 13  1  0  0  0  0
 12 17  2  0  0  0  0
 13 14  1  0  0  0  0
 13 15  1  0  0  0  0
 13 16  1  0  0  0  0
 17 18  1  0  0  0  0
 18 23  2  0  0  0  0
 18 19  1  0  0  0  0
 19 20  2  0  0  0  0
 19 38  1  0  0  0  0
 20 21  1  0  0  0  0
 20 39  1  0  0  0  0
 21 22  2  0  0  0  0
 21 40  1  0  0  0  0
 22 23  1  0  0  0  0
 22 41  1  0  0  0  0
M  CHG  1   4   1
M  END
> <s_m_source_file>
AV-unprocessed.smi

> <i_m_source_file_index>
342

> <i_lp_mmshare_version>
43012

> <i_f3d_flags>
0

> <s_epik_input>
W2NIXTFbY0hdW2NIXVtjSF1jKGMxMiluKGMobjIpQyhGKShGKUYpW0NIMl1bQ0BIXShbT0hdKVtDSDJdTjNbQ0gyXVtDSDJdT1tDSDJdW0NIMl0z

> <s_epik_cmdline>
J2VwaWtfcHl0aG9uJywgJy1waCcsICc3LjAnLCAnLXRuJywgJzgnLCAnLW1hJywgJzIwMCcsICctbWV0YWxfYmluZGluZycsICctaW1hZScsICc8aW5maWxlLm1hZT4nLCAnLW9tYWUnLCAnPG91dGZpbGUubWFlPic=

> <r_epik_Ionization_Penalty>
0.608409

> <r_epik_Ionization_Penalty_Charging>
0.608065

> <r_epik_Ionization_Penalty_Neutral>
0.000344684

> <r_epik_State_Penalty>
0.623026

> <r_epik_Charging_Adjusted_Penalty>
1.23109

> <i_epik_Tot_Q>
1

> <i_epik_Tot_abs_Q>
1

> <r_epik_Metal_State_Penalty>
0.623013

> <b_epik_Metal_Only>
0

> <s_lp_Force_Field>
OPLS_2005

> <r_lp_Energy>
25.6933

> <b_lp_Chiralities_Consistent>
1

> <s_lp_Variant>
AV-unprocessed.smi:342-4

> <Gold.Version>
5.8.1

> <Gold.Id.Protein>
6NUR|6NUR_protein|mol2

> <Gold.PLP.Fitness>
45.1395

> <Gold.PLP.PLP>
-44.2096

> <Gold.PLP.part.hbond>
-1.0000

> <Gold.PLP.part.metal>
0.0000

> <Gold.PLP.part.buried>
-6.4077

> <Gold.PLP.part.nonpolar>
-36.7557

> <Gold.PLP.part.repulsive>
0.2636

> <Gold.PLP.ligand.clash>
0.0000

> <Gold.PLP.ligand.torsion>
1.0787

> <Gold.PLP.Chemscore.Hbond>
1.0000

> <Gold.PLP.Chemscore.CHOScore>
0.0000

> <Gold.PLP.Chemscore.Metal>
0.0000

> <Gold.Chemscore.Hbonds>
donor molecule, donor type, donor heavy atom, donor atom, acceptor molecule, acceptor atom, score
      P1  H  7989  7998       L1     1  1.00

> <Gold.PLP.Chemscore.Internal.Correction>
0.0873

> <Gold.Rescore>
     Score         DG    S(hbond)    S(metal)    S(lipo)     H(rot)  DE(clash)    DE(int)     intcor
     13.86     -14.97       0.93        0.00     105.31       2.32       0.01       1.10       ----

> <Gold.Chemscore.Fitness>
13.8563

> <Gold.Chemscore.DG>
-14.9699

> <Gold.Chemscore.ZeroCoef>
-5.4800

> <Gold.Chemscore.Hbond>
0.9310

> <Gold.Chemscore.Metal>
0.0000

> <Gold.Chemscore.Lipo>
105.3077

> <Gold.Chemscore.Internal_Hbond>
0.0000

> <Gold.Chemscore.DEClash>
0.0126

> <Gold.Chemscore.DEInternal>
1.1009

> <Gold.Chemscore.Rot>
2.3206

> <Gold.Chemscore.Internal.Correction>
   9.000000E+99

> <Gold.Chemscore.Hbonds>
donor molecule, donor type, donor heavy atom, donor atom, acceptor molecule, acceptor atom, score
      P1  H  7989  7998       L1     1  0.39

> <Gold.Chemscore.Hbond.Weighted>
-3.1096

> <Gold.Chemscore.Metal.Weighted>
-0.0000

> <Gold.Chemscore.Lipo.Weighted>
-12.3210

> <Gold.Chemscore.Internal_Hbond.Weighted>
0.0000

> <Gold.Chemscore.DEClash.Weighted>
0.0126

> <Gold.Chemscore.DEInternal.Weighted>
1.1009

> <Gold.Chemscore.Rot.Weighted>
5.9407

> <Gold.Chemscore.Internal.Correction.Weighted>
   9.000000E+99

> <Gold.Protein.RotatedTorsions>
[ 6907 6896 6895 6894 ] final  -45.83 input  -60.11 | X-H torsion
[ 7974 7965 7964 7962 ] final  -93.04 input  175.53 | X-H torsion
[ 8008 7997 7996 7995 ] final  -89.98 input   59.86 | X-H torsion
[ 10167 10162 10161 10158 ] final  -71.63 input  -65.29 | X-H torsion
[ 10718 10713 10712 10709 ] final  -48.84 input   66.30 | X-H torsion
[ 10763 10752 10751 10750 ] final   17.08 input  -60.55 | X-H torsion
[ 11005 11000 10999 10996 ] final  -17.56 input  -57.11 | X-H torsion

> <Gold.Protein.ActiveResidues>
 VAL166  LYS551  ARG553  GLY616  TRP617  ASP618  TYR619  PRO620  LYS621  CYS622 
 ASP623  PHE694  ASN695  SER759  ASP760  ASP761  ALA762  ILE779  LEU786  VAL792 
 PHE793  MET794  SER795  GLU796  ALA797  LYS798  CYS799  TRP800  GLU811  SER814 

> <Gold.Protein.RotatedAtoms>
  150.9178  134.8595  159.7468 H   0  0  0  0  0  0  0  0  0  0  0  0  # atno 6907 bound_to 6896
  152.4977  134.4263  159.9507 H   0  0  0  0  0  0  0  0  0  0  0  0  # atno 6908 bound_to 6896
  151.4300  133.3633  159.2802 H   0  0  0  0  0  0  0  0  0  0  0  0  # atno 6909 bound_to 6896
  145.3918  140.9529  143.2336 H   0  0  0  0  0  0  0  0  0  0  0  0  # atno 7974 bound_to 7965
  154.6930  140.0535  157.0383 H   0  0  0  0  0  0  0  0  0  0  0  0  # atno 8008 bound_to 7997
  155.0790  140.3207  155.4588 H   0  0  0  0  0  0  0  0  0  0  0  0  # atno 8009 bound_to 7997
  156.2735  140.2068  156.5917 H   0  0  0  0  0  0  0  0  0  0  0  0  # atno 8010 bound_to 7997
  140.5258  143.2326  151.7350 H   0  0  0  0  0  0  0  0  0  0  0  0  # atno 10167 bound_to 10162
  156.1950  130.4154  149.9319 H   0  0  0  0  0  0  0  0  0  0  0  0  # atno 10718 bound_to 10713
  153.1372  135.6752  153.9085 H   0  0  0  0  0  0  0  0  0  0  0  0  # atno 10763 bound_to 10752
  153.8553  135.3088  155.3436 H   0  0  0  0  0  0  0  0  0  0  0  0  # atno 10764 bound_to 10752
  154.7757  135.4915  153.9822 H   0  0  0  0  0  0  0  0  0  0  0  0  # atno 10765 bound_to 10752
  140.8181  133.8089  155.9631 H   0  0  0  0  0  0  0  0  0  0  0  0  # atno 11005 bound_to 11000
  144.8435  139.5434  143.6889 LP  0  0  0  0  0  0  0  0  0  0  0  0  # atno 17320 bound_to 7965
  146.2794  139.6837  142.9240 LP  0  0  0  0  0  0  0  0  0  0  0  0  # atno 17321 bound_to 7965
  139.4938  144.4188  152.0000 LP  0  0  0  0  0  0  0  0  0  0  0  0  # atno 17342 bound_to 10162
  140.3287  144.3342  150.5992 LP  0  0  0  0  0  0  0  0  0  0  0  0  # atno 17343 bound_to 10162
  156.7047  130.8947  151.3603 LP  0  0  0  0  0  0  0  0  0  0  0  0  # atno 17370 bound_to 10713
  157.6952  130.9274  150.0624 LP  0  0  0  0  0  0  0  0  0  0  0  0  # atno 17371 bound_to 10713
  140.9128  134.2239  157.4975 LP  0  0  0  0  0  0  0  0  0  0  0  0  # atno 17394 bound_to 11000
  139.8710  134.9758  156.4896 LP  0  0  0  0  0  0  0  0  0  0  0  0  # atno 17395 bound_to 11000

$$$$
