AV-unprocessed.smi:14|AV-procd|sdf|77|dock7
  -GOLD-   2262015203D 1   1.00000     0.00000
 Structure written by MMmdl.
 57 60  0  0  0  0  0  0  0  0  1 V2000
  152.5104  136.7308  160.0412 N   0  0  0  0  0  0  0  0  0  0  0  0
  152.6533  137.6641  159.3727 C   0  0  0  0  0  0  0  0  0  0  0  0
  152.8351  138.8504  158.5224 C   0  0  0  0  0  0  0  0  0  0  0  0
  152.3555  140.1632  159.1664 C   0  0  0  0  0  0  0  0  0  0  0  0
  151.6636  141.0559  158.2375 N   0  0  0  0  0  0  0  0  0  0  0  0
  151.2493  142.3722  158.7289 C   0  0  0  0  0  0  0  0  0  0  0  0
  152.4113  143.3877  158.8146 C   0  0  2  0  0  0  0  0  0  0  0  0
  153.5231  142.9535  159.7547 C   0  0  0  0  0  0  0  0  0  0  0  0
  153.0162  143.4014  161.1245 C   0  0  0  0  0  0  0  0  0  0  0  0
  152.1026  144.4675  160.8814 O   0  0  0  0  0  0  0  0  0  0  0  0
  151.9787  144.6924  159.4816 C   0  0  0  0  0  0  0  0  0  0  0  0
  150.8654  140.4191  157.3430 C   0  0  0  0  0  0  0  0  0  0  0  0
  151.4057  139.8729  156.2210 N   0  0  0  0  0  0  0  0  0  0  0  0
  150.6253  139.2561  155.3290 C   0  0  0  0  0  0  0  0  0  0  0  0
  149.3030  139.0786  155.3592 N   0  0  0  0  0  0  0  0  0  0  0  0
  148.7550  139.6263  156.4816 C   0  0  0  0  0  0  0  0  0  0  0  0
  149.4583  140.3055  157.5160 C   0  0  0  0  0  0  0  0  0  0  0  0
  148.5715  140.7064  158.5073 N   0  0  0  0  0  0  0  0  0  0  0  0
  147.4100  140.2933  158.0806 C   0  0  0  0  0  0  0  0  0  0  0  0
  147.4239  139.6505  156.8627 N   0  0  0  0  0  0  0  0  0  0  0  0
  146.2785  139.0875  156.1613 C   0  0  0  0  0  0  0  0  0  0  0  0
  145.5927  140.0439  155.1346 C   0  0  0  0  0  0  0  0  0  0  0  0
  144.7933  139.1826  154.1175 C   0  0  0  0  0  0  0  0  0  0  0  0
  144.1092  139.9490  153.1457 O   0  0  0  0  0  0  0  0  0  0  0  0
  144.6372  140.9993  155.8959 C   0  0  0  0  0  0  0  0  0  0  0  0
  145.3902  142.0553  156.7284 C   0  0  0  0  0  0  0  0  0  0  0  0
  146.2888  142.7846  155.9011 O   0  0  0  0  0  0  0  0  0  0  0  0
  147.2858  141.9656  155.3026 C   0  0  0  0  0  0  0  0  0  0  0  0
  146.6225  140.9258  154.3819 C   0  0  0  0  0  0  0  0  0  0  0  0
  153.9011  138.9217  158.3058 H   0  0  0  0  0  0  0  0  0  0  0  0
  152.3334  138.6722  157.5710 H   0  0  0  0  0  0  0  0  0  0  0  0
  151.6913  139.9384  160.0015 H   0  0  0  0  0  0  0  0  0  0  0  0
  153.2081  140.6807  159.6047 H   0  0  0  0  0  0  0  0  0  0  0  0
  150.4643  142.7685  158.0839 H   0  0  0  0  0  0  0  0  0  0  0  0
  150.7933  142.2547  159.7125 H   0  0  0  0  0  0  0  0  0  0  0  0
  152.8024  143.5912  157.8176 H   0  0  0  0  0  0  0  0  0  0  0  0
  153.7490  141.8877  159.7120 H   0  0  0  0  0  0  0  0  0  0  0  0
  154.4382  143.4942  159.5089 H   0  0  0  0  0  0  0  0  0  0  0  0
  152.4805  142.5913  161.6203 H   0  0  0  0  0  0  0  0  0  0  0  0
  153.8292  143.7179  161.7784 H   0  0  0  0  0  0  0  0  0  0  0  0
  152.6565  145.4999  159.2016 H   0  0  0  0  0  0  0  0  0  0  0  0
  150.9671  144.9978  159.2125 H   0  0  0  0  0  0  0  0  0  0  0  0
  151.1331  138.8478  154.4677 H   0  0  0  0  0  0  0  0  0  0  0  0
  146.5036  140.4517  158.6463 H   0  0  0  0  0  0  0  0  0  0  0  0
  146.6107  138.1807  155.6540 H   0  0  0  0  0  0  0  0  0  0  0  0
  145.5757  138.7484  156.9204 H   0  0  0  0  0  0  0  0  0  0  0  0
  145.4548  138.5026  153.5812 H   0  0  0  0  0  0  0  0  0  0  0  0
  144.0592  138.5661  154.6374 H   0  0  0  0  0  0  0  0  0  0  0  0
  143.2595  139.5615  153.0010 H   0  0  0  0  0  0  0  0  0  0  0  0
  144.0015  141.5367  155.1917 H   0  0  0  0  0  0  0  0  0  0  0  0
  143.9605  140.4325  156.5362 H   0  0  0  0  0  0  0  0  0  0  0  0
  144.6781  142.7558  157.1648 H   0  0  0  0  0  0  0  0  0  0  0  0
  145.9284  141.6059  157.5628 H   0  0  0  0  0  0  0  0  0  0  0  0
  147.9531  142.6016  154.7210 H   0  0  0  0  0  0  0  0  0  0  0  0
  147.8982  141.4932  156.0710 H   0  0  0  0  0  0  0  0  0  0  0  0
  147.3792  140.3175  153.8881 H   0  0  0  0  0  0  0  0  0  0  0  0
  146.1242  141.4728  153.5811 H   0  0  0  0  0  0  0  0  0  0  0  0
  1  2  3  0  0  0  0
  2  3  1  0  0  0  0
  3  4  1  0  0  0  0
  3 30  1  0  0  0  0
  3 31  1  0  0  0  0
  4  5  1  0  0  0  0
  4 32  1  0  0  0  0
  4 33  1  0  0  0  0
  5  6  1  0  0  0  0
  5 12  1  0  0  0  0
  6  7  1  0  0  0  0
  6 34  1  0  0  0  0
  6 35  1  0  0  0  0
  7 11  1  0  0  0  0
  7  8  1  0  0  0  0
  7 36  1  0  0  0  0
  8  9  1  0  0  0  0
  8 37  1  0  0  0  0
  8 38  1  0  0  0  0
  9 10  1  0  0  0  0
  9 39  1  0  0  0  0
  9 40  1  0  0  0  0
 10 11  1  0  0  0  0
 11 41  1  0  0  0  0
 11 42  1  0  0  0  0
 12 17  1  0  0  0  0
 12 13  2  0  0  0  0
 13 14  1  0  0  0  0
 14 15  2  0  0  0  0
 14 43  1  0  0  0  0
 15 16  1  0  0  0  0
 16 20  1  0  0  0  0
 16 17  2  0  0  0  0
 17 18  1  0  0  0  0
 18 19  2  0  0  0  0
 19 20  1  0  0  0  0
 19 44  1  0  0  0  0
 20 21  1  0  0  0  0
 21 22  1  0  0  0  0
 21 45  1  0  0  0  0
 21 46  1  0  0  0  0
 22 29  1  0  0  0  0
 22 23  1  0  0  0  0
 22 25  1  0  0  0  0
 23 24  1  0  0  0  0
 23 47  1  0  0  0  0
 23 48  1  0  0  0  0
 24 49  1  0  0  0  0
 25 26  1  0  0  0  0
 25 50  1  0  0  0  0
 25 51  1  0  0  0  0
 26 27  1  0  0  0  0
 26 52  1  0  0  0  0
 26 53  1  0  0  0  0
 27 28  1  0  0  0  0
 28 29  1  0  0  0  0
 28 54  1  0  0  0  0
 28 55  1  0  0  0  0
 29 56  1  0  0  0  0
 29 57  1  0  0  0  0
M  END
> <s_m_source_file>
AV-unprocessed.smi

> <i_m_source_file_index>
14

> <i_lp_mmshare_version>
43012

> <i_f3d_flags>
0

> <s_epik_input>
W0NIMl0xT1tDSDJdW0NIMl1bQ0BIXTFbQ0gyXU4oW0NIMl1bQ0gyXUMjTiljKG5bY0hdbjIpYyhjMjMpbltjSF1uM1tDSDJdQzQoW0NIMl1bT0hdKVtDSDJdW0NIMl1PW0NIMl1bQ0gyXTQ=

> <s_epik_cmdline>
J2VwaWtfcHl0aG9uJywgJy1waCcsICc3LjAnLCAnLXRuJywgJzgnLCAnLW1hJywgJzIwMCcsICctbWV0YWxfYmluZGluZycsICctaW1hZScsICc8aW5maWxlLm1hZT4nLCAnLW9tYWUnLCAnPG91dGZpbGUubWFlPic=

> <r_lp_tautomer_probability>
1

> <r_epik_Ionization_Penalty>
0.000542547

> <r_epik_Ionization_Penalty_Charging>
0

> <r_epik_Ionization_Penalty_Neutral>
0.000542547

> <r_epik_State_Penalty>
0.000265709

> <r_epik_Charging_Adjusted_Penalty>
0.000265709

> <i_epik_Tot_Q>
0

> <i_epik_Tot_abs_Q>
0

> <r_epik_Metal_State_Penalty>
-0

> <b_epik_Metal_Only>
0

> <s_lp_Force_Field>
OPLS_2005

> <r_lp_Energy>
44.4286

> <b_lp_Chiralities_Consistent>
1

> <s_lp_Variant>
AV-unprocessed.smi:14-1

> <Gold.Version>
5.8.1

> <Gold.Id.Protein>
6NUR|6NUR_protein|mol2

> <Gold.PLP.Fitness>
50.5198

> <Gold.PLP.PLP>
-45.3576

> <Gold.PLP.part.hbond>
-4.0000

> <Gold.PLP.part.metal>
0.0000

> <Gold.PLP.part.buried>
0.1246

> <Gold.PLP.part.nonpolar>
-41.3741

> <Gold.PLP.part.repulsive>
1.0259

> <Gold.PLP.ligand.clash>
0.0000

> <Gold.PLP.ligand.torsion>
2.5413

> <Gold.PLP.Chemscore.Hbond>
3.0000

> <Gold.PLP.Chemscore.CHOScore>
0.0000

> <Gold.PLP.Chemscore.Metal>
0.0000

> <Gold.Chemscore.Hbonds>
donor molecule, donor type, donor heavy atom, donor atom, acceptor molecule, acceptor atom, score
      P1  H  6896  6908       L1     1  1.00

> <Gold.PLP.Chemscore.Internal.Correction>
1.2449

> <Gold.Rescore>
     Score         DG    S(hbond)    S(metal)    S(lipo)     H(rot)  DE(clash)    DE(int)     intcor
     11.67     -20.66       2.92        0.00     117.67       3.26       3.52       5.47       ----

> <Gold.Chemscore.Fitness>
11.6661

> <Gold.Chemscore.DG>
-20.6588

> <Gold.Chemscore.ZeroCoef>
-5.4800

> <Gold.Chemscore.Hbond>
2.9175

> <Gold.Chemscore.Metal>
0.0000

> <Gold.Chemscore.Lipo>
117.6749

> <Gold.Chemscore.Internal_Hbond>
0.0000

> <Gold.Chemscore.DEClash>
3.5192

> <Gold.Chemscore.DEInternal>
5.4735

> <Gold.Chemscore.Rot>
3.2553

> <Gold.Chemscore.Internal.Correction>
   9.000000E+99

> <Gold.Chemscore.Hbonds>
donor molecule, donor type, donor heavy atom, donor atom, acceptor molecule, acceptor atom, score
      P1  H  6896  6908       L1     1  1.00

> <Gold.Chemscore.Hbond.Weighted>
-9.7444

> <Gold.Chemscore.Metal.Weighted>
-0.0000

> <Gold.Chemscore.Lipo.Weighted>
-13.7680

> <Gold.Chemscore.Internal_Hbond.Weighted>
0.0000

> <Gold.Chemscore.DEClash.Weighted>
3.5192

> <Gold.Chemscore.DEInternal.Weighted>
5.4735

> <Gold.Chemscore.Rot.Weighted>
8.3336

> <Gold.Chemscore.Internal.Correction.Weighted>
   9.000000E+99

> <Gold.Protein.RotatedTorsions>
[ 6907 6896 6895 6894 ] final -103.62 input  -60.11 | X-H torsion
[ 7974 7965 7964 7962 ] final -123.77 input  175.53 | X-H torsion
[ 8008 7997 7996 7995 ] final   91.55 input   59.86 | X-H torsion
[ 10167 10162 10161 10158 ] final  -22.14 input  -65.29 | X-H torsion
[ 10718 10713 10712 10709 ] final -106.17 input   66.30 | X-H torsion
[ 10763 10752 10751 10750 ] final  -87.39 input  -60.55 | X-H torsion
[ 11005 11000 10999 10996 ] final  -73.33 input  -57.11 | X-H torsion

> <Gold.Protein.ActiveResidues>
 VAL166  LYS551  ARG553  GLY616  TRP617  ASP618  TYR619  PRO620  LYS621  CYS622 
 ASP623  PHE694  ASN695  SER759  ASP760  ASP761  ALA762  ILE779  LEU786  VAL792 
 PHE793  MET794  SER795  GLU796  ALA797  LYS798  CYS799  TRP800  GLU811  SER814 

> <Gold.Protein.RotatedAtoms>
  150.7249  134.0401  159.3762 H   0  0  0  0  0  0  0  0  0  0  0  0  # atno 6907 bound_to 6896
  151.8374  135.0599  160.0453 H   0  0  0  0  0  0  0  0  0  0  0  0  # atno 6908 bound_to 6896
  152.2888  133.5505  159.5580 H   0  0  0  0  0  0  0  0  0  0  0  0  # atno 6909 bound_to 6896
  145.0152  140.7940  143.4414 H   0  0  0  0  0  0  0  0  0  0  0  0  # atno 7974 bound_to 7965
  156.0250  140.3336  155.7079 H   0  0  0  0  0  0  0  0  0  0  0  0  # atno 8008 bound_to 7997
  155.5967  140.0651  157.2762 H   0  0  0  0  0  0  0  0  0  0  0  0  # atno 8009 bound_to 7997
  154.4331  140.1817  156.1119 H   0  0  0  0  0  0  0  0  0  0  0  0  # atno 8010 bound_to 7997
  140.7285  143.4562  151.0445 H   0  0  0  0  0  0  0  0  0  0  0  0  # atno 10167 bound_to 10162
  156.0378  130.5600  150.7643 H   0  0  0  0  0  0  0  0  0  0  0  0  # atno 10718 bound_to 10713
  154.6331  135.5415  153.7703 H   0  0  0  0  0  0  0  0  0  0  0  0  # atno 10763 bound_to 10752
  153.0294  135.6441  154.1271 H   0  0  0  0  0  0  0  0  0  0  0  0  # atno 10764 bound_to 10752
  154.1200  135.2921  155.3190 H   0  0  0  0  0  0  0  0  0  0  0  0  # atno 10765 bound_to 10752
  141.1621  133.6875  156.7195 H   0  0  0  0  0  0  0  0  0  0  0  0  # atno 11005 bound_to 11000
  145.1969  139.2272  143.5213 LP  0  0  0  0  0  0  0  0  0  0  0  0  # atno 17320 bound_to 7965
  146.3476  140.1778  142.8589 LP  0  0  0  0  0  0  0  0  0  0  0  0  # atno 17321 bound_to 7965
  139.8243  143.7778  152.3178 LP  0  0  0  0  0  0  0  0  0  0  0  0  # atno 17342 bound_to 10162
  139.7871  144.7424  151.0007 LP  0  0  0  0  0  0  0  0  0  0  0  0  # atno 17343 bound_to 10162
  157.5154  131.0928  151.0146 LP  0  0  0  0  0  0  0  0  0  0  0  0  # atno 17370 bound_to 10713
  157.0490  130.5779  149.5367 LP  0  0  0  0  0  0  0  0  0  0  0  0  # atno 17371 bound_to 10713
  140.2826  134.8304  157.3947 LP  0  0  0  0  0  0  0  0  0  0  0  0  # atno 17394 bound_to 11000
  140.1419  134.4961  155.8025 LP  0  0  0  0  0  0  0  0  0  0  0  0  # atno 17395 bound_to 11000

$$$$
