AV-unprocessed.smi:822|AV-procd|sdf|3842|dock1
  -GOLD-   22720 1283D 1   1.00000     0.00000
 Structure written by MMmdl.
 39 40  0  0  0  0  0  0  0  0  2 V2000
  151.4803  139.1520  158.2000 O   0  0  0  0  0  0  0  0  0  0  0  0
  151.5039  140.3342  157.8570 C   0  0  0  0  0  0  0  0  0  0  0  0
  152.5335  141.2941  158.4625 C   0  0  0  0  0  0  0  0  0  0  0  0
  151.9059  142.5007  159.1966 C   0  0  0  0  0  0  0  0  0  0  0  0
  151.8742  143.7384  158.2759 C   0  0  0  0  0  0  0  0  0  0  0  0
  151.2528  144.9580  158.9755 C   0  0  0  0  0  0  0  0  0  0  0  0
  151.9883  145.2828  160.2839 C   0  0  0  0  0  0  0  0  0  0  0  0
  152.0172  144.0623  161.2152 C   0  0  0  0  0  0  0  0  0  0  0  0
  152.6368  142.8407  160.5169 C   0  0  0  0  0  0  0  0  0  0  0  0
  150.6533  140.8569  156.9606 N   0  0  0  0  0  0  0  0  0  0  0  0
  149.6071  140.1127  156.2706 C   0  0  0  0  0  0  0  0  0  0  0  0
  149.5888  140.4320  154.7668 C   0  0  0  0  0  0  0  0  0  0  0  0
  148.2596  140.8477  154.3175 N   0  0  0  0  0  0  0  0  0  0  0  0
  147.6656  142.0711  154.4938 C   0  0  0  0  0  0  0  0  0  0  0  0
  146.4310  141.9940  153.9024 C   0  0  0  0  0  0  0  0  0  0  0  0
  146.3238  140.7281  153.3914 N   0  3  0  0  0  0  0  0  0  0  0  0
  147.4377  140.0327  153.6441 C   0  0  0  0  0  0  0  0  0  0  0  0
  153.1937  140.7517  159.1412 H   0  0  0  0  0  0  0  0  0  0  0  0
  153.1633  141.6494  157.6462 H   0  0  0  0  0  0  0  0  0  0  0  0
  150.8716  142.2516  159.4401 H   0  0  0  0  0  0  0  0  0  0  0  0
  152.8871  143.9838  157.9536 H   0  0  0  0  0  0  0  0  0  0  0  0
  151.3093  143.5149  157.3702 H   0  0  0  0  0  0  0  0  0  0  0  0
  151.2793  145.8215  158.3104 H   0  0  0  0  0  0  0  0  0  0  0  0
  150.2008  144.7617  159.1863 H   0  0  0  0  0  0  0  0  0  0  0  0
  153.0084  145.5987  160.0627 H   0  0  0  0  0  0  0  0  0  0  0  0
  151.5052  146.1223  160.7846 H   0  0  0  0  0  0  0  0  0  0  0  0
  152.5806  144.2984  162.1185 H   0  0  0  0  0  0  0  0  0  0  0  0
  151.0027  143.8239  161.5370 H   0  0  0  0  0  0  0  0  0  0  0  0
  152.6087  141.9921  161.2006 H   0  0  0  0  0  0  0  0  0  0  0  0
  153.6904  143.0358  160.3135 H   0  0  0  0  0  0  0  0  0  0  0  0
  150.7439  141.8374  156.7355 H   0  0  0  0  0  0  0  0  0  0  0  0
  149.7895  139.0485  156.4237 H   0  0  0  0  0  0  0  0  0  0  0  0
  148.6369  140.3288  156.7219 H   0  0  0  0  0  0  0  0  0  0  0  0
  150.2920  141.2306  154.5253 H   0  0  0  0  0  0  0  0  0  0  0  0
  149.8825  139.5584  154.1833 H   0  0  0  0  0  0  0  0  0  0  0  0
  148.1526  142.8841  155.0128 H   0  0  0  0  0  0  0  0  0  0  0  0
  145.6413  142.7256  153.8092 H   0  0  0  0  0  0  0  0  0  0  0  0
  147.6348  139.0143  153.3595 H   0  0  0  0  0  0  0  0  0  0  0  0
  145.5192  140.3675  152.8940 H   0  0  0  0  0  0  0  0  0  0  0  0
  1  2  2  0  0  0  0
  2  3  1  0  0  0  0
  2 10  1  0  0  0  0
  3  4  1  0  0  0  0
  3 18  1  0  0  0  0
  3 19  1  0  0  0  0
  4  9  1  0  0  0  0
  4  5  1  0  0  0  0
  4 20  1  0  0  0  0
  5  6  1  0  0  0  0
  5 21  1  0  0  0  0
  5 22  1  0  0  0  0
  6  7  1  0  0  0  0
  6 23  1  0  0  0  0
  6 24  1  0  0  0  0
  7  8  1  0  0  0  0
  7 25  1  0  0  0  0
  7 26  1  0  0  0  0
  8  9  1  0  0  0  0
  8 27  1  0  0  0  0
  8 28  1  0  0  0  0
  9 29  1  0  0  0  0
  9 30  1  0  0  0  0
 10 11  1  0  0  0  0
 10 31  1  0  0  0  0
 11 12  1  0  0  0  0
 11 32  1  0  0  0  0
 11 33  1  0  0  0  0
 12 13  1  0  0  0  0
 12 34  1  0  0  0  0
 12 35  1  0  0  0  0
 13 17  1  0  0  0  0
 13 14  1  0  0  0  0
 14 15  2  0  0  0  0
 14 36  1  0  0  0  0
 15 16  1  0  0  0  0
 15 37  1  0  0  0  0
 16 17  2  0  0  0  0
 16 39  1  0  0  0  0
 17 38  1  0  0  0  0
M  CHG  1  16   1
M  END
> <s_m_source_file>
AV-unprocessed.smi

> <i_m_source_file_index>
822

> <i_lp_mmshare_version>
43012

> <i_f3d_flags>
0

> <s_epik_input>
W0NIMl0xW0NIMl1bQ0gyXVtDSDJdW0NIMl1bQ0hdMVtDSDJdQyg9TylbTkhdW0NIMl1bQ0gyXW4yW2NIXVtjSF1uW2NIXTI=

> <s_epik_cmdline>
J2VwaWtfcHl0aG9uJywgJy1waCcsICc3LjAnLCAnLXRuJywgJzgnLCAnLW1hJywgJzIwMCcsICctbWV0YWxfYmluZGluZycsICctaW1hZScsICc8aW5maWxlLm1hZT4nLCAnLW9tYWUnLCAnPG91dGZpbGUubWFlPic=

> <r_lp_tautomer_probability>
1

> <r_epik_Ionization_Penalty>
0.267085

> <r_epik_Ionization_Penalty_Charging>
0

> <r_epik_Ionization_Penalty_Neutral>
0.267085

> <r_epik_State_Penalty>
0.259064

> <r_epik_Charging_Adjusted_Penalty>
0.259064

> <i_epik_Tot_Q>
1

> <i_epik_Tot_abs_Q>
1

> <r_epik_Metal_State_Penalty>
0.544959

> <b_epik_Metal_Only>
0

> <s_lp_Force_Field>
OPLS_2005

> <r_lp_Energy>
11.7187

> <b_lp_Chiralities_Consistent>
1

> <s_lp_Variant>
AV-unprocessed.smi:822-1

> <Gold.Version>
5.8.1

> <Gold.Id.Protein>
6NUR|6NUR_protein|mol2

> <Gold.PLP.Fitness>
47.5488

> <Gold.PLP.PLP>
-41.0475

> <Gold.PLP.part.hbond>
-1.0000

> <Gold.PLP.part.metal>
0.0000

> <Gold.PLP.part.buried>
-4.5237

> <Gold.PLP.part.nonpolar>
-36.0107

> <Gold.PLP.part.repulsive>
0.0640

> <Gold.PLP.ligand.clash>
0.0000

> <Gold.PLP.ligand.torsion>
1.2340

> <Gold.PLP.Chemscore.Hbond>
1.9840

> <Gold.PLP.Chemscore.CHOScore>
0.9911

> <Gold.PLP.Chemscore.Metal>
0.0000

> <Gold.Chemscore.Hbonds>
donor molecule, donor type, donor heavy atom, donor atom, acceptor molecule, acceptor atom, score
      L1  H    16    39       P1 10175  1.98
      L1  C    14    36       P1  8028  1.00

> <Gold.PLP.Chemscore.Internal.Correction>
0.0442

> <Gold.Rescore>
     Score         DG    S(hbond)    S(metal)    S(lipo)     H(rot)  DE(clash)    DE(int)     intcor
     14.53     -15.68       0.93        0.00     105.57       2.05       0.05       1.10       ----

> <Gold.Chemscore.Fitness>
14.5264

> <Gold.Chemscore.DG>
-15.6840

> <Gold.Chemscore.ZeroCoef>
-5.4800

> <Gold.Chemscore.Hbond>
0.9319

> <Gold.Chemscore.Metal>
0.0000

> <Gold.Chemscore.Lipo>
105.5654

> <Gold.Chemscore.Internal_Hbond>
0.0000

> <Gold.Chemscore.DEClash>
0.0544

> <Gold.Chemscore.DEInternal>
1.1032

> <Gold.Chemscore.Rot>
2.0546

> <Gold.Chemscore.Internal.Correction>
   9.000000E+99

> <Gold.Chemscore.Hbonds>
donor molecule, donor type, donor heavy atom, donor atom, acceptor molecule, acceptor atom, score
      L1  H    16    39       P1 10175  0.85

> <Gold.Chemscore.Hbond.Weighted>
-3.1126

> <Gold.Chemscore.Metal.Weighted>
-0.0000

> <Gold.Chemscore.Lipo.Weighted>
-12.3512

> <Gold.Chemscore.Internal_Hbond.Weighted>
0.0000

> <Gold.Chemscore.DEClash.Weighted>
0.0544

> <Gold.Chemscore.DEInternal.Weighted>
1.1032

> <Gold.Chemscore.Rot.Weighted>
5.2598

> <Gold.Chemscore.Internal.Correction.Weighted>
   9.000000E+99

> <Gold.Protein.RotatedTorsions>
[ 6907 6896 6895 6894 ] final -146.73 input  -60.11 | X-H torsion
[ 7974 7965 7964 7962 ] final  -77.12 input  175.53 | X-H torsion
[ 8008 7997 7996 7995 ] final  -27.24 input   59.86 | X-H torsion
[ 10167 10162 10161 10158 ] final   17.12 input  -65.29 | X-H torsion
[ 10718 10713 10712 10709 ] final -160.39 input   66.30 | X-H torsion
[ 10763 10752 10751 10750 ] final -146.23 input  -60.55 | X-H torsion
[ 11005 11000 10999 10996 ] final -156.73 input  -57.11 | X-H torsion

> <Gold.Protein.ActiveResidues>
 VAL166  LYS551  ARG553  GLY616  TRP617  ASP618  TYR619  PRO620  LYS621  CYS622 
 ASP623  PHE694  ASN695  SER759  ASP760  ASP761  ALA762  ILE779  LEU786  VAL792 
 PHE793  MET794  SER795  GLU796  ALA797  LYS798  CYS799  TRP800  GLU811  SER814 

> <Gold.Protein.RotatedAtoms>
  151.1457  133.4941  159.2595 H   0  0  0  0  0  0  0  0  0  0  0  0  # atno 6907 bound_to 6896
  151.1607  135.0272  159.8719 H   0  0  0  0  0  0  0  0  0  0  0  0  # atno 6908 bound_to 6896
  152.5463  134.1331  159.8500 H   0  0  0  0  0  0  0  0  0  0  0  0  # atno 6909 bound_to 6896
  145.6038  140.9402  143.1226 H   0  0  0  0  0  0  0  0  0  0  0  0  # atno 7974 bound_to 7965
  154.4386  140.1877  156.0901 H   0  0  0  0  0  0  0  0  0  0  0  0  # atno 8008 bound_to 7997
  156.0372  140.3324  155.7178 H   0  0  0  0  0  0  0  0  0  0  0  0  # atno 8009 bound_to 7997
  155.5753  140.0616  157.2787 H   0  0  0  0  0  0  0  0  0  0  0  0  # atno 8010 bound_to 7997
  140.5748  143.9093  150.6741 H   0  0  0  0  0  0  0  0  0  0  0  0  # atno 10167 bound_to 10162
  156.5815  130.8731  151.2866 H   0  0  0  0  0  0  0  0  0  0  0  0  # atno 10718 bound_to 10713
  154.8346  135.3392  154.6629 H   0  0  0  0  0  0  0  0  0  0  0  0  # atno 10763 bound_to 10752
  153.7245  135.6956  153.5009 H   0  0  0  0  0  0  0  0  0  0  0  0  # atno 10764 bound_to 10752
  153.2357  135.4401  155.0596 H   0  0  0  0  0  0  0  0  0  0  0  0  # atno 10765 bound_to 10752
  140.6724  134.4233  157.5231 H   0  0  0  0  0  0  0  0  0  0  0  0  # atno 11005 bound_to 11000
  144.7298  139.7760  143.7351 LP  0  0  0  0  0  0  0  0  0  0  0  0  # atno 17320 bound_to 7965
  146.1556  139.4653  143.0021 LP  0  0  0  0  0  0  0  0  0  0  0  0  # atno 17321 bound_to 7965
  140.2577  143.3546  152.1350 LP  0  0  0  0  0  0  0  0  0  0  0  0  # atno 17342 bound_to 10162
  139.5137  144.6936  151.5691 LP  0  0  0  0  0  0  0  0  0  0  0  0  # atno 17343 bound_to 10162
  157.7325  130.9716  150.1933 LP  0  0  0  0  0  0  0  0  0  0  0  0  # atno 17370 bound_to 10713
  156.2627  130.3712  149.8113 LP  0  0  0  0  0  0  0  0  0  0  0  0  # atno 17371 bound_to 10713
  139.8977  134.8629  156.2031 LP  0  0  0  0  0  0  0  0  0  0  0  0  # atno 17394 bound_to 11000
  141.0382  133.6952  156.1550 LP  0  0  0  0  0  0  0  0  0  0  0  0  # atno 17395 bound_to 11000

$$$$
