AV-unprocessed.smi:2627|AV-procd|sdf|10240|dock2
  -GOLD-   2272014243D 1   1.00000     0.00000
 Structure written by MMmdl.
 39 41  0  0  0  0  0  0  0  0  1 V2000
  150.9956  136.2818  155.7982 C   0  0  0  0  0  0  0  0  0  0  0  0
  151.5483  137.5139  155.0675 C   0  0  1  0  0  0  0  0  0  0  0  0
  152.1913  137.0850  153.8857 O   0  0  0  0  0  0  0  0  0  0  0  0
  150.4753  138.5293  154.7821 C   0  0  0  0  0  0  0  0  0  0  0  0
  149.3761  138.1963  154.1004 N   0  0  0  0  0  0  0  0  0  0  0  0
  148.6641  139.3776  154.0647 C   0  0  0  0  0  0  0  0  0  0  0  0
  147.4052  139.6740  153.4951 C   0  0  0  0  0  0  0  0  0  0  0  0
  146.8692  140.9750  153.5863 C   0  0  0  0  0  0  0  0  0  0  0  0
  147.5832  141.9959  154.2465 C   0  0  0  0  0  0  0  0  0  0  0  0
  148.8401  141.7215  154.8189 C   0  0  0  0  0  0  0  0  0  0  0  0
  149.3710  140.4206  154.7254 C   0  0  0  0  0  0  0  0  0  0  0  0
  150.5538  139.8326  155.1651 N   0  0  0  0  0  0  0  0  0  0  0  0
  151.6191  140.5258  155.8782 C   0  0  0  0  0  0  0  0  0  0  0  0
  151.1230  141.2030  157.1635 C   0  0  0  0  0  0  0  0  0  0  0  0
  152.1835  141.2959  158.1049 O   0  0  0  0  0  0  0  0  0  0  0  0
  152.1666  142.3401  159.0049 C   0  0  0  0  0  0  0  0  0  0  0  0
  152.7635  142.1132  160.2628 C   0  0  0  0  0  0  0  0  0  0  0  0
  152.7898  143.1244  161.2425 C   0  0  0  0  0  0  0  0  0  0  0  0
  152.2173  144.3808  160.9719 C   0  0  0  0  0  0  0  0  0  0  0  0
  151.6195  144.6223  159.7210 C   0  0  0  0  0  0  0  0  0  0  0  0
  151.5918  143.6099  158.7417 C   0  0  0  0  0  0  0  0  0  0  0  0
  150.4979  136.5676  156.7244 H   0  0  0  0  0  0  0  0  0  0  0  0
  151.7940  135.5842  156.0524 H   0  0  0  0  0  0  0  0  0  0  0  0
  150.2683  135.7464  155.1871 H   0  0  0  0  0  0  0  0  0  0  0  0
  152.3197  137.9482  155.6988 H   0  0  0  0  0  0  0  0  0  0  0  0
  151.5267  136.8250  153.2659 H   0  0  0  0  0  0  0  0  0  0  0  0
  146.8506  138.8984  152.9877 H   0  0  0  0  0  0  0  0  0  0  0  0
  145.9057  141.1906  153.1482 H   0  0  0  0  0  0  0  0  0  0  0  0
  147.1656  142.9897  154.3128 H   0  0  0  0  0  0  0  0  0  0  0  0
  149.3881  142.5021  155.3250 H   0  0  0  0  0  0  0  0  0  0  0  0
  152.4402  139.8405  156.0842 H   0  0  0  0  0  0  0  0  0  0  0  0
  152.0356  141.2826  155.2129 H   0  0  0  0  0  0  0  0  0  0  0  0
  150.7534  142.2005  156.9213 H   0  0  0  0  0  0  0  0  0  0  0  0
  150.2937  140.6293  157.5807 H   0  0  0  0  0  0  0  0  0  0  0  0
  153.2104  141.1542  160.4794 H   0  0  0  0  0  0  0  0  0  0  0  0
  153.2509  142.9360  162.2009 H   0  0  0  0  0  0  0  0  0  0  0  0
  152.2372  145.1578  161.7218 H   0  0  0  0  0  0  0  0  0  0  0  0
  151.1803  145.5866  159.5118 H   0  0  0  0  0  0  0  0  0  0  0  0
  151.1220  143.8332  157.7959 H   0  0  0  0  0  0  0  0  0  0  0  0
  1  2  1  0  0  0  0
  1 22  1  0  0  0  0
  1 23  1  0  0  0  0
  1 24  1  0  0  0  0
  2  3  1  0  0  0  0
  2  4  1  0  0  0  0
  2 25  1  0  0  0  0
  3 26  1  0  0  0  0
  4 12  1  0  0  0  0
  4  5  2  0  0  0  0
  5  6  1  0  0  0  0
  6 11  2  0  0  0  0
  6  7  1  0  0  0  0
  7  8  2  0  0  0  0
  7 27  1  0  0  0  0
  8  9  1  0  0  0  0
  8 28  1  0  0  0  0
  9 10  2  0  0  0  0
  9 29  1  0  0  0  0
 10 11  1  0  0  0  0
 10 30  1  0  0  0  0
 11 12  1  0  0  0  0
 12 13  1  0  0  0  0
 13 14  1  0  0  0  0
 13 31  1  0  0  0  0
 13 32  1  0  0  0  0
 14 15  1  0  0  0  0
 14 33  1  0  0  0  0
 14 34  1  0  0  0  0
 15 16  1  0  0  0  0
 16 21  1  0  0  0  0
 16 17  2  0  0  0  0
 17 18  1  0  0  0  0
 17 35  1  0  0  0  0
 18 19  2  0  0  0  0
 18 36  1  0  0  0  0
 19 20  1  0  0  0  0
 19 37  1  0  0  0  0
 20 21  2  0  0  0  0
 20 38  1  0  0  0  0
 21 39  1  0  0  0  0
M  END
> <s_m_source_file>
AV-unprocessed.smi

> <i_m_source_file_index>
2627

> <i_lp_mmshare_version>
43012

> <i_f3d_flags>
0

> <s_epik_input>
W2NIXTFbY0hdW2NIXVtjSF1jKGMxMiluKGMobjIpW0NASF0oW0NIM10pW09IXSlbQ0gyXVtDSDJdT2MzW2NIXVtjSF1bY0hdW2NIXVtjSF0z

> <s_epik_cmdline>
J2VwaWtfcHl0aG9uJywgJy1waCcsICc3LjAnLCAnLXRuJywgJzgnLCAnLW1hJywgJzIwMCcsICctbWV0YWxfYmluZGluZycsICctaW1hZScsICc8aW5maWxlLm1hZT4nLCAnLW9tYWUnLCAnPG91dGZpbGUubWFlPic=

> <r_lp_tautomer_probability>
1

> <r_epik_Ionization_Penalty>
0.0472514

> <r_epik_Ionization_Penalty_Charging>
0

> <r_epik_Ionization_Penalty_Neutral>
0.0472514

> <r_epik_State_Penalty>
0.040225

> <r_epik_Charging_Adjusted_Penalty>
0.040225

> <i_epik_Tot_Q>
0

> <i_epik_Tot_abs_Q>
0

> <r_epik_Metal_State_Penalty>
4.16204e-05

> <b_epik_Metal_Only>
0

> <s_lp_Force_Field>
OPLS_2005

> <r_lp_Energy>
14.021

> <b_lp_Chiralities_Consistent>
1

> <s_lp_Variant>
AV-unprocessed.smi:2627-2

> <Gold.Version>
5.8.1

> <Gold.Id.Protein>
6NUR|6NUR_protein|mol2

> <Gold.PLP.Fitness>
54.4480

> <Gold.PLP.PLP>
-50.2844

> <Gold.PLP.part.hbond>
-2.0000

> <Gold.PLP.part.metal>
0.0000

> <Gold.PLP.part.buried>
-4.1141

> <Gold.PLP.part.nonpolar>
-45.4345

> <Gold.PLP.part.repulsive>
1.1429

> <Gold.PLP.ligand.clash>
0.0000

> <Gold.PLP.ligand.torsion>
0.8047

> <Gold.PLP.Chemscore.Hbond>
1.9040

> <Gold.PLP.Chemscore.CHOScore>
0.0000

> <Gold.PLP.Chemscore.Metal>
0.0000

> <Gold.Chemscore.Hbonds>
donor molecule, donor type, donor heavy atom, donor atom, acceptor molecule, acceptor atom, score
      L1  H     3    26       P1  7949  0.91
      P1  H 10752 10763       L1     3  0.99

> <Gold.PLP.Chemscore.Internal.Correction>
0.0610

> <Gold.Rescore>
     Score         DG    S(hbond)    S(metal)    S(lipo)     H(rot)  DE(clash)    DE(int)     intcor
     19.41     -20.51       1.45        0.00     132.12       2.06       0.37       0.73       ----

> <Gold.Chemscore.Fitness>
19.4136

> <Gold.Chemscore.DG>
-20.5104

> <Gold.Chemscore.ZeroCoef>
-5.4800

> <Gold.Chemscore.Hbond>
1.4491

> <Gold.Chemscore.Metal>
0.0000

> <Gold.Chemscore.Lipo>
132.1214

> <Gold.Chemscore.Internal_Hbond>
0.0000

> <Gold.Chemscore.DEClash>
0.3667

> <Gold.Chemscore.DEInternal>
0.7301

> <Gold.Chemscore.Rot>
2.0577

> <Gold.Chemscore.Internal.Correction>
   9.000000E+99

> <Gold.Chemscore.Hbonds>
donor molecule, donor type, donor heavy atom, donor atom, acceptor molecule, acceptor atom, score
      L1  H     3    26       P1  7949  0.77
      P1  H 10752 10763       L1     3  0.23

> <Gold.Chemscore.Hbond.Weighted>
-4.8401

> <Gold.Chemscore.Metal.Weighted>
-0.0000

> <Gold.Chemscore.Lipo.Weighted>
-15.4582

> <Gold.Chemscore.Internal_Hbond.Weighted>
0.0000

> <Gold.Chemscore.DEClash.Weighted>
0.3667

> <Gold.Chemscore.DEInternal.Weighted>
0.7301

> <Gold.Chemscore.Rot.Weighted>
5.2678

> <Gold.Chemscore.Internal.Correction.Weighted>
   9.000000E+99

> <Gold.Protein.RotatedTorsions>
[ 6907 6896 6895 6894 ] final  -53.41 input  -60.11 | X-H torsion
[ 7974 7965 7964 7962 ] final -165.98 input  175.53 | X-H torsion
[ 8008 7997 7996 7995 ] final   48.64 input   59.86 | X-H torsion
[ 10167 10162 10161 10158 ] final   22.46 input  -65.29 | X-H torsion
[ 10718 10713 10712 10709 ] final  138.38 input   66.30 | X-H torsion
[ 10763 10752 10751 10750 ] final   22.27 input  -60.55 | X-H torsion
[ 11005 11000 10999 10996 ] final -120.68 input  -57.11 | X-H torsion

> <Gold.Protein.ActiveResidues>
 VAL166  LYS551  ARG553  GLY616  TRP617  ASP618  TYR619  PRO620  LYS621  CYS622 
 ASP623  PHE694  ASN695  SER759  ASP760  ASP761  ALA762  ILE779  LEU786  VAL792 
 PHE793  MET794  SER795  GLU796  ALA797  LYS798  CYS799  TRP800  GLU811  SER814 

> <Gold.Protein.RotatedAtoms>
  150.8430  134.7728  159.6947 H   0  0  0  0  0  0  0  0  0  0  0  0  # atno 6907 bound_to 6896
  152.4513  134.5384  159.9841 H   0  0  0  0  0  0  0  0  0  0  0  0  # atno 6908 bound_to 6896
  151.5520  133.3378  159.2990 H   0  0  0  0  0  0  0  0  0  0  0  0  # atno 6909 bound_to 6896
  144.7256  140.2734  143.6247 H   0  0  0  0  0  0  0  0  0  0  0  0  # atno 7974 bound_to 7965
  155.3890  140.3432  155.4250 H   0  0  0  0  0  0  0  0  0  0  0  0  # atno 8008 bound_to 7997
  156.1568  140.1588  156.8712 H   0  0  0  0  0  0  0  0  0  0  0  0  # atno 8009 bound_to 7997
  154.5102  140.0792  156.7956 H   0  0  0  0  0  0  0  0  0  0  0  0  # atno 8010 bound_to 7997
  140.5346  143.9782  150.6484 H   0  0  0  0  0  0  0  0  0  0  0  0  # atno 10167 bound_to 10162
  157.4259  131.1043  151.0303 H   0  0  0  0  0  0  0  0  0  0  0  0  # atno 10718 bound_to 10713
  153.0929  135.6652  153.9819 H   0  0  0  0  0  0  0  0  0  0  0  0  # atno 10763 bound_to 10752
  153.9411  135.2994  155.3444 H   0  0  0  0  0  0  0  0  0  0  0  0  # atno 10764 bound_to 10752
  154.7345  135.5108  153.9092 H   0  0  0  0  0  0  0  0  0  0  0  0  # atno 10765 bound_to 10752
  141.0126  134.0242  157.3393 H   0  0  0  0  0  0  0  0  0  0  0  0  # atno 11005 bound_to 11000
  145.8021  139.1968  143.2042 LP  0  0  0  0  0  0  0  0  0  0  0  0  # atno 17320 bound_to 7965
  146.0668  140.7912  142.9708 LP  0  0  0  0  0  0  0  0  0  0  0  0  # atno 17321 bound_to 7965
  140.3166  143.3164  152.0826 LP  0  0  0  0  0  0  0  0  0  0  0  0  # atno 17342 bound_to 10162
  139.4966  144.6601  151.6483 LP  0  0  0  0  0  0  0  0  0  0  0  0  # atno 17343 bound_to 10162
  157.1217  130.6064  149.5507 LP  0  0  0  0  0  0  0  0  0  0  0  0  # atno 17370 bound_to 10713
  155.9896  130.4944  150.7222 LP  0  0  0  0  0  0  0  0  0  0  0  0  # atno 17371 bound_to 10713
  139.9098  135.0188  156.7645 LP  0  0  0  0  0  0  0  0  0  0  0  0  # atno 17394 bound_to 11000
  140.6708  133.9561  155.7855 LP  0  0  0  0  0  0  0  0  0  0  0  0  # atno 17395 bound_to 11000

$$$$
