AV-unprocessed.smi:1390|AV-procd|sdf|5657|dock2
  -GOLD-   22720 5283D 1   1.00000     0.00000
 Structure written by MMmdl.
 44 45  0  0  0  0  0  0  0  0  1 V2000
  151.7340  145.2725  159.1946 C   0  0  0  0  0  0  0  0  0  0  0  0
  151.7785  143.7588  159.4274 C   0  0  1  0  0  0  0  0  0  0  0  0
  151.8734  142.9744  158.1052 C   0  0  0  0  0  0  0  0  0  0  0  0
  152.0221  141.5432  158.3650 N   0  0  0  0  0  0  0  0  0  0  0  0
  151.8656  140.6548  157.2777 C   0  0  0  0  0  0  0  0  0  0  0  0
  150.7725  140.7977  156.3888 C   0  0  0  0  0  0  0  0  0  0  0  0
  150.6350  139.8951  155.3168 C   0  0  0  0  0  0  0  0  0  0  0  0
  151.5951  138.8775  155.1549 C   0  0  0  0  0  0  0  0  0  0  0  0
  151.4841  137.8730  154.0255 C   0  0  0  0  0  0  0  0  0  0  0  0
  150.5485  136.8055  154.3516 N   0  0  0  0  0  0  0  0  0  0  0  0
  150.7515  135.8551  155.2766 C   0  0  0  0  0  0  0  0  0  0  0  0
  151.7885  135.7565  155.9319 O   0  0  0  0  0  0  0  0  0  0  0  0
  149.6186  134.8508  155.4873 C   0  0  0  0  0  0  0  0  0  0  0  0
  149.3182  134.2175  154.2526 O   0  0  0  0  0  0  0  0  0  0  0  0
  149.0046  132.8422  154.4003 C   0  0  0  0  0  0  0  0  0  0  0  0
  147.7925  132.4986  153.5258 C   0  0  0  0  0  0  0  0  0  0  0  0
  146.7062  133.0818  154.0307 F   0  0  0  0  0  0  0  0  0  0  0  0
  147.9797  132.9432  152.2834 F   0  0  0  0  0  0  0  0  0  0  0  0
  147.5983  131.1801  153.5047 F   0  0  0  0  0  0  0  0  0  0  0  0
  152.6540  138.8133  156.0818 C   0  0  0  0  0  0  0  0  0  0  0  0
  152.7889  139.6749  157.1116 N   0  0  0  0  0  0  0  0  0  0  0  0
  153.1133  141.2360  159.2863 C   0  0  0  0  0  0  0  0  0  0  0  0
  152.9884  142.0799  160.5662 C   0  0  0  0  0  0  0  0  0  0  0  0
  152.9178  143.4612  160.2293 O   0  0  0  0  0  0  0  0  0  0  0  0
  150.8711  145.5506  158.5888 H   0  0  0  0  0  0  0  0  0  0  0  0
  152.6301  145.6191  158.6791 H   0  0  0  0  0  0  0  0  0  0  0  0
  151.6639  145.8105  160.1403 H   0  0  0  0  0  0  0  0  0  0  0  0
  150.8757  143.4637  159.9653 H   0  0  0  0  0  0  0  0  0  0  0  0
  150.9758  143.1580  157.5132 H   0  0  0  0  0  0  0  0  0  0  0  0
  152.7270  143.3225  157.5212 H   0  0  0  0  0  0  0  0  0  0  0  0
  150.0492  141.5905  156.5068 H   0  0  0  0  0  0  0  0  0  0  0  0
  149.8063  139.9852  154.6298 H   0  0  0  0  0  0  0  0  0  0  0  0
  151.1431  138.3819  153.1231 H   0  0  0  0  0  0  0  0  0  0  0  0
  152.4739  137.4686  153.8057 H   0  0  0  0  0  0  0  0  0  0  0  0
  149.6659  136.8047  153.8608 H   0  0  0  0  0  0  0  0  0  0  0  0
  149.9301  134.1152  156.2300 H   0  0  0  0  0  0  0  0  0  0  0  0
  148.7374  135.3665  155.8728 H   0  0  0  0  0  0  0  0  0  0  0  0
  149.8595  132.2311  154.1065 H   0  0  0  0  0  0  0  0  0  0  0  0
  148.7863  132.6187  155.4457 H   0  0  0  0  0  0  0  0  0  0  0  0
  153.4121  138.0481  156.0013 H   0  0  0  0  0  0  0  0  0  0  0  0
  153.1297  140.1822  159.5605 H   0  0  0  0  0  0  0  0  0  0  0  0
  154.0610  141.4492  158.7906 H   0  0  0  0  0  0  0  0  0  0  0  0
  152.1070  141.7887  161.1399 H   0  0  0  0  0  0  0  0  0  0  0  0
  153.8534  141.9160  161.2087 H   0  0  0  0  0  0  0  0  0  0  0  0
  1  2  1  0  0  0  0
  1 25  1  0  0  0  0
  1 26  1  0  0  0  0
  1 27  1  0  0  0  0
  2 24  1  0  0  0  0
  2  3  1  0  0  0  0
  2 28  1  0  0  0  0
  3  4  1  0  0  0  0
  3 29  1  0  0  0  0
  3 30  1  0  0  0  0
  4  5  1  0  0  0  0
  4 22  1  0  0  0  0
  5 21  1  0  0  0  0
  5  6  2  0  0  0  0
  6  7  1  0  0  0  0
  6 31  1  0  0  0  0
  7  8  2  0  0  0  0
  7 32  1  0  0  0  0
  8  9  1  0  0  0  0
  8 20  1  0  0  0  0
  9 10  1  0  0  0  0
  9 33  1  0  0  0  0
  9 34  1  0  0  0  0
 10 11  1  0  0  0  0
 10 35  1  0  0  0  0
 11 12  2  0  0  0  0
 11 13  1  0  0  0  0
 13 14  1  0  0  0  0
 13 36  1  0  0  0  0
 13 37  1  0  0  0  0
 14 15  1  0  0  0  0
 15 16  1  0  0  0  0
 15 38  1  0  0  0  0
 15 39  1  0  0  0  0
 16 17  1  0  0  0  0
 16 18  1  0  0  0  0
 16 19  1  0  0  0  0
 20 21  2  0  0  0  0
 20 40  1  0  0  0  0
 22 23  1  0  0  0  0
 22 41  1  0  0  0  0
 22 42  1  0  0  0  0
 23 24  1  0  0  0  0
 23 43  1  0  0  0  0
 23 44  1  0  0  0  0
M  END
> <s_m_source_file>
AV-unprocessed.smi

> <i_m_source_file_index>
1390

> <i_lp_mmshare_version>
43012

> <i_f3d_flags>
0

> <s_epik_input>
W0NIM11bQ0BASF0xW0NIMl1OKFtDSDJdW0NIMl1PMSljMltjSF1bY0hdYyhbY0hdbjIpW0NIMl1bTkhdQyg9TylbQ0gyXU9bQ0gyXUMoRikoRilG

> <s_epik_cmdline>
J2VwaWtfcHl0aG9uJywgJy1waCcsICc3LjAnLCAnLXRuJywgJzgnLCAnLW1hJywgJzIwMCcsICctbWV0YWxfYmluZGluZycsICctaW1hZScsICc8aW5maWxlLm1hZT4nLCAnLW9tYWUnLCAnPG91dGZpbGUubWFlPic=

> <r_lp_tautomer_probability>
1

> <r_epik_Ionization_Penalty>
0.00481831

> <r_epik_Ionization_Penalty_Charging>
0

> <r_epik_Ionization_Penalty_Neutral>
0.00481831

> <r_epik_State_Penalty>
0.00349373

> <r_epik_Charging_Adjusted_Penalty>
0.00349373

> <i_epik_Tot_Q>
0

> <i_epik_Tot_abs_Q>
0

> <r_epik_Metal_State_Penalty>
-0

> <b_epik_Metal_Only>
0

> <s_lp_Force_Field>
OPLS_2005

> <r_lp_Energy>
17.1102

> <b_lp_Chiralities_Consistent>
1

> <s_lp_Variant>
AV-unprocessed.smi:1390-2

> <Gold.Version>
5.8.1

> <Gold.Id.Protein>
6NUR|6NUR_protein|mol2

> <Gold.PLP.Fitness>
52.9719

> <Gold.PLP.PLP>
-47.4952

> <Gold.PLP.part.hbond>
-3.9637

> <Gold.PLP.part.metal>
0.0000

> <Gold.PLP.part.buried>
-4.3231

> <Gold.PLP.part.nonpolar>
-40.6156

> <Gold.PLP.part.repulsive>
0.6259

> <Gold.PLP.ligand.clash>
0.0000

> <Gold.PLP.ligand.torsion>
1.1780

> <Gold.PLP.Chemscore.Hbond>
2.4354

> <Gold.PLP.Chemscore.CHOScore>
0.0000

> <Gold.PLP.Chemscore.Metal>
0.0000

> <Gold.Chemscore.Hbonds>
donor molecule, donor type, donor heavy atom, donor atom, acceptor molecule, acceptor atom, score
      L1  H    10    35       P1  7948  0.46
      P1  H  7997  8009       L1    21  0.91
      P1  H 10752 10765       L1    12  1.00

> <Gold.PLP.Chemscore.Internal.Correction>
0.5266

> <Gold.Rescore>
     Score         DG    S(hbond)    S(metal)    S(lipo)     H(rot)  DE(clash)    DE(int)     intcor
     16.25     -17.96       1.99        0.00     106.02       2.57       0.51       1.19       ----

> <Gold.Chemscore.Fitness>
16.2526

> <Gold.Chemscore.DG>
-17.9561

> <Gold.Chemscore.ZeroCoef>
-5.4800

> <Gold.Chemscore.Hbond>
1.9881

> <Gold.Chemscore.Metal>
0.0000

> <Gold.Chemscore.Lipo>
106.0180

> <Gold.Chemscore.Internal_Hbond>
0.0000

> <Gold.Chemscore.DEClash>
0.5104

> <Gold.Chemscore.DEInternal>
1.1931

> <Gold.Chemscore.Rot>
2.5657

> <Gold.Chemscore.Internal.Correction>
   9.000000E+99

> <Gold.Chemscore.Hbonds>
donor molecule, donor type, donor heavy atom, donor atom, acceptor molecule, acceptor atom, score
      L1  H    10    35       P1  7948  0.34
      P1  H  7997  8009       L1    21  0.23
      P1  H 10752 10765       L1    12  0.88

> <Gold.Chemscore.Hbond.Weighted>
-6.6402

> <Gold.Chemscore.Metal.Weighted>
-0.0000

> <Gold.Chemscore.Lipo.Weighted>
-12.4041

> <Gold.Chemscore.Internal_Hbond.Weighted>
0.0000

> <Gold.Chemscore.DEClash.Weighted>
0.5104

> <Gold.Chemscore.DEInternal.Weighted>
1.1931

> <Gold.Chemscore.Rot.Weighted>
6.5682

> <Gold.Chemscore.Internal.Correction.Weighted>
   9.000000E+99

> <Gold.Protein.RotatedTorsions>
[ 6907 6896 6895 6894 ] final   40.86 input  -60.11 | X-H torsion
[ 7974 7965 7964 7962 ] final  -13.58 input  175.53 | X-H torsion
[ 8008 7997 7996 7995 ] final  156.67 input   59.86 | X-H torsion
[ 10167 10162 10161 10158 ] final   33.28 input  -65.29 | X-H torsion
[ 10718 10713 10712 10709 ] final   75.07 input   66.30 | X-H torsion
[ 10763 10752 10751 10750 ] final -150.90 input  -60.55 | X-H torsion
[ 11005 11000 10999 10996 ] final   47.47 input  -57.11 | X-H torsion

> <Gold.Protein.ActiveResidues>
 VAL166  LYS551  ARG553  GLY616  TRP617  ASP618  TYR619  PRO620  LYS621  CYS622 
 ASP623  PHE694  ASN695  SER759  ASP760  ASP761  ALA762  ILE779  LEU786  VAL792 
 PHE793  MET794  SER795  GLU796  ALA797  LYS798  CYS799  TRP800  GLU811  SER814 

> <Gold.Protein.RotatedAtoms>
  152.1879  134.8697  160.0520 H   0  0  0  0  0  0  0  0  0  0  0  0  # atno 6907 bound_to 6896
  151.9597  133.3686  159.4039 H   0  0  0  0  0  0  0  0  0  0  0  0  # atno 6908 bound_to 6896
  150.6929  134.4177  159.5234 H   0  0  0  0  0  0  0  0  0  0  0  0  # atno 6909 bound_to 6896
  146.2108  140.3224  142.8391 H   0  0  0  0  0  0  0  0  0  0  0  0  # atno 7974 bound_to 7965
  156.2409  140.1906  156.6991 H   0  0  0  0  0  0  0  0  0  0  0  0  # atno 8008 bound_to 7997
  154.6195  140.0610  156.9623 H   0  0  0  0  0  0  0  0  0  0  0  0  # atno 8009 bound_to 7997
  155.1885  140.3282  155.4365 H   0  0  0  0  0  0  0  0  0  0  0  0  # atno 8010 bound_to 7997
  140.4421  144.1172  150.6176 H   0  0  0  0  0  0  0  0  0  0  0  0  # atno 10167 bound_to 10162
  157.6619  130.9708  150.1301 H   0  0  0  0  0  0  0  0  0  0  0  0  # atno 10718 bound_to 10713
  154.8091  135.3273  154.7353 H   0  0  0  0  0  0  0  0  0  0  0  0  # atno 10763 bound_to 10752
  153.8006  135.6904  153.4861 H   0  0  0  0  0  0  0  0  0  0  0  0  # atno 10764 bound_to 10752
  153.1857  135.4570  155.0031 H   0  0  0  0  0  0  0  0  0  0  0  0  # atno 10765 bound_to 10752
  140.1276  134.4748  155.8547 H   0  0  0  0  0  0  0  0  0  0  0  0  # atno 11005 bound_to 11000
  144.8910  140.7524  143.5926 LP  0  0  0  0  0  0  0  0  0  0  0  0  # atno 17320 bound_to 7965
  145.3146  139.1807  143.4620 LP  0  0  0  0  0  0  0  0  0  0  0  0  # atno 17321 bound_to 7965
  140.4306  143.2570  151.9600 LP  0  0  0  0  0  0  0  0  0  0  0  0  # atno 17342 bound_to 10162
  139.4790  144.5747  151.8030 LP  0  0  0  0  0  0  0  0  0  0  0  0  # atno 17343 bound_to 10162
  156.2150  130.3669  149.8624 LP  0  0  0  0  0  0  0  0  0  0  0  0  # atno 17370 bound_to 10713
  156.6493  130.8737  151.3528 LP  0  0  0  0  0  0  0  0  0  0  0  0  # atno 17371 bound_to 10713
  141.2164  133.6783  156.7008 LP  0  0  0  0  0  0  0  0  0  0  0  0  # atno 17394 bound_to 11000
  140.2884  134.8261  157.3995 LP  0  0  0  0  0  0  0  0  0  0  0  0  # atno 17395 bound_to 11000

$$$$
