AV-unprocessed.smi:907|AV-procd|sdf|4109|dock1
  -GOLD-   22720 2 03D 1   1.00000     0.00000
 Structure written by MMmdl.
 53 56  0  0  0  0  0  0  0  0  2 V2000
  152.7175  139.6055  156.1278 O   0  0  0  0  0  0  0  0  0  0  0  0
  151.6230  139.8302  155.6098 C   0  0  0  0  0  0  0  0  0  0  0  0
  150.8838  140.9038  155.9359 N   0  0  0  0  0  0  0  0  0  0  0  0
  151.2725  141.9342  156.8919 C   0  0  0  0  0  0  0  0  0  0  0  0
  151.8758  141.3259  158.1690 C   0  0  0  0  0  0  0  0  0  0  0  0
  151.9912  142.3439  159.2873 C   0  0  0  0  0  0  0  0  0  0  0  0
  151.3578  143.6010  159.1849 C   0  0  0  0  0  0  0  0  0  0  0  0
  151.4846  144.5053  160.2571 C   0  0  0  0  0  0  0  0  0  0  0  0
  152.2358  144.1199  161.3842 C   0  0  0  0  0  0  0  0  0  0  0  0
  152.8291  142.8416  161.3889 C   0  0  0  0  0  0  0  0  0  0  0  0
  152.7124  141.9661  160.3670 N   0  0  0  0  0  0  0  0  0  0  0  0
  151.0407  138.9922  154.7160 N   0  0  0  0  0  0  0  0  0  0  0  0
  151.6134  137.7413  154.2015 C   0  0  0  0  0  0  0  0  0  0  0  0
  150.9062  136.5504  154.8758 C   0  0  0  0  0  0  0  0  0  0  0  0
  149.4265  136.6062  154.6932 N   0  3  0  0  0  0  0  0  0  0  0  0
  148.7091  135.4763  155.3517 C   0  0  1  0  0  0  0  0  0  0  0  0
  147.3476  135.1191  154.7056 C   0  0  0  0  0  0  0  0  0  0  0  0
  147.4374  133.5924  154.5196 C   0  0  1  0  0  0  0  0  0  0  0  0
  148.3572  133.2932  153.3238 C   0  0  0  0  0  0  0  0  0  0  0  0
  149.7466  133.6662  153.8708 C   0  0  0  0  0  0  0  0  0  0  0  0
  149.4430  134.1121  155.3184 C   0  0  2  0  0  0  0  0  0  0  0  0
  148.3083  133.1650  155.6949 C   0  0  0  0  0  0  0  0  0  0  0  0
  148.8639  137.9358  155.0678 C   0  0  0  0  0  0  0  0  0  0  0  0
  149.6190  139.0856  154.3783 C   0  0  0  0  0  0  0  0  0  0  0  0
  149.9835  141.0125  155.4923 H   0  0  0  0  0  0  0  0  0  0  0  0
  151.9766  142.6287  156.4301 H   0  0  0  0  0  0  0  0  0  0  0  0
  150.3833  142.5144  157.1402 H   0  0  0  0  0  0  0  0  0  0  0  0
  151.2626  140.4912  158.5120 H   0  0  0  0  0  0  0  0  0  0  0  0
  152.8643  140.9139  157.9615 H   0  0  0  0  0  0  0  0  0  0  0  0
  150.7853  143.8661  158.3080 H   0  0  0  0  0  0  0  0  0  0  0  0
  151.0133  145.4761  160.2164 H   0  0  0  0  0  0  0  0  0  0  0  0
  152.3544  144.7874  162.2248 H   0  0  0  0  0  0  0  0  0  0  0  0
  153.4118  142.5128  162.2367 H   0  0  0  0  0  0  0  0  0  0  0  0
  151.4631  137.6996  153.1216 H   0  0  0  0  0  0  0  0  0  0  0  0
  152.6903  137.6555  154.3468 H   0  0  0  0  0  0  0  0  0  0  0  0
  151.3070  135.6288  154.4552 H   0  0  0  0  0  0  0  0  0  0  0  0
  151.1377  136.5396  155.9422 H   0  0  0  0  0  0  0  0  0  0  0  0
  148.5437  135.7490  156.3960 H   0  0  0  0  0  0  0  0  0  0  0  0
  146.5275  135.3866  155.3729 H   0  0  0  0  0  0  0  0  0  0  0  0
  147.1733  135.6150  153.7501 H   0  0  0  0  0  0  0  0  0  0  0  0
  146.4671  133.0987  154.4581 H   0  0  0  0  0  0  0  0  0  0  0  0
  148.3199  132.2352  153.0605 H   0  0  0  0  0  0  0  0  0  0  0  0
  148.0891  133.8673  152.4360 H   0  0  0  0  0  0  0  0  0  0  0  0
  150.4012  132.7937  153.8673 H   0  0  0  0  0  0  0  0  0  0  0  0
  150.2310  134.4422  153.2780 H   0  0  0  0  0  0  0  0  0  0  0  0
  150.3037  134.0566  155.9855 H   0  0  0  0  0  0  0  0  0  0  0  0
  147.8619  133.3836  156.6668 H   0  0  0  0  0  0  0  0  0  0  0  0
  148.5933  132.1115  155.6620 H   0  0  0  0  0  0  0  0  0  0  0  0
  147.8099  137.9970  154.7999 H   0  0  0  0  0  0  0  0  0  0  0  0
  148.9199  138.0585  156.1507 H   0  0  0  0  0  0  0  0  0  0  0  0
  149.1822  140.0444  154.6616 H   0  0  0  0  0  0  0  0  0  0  0  0
  149.4999  139.0174  153.2958 H   0  0  0  0  0  0  0  0  0  0  0  0
  149.2672  136.5027  153.7011 H   0  0  0  0  0  0  0  0  0  0  0  0
  1  2  2  0  0  0  0
  2  3  1  0  0  0  0
  2 12  1  0  0  0  0
  3  4  1  0  0  0  0
  3 25  1  0  0  0  0
  4  5  1  0  0  0  0
  4 26  1  0  0  0  0
  4 27  1  0  0  0  0
  5  6  1  0  0  0  0
  5 28  1  0  0  0  0
  5 29  1  0  0  0  0
  6 11  1  0  0  0  0
  6  7  2  0  0  0  0
  7  8  1  0  0  0  0
  7 30  1  0  0  0  0
  8  9  2  0  0  0  0
  8 31  1  0  0  0  0
  9 10  1  0  0  0  0
  9 32  1  0  0  0  0
 10 11  2  0  0  0  0
 10 33  1  0  0  0  0
 12 24  1  0  0  0  0
 12 13  1  0  0  0  0
 13 14  1  0  0  0  0
 13 34  1  0  0  0  0
 13 35  1  0  0  0  0
 14 15  1  0  0  0  0
 14 36  1  0  0  0  0
 14 37  1  0  0  0  0
 15 16  1  0  0  0  0
 15 23  1  0  0  0  0
 15 53  1  0  0  0  0
 16 21  1  0  0  0  0
 16 17  1  0  0  0  0
 16 38  1  0  0  0  0
 17 18  1  0  0  0  0
 17 39  1  0  0  0  0
 17 40  1  0  0  0  0
 18 22  1  0  0  0  0
 18 19  1  0  0  0  0
 18 41  1  0  0  0  0
 19 20  1  0  0  0  0
 19 42  1  0  0  0  0
 19 43  1  0  0  0  0
 20 21  1  0  0  0  0
 20 44  1  0  0  0  0
 20 45  1  0  0  0  0
 21 22  1  0  0  0  0
 21 46  1  0  0  0  0
 22 47  1  0  0  0  0
 22 48  1  0  0  0  0
 23 24  1  0  0  0  0
 23 49  1  0  0  0  0
 23 50  1  0  0  0  0
 24 51  1  0  0  0  0
 24 52  1  0  0  0  0
M  CHG  1  15   1
M  END
> <s_m_source_file>
AV-unprocessed.smi

> <i_m_source_file_index>
907

> <i_lp_mmshare_version>
43012

> <i_f3d_flags>
0

> <s_epik_input>
W0NIMl0xW0NIMl1bQ0BASF0oW0NIMl0yKVtDQEBIXShbQ0gyXVtDQEhdMTIpTihbQ0gyXVtDSDJdMylbQ0gyXVtDSDJdTjNDKD1PKVtOSF1bQ0gyXVtDSDJdYzRbY0hdW2NIXVtjSF1bY0hdbjQ=

> <s_epik_cmdline>
J2VwaWtfcHl0aG9uJywgJy1waCcsICc3LjAnLCAnLXRuJywgJzgnLCAnLW1hJywgJzIwMCcsICctbWV0YWxfYmluZGluZycsICctaW1hZScsICc8aW5maWxlLm1hZT4nLCAnLW9tYWUnLCAnPG91dGZpbGUubWFlPic=

> <r_epik_Ionization_Penalty>
0.0419258

> <r_epik_Ionization_Penalty_Charging>
0.00262064

> <r_epik_Ionization_Penalty_Neutral>
0.0393052

> <r_epik_State_Penalty>
0.0329887

> <r_epik_Charging_Adjusted_Penalty>
0.0356093

> <i_epik_Tot_Q>
1

> <i_epik_Tot_abs_Q>
1

> <r_epik_Metal_State_Penalty>
0.0309172

> <b_epik_Metal_Only>
0

> <s_lp_Force_Field>
OPLS_2005

> <r_lp_Energy>
94.2881

> <b_lp_Chiralities_Consistent>
1

> <s_lp_Variant>
AV-unprocessed.smi:907-4

> <Gold.Version>
5.8.1

> <Gold.Id.Protein>
6NUR|6NUR_protein|mol2

> <Gold.PLP.Fitness>
52.8899

> <Gold.PLP.PLP>
-46.6997

> <Gold.PLP.part.hbond>
-2.0000

> <Gold.PLP.part.metal>
0.0000

> <Gold.PLP.part.buried>
-6.8219

> <Gold.PLP.part.nonpolar>
-38.0945

> <Gold.PLP.part.repulsive>
0.1484

> <Gold.PLP.ligand.clash>
1.5256

> <Gold.PLP.ligand.torsion>
0.7122

> <Gold.PLP.Chemscore.Hbond>
3.0000

> <Gold.PLP.Chemscore.CHOScore>
0.0000

> <Gold.PLP.Chemscore.Metal>
0.0000

> <Gold.Chemscore.Hbonds>
donor molecule, donor type, donor heavy atom, donor atom, acceptor molecule, acceptor atom, score
      L1  H    15    53       P1  7948  2.00
      P1  H  7997  8008       L1     1  1.00

> <Gold.PLP.Chemscore.Internal.Correction>
0.1403

> <Gold.Rescore>
     Score         DG    S(hbond)    S(metal)    S(lipo)     H(rot)  DE(clash)    DE(int)     intcor
     20.42     -22.66       1.97        0.00     120.69       1.37       0.06       2.18       ----

> <Gold.Chemscore.Fitness>
20.4236

> <Gold.Chemscore.DG>
-22.6612

> <Gold.Chemscore.ZeroCoef>
-5.4800

> <Gold.Chemscore.Hbond>
1.9687

> <Gold.Chemscore.Metal>
0.0000

> <Gold.Chemscore.Lipo>
120.6929

> <Gold.Chemscore.Internal_Hbond>
0.0000

> <Gold.Chemscore.DEClash>
0.0554

> <Gold.Chemscore.DEInternal>
2.1822

> <Gold.Chemscore.Rot>
1.3731

> <Gold.Chemscore.Internal.Correction>
   9.000000E+99

> <Gold.Chemscore.Hbonds>
donor molecule, donor type, donor heavy atom, donor atom, acceptor molecule, acceptor atom, score
      L1  H    15    53       P1  7948  0.94
      P1  H  7997  8008       L1     1  1.00

> <Gold.Chemscore.Hbond.Weighted>
-6.5753

> <Gold.Chemscore.Metal.Weighted>
-0.0000

> <Gold.Chemscore.Lipo.Weighted>
-14.1211

> <Gold.Chemscore.Internal_Hbond.Weighted>
0.0000

> <Gold.Chemscore.DEClash.Weighted>
0.0554

> <Gold.Chemscore.DEInternal.Weighted>
2.1822

> <Gold.Chemscore.Rot.Weighted>
3.5152

> <Gold.Chemscore.Internal.Correction.Weighted>
   9.000000E+99

> <Gold.Protein.RotatedTorsions>
[ 6907 6896 6895 6894 ] final  141.70 input  -60.11 | X-H torsion
[ 7974 7965 7964 7962 ] final -133.23 input  175.53 | X-H torsion
[ 8008 7997 7996 7995 ] final  -41.00 input   59.86 | X-H torsion
[ 10167 10162 10161 10158 ] final -112.98 input  -65.29 | X-H torsion
[ 10718 10713 10712 10709 ] final  108.40 input   66.30 | X-H torsion
[ 10763 10752 10751 10750 ] final  156.71 input  -60.55 | X-H torsion
[ 11005 11000 10999 10996 ] final   64.92 input  -57.11 | X-H torsion

> <Gold.Protein.ActiveResidues>
 VAL166  LYS551  ARG553  GLY616  TRP617  ASP618  TYR619  PRO620  LYS621  CYS622 
 ASP623  PHE694  ASN695  SER759  ASP760  ASP761  ALA762  ILE779  LEU786  VAL792 
 PHE793  MET794  SER795  GLU796  ALA797  LYS798  CYS799  TRP800  GLU811  SER814 

> <Gold.Protein.RotatedAtoms>
  152.2278  133.5034  159.5198 H   0  0  0  0  0  0  0  0  0  0  0  0  # atno 6907 bound_to 6896
  150.7029  134.1256  159.4060 H   0  0  0  0  0  0  0  0  0  0  0  0  # atno 6908 bound_to 6896
  151.9178  135.0311  160.0570 H   0  0  0  0  0  0  0  0  0  0  0  0  # atno 6909 bound_to 6896
  144.9213  140.7017  143.4964 H   0  0  0  0  0  0  0  0  0  0  0  0  # atno 7974 bound_to 7965
  154.4007  140.1511  156.3118 H   0  0  0  0  0  0  0  0  0  0  0  0  # atno 8008 bound_to 7997
  155.8608  140.3453  155.5733 H   0  0  0  0  0  0  0  0  0  0  0  0  # atno 8009 bound_to 7997
  155.7882  140.0853  157.2013 H   0  0  0  0  0  0  0  0  0  0  0  0  # atno 8010 bound_to 7997
  140.1168  143.4478  152.1717 H   0  0  0  0  0  0  0  0  0  0  0  0  # atno 10167 bound_to 10162
  157.6588  131.0893  150.6300 H   0  0  0  0  0  0  0  0  0  0  0  0  # atno 10718 bound_to 10713
  154.1887  135.2796  155.3029 H   0  0  0  0  0  0  0  0  0  0  0  0  # atno 10763 bound_to 10752
  154.5946  135.5549  153.7316 H   0  0  0  0  0  0  0  0  0  0  0  0  # atno 10764 bound_to 10752
  153.0118  135.6376  154.2026 H   0  0  0  0  0  0  0  0  0  0  0  0  # atno 10765 bound_to 10752
  139.9927  134.6565  156.0062 H   0  0  0  0  0  0  0  0  0  0  0  0  # atno 11005 bound_to 11000
  145.3292  139.1764  143.4546 LP  0  0  0  0  0  0  0  0  0  0  0  0  # atno 17320 bound_to 7965
  146.3206  140.3319  142.8641 LP  0  0  0  0  0  0  0  0  0  0  0  0  # atno 17321 bound_to 7965
  139.5590  144.7392  151.4211 LP  0  0  0  0  0  0  0  0  0  0  0  0  # atno 17342 bound_to 10162
  140.6894  143.7896  150.7234 LP  0  0  0  0  0  0  0  0  0  0  0  0  # atno 17343 bound_to 10162
  156.6604  130.4510  149.5689 LP  0  0  0  0  0  0  0  0  0  0  0  0  # atno 17370 bound_to 10713
  156.2071  130.6656  151.1230 LP  0  0  0  0  0  0  0  0  0  0  0  0  # atno 17371 bound_to 10713
  141.1579  133.6541  156.4223 LP  0  0  0  0  0  0  0  0  0  0  0  0  # atno 17394 bound_to 11000
  140.4876  134.6605  157.5197 LP  0  0  0  0  0  0  0  0  0  0  0  0  # atno 17395 bound_to 11000

$$$$
