#       Name:                AV-unprocessed.smi:1666
#       Creating user name   scv26
#       Creation time:       Fri Mar 27 07:38:28 2020


#       File generated by GOLD software.
#

@<TRIPOS>MOLECULE
AV-unprocessed.smi:1666
    45    46     1
SMALL
NO_CHARGES


@<TRIPOS>ATOM
      1 ****        -3.8063  -0.6443   2.0537 C.3            1 S1                 0.0000
      2 ****        -3.4706   0.7966   1.7045 C.ar           1 S1                 0.0000
      3 ****        -4.5130   1.7416   1.5974 C.ar           1 S1                 0.0000
      4 ****        -4.2012   3.0730   1.2729 C.ar           1 S1                 0.0000
      5 ****        -2.8511   3.4047   1.0675 C.ar           1 S1                 0.0000
      6 ****        -1.8489   2.5079   1.1672 N.ar           1 S1                 0.0000
      7 ****        -2.1326   1.2184   1.4793 C.ar           1 S1                 0.0000
      8 ****        -1.1268   0.2187   1.6033 N.am           1 S1                 0.0000
      9 ****         0.1956   0.3307   1.3870 C.2            1 S1                 0.0000
     10 ****         0.7753   1.3590   1.0364 O.2            1 S1                 0.0000
     11 ****         0.8189  -0.8388   1.5936 N.am           1 S1                 0.0000
     12 ****         2.2421  -1.0870   1.3835 C.3            1 S1                 0.0000
     13 ****         2.4928  -1.8212   0.0522 C.3            1 S1                 0.0000
     14 ****         2.0965  -1.0937  -1.1536 N.3            1 S1                 0.0000
     15 ****         2.9240   0.0852  -1.3995 C.3            1 S1                 0.0000
     16 ****         2.4907   0.8293  -2.6744 C.3            1 S1                 0.0000
     17 ****         2.5332  -0.0606  -3.7854 O.3            1 S1                 0.0000
     18 ****         1.7079  -1.2066  -3.6026 C.3            1 S1                 0.0000
     19 ****         2.1399  -1.9548  -2.3295 C.3            1 S1                 0.0000
     20 ****        -4.8785  -0.7781   2.2001 H              1 S1                 0.0000
     21 ****        -3.3029  -0.9420   2.9739 H              1 S1                 0.0000
     22 ****        -3.4907  -1.3139   1.2532 H              1 S1                 0.0000
     23 ****        -5.5408   1.4529   1.7614 H              1 S1                 0.0000
     24 ****        -4.9759   3.8201   1.1839 H              1 S1                 0.0000
     25 ****        -2.5675   4.4161   0.8169 H              1 S1                 0.0000
     26 ****        -1.4584  -0.6945   1.8756 H              1 S1                 0.0000
     27 ****         0.2609  -1.6285   1.8829 H              1 S1                 0.0000
     28 ****         2.8263  -0.1686   1.4517 H              1 S1                 0.0000
     29 ****         2.5874  -1.7155   2.2044 H              1 S1                 0.0000
     30 ****         3.5480  -2.0897  -0.0158 H              1 S1                 0.0000
     31 ****         1.9499  -2.7668   0.0901 H              1 S1                 0.0000
     32 ****         2.8667   0.7741  -0.5582 H              1 S1                 0.0000
     33 ****         3.9705  -0.2091  -1.4909 H              1 S1                 0.0000
     34 ****         1.4834   1.2331  -2.5608 H              1 S1                 0.0000
     35 ****         3.1545   1.6724  -2.8658 H              1 S1                 0.0000
     36 ****         0.6619  -0.9033  -3.5355 H              1 S1                 0.0000
     37 ****         1.7985  -1.8553  -4.4740 H              1 S1                 0.0000
     38 ****         3.1495  -2.3458  -2.4651 H              1 S1                 0.0000
     39 ****         1.4890  -2.8170  -2.1815 H              1 S1                 0.0000
     40 ****        -0.9026   2.7916   1.0121 LP             1 S1                 0.0000
     41 ****         0.2557   2.2008   0.8900 LP             1 S1                 0.0000
     42 ****         1.7657   1.3523   0.8981 LP             1 S1                 0.0000
     43 ****         1.1580  -0.7894  -0.9907 LP             1 S1                 0.0000
     44 ****         3.4771  -0.3636  -3.9168 LP             1 S1                 0.0000
     45 ****         2.2241   0.4298  -4.6002 LP             1 S1                 0.0000
@<TRIPOS>BOND
    1    1    2 1     
    2    1   20 1     
    3    1   21 1     
    4    1   22 1     
    5    2    7 ar    
    6    2    3 ar    
    7    3    4 ar    
    8    3   23 1     
    9    4    5 ar    
   10    4   24 1     
   11    5    6 ar    
   12    5   25 1     
   13    6    7 ar    
   14    7    8 1     
   15    8    9 am    
   16    8   26 1     
   17    9   10 2     
   18    9   11 am    
   19   11   12 1     
   20   11   27 1     
   21   12   13 1     
   22   12   28 1     
   23   12   29 1     
   24   13   14 1     
   25   13   30 1     
   26   13   31 1     
   27   14   19 1     
   28   14   15 1     
   29   15   16 1     
   30   15   32 1     
   31   15   33 1     
   32   16   17 1     
   33   16   34 1     
   34   16   35 1     
   35   17   18 1     
   36   18   19 1     
   37   18   36 1     
   38   18   37 1     
   39   19   38 1     
   40   19   39 1     
   41    6   40 1     
   42   10   41 1     
   43   10   42 1     
   44   14   43 1     
   45   17   44 1     
   46   17   45 1     
@<TRIPOS>SUBSTRUCTURE
      1 S1             1
@<TRIPOS>SET
LONE_PAIRS      STATIC     ATOMS    <user>   **** ""
6 40 41 42 43 44 45
DONOR_HYDROGENS      STATIC     ATOMS    <user>   **** ""
2 26 27
ATOM$BLUE        STATIC     ATOMS    COLORGROUP SYSTEM
6 40 41 42 43 44 45
ATOM$RED        STATIC     ATOMS    COLORGROUP SYSTEM
2 26 27
