AV-unprocessed.smi:322|AV-procd|sdf|2336|dock10
  -GOLD-   2262022243D 1   1.00000     0.00000
 Structure written by MMmdl.
 43 45  0  0  0  0  0  0  0  0  1 V2000
  149.5066  141.9976  154.4108 O   0  0  0  0  0  0  0  0  0  0  0  0
  150.1023  141.1169  155.3421 C   0  0  0  0  0  0  0  0  0  0  0  0
  150.7441  141.8112  156.5101 C   0  0  0  0  0  0  0  0  0  0  0  0
  151.0346  143.1144  156.5093 N   0  0  0  0  0  0  0  0  0  0  0  0
  151.5828  143.3080  157.7619 C   0  0  0  0  0  0  0  0  0  0  0  0
  152.0919  144.4768  158.3717 C   0  0  0  0  0  0  0  0  0  0  0  0
  152.6094  144.4303  159.6828 C   0  0  0  0  0  0  0  0  0  0  0  0
  152.6250  143.2176  160.4015 C   0  0  0  0  0  0  0  0  0  0  0  0
  152.1222  142.0416  159.8127 C   0  0  0  0  0  0  0  0  0  0  0  0
  151.6069  142.0934  158.5034 C   0  0  0  0  0  0  0  0  0  0  0  0
  151.0514  141.1440  157.6510 N   0  0  0  0  0  0  0  0  0  0  0  0
  150.8478  139.7331  157.9497 C   0  0  0  0  0  0  0  0  0  0  0  0
  151.4420  138.8053  156.8695 C   0  0  1  0  0  0  0  0  0  0  0  0
  152.5747  139.3825  156.2512 O   0  0  0  0  0  0  0  0  0  0  0  0
  151.8122  137.4095  157.3966 C   0  0  0  0  0  0  0  0  0  0  0  0
  150.9317  137.0384  158.4453 O   0  0  0  0  0  0  0  0  0  0  0  0
  149.6323  136.7020  157.9880 C   0  0  0  0  0  0  0  0  0  0  0  0
  148.8028  136.0357  159.0694 C   0  0  0  0  0  0  0  0  0  0  0  0
  148.5179  136.7143  160.2743 C   0  0  0  0  0  0  0  0  0  0  0  0
  147.7346  136.0956  161.2680 C   0  0  0  0  0  0  0  0  0  0  0  0
  147.2268  134.7985  161.0591 C   0  0  0  0  0  0  0  0  0  0  0  0
  146.2679  134.0402  162.2767 Cl  0  0  0  0  0  0  0  0  0  0  0  0
  147.5000  134.1222  159.8543 C   0  0  0  0  0  0  0  0  0  0  0  0
  148.2832  134.7408  158.8603 C   0  0  0  0  0  0  0  0  0  0  0  0
  149.4179  142.8475  154.8139 H   0  0  0  0  0  0  0  0  0  0  0  0
  149.3413  140.4313  155.7155 H   0  0  0  0  0  0  0  0  0  0  0  0
  150.8454  140.5220  154.8122 H   0  0  0  0  0  0  0  0  0  0  0  0
  152.0841  145.4106  157.8294 H   0  0  0  0  0  0  0  0  0  0  0  0
  152.9967  145.3296  160.1390 H   0  0  0  0  0  0  0  0  0  0  0  0
  153.0236  143.1902  161.4051 H   0  0  0  0  0  0  0  0  0  0  0  0
  152.1350  141.1104  160.3596 H   0  0  0  0  0  0  0  0  0  0  0  0
  151.2951  139.5230  158.9221 H   0  0  0  0  0  0  0  0  0  0  0  0
  149.7798  139.5458  158.0652 H   0  0  0  0  0  0  0  0  0  0  0  0
  150.7058  138.6731  156.0764 H   0  0  0  0  0  0  0  0  0  0  0  0
  152.3884  139.4975  155.3317 H   0  0  0  0  0  0  0  0  0  0  0  0
  151.7195  136.6857  156.5853 H   0  0  0  0  0  0  0  0  0  0  0  0
  152.8504  137.3846  157.7323 H   0  0  0  0  0  0  0  0  0  0  0  0
  149.1088  137.6004  157.6581 H   0  0  0  0  0  0  0  0  0  0  0  0
  149.7091  136.0334  157.1288 H   0  0  0  0  0  0  0  0  0  0  0  0
  148.8984  137.7114  160.4421 H   0  0  0  0  0  0  0  0  0  0  0  0
  147.5224  136.6183  162.1890 H   0  0  0  0  0  0  0  0  0  0  0  0
  147.1083  133.1291  159.6900 H   0  0  0  0  0  0  0  0  0  0  0  0
  148.4848  134.2170  157.9374 H   0  0  0  0  0  0  0  0  0  0  0  0
  1  2  1  0  0  0  0
  1 25  1  0  0  0  0
  2  3  1  0  0  0  0
  2 26  1  0  0  0  0
  2 27  1  0  0  0  0
  3 11  1  0  0  0  0
  3  4  2  0  0  0  0
  4  5  1  0  0  0  0
  5 10  2  0  0  0  0
  5  6  1  0  0  0  0
  6  7  2  0  0  0  0
  6 28  1  0  0  0  0
  7  8  1  0  0  0  0
  7 29  1  0  0  0  0
  8  9  2  0  0  0  0
  8 30  1  0  0  0  0
  9 10  1  0  0  0  0
  9 31  1  0  0  0  0
 10 11  1  0  0  0  0
 11 12  1  0  0  0  0
 12 13  1  0  0  0  0
 12 32  1  0  0  0  0
 12 33  1  0  0  0  0
 13 14  1  0  0  0  0
 13 15  1  0  0  0  0
 13 34  1  0  0  0  0
 14 35  1  0  0  0  0
 15 16  1  0  0  0  0
 15 36  1  0  0  0  0
 15 37  1  0  0  0  0
 16 17  1  0  0  0  0
 17 18  1  0  0  0  0
 17 38  1  0  0  0  0
 17 39  1  0  0  0  0
 18 24  1  0  0  0  0
 18 19  2  0  0  0  0
 19 20  1  0  0  0  0
 19 40  1  0  0  0  0
 20 21  2  0  0  0  0
 20 41  1  0  0  0  0
 21 22  1  0  0  0  0
 21 23  1  0  0  0  0
 23 24  2  0  0  0  0
 23 42  1  0  0  0  0
 24 43  1  0  0  0  0
M  END
> <s_m_source_file>
AV-unprocessed.smi

> <i_m_source_file_index>
322

> <i_lp_mmshare_version>
43012

> <i_f3d_flags>
0

> <s_epik_input>
W2NIXTFbY0hdW2NIXVtjSF1jKGMxMiluKGMobjIpW0NIMl1bT0hdKVtDSDJdW0NASF0oW09IXSlbQ0gyXU9bQ0gyXWMzW2NIXVtjSF1jKENsKVtjSF1bY0hdMw==

> <s_epik_cmdline>
J2VwaWtfcHl0aG9uJywgJy1waCcsICc3LjAnLCAnLXRuJywgJzgnLCAnLW1hJywgJzIwMCcsICctbWV0YWxfYmluZGluZycsICctaW1hZScsICc8aW5maWxlLm1hZT4nLCAnLW9tYWUnLCAnPG91dGZpbGUubWFlPic=

> <r_epik_Ionization_Penalty>
0.0649918

> <r_epik_Ionization_Penalty_Charging>
0

> <r_epik_Ionization_Penalty_Neutral>
0.0649918

> <r_epik_State_Penalty>
0.0565791

> <r_epik_Charging_Adjusted_Penalty>
0.0565791

> <i_epik_Tot_Q>
0

> <i_epik_Tot_abs_Q>
0

> <r_epik_Metal_State_Penalty>
5.93658e-05

> <b_epik_Metal_Only>
0

> <s_lp_Force_Field>
OPLS_2005

> <r_lp_Energy>
15.9671

> <b_lp_Chiralities_Consistent>
1

> <s_lp_Variant>
AV-unprocessed.smi:322-2

> <Gold.Version>
5.8.1

> <Gold.Id.Protein>
6NUR|6NUR_protein|mol2

> <Gold.PLP.Fitness>
50.4705

> <Gold.PLP.PLP>
-45.9162

> <Gold.PLP.part.hbond>
-3.8078

> <Gold.PLP.part.metal>
0.0000

> <Gold.PLP.part.buried>
-4.5187

> <Gold.PLP.part.nonpolar>
-39.4156

> <Gold.PLP.part.repulsive>
2.2532

> <Gold.PLP.ligand.clash>
0.0000

> <Gold.PLP.ligand.torsion>
0.9863

> <Gold.PLP.Chemscore.Hbond>
2.1332

> <Gold.PLP.Chemscore.CHOScore>
0.0000

> <Gold.PLP.Chemscore.Metal>
0.0000

> <Gold.Chemscore.Hbonds>
donor molecule, donor type, donor heavy atom, donor atom, acceptor molecule, acceptor atom, score
      L1  H     1    25       P1  8028  0.80
      P1  H  7997  8009       L1    14  1.00
      P1  H  8011  8017       L1     1  0.26

> <Gold.PLP.Chemscore.Internal.Correction>
0.1272

> <Gold.Rescore>
     Score         DG    S(hbond)    S(metal)    S(lipo)     H(rot)  DE(clash)    DE(int)     intcor
     15.93     -20.06       2.11        0.00     132.86       3.13       1.84       2.29       ----

> <Gold.Chemscore.Fitness>
15.9334

> <Gold.Chemscore.DG>
-20.0646

> <Gold.Chemscore.ZeroCoef>
-5.4800

> <Gold.Chemscore.Hbond>
2.1146

> <Gold.Chemscore.Metal>
0.0000

> <Gold.Chemscore.Lipo>
132.8569

> <Gold.Chemscore.Internal_Hbond>
0.0000

> <Gold.Chemscore.DEClash>
1.8417

> <Gold.Chemscore.DEInternal>
2.2895

> <Gold.Chemscore.Rot>
3.1337

> <Gold.Chemscore.Internal.Correction>
   9.000000E+99

> <Gold.Chemscore.Hbonds>
donor molecule, donor type, donor heavy atom, donor atom, acceptor molecule, acceptor atom, score
      L1  H     1    25       P1  8028  0.79
      P1  H  7997  8009       L1    14  0.40
      P1  H  8011  8017       L1     1  0.11

> <Gold.Chemscore.Hbond.Weighted>
-7.0627

> <Gold.Chemscore.Metal.Weighted>
-0.0000

> <Gold.Chemscore.Lipo.Weighted>
-15.5443

> <Gold.Chemscore.Internal_Hbond.Weighted>
0.0000

> <Gold.Chemscore.DEClash.Weighted>
1.8417

> <Gold.Chemscore.DEInternal.Weighted>
2.2895

> <Gold.Chemscore.Rot.Weighted>
8.0224

> <Gold.Chemscore.Internal.Correction.Weighted>
   9.000000E+99

> <Gold.Protein.RotatedTorsions>
[ 6907 6896 6895 6894 ] final  126.92 input  -60.11 | X-H torsion
[ 7974 7965 7964 7962 ] final   15.44 input  175.53 | X-H torsion
[ 8008 7997 7996 7995 ] final -168.77 input   59.86 | X-H torsion
[ 10167 10162 10161 10158 ] final  -24.44 input  -65.29 | X-H torsion
[ 10718 10713 10712 10709 ] final  -23.62 input   66.30 | X-H torsion
[ 10763 10752 10751 10750 ] final   -1.18 input  -60.55 | X-H torsion
[ 11005 11000 10999 10996 ] final  -59.21 input  -57.11 | X-H torsion

> <Gold.Protein.ActiveResidues>
 VAL166  LYS551  ARG553  GLY616  TRP617  ASP618  TYR619  PRO620  LYS621  CYS622 
 ASP623  PHE694  ASN695  SER759  ASP760  ASP761  ALA762  ILE779  LEU786  VAL792 
 PHE793  MET794  SER795  GLU796  ALA797  LYS798  CYS799  TRP800  GLU811  SER814 

> <Gold.Protein.RotatedAtoms>
  152.3860  133.6611  159.6198 H   0  0  0  0  0  0  0  0  0  0  0  0  # atno 6907 bound_to 6896
  150.7779  133.9035  159.3357 H   0  0  0  0  0  0  0  0  0  0  0  0  # atno 6908 bound_to 6896
  151.6831  135.0960  160.0271 H   0  0  0  0  0  0  0  0  0  0  0  0  # atno 6909 bound_to 6896
  146.2278  139.8894  142.8557 H   0  0  0  0  0  0  0  0  0  0  0  0  # atno 7974 bound_to 7965
  155.8959  140.1033  157.1385 H   0  0  0  0  0  0  0  0  0  0  0  0  # atno 8008 bound_to 7997
  154.4020  140.1302  156.4439 H   0  0  0  0  0  0  0  0  0  0  0  0  # atno 8009 bound_to 7997
  155.7479  140.3465  155.5138 H   0  0  0  0  0  0  0  0  0  0  0  0  # atno 8010 bound_to 7997
  140.7288  143.4353  151.0740 H   0  0  0  0  0  0  0  0  0  0  0  0  # atno 10167 bound_to 10162
  156.4886  130.4561  149.6769 H   0  0  0  0  0  0  0  0  0  0  0  0  # atno 10718 bound_to 10713
  153.3415  135.6981  153.6863 H   0  0  0  0  0  0  0  0  0  0  0  0  # atno 10763 bound_to 10752
  153.5626  135.3532  155.2806 H   0  0  0  0  0  0  0  0  0  0  0  0  # atno 10764 bound_to 10752
  154.8637  135.4253  154.2629 H   0  0  0  0  0  0  0  0  0  0  0  0  # atno 10765 bound_to 10752
  141.1239  133.6615  156.5037 H   0  0  0  0  0  0  0  0  0  0  0  0  # atno 11005 bound_to 11000
  145.2433  141.0017  143.3923 LP  0  0  0  0  0  0  0  0  0  0  0  0  # atno 17320 bound_to 7965
  144.9434  139.4163  143.6438 LP  0  0  0  0  0  0  0  0  0  0  0  0  # atno 17321 bound_to 7965
  139.8014  143.8079  152.3163 LP  0  0  0  0  0  0  0  0  0  0  0  0  # atno 17342 bound_to 10162
  139.8097  144.7341  150.9714 LP  0  0  0  0  0  0  0  0  0  0  0  0  # atno 17343 bound_to 10162
  156.3449  130.7401  151.2352 LP  0  0  0  0  0  0  0  0  0  0  0  0  # atno 17370 bound_to 10713
  157.7476  131.0393  150.4545 LP  0  0  0  0  0  0  0  0  0  0  0  0  # atno 17371 bound_to 10713
  140.4425  134.7002  157.4999 LP  0  0  0  0  0  0  0  0  0  0  0  0  # atno 17394 bound_to 11000
  140.0219  134.6534  155.9227 LP  0  0  0  0  0  0  0  0  0  0  0  0  # atno 17395 bound_to 11000

$$$$
