#       Name:                AV-unprocessed.smi:244
#       Creating user name   scv26
#       Creation time:       Thu Mar 26 20:50:57 2020


#       File generated by GOLD software.
#

@<TRIPOS>MOLECULE
AV-unprocessed.smi:244
    67    71     1
SMALL
NO_CHARGES


@<TRIPOS>ATOM
      1 ****        -2.8657   1.9796   2.4084 C.3            1 S1                 0.0000
      2 ****        -2.9749   0.5436   2.0618 N.4            1 S1                 1.0000
      3 ****        -4.3759   0.0511   2.0012 C.3            1 S1                 0.0000
      4 ****        -5.0873   0.4784   0.7035 C.3            1 S1                 0.0000
      5 ****        -4.2796   0.0367  -0.5234 C.3            1 S1                 0.0000
      6 ****        -4.9212   0.4892  -1.7104 O.3            1 S1                 0.0000
      7 ****        -4.2395   0.0446  -2.8792 C.3            1 S1                 0.0000
      8 ****        -2.8090   0.6077  -2.8824 C.3            1 S1                 0.0000
      9 ****        -2.1118   0.2365  -1.6542 N.3            1 S1                 0.0000
     10 ****        -0.8164   0.6230  -1.6680 C.ar           1 S1                 0.0000
     11 ****        -0.4983   1.9446  -1.6727 N.ar           1 S1                 0.0000
     12 ****         0.7845   2.3200  -1.6544 C.ar           1 S1                 0.0000
     13 ****         1.8779   1.5546  -1.6175 N.ar           1 S1                 0.0000
     14 ****         1.5567   0.2287  -1.6066 C.ar           1 S1                 0.0000
     15 ****         0.2442  -0.3181  -1.6368 C.ar           1 S1                 0.0000
     16 ****         0.3010  -1.7050  -1.6150 N.2            1 S1                 0.0000
     17 ****         1.5796  -1.9654  -1.5772 C.2            1 S1                 0.0000
     18 ****         2.4051  -0.8629  -1.5473 N.pl3          1 S1                 0.0000
     19 ****         3.8586  -0.8640  -1.4866 C.3            1 S1                 0.0000
     20 ****         4.4390  -0.8895  -0.0492 C.3            1 S1                 0.0000
     21 ****         5.8455  -0.8965  -0.2135 O.3            1 S1                 0.0000
     22 ****         4.0518   0.3556   0.7778 C.3            1 S1                 0.0000
     23 ****         4.5602   0.2627   2.2277 C.3            1 S1                 0.0000
     24 ****         4.0768  -0.9289   2.8368 O.3            1 S1                 0.0000
     25 ****         4.5466  -2.1082   2.1941 C.3            1 S1                 0.0000
     26 ****         4.0371  -2.1536   0.7422 C.3            1 S1                 0.0000
     27 ****        -2.8536   0.6228  -0.4515 C.3            1 S1                 0.0000
     28 ****        -2.1799   0.1597   0.8660 C.3            1 S1                 0.0000
     29 ****        -3.2971   2.6191   1.6384 H              1 S1                 0.0000
     30 ****        -1.8208   2.2632   2.5369 H              1 S1                 0.0000
     31 ****        -3.3804   2.1859   3.3472 H              1 S1                 0.0000
     32 ****        -4.3565  -1.0380   2.0604 H              1 S1                 0.0000
     33 ****        -4.9323   0.3945   2.8742 H              1 S1                 0.0000
     34 ****        -6.0855   0.0412   0.6681 H              1 S1                 0.0000
     35 ****        -5.2260   1.5598   0.6885 H              1 S1                 0.0000
     36 ****        -4.2350  -1.0545  -0.5383 H              1 S1                 0.0000
     37 ****        -4.2287  -1.0457  -2.9174 H              1 S1                 0.0000
     38 ****        -4.7815   0.3887  -3.7602 H              1 S1                 0.0000
     39 ****        -2.2631   0.2296  -3.7482 H              1 S1                 0.0000
     40 ****        -2.8463   1.6942  -2.9743 H              1 S1                 0.0000
     41 ****         0.9603   3.3857  -1.6668 H              1 S1                 0.0000
     42 ****         1.9596  -2.9767  -1.5550 H              1 S1                 0.0000
     43 ****         4.2159  -1.7271  -2.0502 H              1 S1                 0.0000
     44 ****         4.2201   0.0158  -2.0214 H              1 S1                 0.0000
     45 ****         6.2476  -0.9057   0.6417 H              1 S1                 0.0000
     46 ****         4.4278   1.2632   0.3038 H              1 S1                 0.0000
     47 ****         2.9671   0.4542   0.8127 H              1 S1                 0.0000
     48 ****         5.6502   0.2893   2.2673 H              1 S1                 0.0000
     49 ****         4.2042   1.1180   2.8021 H              1 S1                 0.0000
     50 ****         5.6361  -2.1494   2.2332 H              1 S1                 0.0000
     51 ****         4.1798  -2.9750   2.7440 H              1 S1                 0.0000
     52 ****         2.9515  -2.2403   0.7775 H              1 S1                 0.0000
     53 ****         4.4014  -3.0520   0.2425 H              1 S1                 0.0000
     54 ****        -2.9278   1.7114  -0.4483 H              1 S1                 0.0000
     55 ****        -1.1745   0.5694   0.9689 H              1 S1                 0.0000
     56 ****        -2.0683  -0.9256   0.8591 H              1 S1                 0.0000
     57 ****        -2.5487   0.0590   2.8389 H              1 S1                 0.0000
     58 ****        -4.9410   1.4890  -1.7072 LP             1 S1                 0.0000
     59 ****        -5.8571   0.1373  -1.7273 LP             1 S1                 0.0000
     60 ****        -2.0800  -0.7623  -1.6165 LP             1 S1                 0.0000
     61 ****        -1.2222   2.6343  -1.6898 LP             1 S1                 0.0000
     62 ****         2.8131   1.9082  -1.6001 LP             1 S1                 0.0000
     63 ****        -0.4602  -2.3534  -1.6257 LP             1 S1                 0.0000
     64 ****         6.1309  -0.0777  -0.7115 LP             1 S1                 0.0000
     65 ****         6.1213  -1.7106  -0.7246 LP             1 S1                 0.0000
     66 ****         3.0774  -0.9227   2.8016 LP             1 S1                 0.0000
     67 ****         4.3766  -0.9441   3.7907 LP             1 S1                 0.0000
@<TRIPOS>BOND
    1    1    2 1     
    2    1   29 1     
    3    1   30 1     
    4    1   31 1     
    5    2   28 1     
    6    2    3 1     
    7    2   57 1     
    8    3    4 1     
    9    3   32 1     
   10    3   33 1     
   11    4    5 1     
   12    4   34 1     
   13    4   35 1     
   14    5   27 1     
   15    5    6 1     
   16    5   36 1     
   17    6    7 1     
   18    7    8 1     
   19    7   37 1     
   20    7   38 1     
   21    8    9 1     
   22    8   39 1     
   23    8   40 1     
   24    9   10 1     
   25    9   27 1     
   26   10   15 ar    
   27   10   11 ar    
   28   11   12 ar    
   29   12   13 ar    
   30   12   41 1     
   31   13   14 ar    
   32   14   18 1     
   33   14   15 ar    
   34   15   16 1     
   35   16   17 2     
   36   17   18 1     
   37   17   42 1     
   38   18   19 1     
   39   19   20 1     
   40   19   43 1     
   41   19   44 1     
   42   20   26 1     
   43   20   21 1     
   44   20   22 1     
   45   21   45 1     
   46   22   23 1     
   47   22   46 1     
   48   22   47 1     
   49   23   24 1     
   50   23   48 1     
   51   23   49 1     
   52   24   25 1     
   53   25   26 1     
   54   25   50 1     
   55   25   51 1     
   56   26   52 1     
   57   26   53 1     
   58   27   28 1     
   59   27   54 1     
   60   28   55 1     
   61   28   56 1     
   62    6   58 1     
   63    6   59 1     
   64    9   60 1     
   65   11   61 1     
   66   13   62 1     
   67   16   63 1     
   68   21   64 1     
   69   21   65 1     
   70   24   66 1     
   71   24   67 1     
@<TRIPOS>SUBSTRUCTURE
      1 S1             1
@<TRIPOS>SET
LONE_PAIRS      STATIC     ATOMS    <user>   **** ""
10 58 59 60 61 62 63 64 65 66 67
DONOR_HYDROGENS      STATIC     ATOMS    <user>   **** ""
2 57 45
ATOM$BLUE        STATIC     ATOMS    COLORGROUP SYSTEM
10 58 59 60 61 62 63 64 65 66 67
ATOM$RED        STATIC     ATOMS    COLORGROUP SYSTEM
2 57 45
