AV-unprocessed.smi:937|AV-procd|sdf|4210|dock9
  -GOLD-   22720 2113D 1   1.00000     0.00000
 Structure written by MMmdl.
 45 46  0  0  0  0  0  0  0  0  1 V2000
  156.7195  137.9622  152.7783 C   0  0  0  0  0  0  0  0  0  0  0  0
  156.8059  137.5349  154.2287 C   0  0  0  0  0  0  0  0  0  0  0  0
  157.9710  136.9162  154.7290 C   0  0  0  0  0  0  0  0  0  0  0  0
  158.0025  136.5439  156.0868 C   0  0  0  0  0  0  0  0  0  0  0  0
  156.8728  136.8046  156.8890 C   0  0  0  0  0  0  0  0  0  0  0  0
  156.8529  136.4230  158.3557 C   0  0  0  0  0  0  0  0  0  0  0  0
  155.5007  136.7348  159.0164 C   0  0  0  0  0  0  0  0  0  0  0  0
  155.3955  138.1451  159.3697 N   0  0  0  0  0  0  0  0  0  0  0  0
  154.2682  138.7562  159.7718 C   0  0  0  0  0  0  0  0  0  0  0  0
  153.1936  138.1736  159.9053 O   0  0  0  0  0  0  0  0  0  0  0  0
  154.3958  140.0720  160.0210 N   0  0  0  0  0  0  0  0  0  0  0  0
  153.3723  141.0183  160.4693 C   0  0  1  0  0  0  0  0  0  0  0  0
  153.8178  141.7319  161.7621 C   0  0  0  0  0  0  0  0  0  0  0  0
  152.7901  142.7858  162.1987 C   0  0  0  0  0  0  0  0  0  0  0  0
  152.5228  143.8019  161.0777 C   0  0  0  0  0  0  0  0  0  0  0  0
  152.0679  143.1083  159.7762 C   0  0  1  0  0  0  0  0  0  0  0  0
  151.7877  144.1240  158.6493 C   0  0  0  0  0  0  0  0  0  0  0  0
  150.9160  145.0498  159.0506 F   0  0  0  0  0  0  0  0  0  0  0  0
  152.9195  144.7268  158.2855 F   0  0  0  0  0  0  0  0  0  0  0  0
  151.2899  143.4974  157.5832 F   0  0  0  0  0  0  0  0  0  0  0  0
  153.1030  142.0439  159.3516 C   0  0  0  0  0  0  0  0  0  0  0  0
  155.7570  137.4277  156.2906 C   0  0  0  0  0  0  0  0  0  0  0  0
  155.7183  137.7887  154.9899 N   0  0  0  0  0  0  0  0  0  0  0  0
  157.3845  137.3631  152.1557 H   0  0  0  0  0  0  0  0  0  0  0  0
  157.0061  139.0093  152.6778 H   0  0  0  0  0  0  0  0  0  0  0  0
  155.7044  137.8454  152.3970 H   0  0  0  0  0  0  0  0  0  0  0  0
  158.8216  136.7313  154.0893 H   0  0  0  0  0  0  0  0  0  0  0  0
  158.8780  136.0669  156.5023 H   0  0  0  0  0  0  0  0  0  0  0  0
  157.0805  135.3602  158.4505 H   0  0  0  0  0  0  0  0  0  0  0  0
  157.6564  136.9561  158.8662 H   0  0  0  0  0  0  0  0  0  0  0  0
  154.6776  136.4511  158.3580 H   0  0  0  0  0  0  0  0  0  0  0  0
  155.3866  136.1468  159.9275 H   0  0  0  0  0  0  0  0  0  0  0  0
  156.2354  138.6996  159.2921 H   0  0  0  0  0  0  0  0  0  0  0  0
  155.3208  140.4583  159.8994 H   0  0  0  0  0  0  0  0  0  0  0  0
  152.4402  140.4826  160.6584 H   0  0  0  0  0  0  0  0  0  0  0  0
  153.9618  141.0106  162.5672 H   0  0  0  0  0  0  0  0  0  0  0  0
  154.7842  142.2132  161.6038 H   0  0  0  0  0  0  0  0  0  0  0  0
  151.8575  142.2935  162.4774 H   0  0  0  0  0  0  0  0  0  0  0  0
  153.1449  143.3029  163.0909 H   0  0  0  0  0  0  0  0  0  0  0  0
  151.7657  144.5131  161.4084 H   0  0  0  0  0  0  0  0  0  0  0  0
  153.4280  144.3811  160.8910 H   0  0  0  0  0  0  0  0  0  0  0  0
  151.1304  142.5912  159.9878 H   0  0  0  0  0  0  0  0  0  0  0  0
  154.0366  142.5353  159.0727 H   0  0  0  0  0  0  0  0  0  0  0  0
  152.7525  141.5237  158.4594 H   0  0  0  0  0  0  0  0  0  0  0  0
  154.8708  137.6418  156.8699 H   0  0  0  0  0  0  0  0  0  0  0  0
  1  2  1  0  0  0  0
  1 24  1  0  0  0  0
  1 25  1  0  0  0  0
  1 26  1  0  0  0  0
  2 23  1  0  0  0  0
  2  3  2  0  0  0  0
  3  4  1  0  0  0  0
  3 27  1  0  0  0  0
  4  5  2  0  0  0  0
  4 28  1  0  0  0  0
  5  6  1  0  0  0  0
  5 22  1  0  0  0  0
  6  7  1  0  0  0  0
  6 29  1  0  0  0  0
  6 30  1  0  0  0  0
  7  8  1  0  0  0  0
  7 31  1  0  0  0  0
  7 32  1  0  0  0  0
  8  9  1  0  0  0  0
  8 33  1  0  0  0  0
  9 10  2  0  0  0  0
  9 11  1  0  0  0  0
 11 12  1  0  0  0  0
 11 34  1  0  0  0  0
 12 21  1  0  0  0  0
 12 13  1  0  0  0  0
 12 35  1  0  0  0  0
 13 14  1  0  0  0  0
 13 36  1  0  0  0  0
 13 37  1  0  0  0  0
 14 15  1  0  0  0  0
 14 38  1  0  0  0  0
 14 39  1  0  0  0  0
 15 16  1  0  0  0  0
 15 40  1  0  0  0  0
 15 41  1  0  0  0  0
 16 17  1  0  0  0  0
 16 21  1  0  0  0  0
 16 42  1  0  0  0  0
 17 18  1  0  0  0  0
 17 19  1  0  0  0  0
 17 20  1  0  0  0  0
 21 43  1  0  0  0  0
 21 44  1  0  0  0  0
 22 23  2  0  0  0  0
 22 45  1  0  0  0  0
M  END
> <s_m_source_file>
AV-unprocessed.smi

> <i_m_source_file_index>
937

> <i_lp_mmshare_version>
43012

> <i_f3d_flags>
0

> <s_epik_input>
W0NIM11jMVtjSF1bY0hdYyhbY0hdbjEpW0NIMl1bQ0gyXVtOSF1DKD1PKVtOSF1bQ0BASF0yW0NIMl1bQ0gyXVtDSDJdW0NAQEhdKEMoRikoRilGKVtDSDJdMg==

> <s_epik_cmdline>
J2VwaWtfcHl0aG9uJywgJy1waCcsICc3LjAnLCAnLXRuJywgJzgnLCAnLW1hJywgJzIwMCcsICctbWV0YWxfYmluZGluZycsICctaW1hZScsICc8aW5maWxlLm1hZT4nLCAnLW9tYWUnLCAnPG91dGZpbGUubWFlPic=

> <r_epik_Ionization_Penalty>
0.0563445

> <r_epik_Ionization_Penalty_Charging>
0

> <r_epik_Ionization_Penalty_Neutral>
0.0563445

> <r_epik_State_Penalty>
0.0485409

> <r_epik_Charging_Adjusted_Penalty>
0.0485409

> <i_epik_Tot_Q>
0

> <i_epik_Tot_abs_Q>
0

> <r_epik_Metal_State_Penalty>
0.0443056

> <b_epik_Metal_Only>
0

> <s_lp_Force_Field>
OPLS_2005

> <r_lp_Energy>
17.7613

> <b_lp_Chiralities_Consistent>
1

> <s_lp_Variant>
AV-unprocessed.smi:937-2

> <Gold.Version>
5.8.1

> <Gold.Id.Protein>
6NUR|6NUR_protein|mol2

> <Gold.PLP.Fitness>
49.0125

> <Gold.PLP.PLP>
-49.4186

> <Gold.PLP.part.hbond>
-1.3282

> <Gold.PLP.part.metal>
0.0000

> <Gold.PLP.part.buried>
-4.6442

> <Gold.PLP.part.nonpolar>
-43.3940

> <Gold.PLP.part.repulsive>
0.1388

> <Gold.PLP.ligand.clash>
0.0000

> <Gold.PLP.ligand.torsion>
0.2129

> <Gold.PLP.Chemscore.Hbond>
0.0000

> <Gold.PLP.Chemscore.CHOScore>
0.0000

> <Gold.PLP.Chemscore.Metal>
0.0000

> <Gold.PLP.Chemscore.Internal.Correction>
0.0197

> <Gold.Rescore>
     Score         DG    S(hbond)    S(metal)    S(lipo)     H(rot)  DE(clash)    DE(int)     intcor
     15.59     -16.15       0.00        0.00     125.92       1.58       0.31       0.26       ----

> <Gold.Chemscore.Fitness>
15.5895

> <Gold.Chemscore.DG>
-16.1549

> <Gold.Chemscore.ZeroCoef>
-5.4800

> <Gold.Chemscore.Hbond>
0.0000

> <Gold.Chemscore.Metal>
0.0000

> <Gold.Chemscore.Lipo>
125.9171

> <Gold.Chemscore.Internal_Hbond>
0.0000

> <Gold.Chemscore.DEClash>
0.3075

> <Gold.Chemscore.DEInternal>
0.2579

> <Gold.Chemscore.Rot>
1.5849

> <Gold.Chemscore.Internal.Correction>
   9.000000E+99

> <Gold.Chemscore.Hbond.Weighted>
-0.0000

> <Gold.Chemscore.Metal.Weighted>
-0.0000

> <Gold.Chemscore.Lipo.Weighted>
-14.7323

> <Gold.Chemscore.Internal_Hbond.Weighted>
0.0000

> <Gold.Chemscore.DEClash.Weighted>
0.3075

> <Gold.Chemscore.DEInternal.Weighted>
0.2579

> <Gold.Chemscore.Rot.Weighted>
4.0574

> <Gold.Chemscore.Internal.Correction.Weighted>
   9.000000E+99

> <Gold.Protein.RotatedTorsions>
[ 6907 6896 6895 6894 ] final  153.42 input  -60.11 | X-H torsion
[ 7974 7965 7964 7962 ] final   20.52 input  175.53 | X-H torsion
[ 8008 7997 7996 7995 ] final  -46.77 input   59.86 | X-H torsion
[ 10167 10162 10161 10158 ] final -162.63 input  -65.29 | X-H torsion
[ 10718 10713 10712 10709 ] final   73.97 input   66.30 | X-H torsion
[ 10763 10752 10751 10750 ] final    3.19 input  -60.55 | X-H torsion
[ 11005 11000 10999 10996 ] final   45.12 input  -57.11 | X-H torsion

> <Gold.Protein.ActiveResidues>
 VAL166  LYS551  ARG553  GLY616  TRP617  ASP618  TYR619  PRO620  LYS621  CYS622 
 ASP623  PHE694  ASN695  SER759  ASP760  ASP761  ALA762  ILE779  LEU786  VAL792 
 PHE793  MET794  SER795  GLU796  ALA797  LYS798  CYS799  TRP800  GLU811  SER814 

> <Gold.Protein.RotatedAtoms>
  152.0729  133.4115  159.4466 H   0  0  0  0  0  0  0  0  0  0  0  0  # atno 6907 bound_to 6896
  150.6863  134.3071  159.4740 H   0  0  0  0  0  0  0  0  0  0  0  0  # atno 6908 bound_to 6896
  152.0905  134.9410  160.0622 H   0  0  0  0  0  0  0  0  0  0  0  0  # atno 6909 bound_to 6896
  146.2108  139.8157  142.8690 H   0  0  0  0  0  0  0  0  0  0  0  0  # atno 7974 bound_to 7965
  154.4010  140.1363  156.4065 H   0  0  0  0  0  0  0  0  0  0  0  0  # atno 8008 bound_to 7997
  155.7774  140.3482  155.5259 H   0  0  0  0  0  0  0  0  0  0  0  0  # atno 8009 bound_to 7997
  155.8707  140.0971  157.1542 H   0  0  0  0  0  0  0  0  0  0  0  0  # atno 8010 bound_to 7997
  139.6378  144.0316  152.2068 H   0  0  0  0  0  0  0  0  0  0  0  0  # atno 10167 bound_to 10162
  157.6572  130.9655  150.1145 H   0  0  0  0  0  0  0  0  0  0  0  0  # atno 10718 bound_to 10713
  153.2863  135.6945  153.7336 H   0  0  0  0  0  0  0  0  0  0  0  0  # atno 10763 bound_to 10752
  153.6304  135.3411  155.3040 H   0  0  0  0  0  0  0  0  0  0  0  0  # atno 10764 bound_to 10752
  154.8511  135.4407  154.1933 H   0  0  0  0  0  0  0  0  0  0  0  0  # atno 10765 bound_to 10752
  140.1489  134.4487  155.8396 H   0  0  0  0  0  0  0  0  0  0  0  0  # atno 11005 bound_to 11000
  145.3149  141.0229  143.3533 LP  0  0  0  0  0  0  0  0  0  0  0  0  # atno 17320 bound_to 7965
  144.8909  139.4776  143.6678 LP  0  0  0  0  0  0  0  0  0  0  0  0  # atno 17321 bound_to 7965
  139.9998  144.6302  150.7740 LP  0  0  0  0  0  0  0  0  0  0  0  0  # atno 17342 bound_to 10162
  140.7475  143.2907  151.3338 LP  0  0  0  0  0  0  0  0  0  0  0  0  # atno 17343 bound_to 10162
  156.2033  130.3661  149.8761 LP  0  0  0  0  0  0  0  0  0  0  0  0  # atno 17370 bound_to 10713
  156.6659  130.8801  151.3555 LP  0  0  0  0  0  0  0  0  0  0  0  0  # atno 17371 bound_to 10713
  141.2196  133.6864  156.7385 LP  0  0  0  0  0  0  0  0  0  0  0  0  # atno 17394 bound_to 11000
  140.2629  134.8452  157.3776 LP  0  0  0  0  0  0  0  0  0  0  0  0  # atno 17395 bound_to 11000

$$$$
