AV-unprocessed.smi:914|AV-procd|sdf|4153|dock8
  -GOLD-   22720 2 53D 1   1.00000     0.00000
 Structure written by MMmdl.
 32 33  0  0  0  0  0  0  0  0  2 V2000
  151.5984  135.5135  156.0307 O   0  0  0  0  0  0  0  0  0  0  0  0
  151.2444  136.6604  155.7601 C   0  0  0  0  0  0  0  0  0  0  0  0
  152.1311  137.6839  155.5879 N   0  5  0  0  0  0  0  0  0  0  0  0
  151.7572  138.9646  155.2808 C   0  0  0  0  0  0  0  0  0  0  0  0
  152.5781  139.8704  155.1350 O   0  0  0  0  0  0  0  0  0  0  0  0
  150.4279  139.2428  155.1294 N   0  0  0  0  0  0  0  0  0  0  0  0
  149.9291  140.5857  154.7999 C   0  0  0  0  0  0  0  0  0  0  0  0
  150.3257  141.6183  155.8666 C   0  0  0  0  0  0  0  0  0  0  0  0
  149.6131  141.3649  157.0654 O   0  0  0  0  0  0  0  0  0  0  0  0
  150.3785  141.6234  158.2290 C   0  0  0  0  0  0  0  0  0  0  0  0
  150.9527  143.0418  158.1348 C   0  0  1  0  0  0  0  0  0  0  0  0
  150.1506  144.0816  158.9122 C   0  0  0  0  0  0  0  0  0  0  0  0
  151.1772  145.1756  159.1026 C   0  0  0  0  0  0  0  0  0  0  0  0
  152.4702  144.3849  159.2990 C   0  0  0  0  0  0  0  0  0  0  0  0
  152.2422  143.0953  158.7353 O   0  0  0  0  0  0  0  0  0  0  0  0
  149.4735  138.2268  155.3048 C   0  0  0  0  0  0  0  0  0  0  0  0
  149.8222  136.9622  155.6111 C   0  0  0  0  0  0  0  0  0  0  0  0
  148.6255  135.7342  155.8233 Cl  0  0  0  0  0  0  0  0  0  0  0  0
  150.2691  140.9146  153.8167 H   0  0  0  0  0  0  0  0  0  0  0  0
  148.8415  140.5501  154.7235 H   0  0  0  0  0  0  0  0  0  0  0  0
  151.3976  141.5504  156.0583 H   0  0  0  0  0  0  0  0  0  0  0  0
  150.1235  142.6296  155.5104 H   0  0  0  0  0  0  0  0  0  0  0  0
  149.7317  141.5408  159.1040 H   0  0  0  0  0  0  0  0  0  0  0  0
  151.1827  140.8947  158.3423 H   0  0  0  0  0  0  0  0  0  0  0  0
  151.0336  143.3552  157.0923 H   0  0  0  0  0  0  0  0  0  0  0  0
  149.2607  144.4186  158.3797 H   0  0  0  0  0  0  0  0  0  0  0  0
  149.8428  143.6844  159.8806 H   0  0  0  0  0  0  0  0  0  0  0  0
  151.2443  145.7823  158.1986 H   0  0  0  0  0  0  0  0  0  0  0  0
  150.9497  145.8361  159.9396 H   0  0  0  0  0  0  0  0  0  0  0  0
  153.3209  144.8750  158.8251 H   0  0  0  0  0  0  0  0  0  0  0  0
  152.6963  144.2651  160.3589 H   0  0  0  0  0  0  0  0  0  0  0  0
  148.4473  138.5401  155.1801 H   0  0  0  0  0  0  0  0  0  0  0  0
  1  2  2  0  0  0  0
  2 17  1  0  0  0  0
  2  3  1  0  0  0  0
  3  4  1  0  0  0  0
  4  5  2  0  0  0  0
  4  6  1  0  0  0  0
  6  7  1  0  0  0  0
  6 16  1  0  0  0  0
  7  8  1  0  0  0  0
  7 19  1  0  0  0  0
  7 20  1  0  0  0  0
  8  9  1  0  0  0  0
  8 21  1  0  0  0  0
  8 22  1  0  0  0  0
  9 10  1  0  0  0  0
 10 11  1  0  0  0  0
 10 23  1  0  0  0  0
 10 24  1  0  0  0  0
 11 15  1  0  0  0  0
 11 12  1  0  0  0  0
 11 25  1  0  0  0  0
 12 13  1  0  0  0  0
 12 26  1  0  0  0  0
 12 27  1  0  0  0  0
 13 14  1  0  0  0  0
 13 28  1  0  0  0  0
 13 29  1  0  0  0  0
 14 15  1  0  0  0  0
 14 30  1  0  0  0  0
 14 31  1  0  0  0  0
 16 17  2  0  0  0  0
 16 32  1  0  0  0  0
 17 18  1  0  0  0  0
M  CHG  1   3  -1
M  END
> <s_m_source_file>
AV-unprocessed.smi

> <i_m_source_file_index>
914

> <i_lp_mmshare_version>
43012

> <i_f3d_flags>
0

> <s_epik_input>
Tz1jMVtuSF1jKD1PKW4oW2NIXWMxQ2wpW0NIMl1bQ0gyXU9bQ0gyXVtDQEBIXTJbQ0gyXVtDSDJdW0NIMl1PMg==

> <s_epik_cmdline>
J2VwaWtfcHl0aG9uJywgJy1waCcsICc3LjAnLCAnLXRuJywgJzgnLCAnLW1hJywgJzIwMCcsICctbWV0YWxfYmluZGluZycsICctaW1hZScsICc8aW5maWxlLm1hZT4nLCAnLW9tYWUnLCAnPG91dGZpbGUubWFlPic=

> <r_epik_Ionization_Penalty>
1.76812

> <r_epik_Ionization_Penalty_Charging>
1.60097e-08

> <r_epik_Ionization_Penalty_Neutral>
1.76812

> <r_epik_State_Penalty>
1.87929

> <r_epik_Charging_Adjusted_Penalty>
1.87929

> <i_epik_Tot_Q>
-1

> <i_epik_Tot_abs_Q>
1

> <r_epik_Metal_State_Penalty>
0.0133872

> <b_epik_Metal_Only>
0

> <s_lp_Force_Field>
OPLS_2005

> <r_lp_Energy>
30.6138

> <b_lp_Chiralities_Consistent>
1

> <s_lp_Variant>
AV-unprocessed.smi:914-4

> <Gold.Version>
5.8.1

> <Gold.Id.Protein>
6NUR|6NUR_protein|mol2

> <Gold.PLP.Fitness>
37.5277

> <Gold.PLP.PLP>
-31.6460

> <Gold.PLP.part.hbond>
-3.2678

> <Gold.PLP.part.metal>
0.0000

> <Gold.PLP.part.buried>
-3.9338

> <Gold.PLP.part.nonpolar>
-25.3428

> <Gold.PLP.part.repulsive>
0.1350

> <Gold.PLP.ligand.clash>
0.0000

> <Gold.PLP.ligand.torsion>
0.7826

> <Gold.PLP.Chemscore.Hbond>
2.4760

> <Gold.PLP.Chemscore.CHOScore>
0.0000

> <Gold.PLP.Chemscore.Metal>
0.0000

> <Gold.Chemscore.Hbonds>
donor molecule, donor type, donor heavy atom, donor atom, acceptor molecule, acceptor atom, score
      P1  H  7989  7998       L1     5  0.44
      P1  H  7997  8010       L1     5  0.98
      P1  H 10752 10764       L1     1  1.00

> <Gold.PLP.Chemscore.Internal.Correction>
0.0188

> <Gold.Rescore>
     Score         DG    S(hbond)    S(metal)    S(lipo)     H(rot)  DE(clash)    DE(int)     intcor
     12.48     -14.58       1.76        0.00      72.93       2.07       0.23       1.88       ----

> <Gold.Chemscore.Fitness>
12.4760

> <Gold.Chemscore.DG>
-14.5820

> <Gold.Chemscore.ZeroCoef>
-5.4800

> <Gold.Chemscore.Hbond>
1.7554

> <Gold.Chemscore.Metal>
0.0000

> <Gold.Chemscore.Lipo>
72.9273

> <Gold.Chemscore.Internal_Hbond>
0.0000

> <Gold.Chemscore.DEClash>
0.2274

> <Gold.Chemscore.DEInternal>
1.8785

> <Gold.Chemscore.Rot>
2.0678

> <Gold.Chemscore.Internal.Correction>
   9.000000E+99

> <Gold.Chemscore.Hbonds>
donor molecule, donor type, donor heavy atom, donor atom, acceptor molecule, acceptor atom, score
      P1  H  7989  7998       L1     5  0.10
      P1  H  7997  8010       L1     5  0.92
      P1  H 10752 10764       L1     1  0.29

> <Gold.Chemscore.Hbond.Weighted>
-5.8631

> <Gold.Chemscore.Metal.Weighted>
-0.0000

> <Gold.Chemscore.Lipo.Weighted>
-8.5325

> <Gold.Chemscore.Internal_Hbond.Weighted>
0.0000

> <Gold.Chemscore.DEClash.Weighted>
0.2274

> <Gold.Chemscore.DEInternal.Weighted>
1.8785

> <Gold.Chemscore.Rot.Weighted>
5.2935

> <Gold.Chemscore.Internal.Correction.Weighted>
   9.000000E+99

> <Gold.Protein.RotatedTorsions>
[ 6907 6896 6895 6894 ] final   25.78 input  -60.11 | X-H torsion
[ 7974 7965 7964 7962 ] final   33.77 input  175.53 | X-H torsion
[ 8008 7997 7996 7995 ] final   98.03 input   59.86 | X-H torsion
[ 10167 10162 10161 10158 ] final  -50.97 input  -65.29 | X-H torsion
[ 10718 10713 10712 10709 ] final   74.47 input   66.30 | X-H torsion
[ 10763 10752 10751 10750 ] final  -20.67 input  -60.55 | X-H torsion
[ 11005 11000 10999 10996 ] final   98.56 input  -57.11 | X-H torsion

> <Gold.Protein.ActiveResidues>
 VAL166  LYS551  ARG553  GLY616  TRP617  ASP618  TYR619  PRO620  LYS621  CYS622 
 ASP623  PHE694  ASN695  SER759  ASP760  ASP761  ALA762  ILE779  LEU786  VAL792 
 PHE793  MET794  SER795  GLU796  ALA797  LYS798  CYS799  TRP800  GLU811  SER814 

> <Gold.Protein.RotatedAtoms>
  151.9777  135.0044  160.0555 H   0  0  0  0  0  0  0  0  0  0  0  0  # atno 6907 bound_to 6896
  152.1725  133.4648  159.4925 H   0  0  0  0  0  0  0  0  0  0  0  0  # atno 6908 bound_to 6896
  150.6904  134.1853  159.4307 H   0  0  0  0  0  0  0  0  0  0  0  0  # atno 6909 bound_to 6896
  146.1398  139.6354  142.9171 H   0  0  0  0  0  0  0  0  0  0  0  0  # atno 7974 bound_to 7965
  156.0962  140.3250  155.7881 H   0  0  0  0  0  0  0  0  0  0  0  0  # atno 8008 bound_to 7997
  155.4913  140.0562  157.2970 H   0  0  0  0  0  0  0  0  0  0  0  0  # atno 8009 bound_to 7997
  154.4668  140.1993  156.0113 H   0  0  0  0  0  0  0  0  0  0  0  0  # atno 8010 bound_to 7997
  140.6612  143.2637  151.4435 H   0  0  0  0  0  0  0  0  0  0  0  0  # atno 10167 bound_to 10162
  157.6593  130.9679  150.1216 H   0  0  0  0  0  0  0  0  0  0  0  0  # atno 10718 bound_to 10713
  153.6240  135.6991  153.5300 H   0  0  0  0  0  0  0  0  0  0  0  0  # atno 10763 bound_to 10752
  153.2914  135.4156  155.1170 H   0  0  0  0  0  0  0  0  0  0  0  0  # atno 10764 bound_to 10752
  154.8537  135.3626  154.5781 H   0  0  0  0  0  0  0  0  0  0  0  0  # atno 10765 bound_to 10752
  139.8772  134.9055  156.4475 H   0  0  0  0  0  0  0  0  0  0  0  0  # atno 11005 bound_to 11000
  145.5073  141.0436  143.2507 LP  0  0  0  0  0  0  0  0  0  0  0  0  # atno 17320 bound_to 7965
  144.7779  139.6589  143.7167 LP  0  0  0  0  0  0  0  0  0  0  0  0  # atno 17321 bound_to 7965
  139.5846  144.1633  152.2012 LP  0  0  0  0  0  0  0  0  0  0  0  0  # atno 17342 bound_to 10162
  140.0969  144.5573  150.7016 LP  0  0  0  0  0  0  0  0  0  0  0  0  # atno 17343 bound_to 10162
  156.2086  130.3665  149.8698 LP  0  0  0  0  0  0  0  0  0  0  0  0  # atno 17370 bound_to 10713
  156.6583  130.8772  151.3543 LP  0  0  0  0  0  0  0  0  0  0  0  0  # atno 17371 bound_to 10713
  140.8956  133.7817  155.9621 LP  0  0  0  0  0  0  0  0  0  0  0  0  # atno 17394 bound_to 11000
  140.8707  134.2730  157.5192 LP  0  0  0  0  0  0  0  0  0  0  0  0  # atno 17395 bound_to 11000

$$$$
