AV-unprocessed.smi:249|AV-procd|sdf|1923|dock10
  -GOLD-   2262021 33D 1   1.00000     0.00000
 Structure written by MMmdl.
 64 67  0  0  0  0  0  0  0  0  2 V2000
  153.6683  142.1734  161.4254 C   0  0  0  0  0  0  0  0  0  0  0  0
  152.4252  142.8249  160.7972 C   0  0  0  0  0  0  0  0  0  0  0  0
  152.1346  142.3519  159.4122 N   0  3  1  0  0  0  0  0  0  0  0  0
  152.2662  140.8707  159.2913 C   0  0  0  0  0  0  0  0  0  0  0  0
  152.0495  140.3830  157.8499 C   0  0  0  0  0  0  0  0  0  0  0  0
  150.6665  140.7935  157.3170 C   0  0  1  0  0  0  0  0  0  0  0  0
  149.5682  140.0988  158.0090 N   0  0  0  0  0  0  0  0  0  0  0  0
  149.5036  138.6473  157.8718 C   0  0  0  0  0  0  0  0  0  0  0  0
  148.3427  140.6423  157.8351 C   0  0  0  0  0  0  0  0  0  0  0  0
  147.6749  141.0405  158.9457 N   0  0  0  0  0  0  0  0  0  0  0  0
  146.4648  141.5969  158.8318 C   0  0  0  0  0  0  0  0  0  0  0  0
  145.7572  141.8389  157.7255 N   0  0  0  0  0  0  0  0  0  0  0  0
  146.4261  141.4307  156.6088 C   0  0  0  0  0  0  0  0  0  0  0  0
  147.7130  140.8257  156.5723 C   0  0  0  0  0  0  0  0  0  0  0  0
  148.0706  140.5454  155.2591 N   0  0  0  0  0  0  0  0  0  0  0  0
  147.0521  140.9632  154.5575 C   0  0  0  0  0  0  0  0  0  0  0  0
  146.0195  141.5058  155.2890 N   0  0  0  0  0  0  0  0  0  0  0  0
  144.7753  142.0455  154.7705 C   0  0  0  0  0  0  0  0  0  0  0  0
  143.8359  142.5673  155.8890 C   0  0  2  0  0  0  0  0  0  0  0  0
  143.0767  141.4379  156.6240 C   0  0  0  0  0  0  0  0  0  0  0  0
  142.5760  140.4664  155.7286 O   0  0  0  0  0  0  0  0  0  0  0  0
  142.8985  143.7253  155.4526 C   0  0  1  0  0  0  0  0  0  0  0  0
  141.5614  143.2899  154.8491 C   0  0  0  0  0  0  0  0  0  0  0  0
  140.5232  144.1542  155.5661 C   0  0  0  0  0  0  0  0  0  0  0  0
  141.2674  145.2585  156.0531 O   0  0  0  0  0  0  0  0  0  0  0  0
  142.4942  144.7364  156.5346 C   0  0  0  0  0  0  0  0  0  0  0  0
  150.5962  142.3317  157.4297 C   0  0  0  0  0  0  0  0  0  0  0  0
  150.8221  142.8385  158.8736 C   0  0  2  0  0  0  0  0  0  0  0  0
  150.6943  144.3757  158.8796 C   0  0  0  0  0  0  0  0  0  0  0  0
  153.9281  142.6736  162.3588 H   0  0  0  0  0  0  0  0  0  0  0  0
  154.5317  142.2455  160.7632 H   0  0  0  0  0  0  0  0  0  0  0  0
  153.5086  141.1235  161.6680 H   0  0  0  0  0  0  0  0  0  0  0  0
  151.5531  142.6688  161.4338 H   0  0  0  0  0  0  0  0  0  0  0  0
  152.6213  143.8948  160.7948 H   0  0  0  0  0  0  0  0  0  0  0  0
  153.2606  140.5494  159.5962 H   0  0  0  0  0  0  0  0  0  0  0  0
  151.5592  140.3851  159.9655 H   0  0  0  0  0  0  0  0  0  0  0  0
  152.8229  140.8110  157.2103 H   0  0  0  0  0  0  0  0  0  0  0  0
  152.1916  139.3040  157.7909 H   0  0  0  0  0  0  0  0  0  0  0  0
  150.6163  140.5197  156.2626 H   0  0  0  0  0  0  0  0  0  0  0  0
  148.5321  138.2497  158.1713 H   0  0  0  0  0  0  0  0  0  0  0  0
  150.2542  138.1756  158.5059 H   0  0  0  0  0  0  0  0  0  0  0  0
  149.6891  138.3477  156.8397 H   0  0  0  0  0  0  0  0  0  0  0  0
  145.9962  141.8907  159.7596 H   0  0  0  0  0  0  0  0  0  0  0  0
  147.0227  140.8820  153.4805 H   0  0  0  0  0  0  0  0  0  0  0  0
  145.0268  142.8379  154.0662 H   0  0  0  0  0  0  0  0  0  0  0  0
  144.2898  141.2631  154.1880 H   0  0  0  0  0  0  0  0  0  0  0  0
  144.4852  143.0058  156.6482 H   0  0  0  0  0  0  0  0  0  0  0  0
  143.7275  140.9401  157.3432 H   0  0  0  0  0  0  0  0  0  0  0  0
  142.2453  141.8479  157.1980 H   0  0  0  0  0  0  0  0  0  0  0  0
  142.6396  140.8071  154.8492 H   0  0  0  0  0  0  0  0  0  0  0  0
  143.4110  144.2892  154.6716 H   0  0  0  0  0  0  0  0  0  0  0  0
  141.5545  143.4964  153.7781 H   0  0  0  0  0  0  0  0  0  0  0  0
  141.3446  142.2290  154.9720 H   0  0  0  0  0  0  0  0  0  0  0  0
  139.7125  144.4718  154.9101 H   0  0  0  0  0  0  0  0  0  0  0  0
  140.0889  143.6139  156.4088 H   0  0  0  0  0  0  0  0  0  0  0  0
  142.3177  144.2670  157.5021 H   0  0  0  0  0  0  0  0  0  0  0  0
  143.2340  145.5257  156.6693 H   0  0  0  0  0  0  0  0  0  0  0  0
  151.3581  142.7655  156.7800 H   0  0  0  0  0  0  0  0  0  0  0  0
  149.6486  142.7052  157.0398 H   0  0  0  0  0  0  0  0  0  0  0  0
  150.0315  142.4378  159.5098 H   0  0  0  0  0  0  0  0  0  0  0  0
  149.7934  144.6917  158.3523 H   0  0  0  0  0  0  0  0  0  0  0  0
  151.5449  144.8491  158.3882 H   0  0  0  0  0  0  0  0  0  0  0  0
  150.6079  144.7834  159.8861 H   0  0  0  0  0  0  0  0  0  0  0  0
  152.8470  142.7526  158.8186 H   0  0  0  0  0  0  0  0  0  0  0  0
  1  2  1  0  0  0  0
  1 30  1  0  0  0  0
  1 31  1  0  0  0  0
  1 32  1  0  0  0  0
  2  3  1  0  0  0  0
  2 33  1  0  0  0  0
  2 34  1  0  0  0  0
  3 28  1  0  0  0  0
  3  4  1  0  0  0  0
  3 64  1  0  0  0  0
  4  5  1  0  0  0  0
  4 35  1  0  0  0  0
  4 36  1  0  0  0  0
  5  6  1  0  0  0  0
  5 37  1  0  0  0  0
  5 38  1  0  0  0  0
  6  7  1  0  0  0  0
  6 27  1  0  0  0  0
  6 39  1  0  0  0  0
  7  8  1  0  0  0  0
  7  9  1  0  0  0  0
  8 40  1  0  0  0  0
  8 41  1  0  0  0  0
  8 42  1  0  0  0  0
  9 14  1  0  0  0  0
  9 10  2  0  0  0  0
 10 11  1  0  0  0  0
 11 12  2  0  0  0  0
 11 43  1  0  0  0  0
 12 13  1  0  0  0  0
 13 17  1  0  0  0  0
 13 14  2  0  0  0  0
 14 15  1  0  0  0  0
 15 16  2  0  0  0  0
 16 17  1  0  0  0  0
 16 44  1  0  0  0  0
 17 18  1  0  0  0  0
 18 19  1  0  0  0  0
 18 45  1  0  0  0  0
 18 46  1  0  0  0  0
 19 20  1  0  0  0  0
 19 22  1  0  0  0  0
 19 47  1  0  0  0  0
 20 21  1  0  0  0  0
 20 48  1  0  0  0  0
 20 49  1  0  0  0  0
 21 50  1  0  0  0  0
 22 26  1  0  0  0  0
 22 23  1  0  0  0  0
 22 51  1  0  0  0  0
 23 24  1  0  0  0  0
 23 52  1  0  0  0  0
 23 53  1  0  0  0  0
 24 25  1  0  0  0  0
 24 54  1  0  0  0  0
 24 55  1  0  0  0  0
 25 26  1  0  0  0  0
 26 56  1  0  0  0  0
 26 57  1  0  0  0  0
 27 28  1  0  0  0  0
 27 58  1  0  0  0  0
 27 59  1  0  0  0  0
 28 29  1  0  0  0  0
 28 60  1  0  0  0  0
 29 61  1  0  0  0  0
 29 62  1  0  0  0  0
 29 63  1  0  0  0  0
M  CHG  1   3   1
M  END
> <s_m_source_file>
AV-unprocessed.smi

> <i_m_source_file_index>
249

> <i_lp_mmshare_version>
43012

> <i_f3d_flags>
0

> <s_epik_input>
W0NIM11bQ0gyXU4xW0NIMl1bQ0gyXVtDQEhdKFtDSDJdW0NASF0xW0NIM10pTihbQ0gzXSljKG5bY0hdbjIpYyhjMjMpbltjSF1uM1tDSDJdW0NASF0oW0NIMl1bT0hdKVtDQEBIXTRbQ0gyXVtDSDJdT1tDSDJdNA==

> <s_epik_cmdline>
J2VwaWtfcHl0aG9uJywgJy1waCcsICc3LjAnLCAnLXRuJywgJzgnLCAnLW1hJywgJzIwMCcsICctbWV0YWxfYmluZGluZycsICctaW1hZScsICc8aW5maWxlLm1hZT4nLCAnLW9tYWUnLCAnPG91dGZpbGUubWFlPic=

> <r_lp_tautomer_probability>
1

> <r_epik_Ionization_Penalty>
0.00294688

> <r_epik_Ionization_Penalty_Charging>
0.00169971

> <r_epik_Ionization_Penalty_Neutral>
0.00124717

> <r_epik_State_Penalty>
-0

> <r_epik_Charging_Adjusted_Penalty>
0.00169971

> <i_epik_Tot_Q>
1

> <i_epik_Tot_abs_Q>
1

> <r_epik_Metal_State_Penalty>
-0

> <b_epik_Metal_Only>
0

> <s_lp_Force_Field>
OPLS_2005

> <r_lp_Energy>
58.1803

> <b_lp_Chiralities_Consistent>
1

> <s_lp_Variant>
AV-unprocessed.smi:249-26

> <Gold.Version>
5.8.1

> <Gold.Id.Protein>
6NUR|6NUR_protein|mol2

> <Gold.PLP.Fitness>
51.3280

> <Gold.PLP.PLP>
-50.6236

> <Gold.PLP.part.hbond>
-2.0638

> <Gold.PLP.part.metal>
0.0000

> <Gold.PLP.part.buried>
-7.7999

> <Gold.PLP.part.nonpolar>
-42.2643

> <Gold.PLP.part.repulsive>
0.4810

> <Gold.PLP.ligand.clash>
0.0000

> <Gold.PLP.ligand.torsion>
1.4485

> <Gold.PLP.Chemscore.Hbond>
1.0000

> <Gold.PLP.Chemscore.CHOScore>
0.0000

> <Gold.PLP.Chemscore.Metal>
0.0000

> <Gold.PLP.Chemscore.Internal.Correction>
0.6013

> <Gold.Rescore>
     Score         DG    S(hbond)    S(metal)    S(lipo)     H(rot)  DE(clash)    DE(int)     intcor
     10.59     -13.50       0.69        0.00     112.28       2.90       0.41       2.50       ----

> <Gold.Chemscore.Fitness>
10.5949

> <Gold.Chemscore.DG>
-13.4984

> <Gold.Chemscore.ZeroCoef>
-5.4800

> <Gold.Chemscore.Hbond>
0.6909

> <Gold.Chemscore.Metal>
0.0000

> <Gold.Chemscore.Lipo>
112.2773

> <Gold.Chemscore.Internal_Hbond>
0.0000

> <Gold.Chemscore.DEClash>
0.4078

> <Gold.Chemscore.DEInternal>
2.4957

> <Gold.Chemscore.Rot>
2.9006

> <Gold.Chemscore.Internal.Correction>
   9.000000E+99

> <Gold.Chemscore.Hbond.Weighted>
-2.3076

> <Gold.Chemscore.Metal.Weighted>
-0.0000

> <Gold.Chemscore.Lipo.Weighted>
-13.1364

> <Gold.Chemscore.Internal_Hbond.Weighted>
0.0000

> <Gold.Chemscore.DEClash.Weighted>
0.4078

> <Gold.Chemscore.DEInternal.Weighted>
2.4957

> <Gold.Chemscore.Rot.Weighted>
7.4256

> <Gold.Chemscore.Internal.Correction.Weighted>
   9.000000E+99

> <Gold.Protein.RotatedTorsions>
[ 6907 6896 6895 6894 ] final -135.28 input  -60.11 | X-H torsion
[ 7974 7965 7964 7962 ] final   84.76 input  175.53 | X-H torsion
[ 8008 7997 7996 7995 ] final  -15.75 input   59.86 | X-H torsion
[ 10167 10162 10161 10158 ] final -153.19 input  -65.29 | X-H torsion
[ 10718 10713 10712 10709 ] final   -5.34 input   66.30 | X-H torsion
[ 10763 10752 10751 10750 ] final  -18.74 input  -60.55 | X-H torsion
[ 11005 11000 10999 10996 ] final   83.59 input  -57.11 | X-H torsion

> <Gold.Protein.ActiveResidues>
 VAL166  LYS551  ARG553  GLY616  TRP617  ASP618  TYR619  PRO620  LYS621  CYS622 
 ASP623  PHE694  ASN695  SER759  ASP760  ASP761  ALA762  ILE779  LEU786  VAL792 
 PHE793  MET794  SER795  GLU796  ALA797  LYS798  CYS799  TRP800  GLU811  SER814 

> <Gold.Protein.RotatedAtoms>
  150.9960  133.6103  159.2701 H   0  0  0  0  0  0  0  0  0  0  0  0  # atno 6907 bound_to 6896
  151.3306  135.0840  159.9347 H   0  0  0  0  0  0  0  0  0  0  0  0  # atno 6908 bound_to 6896
  152.5260  133.9590  159.7762 H   0  0  0  0  0  0  0  0  0  0  0  0  # atno 6909 bound_to 6896
  145.5944  139.2343  143.2281 H   0  0  0  0  0  0  0  0  0  0  0  0  # atno 7974 bound_to 7965
  154.5106  140.2188  155.9164 H   0  0  0  0  0  0  0  0  0  0  0  0  # atno 8008 bound_to 7997
  156.1547  140.3154  155.8673 H   0  0  0  0  0  0  0  0  0  0  0  0  # atno 8009 bound_to 7997
  155.3869  140.0476  157.3032 H   0  0  0  0  0  0  0  0  0  0  0  0  # atno 8010 bound_to 7997
  139.7118  143.9097  152.2471 H   0  0  0  0  0  0  0  0  0  0  0  0  # atno 10167 bound_to 10162
  156.7480  130.5230  149.5810 H   0  0  0  0  0  0  0  0  0  0  0  0  # atno 10718 bound_to 10713
  153.5940  135.7001  153.5411 H   0  0  0  0  0  0  0  0  0  0  0  0  # atno 10763 bound_to 10752
  153.3154  135.4089  155.1371 H   0  0  0  0  0  0  0  0  0  0  0  0  # atno 10764 bound_to 10752
  154.8595  135.3682  154.5473 H   0  0  0  0  0  0  0  0  0  0  0  0  # atno 10765 bound_to 10752
  139.9026  134.8155  156.2329 H   0  0  0  0  0  0  0  0  0  0  0  0  # atno 11005 bound_to 11000
  146.1623  140.6770  142.9272 LP  0  0  0  0  0  0  0  0  0  0  0  0  # atno 17320 bound_to 7965
  144.7337  140.4746  143.6919 LP  0  0  0  0  0  0  0  0  0  0  0  0  # atno 17321 bound_to 7965
  139.8968  144.6934  150.8709 LP  0  0  0  0  0  0  0  0  0  0  0  0  # atno 17342 bound_to 10162
  140.7735  143.3544  151.1950 LP  0  0  0  0  0  0  0  0  0  0  0  0  # atno 17343 bound_to 10162
  156.1420  130.6251  151.0480 LP  0  0  0  0  0  0  0  0  0  0  0  0  # atno 17370 bound_to 10713
  157.6789  131.0843  150.7421 LP  0  0  0  0  0  0  0  0  0  0  0  0  # atno 17371 bound_to 10713
  141.0334  133.6976  156.1469 LP  0  0  0  0  0  0  0  0  0  0  0  0  # atno 17394 bound_to 11000
  140.7063  134.4509  157.5584 LP  0  0  0  0  0  0  0  0  0  0  0  0  # atno 17395 bound_to 11000

$$$$
