AV-unprocessed.smi:2252|AV-procd|sdf|9110|dock4
  -GOLD-   2272012313D 1   1.00000     0.00000
 Structure written by MMmdl.
 45 47  0  0  0  0  0  0  0  0  4 V2000
  146.5587  142.5570  154.0065 C   0  0  0  0  0  0  0  0  0  0  0  0
  147.1195  141.2188  153.8155 N   0  0  0  0  0  0  0  0  0  0  0  0
  146.6635  140.2657  152.9412 C   0  0  0  0  0  0  0  0  0  0  0  0
  147.4878  139.1801  153.0772 C   0  0  0  0  0  0  0  0  0  0  0  0
  148.4126  139.5150  154.0277 N   0  3  0  0  0  0  0  0  0  0  0  0
  148.1873  140.7539  154.4888 C   0  0  0  0  0  0  0  0  0  0  0  0
  149.0014  141.4630  155.5403 C   0  0  0  0  0  0  0  0  0  0  0  0
  150.1979  140.6606  156.0978 C   0  0  0  0  0  0  0  0  0  0  0  0
  150.8147  141.3396  157.2376 N   0  5  0  0  0  0  0  0  0  0  0  0
  151.8549  140.8273  157.9568 C   0  0  0  0  0  0  0  0  0  0  0  0
  152.6482  139.9246  157.6735 O   0  0  0  0  0  0  0  0  0  0  0  0
  152.0002  141.5164  159.3294 C   0  0  1  0  0  0  0  0  0  0  0  0
  153.4094  141.2573  159.9108 C   0  0  0  0  0  0  0  0  0  0  0  0
  153.6870  140.0293  160.7517 C   0  0  0  0  0  0  0  0  0  0  0  0
  153.6819  141.3910  161.3944 C   0  0  0  0  0  0  0  0  0  0  0  0
  151.6790  142.9727  159.2717 N   0  3  0  0  0  0  0  0  0  0  0  0
  151.9184  143.7286  160.5193 C   0  0  0  0  0  0  0  0  0  0  0  0
  151.8856  145.1930  160.0957 C   0  0  0  0  0  0  0  0  0  0  0  0
  152.4756  145.1864  158.6854 C   0  0  0  0  0  0  0  0  0  0  0  0
  152.3555  143.7353  158.1971 C   0  0  0  0  0  0  0  0  0  0  0  0
  145.5995  142.6289  153.4934 H   0  0  0  0  0  0  0  0  0  0  0  0
  147.2477  143.2960  153.5967 H   0  0  0  0  0  0  0  0  0  0  0  0
  146.4123  142.7414  155.0696 H   0  0  0  0  0  0  0  0  0  0  0  0
  145.8091  140.4276  152.3000 H   0  0  0  0  0  0  0  0  0  0  0  0
  147.4876  138.2206  152.5811 H   0  0  0  0  0  0  0  0  0  0  0  0
  149.3623  142.3790  155.0717 H   0  0  0  0  0  0  0  0  0  0  0  0
  148.3324  141.7735  156.3428 H   0  0  0  0  0  0  0  0  0  0  0  0
  149.8493  139.6673  156.3815 H   0  0  0  0  0  0  0  0  0  0  0  0
  150.9132  140.4916  155.2921 H   0  0  0  0  0  0  0  0  0  0  0  0
  151.2706  141.0554  159.9981 H   0  0  0  0  0  0  0  0  0  0  0  0
  154.2194  141.5588  159.2485 H   0  0  0  0  0  0  0  0  0  0  0  0
  152.8521  139.3665  160.9713 H   0  0  0  0  0  0  0  0  0  0  0  0
  154.6506  139.5399  160.6274 H   0  0  0  0  0  0  0  0  0  0  0  0
  154.6406  141.8111  161.6915 H   0  0  0  0  0  0  0  0  0  0  0  0
  152.8464  141.6274  162.0504 H   0  0  0  0  0  0  0  0  0  0  0  0
  151.1747  143.5098  161.2863 H   0  0  0  0  0  0  0  0  0  0  0  0
  152.9024  143.4779  160.9187 H   0  0  0  0  0  0  0  0  0  0  0  0
  150.8518  145.5394  160.0587 H   0  0  0  0  0  0  0  0  0  0  0  0
  152.4306  145.8426  160.7811 H   0  0  0  0  0  0  0  0  0  0  0  0
  151.9482  145.8817  158.0315 H   0  0  0  0  0  0  0  0  0  0  0  0
  153.5240  145.4865  158.7085 H   0  0  0  0  0  0  0  0  0  0  0  0
  153.3553  143.3360  158.0230 H   0  0  0  0  0  0  0  0  0  0  0  0
  151.7970  143.6616  157.2636 H   0  0  0  0  0  0  0  0  0  0  0  0
  150.6866  143.0391  159.0940 H   0  0  0  0  0  0  0  0  0  0  0  0
  149.1586  138.9113  154.3497 H   0  0  0  0  0  0  0  0  0  0  0  0
  1  2  1  0  0  0  0
  1 21  1  0  0  0  0
  1 22  1  0  0  0  0
  1 23  1  0  0  0  0
  2  6  1  0  0  0  0
  2  3  1  0  0  0  0
  3  4  2  0  0  0  0
  3 24  1  0  0  0  0
  4  5  1  0  0  0  0
  4 25  1  0  0  0  0
  5  6  2  0  0  0  0
  5 45  1  0  0  0  0
  6  7  1  0  0  0  0
  7  8  1  0  0  0  0
  7 26  1  0  0  0  0
  7 27  1  0  0  0  0
  8  9  1  0  0  0  0
  8 28  1  0  0  0  0
  8 29  1  0  0  0  0
  9 10  1  0  0  0  0
 10 11  2  0  0  0  0
 10 12  1  0  0  0  0
 12 13  1  0  0  0  0
 12 16  1  0  0  0  0
 12 30  1  0  0  0  0
 13 15  1  0  0  0  0
 13 14  1  0  0  0  0
 13 31  1  0  0  0  0
 14 15  1  0  0  0  0
 14 32  1  0  0  0  0
 14 33  1  0  0  0  0
 15 34  1  0  0  0  0
 15 35  1  0  0  0  0
 16 20  1  0  0  0  0
 16 17  1  0  0  0  0
 16 44  1  0  0  0  0
 17 18  1  0  0  0  0
 17 36  1  0  0  0  0
 17 37  1  0  0  0  0
 18 19  1  0  0  0  0
 18 38  1  0  0  0  0
 18 39  1  0  0  0  0
 19 20  1  0  0  0  0
 19 40  1  0  0  0  0
 19 41  1  0  0  0  0
 20 42  1  0  0  0  0
 20 43  1  0  0  0  0
M  CHG  1   5   1
M  CHG  1   9  -1
M  CHG  1  16   1
M  END
> <s_m_source_file>
AV-unprocessed.smi

> <i_m_source_file_index>
2252

> <i_lp_mmshare_version>
43012

> <i_f3d_flags>
0

> <s_epik_input>
W0NIM11uMVtjSF1bY0hdbmMxW0NIMl1bQ0gyXVtOSF1DKD1PKVtDQEhdKFtDSF0yW0NIMl1bQ0gyXTIpTjNbQ0gyXVtDSDJdW0NIMl1bQ0gyXTM=

> <s_epik_cmdline>
J2VwaWtfcHl0aG9uJywgJy1waCcsICc3LjAnLCAnLXRuJywgJzgnLCAnLW1hJywgJzIwMCcsICctbWV0YWxfYmluZGluZycsICctaW1hZScsICc8aW5maWxlLm1hZT4nLCAnLW9tYWUnLCAnPG91dGZpbGUubWFlPic=

> <r_lp_tautomer_probability>
1

> <r_epik_Ionization_Penalty>
5.88052

> <r_epik_Ionization_Penalty_Charging>
5.85424

> <r_epik_Ionization_Penalty_Neutral>
0.026272

> <r_epik_State_Penalty>
5.94961

> <r_epik_Charging_Adjusted_Penalty>
11.8039

> <i_epik_Tot_Q>
1

> <i_epik_Tot_abs_Q>
3

> <r_epik_Metal_State_Penalty>
2.20001

> <b_epik_Metal_Only>
1

> <s_lp_Force_Field>
OPLS_2005

> <r_lp_Energy>
30.4817

> <b_lp_Chiralities_Consistent>
1

> <s_lp_Variant>
AV-unprocessed.smi:2252-8

> <Gold.Version>
5.8.1

> <Gold.Id.Protein>
6NUR|6NUR_protein|mol2

> <Gold.PLP.Fitness>
51.1668

> <Gold.PLP.PLP>
-46.7115

> <Gold.PLP.part.hbond>
-2.0000

> <Gold.PLP.part.metal>
0.0000

> <Gold.PLP.part.buried>
-0.4456

> <Gold.PLP.part.nonpolar>
-44.7612

> <Gold.PLP.part.repulsive>
0.1945

> <Gold.PLP.ligand.clash>
0.0719

> <Gold.PLP.ligand.torsion>
1.3538

> <Gold.PLP.Chemscore.Hbond>
1.0000

> <Gold.PLP.Chemscore.CHOScore>
1.0000

> <Gold.PLP.Chemscore.Metal>
0.0000

> <Gold.Chemscore.Hbonds>
donor molecule, donor type, donor heavy atom, donor atom, acceptor molecule, acceptor atom, score
      P1  H  7997  8008       L1    11  1.00
      L1  C     3    24       P1 10175  1.00

> <Gold.PLP.Chemscore.Internal.Correction>
1.2348

> <Gold.Rescore>
     Score         DG    S(hbond)    S(metal)    S(lipo)     H(rot)  DE(clash)    DE(int)     intcor
     15.04     -17.26       0.93        0.00     117.38       1.98       0.04       2.18       ----

> <Gold.Chemscore.Fitness>
15.0419

> <Gold.Chemscore.DG>
-17.2603

> <Gold.Chemscore.ZeroCoef>
-5.4800

> <Gold.Chemscore.Hbond>
0.9337

> <Gold.Chemscore.Metal>
0.0000

> <Gold.Chemscore.Lipo>
117.3760

> <Gold.Chemscore.Internal_Hbond>
0.0000

> <Gold.Chemscore.DEClash>
0.0376

> <Gold.Chemscore.DEInternal>
2.1807

> <Gold.Chemscore.Rot>
1.9809

> <Gold.Chemscore.Internal.Correction>
   9.000000E+99

> <Gold.Chemscore.Hbonds>
donor molecule, donor type, donor heavy atom, donor atom, acceptor molecule, acceptor atom, score
      P1  H  7997  8008       L1    11  0.96

> <Gold.Chemscore.Hbond.Weighted>
-3.1184

> <Gold.Chemscore.Metal.Weighted>
-0.0000

> <Gold.Chemscore.Lipo.Weighted>
-13.7330

> <Gold.Chemscore.Internal_Hbond.Weighted>
0.0000

> <Gold.Chemscore.DEClash.Weighted>
0.0376

> <Gold.Chemscore.DEInternal.Weighted>
2.1807

> <Gold.Chemscore.Rot.Weighted>
5.0711

> <Gold.Chemscore.Internal.Correction.Weighted>
   9.000000E+99

> <Gold.Protein.RotatedTorsions>
[ 6907 6896 6895 6894 ] final -128.40 input  -60.11 | X-H torsion
[ 7974 7965 7964 7962 ] final -138.99 input  175.53 | X-H torsion
[ 8008 7997 7996 7995 ] final  -69.87 input   59.86 | X-H torsion
[ 10167 10162 10161 10158 ] final  -25.24 input  -65.29 | X-H torsion
[ 10718 10713 10712 10709 ] final   35.81 input   66.30 | X-H torsion
[ 10763 10752 10751 10750 ] final   80.41 input  -60.55 | X-H torsion
[ 11005 11000 10999 10996 ] final -148.49 input  -57.11 | X-H torsion

> <Gold.Protein.ActiveResidues>
 VAL166  LYS551  ARG553  GLY616  TRP617  ASP618  TYR619  PRO620  LYS621  CYS622 
 ASP623  PHE694  ASN695  SER759  ASP760  ASP761  ALA762  ILE779  LEU786  VAL792 
 PHE793  MET794  SER795  GLU796  ALA797  LYS798  CYS799  TRP800  GLU811  SER814 

> <Gold.Protein.RotatedAtoms>
  150.9175  133.6921  159.2839 H   0  0  0  0  0  0  0  0  0  0  0  0  # atno 6907 bound_to 6896
  151.4387  135.1016  159.9673 H   0  0  0  0  0  0  0  0  0  0  0  0  # atno 6908 bound_to 6896
  152.4962  133.8588  159.7294 H   0  0  0  0  0  0  0  0  0  0  0  0  # atno 6909 bound_to 6896
  144.8713  140.6371  143.5265 H   0  0  0  0  0  0  0  0  0  0  0  0  # atno 7974 bound_to 7965
  154.4970  140.0845  156.7718 H   0  0  0  0  0  0  0  0  0  0  0  0  # atno 8008 bound_to 7997
  155.4093  140.3440  155.4244 H   0  0  0  0  0  0  0  0  0  0  0  0  # atno 8009 bound_to 7997
  156.1407  140.1528  156.8913 H   0  0  0  0  0  0  0  0  0  0  0  0  # atno 8010 bound_to 7997
  140.7287  143.4283  151.0842 H   0  0  0  0  0  0  0  0  0  0  0  0  # atno 10167 bound_to 10162
  157.3273  130.7479  149.6824 H   0  0  0  0  0  0  0  0  0  0  0  0  # atno 10718 bound_to 10713
  153.1031  135.4803  154.8903 H   0  0  0  0  0  0  0  0  0  0  0  0  # atno 10763 bound_to 10752
  154.7401  135.3080  154.8745 H   0  0  0  0  0  0  0  0  0  0  0  0  # atno 10764 bound_to 10752
  153.9356  135.6840  153.4798 H   0  0  0  0  0  0  0  0  0  0  0  0  # atno 10765 bound_to 10752
  140.7607  134.3302  157.5102 H   0  0  0  0  0  0  0  0  0  0  0  0  # atno 11005 bound_to 11000
  145.4125  139.1577  143.4118 LP  0  0  0  0  0  0  0  0  0  0  0  0  # atno 17320 bound_to 7965
  146.2932  140.4229  142.8731 LP  0  0  0  0  0  0  0  0  0  0  0  0  # atno 17321 bound_to 7965
  139.7936  143.8183  152.3155 LP  0  0  0  0  0  0  0  0  0  0  0  0  # atno 17342 bound_to 10162
  139.8175  144.7310  150.9616 LP  0  0  0  0  0  0  0  0  0  0  0  0  # atno 17343 bound_to 10162
  155.9692  130.4205  150.4428 LP  0  0  0  0  0  0  0  0  0  0  0  0  # atno 17370 bound_to 10713
  157.2454  131.0534  151.2411 LP  0  0  0  0  0  0  0  0  0  0  0  0  # atno 17371 bound_to 10713
  139.8771  134.9200  156.3240 LP  0  0  0  0  0  0  0  0  0  0  0  0  # atno 17394 bound_to 11000
  140.9666  133.7354  156.0475 LP  0  0  0  0  0  0  0  0  0  0  0  0  # atno 17395 bound_to 11000

$$$$
