AV-unprocessed.smi:1972|AV-procd|sdf|7974|dock3
  -GOLD-   2272010143D 1   1.00000     0.00000
 Structure written by MMmdl.
 44 45  0  0  0  0  0  0  0  0  1 V2000
  144.9370  133.2325  150.3830 C   0  0  0  0  0  0  0  0  0  0  0  0
  144.3000  134.4918  151.5187 S   0  0  0  0  0  0  0  0  0  0  0  0
  145.5771  135.7651  151.3026 C   0  0  0  0  0  0  0  0  0  0  0  0
  145.6219  136.7563  152.4799 C   0  0  0  0  0  0  0  0  0  0  0  0
  146.3417  138.0687  152.1502 C   0  0  0  0  0  0  0  0  0  0  0  0
  146.8131  138.2566  151.0285 O   0  0  0  0  0  0  0  0  0  0  0  0
  146.4292  138.9643  153.1462 N   0  0  0  0  0  0  0  0  0  0  0  0
  147.0569  140.2800  153.0553 C   0  0  0  0  0  0  0  0  0  0  0  0
  148.0032  140.6074  154.2024 C   0  0  0  0  0  0  0  0  0  0  0  0
  149.1796  139.8535  154.3821 C   0  0  0  0  0  0  0  0  0  0  0  0
  150.0381  140.1634  155.4540 C   0  0  0  0  0  0  0  0  0  0  0  0
  149.6942  141.2189  156.3319 C   0  0  0  0  0  0  0  0  0  0  0  0
  150.5383  141.5494  157.4153 N   0  0  0  0  0  0  0  0  0  0  0  0
  151.5234  140.5586  157.8452 C   0  0  0  0  0  0  0  0  0  0  0  0
  152.1340  140.9612  159.1976 C   0  0  0  0  0  0  0  0  0  0  0  0
  152.6718  142.2765  159.1090 O   0  0  0  0  0  0  0  0  0  0  0  0
  151.6724  143.2448  158.8029 C   0  0  1  0  0  0  0  0  0  0  0  0
  152.3233  144.6316  158.8234 C   0  0  0  0  0  0  0  0  0  0  0  0
  151.0511  142.9175  157.4310 C   0  0  0  0  0  0  0  0  0  0  0  0
  148.5602  141.9417  156.1574 N   0  0  0  0  0  0  0  0  0  0  0  0
  147.7410  141.6405  155.1279 C   0  0  0  0  0  0  0  0  0  0  0  0
  144.2797  132.3630  150.3776 H   0  0  0  0  0  0  0  0  0  0  0  0
  145.9327  132.9119  150.6895 H   0  0  0  0  0  0  0  0  0  0  0  0
  144.9946  133.6291  149.3691 H   0  0  0  0  0  0  0  0  0  0  0  0
  146.5416  135.2644  151.2159 H   0  0  0  0  0  0  0  0  0  0  0  0
  145.4128  136.2843  150.3574 H   0  0  0  0  0  0  0  0  0  0  0  0
  144.6093  136.9582  152.8329 H   0  0  0  0  0  0  0  0  0  0  0  0
  146.1512  136.2962  153.3147 H   0  0  0  0  0  0  0  0  0  0  0  0
  146.0163  138.7205  154.0350 H   0  0  0  0  0  0  0  0  0  0  0  0
  147.5960  140.3925  152.1134 H   0  0  0  0  0  0  0  0  0  0  0  0
  146.2568  141.0204  153.0346 H   0  0  0  0  0  0  0  0  0  0  0  0
  149.4279  139.0498  153.7045 H   0  0  0  0  0  0  0  0  0  0  0  0
  150.9505  139.6000  155.5789 H   0  0  0  0  0  0  0  0  0  0  0  0
  151.0576  139.5768  157.9391 H   0  0  0  0  0  0  0  0  0  0  0  0
  152.3071  140.4787  157.0906 H   0  0  0  0  0  0  0  0  0  0  0  0
  151.3866  140.9144  159.9914 H   0  0  0  0  0  0  0  0  0  0  0  0
  152.9306  140.2689  159.4702 H   0  0  0  0  0  0  0  0  0  0  0  0
  150.8985  143.2145  159.5722 H   0  0  0  0  0  0  0  0  0  0  0  0
  151.5924  145.4110  158.6070 H   0  0  0  0  0  0  0  0  0  0  0  0
  153.1206  144.7046  158.0832 H   0  0  0  0  0  0  0  0  0  0  0  0
  152.7557  144.8441  159.8015 H   0  0  0  0  0  0  0  0  0  0  0  0
  151.8013  143.0177  156.6454 H   0  0  0  0  0  0  0  0  0  0  0  0
  150.2691  143.6440  157.2155 H   0  0  0  0  0  0  0  0  0  0  0  0
  146.8505  142.2460  155.0522 H   0  0  0  0  0  0  0  0  0  0  0  0
  1  2  1  0  0  0  0
  1 22  1  0  0  0  0
  1 23  1  0  0  0  0
  1 24  1  0  0  0  0
  2  3  1  0  0  0  0
  3  4  1  0  0  0  0
  3 25  1  0  0  0  0
  3 26  1  0  0  0  0
  4  5  1  0  0  0  0
  4 27  1  0  0  0  0
  4 28  1  0  0  0  0
  5  6  2  0  0  0  0
  5  7  1  0  0  0  0
  7  8  1  0  0  0  0
  7 29  1  0  0  0  0
  8  9  1  0  0  0  0
  8 30  1  0  0  0  0
  8 31  1  0  0  0  0
  9 21  1  0  0  0  0
  9 10  2  0  0  0  0
 10 11  1  0  0  0  0
 10 32  1  0  0  0  0
 11 12  2  0  0  0  0
 11 33  1  0  0  0  0
 12 13  1  0  0  0  0
 12 20  1  0  0  0  0
 13 19  1  0  0  0  0
 13 14  1  0  0  0  0
 14 15  1  0  0  0  0
 14 34  1  0  0  0  0
 14 35  1  0  0  0  0
 15 16  1  0  0  0  0
 15 36  1  0  0  0  0
 15 37  1  0  0  0  0
 16 17  1  0  0  0  0
 17 18  1  0  0  0  0
 17 19  1  0  0  0  0
 17 38  1  0  0  0  0
 18 39  1  0  0  0  0
 18 40  1  0  0  0  0
 18 41  1  0  0  0  0
 19 42  1  0  0  0  0
 19 43  1  0  0  0  0
 20 21  2  0  0  0  0
 21 44  1  0  0  0  0
M  END
> <s_m_source_file>
AV-unprocessed.smi

> <i_m_source_file_index>
1972

> <i_lp_mmshare_version>
43012

> <i_f3d_flags>
0

> <s_epik_input>
W0NIM11TW0NIMl1bQ0gyXUMoPU8pW05IXVtDSDJdYzFbY0hdW2NIXWMobltjSF0xKU4yW0NIMl1bQ0gyXU9bQ0BASF0oW0NIM10pW0NIMl0y

> <s_epik_cmdline>
J2VwaWtfcHl0aG9uJywgJy1waCcsICc3LjAnLCAnLXRuJywgJzgnLCAnLW1hJywgJzIwMCcsICctbWV0YWxfYmluZGluZycsICctaW1hZScsICc8aW5maWxlLm1hZT4nLCAnLW9tYWUnLCAnPG91dGZpbGUubWFlPic=

> <r_lp_tautomer_probability>
1

> <r_epik_Ionization_Penalty>
0.00559088

> <r_epik_Ionization_Penalty_Charging>
0

> <r_epik_Ionization_Penalty_Neutral>
0.00559088

> <r_epik_State_Penalty>
0.00409544

> <r_epik_Charging_Adjusted_Penalty>
0.00409544

> <i_epik_Tot_Q>
0

> <i_epik_Tot_abs_Q>
0

> <r_epik_Metal_State_Penalty>
-0

> <b_epik_Metal_Only>
0

> <s_lp_Force_Field>
OPLS_2005

> <r_lp_Energy>
17.6906

> <b_lp_Chiralities_Consistent>
1

> <s_lp_Variant>
AV-unprocessed.smi:1972-1

> <Gold.Version>
5.8.1

> <Gold.Id.Protein>
6NUR|6NUR_protein|mol2

> <Gold.PLP.Fitness>
42.9870

> <Gold.PLP.PLP>
-40.5977

> <Gold.PLP.part.hbond>
-1.8437

> <Gold.PLP.part.metal>
0.0000

> <Gold.PLP.part.buried>
-5.4050

> <Gold.PLP.part.nonpolar>
-37.7774

> <Gold.PLP.part.repulsive>
2.9531

> <Gold.PLP.ligand.clash>
0.0000

> <Gold.PLP.ligand.torsion>
0.5262

> <Gold.PLP.Chemscore.Hbond>
1.0000

> <Gold.PLP.Chemscore.CHOScore>
0.0000

> <Gold.PLP.Chemscore.Metal>
0.0000

> <Gold.Chemscore.Hbonds>
donor molecule, donor type, donor heavy atom, donor atom, acceptor molecule, acceptor atom, score
      P1  H  7954  7966       L1     6  1.00

> <Gold.PLP.Chemscore.Internal.Correction>
0.4417

> <Gold.Rescore>
     Score         DG    S(hbond)    S(metal)    S(lipo)     H(rot)  DE(clash)    DE(int)     intcor
     14.59     -16.01       0.99        0.00     100.09       1.75       0.99       0.43       ----

> <Gold.Chemscore.Fitness>
14.5919

> <Gold.Chemscore.DG>
-16.0112

> <Gold.Chemscore.ZeroCoef>
-5.4800

> <Gold.Chemscore.Hbond>
0.9850

> <Gold.Chemscore.Metal>
0.0000

> <Gold.Chemscore.Lipo>
100.0921

> <Gold.Chemscore.Internal_Hbond>
0.0000

> <Gold.Chemscore.DEClash>
0.9881

> <Gold.Chemscore.DEInternal>
0.4312

> <Gold.Chemscore.Rot>
1.7460

> <Gold.Chemscore.Internal.Correction>
   9.000000E+99

> <Gold.Chemscore.Hbonds>
donor molecule, donor type, donor heavy atom, donor atom, acceptor molecule, acceptor atom, score
      P1  H  7954  7966       L1     6  0.99

> <Gold.Chemscore.Hbond.Weighted>
-3.2901

> <Gold.Chemscore.Metal.Weighted>
-0.0000

> <Gold.Chemscore.Lipo.Weighted>
-11.7108

> <Gold.Chemscore.Internal_Hbond.Weighted>
0.0000

> <Gold.Chemscore.DEClash.Weighted>
0.9881

> <Gold.Chemscore.DEInternal.Weighted>
0.4312

> <Gold.Chemscore.Rot.Weighted>
4.4697

> <Gold.Chemscore.Internal.Correction.Weighted>
   9.000000E+99

> <Gold.Protein.RotatedTorsions>
[ 6907 6896 6895 6894 ] final  -23.73 input  -60.11 | X-H torsion
[ 7974 7965 7964 7962 ] final -104.99 input  175.53 | X-H torsion
[ 8008 7997 7996 7995 ] final  121.20 input   59.86 | X-H torsion
[ 10167 10162 10161 10158 ] final  140.31 input  -65.29 | X-H torsion
[ 10718 10713 10712 10709 ] final  152.47 input   66.30 | X-H torsion
[ 10763 10752 10751 10750 ] final -114.22 input  -60.55 | X-H torsion
[ 11005 11000 10999 10996 ] final   83.61 input  -57.11 | X-H torsion

> <Gold.Protein.ActiveResidues>
 VAL166  LYS551  ARG553  GLY616  TRP617  ASP618  TYR619  PRO620  LYS621  CYS622 
 ASP623  PHE694  ASN695  SER759  ASP760  ASP761  ALA762  ILE779  LEU786  VAL792 
 PHE793  MET794  SER795  GLU796  ALA797  LYS798  CYS799  TRP800  GLU811  SER814 

> <Gold.Protein.RotatedAtoms>
  151.1998  135.0438  159.8867 H   0  0  0  0  0  0  0  0  0  0  0  0  # atno 6907 bound_to 6896
  152.5433  134.0863  159.8267 H   0  0  0  0  0  0  0  0  0  0  0  0  # atno 6908 bound_to 6896
  151.1002  133.5202  159.2642 H   0  0  0  0  0  0  0  0  0  0  0  0  # atno 6909 bound_to 6896
  145.2362  140.9188  143.3176 H   0  0  0  0  0  0  0  0  0  0  0  0  # atno 7974 bound_to 7965
  156.2676  140.2813  156.1271 H   0  0  0  0  0  0  0  0  0  0  0  0  # atno 8008 bound_to 7997
  155.1094  140.0390  157.2737 H   0  0  0  0  0  0  0  0  0  0  0  0  # atno 8009 bound_to 7997
  154.6754  140.2597  155.6969 H   0  0  0  0  0  0  0  0  0  0  0  0  # atno 8010 bound_to 7997
  139.5052  144.6241  151.5979 H   0  0  0  0  0  0  0  0  0  0  0  0  # atno 10167 bound_to 10162
  157.2574  131.0791  151.1689 H   0  0  0  0  0  0  0  0  0  0  0  0  # atno 10718 bound_to 10713
  154.8431  135.4425  154.1472 H   0  0  0  0  0  0  0  0  0  0  0  0  # atno 10763 bound_to 10752
  153.2642  135.6939  153.7553 H   0  0  0  0  0  0  0  0  0  0  0  0  # atno 10764 bound_to 10752
  153.6818  135.3402  155.3155 H   0  0  0  0  0  0  0  0  0  0  0  0  # atno 10765 bound_to 10752
  139.9025  134.8157  156.2333 H   0  0  0  0  0  0  0  0  0  0  0  0  # atno 11005 bound_to 11000
  144.9631  139.3959  143.6346 LP  0  0  0  0  0  0  0  0  0  0  0  0  # atno 17320 bound_to 7965
  146.3340  139.8693  142.8842 LP  0  0  0  0  0  0  0  0  0  0  0  0  # atno 17321 bound_to 7965
  140.5953  143.9707  150.6350 LP  0  0  0  0  0  0  0  0  0  0  0  0  # atno 17342 bound_to 10162
  140.2901  143.3330  152.1071 LP  0  0  0  0  0  0  0  0  0  0  0  0  # atno 17343 bound_to 10162
  157.3213  130.6938  149.6270 LP  0  0  0  0  0  0  0  0  0  0  0  0  # atno 17370 bound_to 10713
  155.9664  130.4334  150.5007 LP  0  0  0  0  0  0  0  0  0  0  0  0  # atno 17371 bound_to 10713
  141.0332  133.6977  156.1466 LP  0  0  0  0  0  0  0  0  0  0  0  0  # atno 17394 bound_to 11000
  140.7066  134.4507  157.5584 LP  0  0  0  0  0  0  0  0  0  0  0  0  # atno 17395 bound_to 11000

$$$$
