#       Name:                AV-unprocessed.smi:1403
#       Creating user name   scv26
#       Creation time:       Fri Mar 27 05:33:16 2020


#       File generated by GOLD software.
#

@<TRIPOS>MOLECULE
AV-unprocessed.smi:1403
    44    45     1
SMALL
NO_CHARGES


@<TRIPOS>ATOM
      1 ****        -2.4237  -0.4725  -2.8058 C.3            1 S1                 0.0000
      2 ****        -1.8238   0.1913  -1.5583 C.3            1 S1                 0.0000
      3 ****        -0.3660   0.1834  -1.6573 N.am           1 S1                 0.0000
      4 ****         0.4444   1.2354  -1.4660 C.2            1 S1                 0.0000
      5 ****         0.0411   2.3826  -1.2767 O.2            1 S1                 0.0000
      6 ****         1.9452   0.9339  -1.4690 C.3            1 S1                 0.0000
      7 ****         2.4739   0.9347  -0.0967 N.am           1 S1                 0.0000
      8 ****         2.3917  -0.2721   0.6208 C.2            1 S1                 0.0000
      9 ****         2.8056  -0.3712   1.8978 C.2            1 S1                 0.0000
     10 ****         3.3551   0.8170   2.5380 C.2            1 S1                 0.0000
     11 ****         3.7390   0.7454   3.7037 O.2            1 S1                 0.0000
     12 ****         3.4159   1.9644   1.8006 N.pl3          1 S1                -1.0000
     13 ****         2.9845   2.0521   0.5036 C.2            1 S1                 0.0000
     14 ****         3.0394   3.1013  -0.1379 O.2            1 S1                 0.0000
     15 ****        -2.2822  -0.5008  -0.2554 C.3            1 S1                 0.0000
     16 ****        -1.8607   0.1905   1.0481 C.3            1 S1                 0.0000
     17 ****        -1.8127  -0.9697   2.0151 C.3            1 S1                 0.0000
     18 ****        -1.2448  -2.0748   1.1325 C.3            1 S1                 0.0000
     19 ****        -1.7682  -1.8309  -0.1696 O.3            1 S1                 0.0000
     20 ****        -3.5134  -0.4628  -2.7693 H              1 S1                 0.0000
     21 ****        -2.1031  -1.5107  -2.8985 H              1 S1                 0.0000
     22 ****        -2.1210   0.0520  -3.7127 H              1 S1                 0.0000
     23 ****        -2.1913   1.2186  -1.5367 H              1 S1                 0.0000
     24 ****         0.0668  -0.7160  -1.8095 H              1 S1                 0.0000
     25 ****         2.1326  -0.0312  -1.9429 H              1 S1                 0.0000
     26 ****         2.4556   1.6653  -2.0976 H              1 S1                 0.0000
     27 ****         1.9648  -1.1011   0.0753 H              1 S1                 0.0000
     28 ****         2.7284  -1.3045   2.4357 H              1 S1                 0.0000
     29 ****        -3.3701  -0.5826  -0.2548 H              1 S1                 0.0000
     30 ****        -0.8676   0.6326   0.9721 H              1 S1                 0.0000
     31 ****        -2.5536   0.9744   1.3544 H              1 S1                 0.0000
     32 ****        -1.2004  -0.7705   2.8953 H              1 S1                 0.0000
     33 ****        -2.8197  -1.2275   2.3451 H              1 S1                 0.0000
     34 ****        -0.1576  -2.0031   1.0887 H              1 S1                 0.0000
     35 ****        -1.5044  -3.0717   1.4889 H              1 S1                 0.0000
     36 ****        -0.9408   2.5709  -1.2594 LP             1 S1                 0.0000
     37 ****         0.6954   3.1264  -1.1402 LP             1 S1                 0.0000
     38 ****         3.6720  -0.1203   4.1999 LP             1 S1                 0.0000
     39 ****         4.1183   1.5527   4.1557 LP             1 S1                 0.0000
     40 ****         3.7954   2.7839   2.2300 LP             1 S1                 0.0000
     41 ****         2.7134   3.1272  -1.0830 LP             1 S1                 0.0000
     42 ****         3.4100   3.9277   0.2860 LP             1 S1                 0.0000
     43 ****        -1.0401  -1.9476  -0.8451 LP             1 S1                 0.0000
     44 ****        -2.5040  -2.4818  -0.3568 LP             1 S1                 0.0000
@<TRIPOS>BOND
    1    1    2 1     
    2    1   20 1     
    3    1   21 1     
    4    1   22 1     
    5    2    3 1     
    6    2   15 1     
    7    2   23 1     
    8    3    4 am    
    9    3   24 1     
   10    4    5 2     
   11    4    6 1     
   12    6    7 1     
   13    6   25 1     
   14    6   26 1     
   15    7   13 am    
   16    7    8 1     
   17    8    9 2     
   18    8   27 1     
   19    9   10 1     
   20    9   28 1     
   21   10   11 2     
   22   10   12 1     
   23   12   13 1     
   24   13   14 2     
   25   15   19 1     
   26   15   16 1     
   27   15   29 1     
   28   16   17 1     
   29   16   30 1     
   30   16   31 1     
   31   17   18 1     
   32   17   32 1     
   33   17   33 1     
   34   18   19 1     
   35   18   34 1     
   36   18   35 1     
   37    5   36 1     
   38    5   37 1     
   39   11   38 1     
   40   11   39 1     
   41   12   40 1     
   42   14   41 1     
   43   14   42 1     
   44   19   43 1     
   45   19   44 1     
@<TRIPOS>SUBSTRUCTURE
      1 S1             1
@<TRIPOS>SET
LONE_PAIRS      STATIC     ATOMS    <user>   **** ""
9 36 37 38 39 40 41 42 43 44
DONOR_HYDROGENS      STATIC     ATOMS    <user>   **** ""
1 24
ATOM$BLUE        STATIC     ATOMS    COLORGROUP SYSTEM
9 36 37 38 39 40 41 42 43 44
ATOM$RED        STATIC     ATOMS    COLORGROUP SYSTEM
1 24
