AV-unprocessed.smi:102|AV-procd|sdf|964|dock10
  -GOLD-   2262017503D 1   1.00000     0.00000
 Structure written by MMmdl.
 43 44  0  0  0  0  0  0  0  0  2 V2000
  146.8292  130.7138  156.2588 C   0  0  0  0  0  0  0  0  0  0  0  0
  146.2799  131.9051  157.0335 C   0  0  0  0  0  0  0  0  0  0  0  0
  145.0863  132.2034  156.9877 O   0  0  0  0  0  0  0  0  0  0  0  0
  147.2263  132.5465  157.7349 O   0  0  0  0  0  0  0  0  0  0  0  0
  146.8743  133.6806  158.5091 C   0  0  0  0  0  0  0  0  0  0  0  0
  148.1090  134.1707  159.2895 C   0  0  1  0  0  0  0  0  0  0  0  0
  149.1304  134.5328  158.3667 O   0  0  0  0  0  0  0  0  0  0  0  0
  148.9367  135.8529  157.9555 C   0  0  2  0  0  0  0  0  0  0  0  0
  150.2824  136.5007  157.7194 N   0  0  0  0  0  0  0  0  0  0  0  0
  150.6144  137.6356  158.4379 C   0  0  0  0  0  0  0  0  0  0  0  0
  151.7872  138.2723  158.2428 C   0  0  0  0  0  0  0  0  0  0  0  0
  152.0813  139.3693  158.9616 F   0  0  0  0  0  0  0  0  0  0  0  0
  152.7284  137.7632  157.2475 C   0  0  0  0  0  0  0  0  0  0  0  0
  153.8031  138.3389  157.0832 O   0  0  0  0  0  0  0  0  0  0  0  0
  152.3653  136.6581  156.5345 N   0  5  0  0  0  0  0  0  0  0  0  0
  151.1749  136.0161  156.7216 C   0  0  0  0  0  0  0  0  0  0  0  0
  150.8356  135.0356  156.0615 O   0  0  0  0  0  0  0  0  0  0  0  0
  148.0919  136.5714  159.0241 C   0  0  1  0  0  0  0  0  0  0  0  0
  146.8678  136.9884  158.4250 O   0  0  0  0  0  0  0  0  0  0  0  0
  146.8608  137.9301  157.4653 C   0  0  0  0  0  0  0  0  0  0  0  0
  145.4570  138.2239  156.9537 C   0  0  0  0  0  0  0  0  0  0  0  0
  147.8431  138.5252  157.0227 O   0  0  0  0  0  0  0  0  0  0  0  0
  147.8898  135.4744  160.0703 C   0  0  1  0  0  0  0  0  0  0  0  0
  146.6305  135.5598  160.7306 O   0  0  0  0  0  0  0  0  0  0  0  0
  146.4136  136.5014  161.6643 C   0  0  0  0  0  0  0  0  0  0  0  0
  145.0067  136.4306  162.2427 C   0  0  0  0  0  0  0  0  0  0  0  0
  147.2268  137.3400  162.0524 O   0  0  0  0  0  0  0  0  0  0  0  0
  147.9135  130.6522  156.3544 H   0  0  0  0  0  0  0  0  0  0  0  0
  146.5814  130.8049  155.2012 H   0  0  0  0  0  0  0  0  0  0  0  0
  146.3963  129.7875  156.6366 H   0  0  0  0  0  0  0  0  0  0  0  0
  146.4712  134.4692  157.8729 H   0  0  0  0  0  0  0  0  0  0  0  0
  146.0848  133.3873  159.2020 H   0  0  0  0  0  0  0  0  0  0  0  0
  148.4596  133.3833  159.9577 H   0  0  0  0  0  0  0  0  0  0  0  0
  148.4434  135.8418  156.9823 H   0  0  0  0  0  0  0  0  0  0  0  0
  149.9277  138.0247  159.1752 H   0  0  0  0  0  0  0  0  0  0  0  0
  148.6428  137.4191  159.4338 H   0  0  0  0  0  0  0  0  0  0  0  0
  144.9096  137.2957  156.7886 H   0  0  0  0  0  0  0  0  0  0  0  0
  145.4997  138.7708  156.0116 H   0  0  0  0  0  0  0  0  0  0  0  0
  144.9100  138.8261  157.6793 H   0  0  0  0  0  0  0  0  0  0  0  0
  148.6889  135.5725  160.8060 H   0  0  0  0  0  0  0  0  0  0  0  0
  144.2850  136.1798  161.4650 H   0  0  0  0  0  0  0  0  0  0  0  0
  144.7250  137.3889  162.6793 H   0  0  0  0  0  0  0  0  0  0  0  0
  144.9581  135.6682  163.0202 H   0  0  0  0  0  0  0  0  0  0  0  0
  1  2  1  0  0  0  0
  1 28  1  0  0  0  0
  1 29  1  0  0  0  0
  1 30  1  0  0  0  0
  2  3  2  0  0  0  0
  2  4  1  0  0  0  0
  4  5  1  0  0  0  0
  5  6  1  0  0  0  0
  5 31  1  0  0  0  0
  5 32  1  0  0  0  0
  6 23  1  0  0  0  0
  6  7  1  0  0  0  0
  6 33  1  0  0  0  0
  7  8  1  0  0  0  0
  8  9  1  0  0  0  0
  8 18  1  0  0  0  0
  8 34  1  0  0  0  0
  9 16  1  0  0  0  0
  9 10  1  0  0  0  0
 10 11  2  0  0  0  0
 10 35  1  0  0  0  0
 11 12  1  0  0  0  0
 11 13  1  0  0  0  0
 13 14  2  0  0  0  0
 13 15  1  0  0  0  0
 15 16  1  0  0  0  0
 16 17  2  0  0  0  0
 18 19  1  0  0  0  0
 18 23  1  0  0  0  0
 18 36  1  0  0  0  0
 19 20  1  0  0  0  0
 20 21  1  0  0  0  0
 20 22  2  0  0  0  0
 21 37  1  0  0  0  0
 21 38  1  0  0  0  0
 21 39  1  0  0  0  0
 23 24  1  0  0  0  0
 23 40  1  0  0  0  0
 24 25  1  0  0  0  0
 25 26  1  0  0  0  0
 25 27  2  0  0  0  0
 26 41  1  0  0  0  0
 26 42  1  0  0  0  0
 26 43  1  0  0  0  0
M  CHG  1  15  -1
M  END
> <s_m_source_file>
AV-unprocessed.smi

> <i_m_source_file_index>
102

> <i_lp_mmshare_version>
43012

> <i_f3d_flags>
0

> <s_epik_input>
W0NIM11DKD1PKU9bQ0gyXVtDQEBIXTFPW0NASF0oW0NAQEhdKE9DKD1PKVtDSDNdKVtDQEhdMU9DKD1PKVtDSDNdKW4yW2NIXWMoRiljKD1PKVtuSF1jMj1P

> <s_epik_cmdline>
J2VwaWtfcHl0aG9uJywgJy1waCcsICc3LjAnLCAnLXRuJywgJzgnLCAnLW1hJywgJzIwMCcsICctbWV0YWxfYmluZGluZycsICctaW1hZScsICc8aW5maWxlLm1hZT4nLCAnLW9tYWUnLCAnPG91dGZpbGUubWFlPic=

> <r_epik_Ionization_Penalty>
1.40304

> <r_epik_Ionization_Penalty_Charging>
1.43915e-08

> <r_epik_Ionization_Penalty_Neutral>
1.40304

> <r_epik_State_Penalty>
1.48536

> <r_epik_Charging_Adjusted_Penalty>
1.48536

> <i_epik_Tot_Q>
-1

> <i_epik_Tot_abs_Q>
1

> <r_epik_Metal_State_Penalty>
0.00663881

> <b_epik_Metal_Only>
0

> <s_epik_Chemistry_Notes>
This compound has an ester and may undergo hydrolysis at high or low pH. This compound contains an acetal/aminal-like group ( X-CH(R)-Y where X, Y are N, S, or O) that may be acid/base labile, releasing an aldehyde.

> <s_lp_Force_Field>
OPLS_2005

> <r_lp_Energy>
22.8402

> <b_lp_Chiralities_Consistent>
1

> <s_lp_Variant>
AV-unprocessed.smi:102-20

> <Gold.Version>
5.8.1

> <Gold.Id.Protein>
6NUR|6NUR_protein|mol2

> <Gold.PLP.Fitness>
37.6238

> <Gold.PLP.PLP>
-21.9938

> <Gold.PLP.part.hbond>
-5.0000

> <Gold.PLP.part.metal>
0.0000

> <Gold.PLP.part.buried>
-4.6991

> <Gold.PLP.part.nonpolar>
-12.4466

> <Gold.PLP.part.repulsive>
0.1670

> <Gold.PLP.ligand.clash>
0.0000

> <Gold.PLP.ligand.torsion>
0.1352

> <Gold.PLP.Chemscore.Hbond>
5.2560

> <Gold.PLP.Chemscore.CHOScore>
0.0000

> <Gold.PLP.Chemscore.Metal>
0.0000

> <Gold.Chemscore.Hbonds>
donor molecule, donor type, donor heavy atom, donor atom, acceptor molecule, acceptor atom, score
      P1  H  6896  6907       L1     7  1.00
      P1  H  6931  6943       L1    27  0.77
      P1  H  6934  6947       L1    27  0.70
      P1  H  7997  8009       L1    14  0.80
      P1  H 10752 10763       L1    15  1.98

> <Gold.PLP.Chemscore.Internal.Correction>
0.1324

> <Gold.Rescore>
     Score         DG    S(hbond)    S(metal)    S(lipo)     H(rot)  DE(clash)    DE(int)     intcor
      8.85      -9.34       3.27        0.00      26.95       4.00       0.01       0.48       ----

> <Gold.Chemscore.Fitness>
8.8514

> <Gold.Chemscore.DG>
-9.3387

> <Gold.Chemscore.ZeroCoef>
-5.4800

> <Gold.Chemscore.Hbond>
3.2734

> <Gold.Chemscore.Metal>
0.0000

> <Gold.Chemscore.Lipo>
26.9471

> <Gold.Chemscore.Internal_Hbond>
0.0000

> <Gold.Chemscore.DEClash>
0.0089

> <Gold.Chemscore.DEInternal>
0.4784

> <Gold.Chemscore.Rot>
3.9951

> <Gold.Chemscore.Internal.Correction>
   9.000000E+99

> <Gold.Chemscore.Hbonds>
donor molecule, donor type, donor heavy atom, donor atom, acceptor molecule, acceptor atom, score
      P1  H  6896  6907       L1     7  0.24
      P1  H  6931  6943       L1    27  0.73
      P1  H  6934  6947       L1    27  0.57
      P1  H  7997  8009       L1    14  0.80
      P1  H 10752 10763       L1    15  0.32

> <Gold.Chemscore.Hbond.Weighted>
-10.9333

> <Gold.Chemscore.Metal.Weighted>
-0.0000

> <Gold.Chemscore.Lipo.Weighted>
-3.1528

> <Gold.Chemscore.Internal_Hbond.Weighted>
0.0000

> <Gold.Chemscore.DEClash.Weighted>
0.0089

> <Gold.Chemscore.DEInternal.Weighted>
0.4784

> <Gold.Chemscore.Rot.Weighted>
10.2274

> <Gold.Chemscore.Internal.Correction.Weighted>
   9.000000E+99

> <Gold.Protein.RotatedTorsions>
[ 6907 6896 6895 6894 ] final  -92.37 input  -60.11 | X-H torsion
[ 7974 7965 7964 7962 ] final   -5.87 input  175.53 | X-H torsion
[ 8008 7997 7996 7995 ] final  167.39 input   59.86 | X-H torsion
[ 10167 10162 10161 10158 ] final   48.76 input  -65.29 | X-H torsion
[ 10718 10713 10712 10709 ] final -131.22 input   66.30 | X-H torsion
[ 10763 10752 10751 10750 ] final  100.37 input  -60.55 | X-H torsion
[ 11005 11000 10999 10996 ] final  -87.10 input  -57.11 | X-H torsion

> <Gold.Protein.ActiveResidues>
 VAL166  LYS551  ARG553  GLY616  TRP617  ASP618  TYR619  PRO620  LYS621  CYS622 
 ASP623  PHE694  ASN695  SER759  ASP760  ASP761  ALA762  ILE779  LEU786  VAL792 
 PHE793  MET794  SER795  GLU796  ALA797  LYS798  CYS799  TRP800  GLU811  SER814 

> <Gold.Protein.RotatedAtoms>
  150.6905  134.2133  159.4367 H   0  0  0  0  0  0  0  0  0  0  0  0  # atno 6907 bound_to 6896
  152.0094  134.9882  160.0577 H   0  0  0  0  0  0  0  0  0  0  0  0  # atno 6908 bound_to 6896
  152.1503  133.4483  159.4847 H   0  0  0  0  0  0  0  0  0  0  0  0  # atno 6909 bound_to 6896
  146.2343  140.2085  142.8335 H   0  0  0  0  0  0  0  0  0  0  0  0  # atno 7974 bound_to 7965
  156.1638  140.1618  156.8567 H   0  0  0  0  0  0  0  0  0  0  0  0  # atno 8008 bound_to 7997
  154.5187  140.0783  156.8165 H   0  0  0  0  0  0  0  0  0  0  0  0  # atno 8009 bound_to 7997
  155.3654  140.3397  155.4244 H   0  0  0  0  0  0  0  0  0  0  0  0  # atno 8010 bound_to 7997
  140.2899  144.3058  150.6243 H   0  0  0  0  0  0  0  0  0  0  0  0  # atno 10167 bound_to 10162
  156.2223  130.6986  151.0769 H   0  0  0  0  0  0  0  0  0  0  0  0  # atno 10718 bound_to 10713
  153.3131  135.4081  155.1353 H   0  0  0  0  0  0  0  0  0  0  0  0  # atno 10763 bound_to 10752
  154.8581  135.3569  154.5697 H   0  0  0  0  0  0  0  0  0  0  0  0  # atno 10764 bound_to 10752
  153.6126  135.7067  153.5399 H   0  0  0  0  0  0  0  0  0  0  0  0  # atno 10765 bound_to 10752
  141.1621  133.7492  156.9258 H   0  0  0  0  0  0  0  0  0  0  0  0  # atno 11005 bound_to 11000
  144.9725  140.8382  143.5446 LP  0  0  0  0  0  0  0  0  0  0  0  0  # atno 17320 bound_to 7965
  145.2069  139.2224  143.5163 LP  0  0  0  0  0  0  0  0  0  0  0  0  # atno 17321 bound_to 7965
  140.5741  143.2178  151.7547 LP  0  0  0  0  0  0  0  0  0  0  0  0  # atno 17342 bound_to 10162
  139.4940  144.4175  152.0014 LP  0  0  0  0  0  0  0  0  0  0  0  0  # atno 17343 bound_to 10162
  157.7093  131.0741  150.6556 LP  0  0  0  0  0  0  0  0  0  0  0  0  # atno 17370 bound_to 10713
  156.6620  130.4515  149.5684 LP  0  0  0  0  0  0  0  0  0  0  0  0  # atno 17371 bound_to 10713
  140.1420  134.9287  157.2479 LP  0  0  0  0  0  0  0  0  0  0  0  0  # atno 17394 bound_to 11000
  140.2825  134.3333  155.7339 LP  0  0  0  0  0  0  0  0  0  0  0  0  # atno 17395 bound_to 11000

$$$$
