#       Name:                AV-unprocessed.smi:1572
#       Creating user name   scv26
#       Creation time:       Fri Mar 27 06:53:48 2020


#       File generated by GOLD software.
#

@<TRIPOS>MOLECULE
AV-unprocessed.smi:1572
    48    49     1
SMALL
NO_CHARGES


@<TRIPOS>ATOM
      1 ****        -2.9171   0.9611   3.4702 C.3            1 S1                 0.0000
      2 ****        -2.1205  -0.1255   2.8545 N.4            1 S1                 1.0000
      3 ****        -0.6709   0.1640   2.7739 C.3            1 S1                 0.0000
      4 ****        -0.3551   1.1560   1.6364 C.3            1 S1                 0.0000
      5 ****        -0.8045   0.6139   0.3433 N.3            1 S1                 0.0000
      6 ****        -0.3316   1.3713  -0.8474 C.3            1 S1                 0.0000
      7 ****        -0.8172   0.6620  -2.1372 C.3            1 S1                 0.0000
      8 ****        -0.8645   2.8242  -0.8543 C.3            1 S1                 0.0000
      9 ****         1.2258   1.4164  -0.8858 C.3            1 S1                 0.0000
     10 ****         1.8464   0.0999  -0.7354 N.am           1 S1                 0.0000
     11 ****         2.3566  -0.6446  -1.7268 C.2            1 S1                 0.0000
     12 ****         2.3723  -0.2901  -2.9053 O.2            1 S1                 0.0000
     13 ****         2.8295  -1.8114  -1.2602 N.am           1 S1                 0.0000
     14 ****         3.4317  -2.8639  -1.9934 C.2            1 S1                 0.0000
     15 ****         3.8079  -3.9597  -1.3238 N.2            1 S1                 0.0000
     16 ****         4.3828  -4.9088  -2.1601 N.2            1 S1                 0.0000
     17 ****         4.4180  -4.4904  -3.4290 C.2            1 S1                 0.0000
     18 ****         3.7520  -2.8951  -3.7298 S.3            1 S1                 0.0000
     19 ****        -2.2646   0.4369   0.4236 C.3            1 S1                 0.0000
     20 ****        -2.6264  -0.5684   1.5355 C.3            1 S1                 0.0000
     21 ****        -2.8827   1.8777   2.8815 H              1 S1                 0.0000
     22 ****        -2.5443   1.1867   4.4697 H              1 S1                 0.0000
     23 ****        -3.9607   0.6605   3.5677 H              1 S1                 0.0000
     24 ****        -0.3148   0.5511   3.7294 H              1 S1                 0.0000
     25 ****        -0.1359  -0.7714   2.6028 H              1 S1                 0.0000
     26 ****        -0.8191   2.1226   1.8335 H              1 S1                 0.0000
     27 ****         0.7205   1.3171   1.6439 H              1 S1                 0.0000
     28 ****        -0.3090   1.0566  -3.0177 H              1 S1                 0.0000
     29 ****        -1.8820   0.8056  -2.3194 H              1 S1                 0.0000
     30 ****        -0.6258  -0.4114  -2.1081 H              1 S1                 0.0000
     31 ****        -0.5147   3.3564  -1.7398 H              1 S1                 0.0000
     32 ****        -0.5218   3.3953   0.0083 H              1 S1                 0.0000
     33 ****        -1.9530   2.8687  -0.8744 H              1 S1                 0.0000
     34 ****         1.5590   1.8870  -1.8126 H              1 S1                 0.0000
     35 ****         1.6224   2.0653  -0.1057 H              1 S1                 0.0000
     36 ****         1.8740  -0.2784   0.1999 H              1 S1                 0.0000
     37 ****         2.7447  -1.9696  -0.2672 H              1 S1                 0.0000
     38 ****         4.8398  -5.1262  -4.1931 H              1 S1                 0.0000
     39 ****        -2.7614   1.3915   0.5969 H              1 S1                 0.0000
     40 ****        -2.6651   0.0378  -0.5057 H              1 S1                 0.0000
     41 ****        -2.1930  -1.5423   1.3033 H              1 S1                 0.0000
     42 ****        -3.7060  -0.7158   1.5812 H              1 S1                 0.0000
     43 ****        -2.2198  -0.9144   3.4774 H              1 S1                 0.0000
     44 ****        -0.3724  -0.2743   0.1876 LP             1 S1                 0.0000
     45 ****         1.9904   0.5967  -3.1658 LP             1 S1                 0.0000
     46 ****         2.7668  -0.8888  -3.6023 LP             1 S1                 0.0000
     47 ****         3.6893  -4.0811  -0.3383 LP             1 S1                 0.0000
     48 ****         4.7275  -5.7951  -1.8509 LP             1 S1                 0.0000
@<TRIPOS>BOND
    1    1    2 1     
    2    1   21 1     
    3    1   22 1     
    4    1   23 1     
    5    2   20 1     
    6    2    3 1     
    7    2   43 1     
    8    3    4 1     
    9    3   24 1     
   10    3   25 1     
   11    4    5 1     
   12    4   26 1     
   13    4   27 1     
   14    5    6 1     
   15    5   19 1     
   16    6    7 1     
   17    6    8 1     
   18    6    9 1     
   19    7   28 1     
   20    7   29 1     
   21    7   30 1     
   22    8   31 1     
   23    8   32 1     
   24    8   33 1     
   25    9   10 1     
   26    9   34 1     
   27    9   35 1     
   28   10   11 am    
   29   10   36 1     
   30   11   12 2     
   31   11   13 am    
   32   13   14 1     
   33   13   37 1     
   34   14   18 1     
   35   14   15 2     
   36   15   16 1     
   37   16   17 2     
   38   17   18 1     
   39   17   38 1     
   40   19   20 1     
   41   19   39 1     
   42   19   40 1     
   43   20   41 1     
   44   20   42 1     
   45    5   44 1     
   46   12   45 1     
   47   12   46 1     
   48   15   47 1     
   49   16   48 1     
@<TRIPOS>SUBSTRUCTURE
      1 S1             1
@<TRIPOS>SET
LONE_PAIRS      STATIC     ATOMS    <user>   **** ""
5 44 45 46 47 48
DONOR_HYDROGENS      STATIC     ATOMS    <user>   **** ""
3 43 36 37
ATOM$BLUE        STATIC     ATOMS    COLORGROUP SYSTEM
5 44 45 46 47 48
ATOM$RED        STATIC     ATOMS    COLORGROUP SYSTEM
3 43 36 37
