AV-unprocessed.smi:2492|AV-procd|sdf|9811|dock4
  -GOLD-   2272013443D 1   1.00000     0.00000
 Structure written by MMmdl.
 33 34  0  0  0  0  0  0  0  0  1 V2000
  143.7683  132.5349  149.7207 C   0  0  0  0  0  0  0  0  0  0  0  0
  145.4709  132.1783  149.2129 S   0  0  0  0  0  0  0  0  0  0  0  0
  146.3481  132.5239  150.7646 C   0  0  2  0  0  0  0  0  0  0  0  0
  145.9013  131.6113  151.9037 C   0  0  0  0  0  0  0  0  0  0  0  0
  146.3388  132.3469  153.1710 C   0  0  0  0  0  0  0  0  0  0  0  0
  146.2923  133.8483  152.8276 C   0  0  1  0  0  0  0  0  0  0  0  0
  147.5337  134.5114  153.2227 N   0  0  0  0  0  0  0  0  0  0  0  0
  148.0337  134.5623  154.4660 C   0  0  0  0  0  0  0  0  0  0  0  0
  147.4904  134.0475  155.4437 O   0  0  0  0  0  0  0  0  0  0  0  0
  149.1910  135.2445  154.4956 N   0  0  0  0  0  0  0  0  0  0  0  0
  150.0299  135.4799  155.6142 C   0  0  0  0  0  0  0  0  0  0  0  0
  151.2471  136.0232  155.5940 N   0  0  0  0  0  0  0  0  0  0  0  0
  151.5570  136.0076  156.9194 C   0  0  0  0  0  0  0  0  0  0  0  0
  152.8517  136.5243  157.4473 C   0  0  0  0  0  0  0  0  0  0  0  0
  150.6315  135.5020  157.7270 N   0  0  0  0  0  0  0  0  0  0  0  0
  149.5958  135.1438  156.8512 O   0  0  0  0  0  0  0  0  0  0  0  0
  146.0893  133.9343  151.3036 C   0  0  0  0  0  0  0  0  0  0  0  0
  143.0904  132.3970  148.8783 H   0  0  0  0  0  0  0  0  0  0  0  0
  143.6821  133.5645  150.0682 H   0  0  0  0  0  0  0  0  0  0  0  0
  143.4584  131.8672  150.5246 H   0  0  0  0  0  0  0  0  0  0  0  0
  147.4188  132.3874  150.6050 H   0  0  0  0  0  0  0  0  0  0  0  0
  144.8147  131.5115  151.8985 H   0  0  0  0  0  0  0  0  0  0  0  0
  146.3281  130.6103  151.8322 H   0  0  0  0  0  0  0  0  0  0  0  0
  145.7045  132.1007  154.0231 H   0  0  0  0  0  0  0  0  0  0  0  0
  147.3543  132.0400  153.4269 H   0  0  0  0  0  0  0  0  0  0  0  0
  145.4313  134.3022  153.3219 H   0  0  0  0  0  0  0  0  0  0  0  0
  148.0532  134.9666  152.4866 H   0  0  0  0  0  0  0  0  0  0  0  0
  149.5158  135.6274  153.6201 H   0  0  0  0  0  0  0  0  0  0  0  0
  152.9083  136.4050  158.5300 H   0  0  0  0  0  0  0  0  0  0  0  0
  152.9583  137.5832  157.2109 H   0  0  0  0  0  0  0  0  0  0  0  0
  153.6843  135.9834  156.9969 H   0  0  0  0  0  0  0  0  0  0  0  0
  146.7270  134.6797  150.8264 H   0  0  0  0  0  0  0  0  0  0  0  0
  145.0569  134.2226  151.0998 H   0  0  0  0  0  0  0  0  0  0  0  0
  1  2  1  0  0  0  0
  1 18  1  0  0  0  0
  1 19  1  0  0  0  0
  1 20  1  0  0  0  0
  2  3  1  0  0  0  0
  3 17  1  0  0  0  0
  3  4  1  0  0  0  0
  3 21  1  0  0  0  0
  4  5  1  0  0  0  0
  4 22  1  0  0  0  0
  4 23  1  0  0  0  0
  5  6  1  0  0  0  0
  5 24  1  0  0  0  0
  5 25  1  0  0  0  0
  6  7  1  0  0  0  0
  6 17  1  0  0  0  0
  6 26  1  0  0  0  0
  7  8  1  0  0  0  0
  7 27  1  0  0  0  0
  8  9  2  0  0  0  0
  8 10  1  0  0  0  0
 10 11  1  0  0  0  0
 10 28  1  0  0  0  0
 11 16  1  0  0  0  0
 11 12  2  0  0  0  0
 12 13  1  0  0  0  0
 13 14  1  0  0  0  0
 13 15  2  0  0  0  0
 14 29  1  0  0  0  0
 14 30  1  0  0  0  0
 14 31  1  0  0  0  0
 15 16  1  0  0  0  0
 17 32  1  0  0  0  0
 17 33  1  0  0  0  0
M  END
> <s_m_source_file>
AV-unprocessed.smi

> <i_m_source_file_index>
2492

> <i_lp_mmshare_version>
43012

> <i_f3d_flags>
0

> <s_epik_input>
W0NIM11TW0NAQEhdMVtDSDJdW0NIMl1bQ0BIXShbQ0gyXTEpW05IXUMoPU8pW05IXWMybmMoW0NIM10pbm8y

> <s_epik_cmdline>
J2VwaWtfcHl0aG9uJywgJy1waCcsICc3LjAnLCAnLXRuJywgJzgnLCAnLW1hJywgJzIwMCcsICctbWV0YWxfYmluZGluZycsICctaW1hZScsICc8aW5maWxlLm1hZT4nLCAnLW9tYWUnLCAnPG91dGZpbGUubWFlPic=

> <r_lp_tautomer_probability>
1

> <r_epik_Ionization_Penalty>
3.56659e-05

> <r_epik_Ionization_Penalty_Charging>
0

> <r_epik_Ionization_Penalty_Neutral>
3.56659e-05

> <r_epik_State_Penalty>
-0

> <r_epik_Charging_Adjusted_Penalty>
0

> <i_epik_Tot_Q>
0

> <i_epik_Tot_abs_Q>
0

> <r_epik_Metal_State_Penalty>
0.0146047

> <b_epik_Metal_Only>
0

> <s_lp_Force_Field>
OPLS_2005

> <r_lp_Energy>
14.5779

> <b_lp_Chiralities_Consistent>
1

> <s_lp_Variant>
AV-unprocessed.smi:2492-1

> <Gold.Version>
5.8.1

> <Gold.Id.Protein>
6NUR|6NUR_protein|mol2

> <Gold.PLP.Fitness>
35.1267

> <Gold.PLP.PLP>
-24.8098

> <Gold.PLP.part.hbond>
-4.0000

> <Gold.PLP.part.metal>
0.0000

> <Gold.PLP.part.buried>
-2.5314

> <Gold.PLP.part.nonpolar>
-18.2736

> <Gold.PLP.part.repulsive>
0.1215

> <Gold.PLP.ligand.clash>
0.0000

> <Gold.PLP.ligand.torsion>
0.0282

> <Gold.PLP.Chemscore.Hbond>
3.4560

> <Gold.PLP.Chemscore.CHOScore>
0.0000

> <Gold.PLP.Chemscore.Metal>
0.0000

> <Gold.Chemscore.Hbonds>
donor molecule, donor type, donor heavy atom, donor atom, acceptor molecule, acceptor atom, score
      L1  H     7    27       P1  7948  1.00
      L1  H    10    28       P1  7948  0.87
      P1  H  6896  6908       L1    15  0.51
      P1  H 10752 10763       L1    12  0.95

> <Gold.PLP.Chemscore.Internal.Correction>
0.0053

> <Gold.Rescore>
     Score         DG    S(hbond)    S(metal)    S(lipo)     H(rot)  DE(clash)    DE(int)     intcor
     14.87     -16.35       2.42        0.00      51.78       1.28       0.00       1.48       ----

> <Gold.Chemscore.Fitness>
14.8678

> <Gold.Chemscore.DG>
-16.3521

> <Gold.Chemscore.ZeroCoef>
-5.4800

> <Gold.Chemscore.Hbond>
2.4236

> <Gold.Chemscore.Metal>
0.0000

> <Gold.Chemscore.Lipo>
51.7795

> <Gold.Chemscore.Internal_Hbond>
0.0000

> <Gold.Chemscore.DEClash>
0.0036

> <Gold.Chemscore.DEInternal>
1.4807

> <Gold.Chemscore.Rot>
1.2815

> <Gold.Chemscore.Internal.Correction>
   9.000000E+99

> <Gold.Chemscore.Hbonds>
donor molecule, donor type, donor heavy atom, donor atom, acceptor molecule, acceptor atom, score
      L1  H     7    27       P1  7948  0.80
      L1  H    10    28       P1  7948  0.19
      P1  H  6896  6908       L1    15  0.45
      P1  H 10752 10763       L1    12  0.21

> <Gold.Chemscore.Hbond.Weighted>
-8.0947

> <Gold.Chemscore.Metal.Weighted>
-0.0000

> <Gold.Chemscore.Lipo.Weighted>
-6.0582

> <Gold.Chemscore.Internal_Hbond.Weighted>
0.0000

> <Gold.Chemscore.DEClash.Weighted>
0.0036

> <Gold.Chemscore.DEInternal.Weighted>
1.4807

> <Gold.Chemscore.Rot.Weighted>
3.2808

> <Gold.Chemscore.Internal.Correction.Weighted>
   9.000000E+99

> <Gold.Protein.RotatedTorsions>
[ 6907 6896 6895 6894 ] final  167.99 input  -60.11 | X-H torsion
[ 7974 7965 7964 7962 ] final  -13.66 input  175.53 | X-H torsion
[ 8008 7997 7996 7995 ] final  145.89 input   59.86 | X-H torsion
[ 10167 10162 10161 10158 ] final  -14.72 input  -65.29 | X-H torsion
[ 10718 10713 10712 10709 ] final   -3.53 input   66.30 | X-H torsion
[ 10763 10752 10751 10750 ] final   75.97 input  -60.55 | X-H torsion
[ 11005 11000 10999 10996 ] final -151.74 input  -57.11 | X-H torsion

> <Gold.Protein.ActiveResidues>
 VAL166  LYS551  ARG553  GLY616  TRP617  ASP618  TYR619  PRO620  LYS621  CYS622 
 ASP623  PHE694  ASN695  SER759  ASP760  ASP761  ALA762  ILE779  LEU786  VAL792 
 PHE793  MET794  SER795  GLU796  ALA797  LYS798  CYS799  TRP800  GLU811  SER814 

> <Gold.Protein.RotatedAtoms>
  151.8547  133.3446  159.3684 H   0  0  0  0  0  0  0  0  0  0  0  0  # atno 6907 bound_to 6896
  150.7196  134.5265  159.5688 H   0  0  0  0  0  0  0  0  0  0  0  0  # atno 6908 bound_to 6896
  152.2766  134.7875  160.0455 H   0  0  0  0  0  0  0  0  0  0  0  0  # atno 6909 bound_to 6896
  146.2105  140.3236  142.8392 H   0  0  0  0  0  0  0  0  0  0  0  0  # atno 7974 bound_to 7965
  156.2870  140.2197  156.5289 H   0  0  0  0  0  0  0  0  0  0  0  0  # atno 8008 bound_to 7997
  154.7465  140.0483  157.0879 H   0  0  0  0  0  0  0  0  0  0  0  0  # atno 8009 bound_to 7997
  155.0163  140.3119  155.4813 H   0  0  0  0  0  0  0  0  0  0  0  0  # atno 8010 bound_to 7997
  140.7206  143.5292  150.9540 H   0  0  0  0  0  0  0  0  0  0  0  0  # atno 10167 bound_to 10162
  156.7747  130.5311  149.5761 H   0  0  0  0  0  0  0  0  0  0  0  0  # atno 10718 bound_to 10713
  153.0692  135.4969  154.8267 H   0  0  0  0  0  0  0  0  0  0  0  0  # atno 10763 bound_to 10752
  154.6998  135.2999  154.9361 H   0  0  0  0  0  0  0  0  0  0  0  0  # atno 10764 bound_to 10752
  154.0088  135.6757  153.4817 H   0  0  0  0  0  0  0  0  0  0  0  0  # atno 10765 bound_to 10752
  140.7264  134.3670  157.5174 H   0  0  0  0  0  0  0  0  0  0  0  0  # atno 11005 bound_to 11000
  144.8902  140.7514  143.5931 LP  0  0  0  0  0  0  0  0  0  0  0  0  # atno 17320 bound_to 7965
  145.3158  139.1804  143.4614 LP  0  0  0  0  0  0  0  0  0  0  0  0  # atno 17321 bound_to 7965
  139.9012  143.6834  152.3131 LP  0  0  0  0  0  0  0  0  0  0  0  0  # atno 17342 bound_to 10162
  139.7184  144.7607  151.0996 LP  0  0  0  0  0  0  0  0  0  0  0  0  # atno 17343 bound_to 10162
  156.1255  130.6141  151.0257 LP  0  0  0  0  0  0  0  0  0  0  0  0  # atno 17370 bound_to 10713
  157.6674  131.0868  150.7694 LP  0  0  0  0  0  0  0  0  0  0  0  0  # atno 17371 bound_to 10713
  139.8836  134.8989  156.2755 LP  0  0  0  0  0  0  0  0  0  0  0  0  # atno 17394 bound_to 11000
  140.9959  133.7180  156.0885 LP  0  0  0  0  0  0  0  0  0  0  0  0  # atno 17395 bound_to 11000

$$$$
