AV-unprocessed.smi:2966|AV-procd|sdf|11325|dock9
  -GOLD-   2272016233D 1   1.00000     0.00000
 Structure written by MMmdl.
 41 43  0  0  0  0  0  0  0  0  2 V2000
  153.1389  138.6765  154.7054 C   0  0  0  0  0  0  0  0  0  0  0  0
  152.8520  139.4658  155.8460 O   0  0  0  0  0  0  0  0  0  0  0  0
  152.2262  138.7221  156.8789 C   0  0  0  0  0  0  0  0  0  0  0  0
  151.9337  139.6348  158.0774 C   0  0  0  0  0  0  0  0  0  0  0  0
  151.5042  140.9785  157.6635 N   0  0  0  0  0  0  0  0  0  0  0  0
  150.7220  141.3681  156.6197 C   0  0  0  0  0  0  0  0  0  0  0  0
  149.9870  140.3138  155.4139 S   0  0  0  0  0  0  0  0  0  0  0  0
  149.1328  141.4512  154.2872 C   0  0  0  0  0  0  0  0  0  0  0  0
  147.6131  141.3746  154.4239 C   0  0  0  0  0  0  0  0  0  0  0  0
  147.0276  140.3201  154.1791 O   0  0  0  0  0  0  0  0  0  0  0  0
  146.9959  142.4904  154.8395 N   0  0  0  0  0  0  0  0  0  0  0  0
  145.5962  142.6224  155.0813 C   0  0  0  0  0  0  0  0  0  0  0  0
  144.8690  143.7577  154.3946 C   0  0  0  0  0  0  0  0  0  0  0  0
  145.1321  143.8253  155.8737 C   0  0  0  0  0  0  0  0  0  0  0  0
  150.6303  142.7252  156.6502 N   0  3  0  0  0  0  0  0  0  0  0  0
  151.3551  143.2141  157.7383 C   0  0  0  0  0  0  0  0  0  0  0  0
  151.5560  144.5159  158.1868 C   0  0  0  0  0  0  0  0  0  0  0  0
  152.3538  144.6723  159.3392 C   0  0  0  0  0  0  0  0  0  0  0  0
  152.9164  143.5607  159.9994 C   0  0  0  0  0  0  0  0  0  0  0  0
  152.7074  142.2454  159.5350 C   0  0  0  0  0  0  0  0  0  0  0  0
  151.9183  142.0983  158.3945 C   0  0  0  0  0  0  0  0  0  0  0  0
  153.6207  139.2920  153.9458 H   0  0  0  0  0  0  0  0  0  0  0  0
  152.2274  138.2606  154.2742 H   0  0  0  0  0  0  0  0  0  0  0  0
  153.8151  137.8572  154.9528 H   0  0  0  0  0  0  0  0  0  0  0  0
  151.2959  138.2847  156.5137 H   0  0  0  0  0  0  0  0  0  0  0  0
  152.8730  137.8999  157.1900 H   0  0  0  0  0  0  0  0  0  0  0  0
  151.1766  139.1986  158.7290 H   0  0  0  0  0  0  0  0  0  0  0  0
  152.8306  139.7469  158.6862 H   0  0  0  0  0  0  0  0  0  0  0  0
  149.4676  142.4698  154.4851 H   0  0  0  0  0  0  0  0  0  0  0  0
  149.4205  141.2134  153.2625 H   0  0  0  0  0  0  0  0  0  0  0  0
  147.5649  143.3058  155.0157 H   0  0  0  0  0  0  0  0  0  0  0  0
  145.0237  141.7064  155.2223 H   0  0  0  0  0  0  0  0  0  0  0  0
  145.4473  144.4187  153.7517 H   0  0  0  0  0  0  0  0  0  0  0  0
  143.8447  143.5770  154.0747 H   0  0  0  0  0  0  0  0  0  0  0  0
  144.2849  143.6879  156.5425 H   0  0  0  0  0  0  0  0  0  0  0  0
  145.8849  144.5330  156.2163 H   0  0  0  0  0  0  0  0  0  0  0  0
  151.1251  145.3693  157.6838 H   0  0  0  0  0  0  0  0  0  0  0  0
  152.5368  145.6646  159.7254 H   0  0  0  0  0  0  0  0  0  0  0  0
  153.5203  143.7192  160.8811 H   0  0  0  0  0  0  0  0  0  0  0  0
  153.1391  141.4013  160.0520 H   0  0  0  0  0  0  0  0  0  0  0  0
  150.1101  143.2729  155.9773 H   0  0  0  0  0  0  0  0  0  0  0  0
  1  2  1  0  0  0  0
  1 22  1  0  0  0  0
  1 23  1  0  0  0  0
  1 24  1  0  0  0  0
  2  3  1  0  0  0  0
  3  4  1  0  0  0  0
  3 25  1  0  0  0  0
  3 26  1  0  0  0  0
  4  5  1  0  0  0  0
  4 27  1  0  0  0  0
  4 28  1  0  0  0  0
  5 21  1  0  0  0  0
  5  6  1  0  0  0  0
  6  7  1  0  0  0  0
  6 15  2  0  0  0  0
  7  8  1  0  0  0  0
  8  9  1  0  0  0  0
  8 29  1  0  0  0  0
  8 30  1  0  0  0  0
  9 10  2  0  0  0  0
  9 11  1  0  0  0  0
 11 12  1  0  0  0  0
 11 31  1  0  0  0  0
 12 14  1  0  0  0  0
 12 13  1  0  0  0  0
 12 32  1  0  0  0  0
 13 14  1  0  0  0  0
 13 33  1  0  0  0  0
 13 34  1  0  0  0  0
 14 35  1  0  0  0  0
 14 36  1  0  0  0  0
 15 16  1  0  0  0  0
 15 41  1  0  0  0  0
 16 21  2  0  0  0  0
 16 17  1  0  0  0  0
 17 18  2  0  0  0  0
 17 37  1  0  0  0  0
 18 19  1  0  0  0  0
 18 38  1  0  0  0  0
 19 20  2  0  0  0  0
 19 39  1  0  0  0  0
 20 21  1  0  0  0  0
 20 40  1  0  0  0  0
M  CHG  1  15   1
M  END
> <s_m_source_file>
AV-unprocessed.smi

> <i_m_source_file_index>
2966

> <i_lp_mmshare_version>
43012

> <i_f3d_flags>
0

> <s_epik_input>
W2NIXTFbY0hdW2NIXVtjSF1jKGMxMiluKFtDSDJdW0NIMl1PW0NIM10pYyhuMilTW0NIMl1DKD1PKVtOSF1bQ0hdM1tDSDJdW0NIMl0z

> <s_epik_cmdline>
J2VwaWtfcHl0aG9uJywgJy1waCcsICc3LjAnLCAnLXRuJywgJzgnLCAnLW1hJywgJzIwMCcsICctbWV0YWxfYmluZGluZycsICctaW1hZScsICc8aW5maWxlLm1hZT4nLCAnLW9tYWUnLCAnPG91dGZpbGUubWFlPic=

> <r_epik_Ionization_Penalty>
1.66257

> <r_epik_Ionization_Penalty_Charging>
1.66257

> <r_epik_Ionization_Penalty_Neutral>
8.69326e-08

> <r_epik_State_Penalty>
1.76557

> <r_epik_Charging_Adjusted_Penalty>
3.42813

> <i_epik_Tot_Q>
1

> <i_epik_Tot_abs_Q>
1

> <r_epik_Metal_State_Penalty>
1.80073

> <b_epik_Metal_Only>
0

> <s_lp_Force_Field>
OPLS_2005

> <r_lp_Energy>
20.3811

> <b_lp_Chiralities_Consistent>
1

> <s_lp_Variant>
AV-unprocessed.smi:2966-2

> <Gold.Version>
5.8.1

> <Gold.Id.Protein>
6NUR|6NUR_protein|mol2

> <Gold.PLP.Fitness>
58.8339

> <Gold.PLP.PLP>
-48.7054

> <Gold.PLP.part.hbond>
-3.0000

> <Gold.PLP.part.metal>
0.0000

> <Gold.PLP.part.buried>
-6.3089

> <Gold.PLP.part.nonpolar>
-40.7712

> <Gold.PLP.part.repulsive>
0.2802

> <Gold.PLP.ligand.clash>
0.0000

> <Gold.PLP.ligand.torsion>
0.9095

> <Gold.PLP.Chemscore.Hbond>
3.9520

> <Gold.PLP.Chemscore.CHOScore>
0.0000

> <Gold.PLP.Chemscore.Metal>
0.0000

> <Gold.Chemscore.Hbonds>
donor molecule, donor type, donor heavy atom, donor atom, acceptor molecule, acceptor atom, score
      L1  H    11    31       P1  8028  1.00
      L1  H    15    41       P1  8028  1.92
      P1  H  7997  8009       L1     2  0.95

> <Gold.PLP.Chemscore.Internal.Correction>
0.0914

> <Gold.Rescore>
     Score         DG    S(hbond)    S(metal)    S(lipo)     H(rot)  DE(clash)    DE(int)     intcor
     19.66     -20.84       2.05        0.00     121.15       2.21       0.47       0.71       ----

> <Gold.Chemscore.Fitness>
19.6641

> <Gold.Chemscore.DG>
-20.8444

> <Gold.Chemscore.ZeroCoef>
-5.4800

> <Gold.Chemscore.Hbond>
2.0540

> <Gold.Chemscore.Metal>
0.0000

> <Gold.Chemscore.Lipo>
121.1451

> <Gold.Chemscore.Internal_Hbond>
0.0000

> <Gold.Chemscore.DEClash>
0.4692

> <Gold.Chemscore.DEInternal>
0.7111

> <Gold.Chemscore.Rot>
2.2149

> <Gold.Chemscore.Internal.Correction>
   9.000000E+99

> <Gold.Chemscore.Hbonds>
donor molecule, donor type, donor heavy atom, donor atom, acceptor molecule, acceptor atom, score
      L1  H    11    31       P1  8028  0.29
      L1  H    15    41       P1  8028  0.92
      P1  H  7997  8009       L1     2  0.21

> <Gold.Chemscore.Hbond.Weighted>
-6.8605

> <Gold.Chemscore.Metal.Weighted>
-0.0000

> <Gold.Chemscore.Lipo.Weighted>
-14.1740

> <Gold.Chemscore.Internal_Hbond.Weighted>
0.0000

> <Gold.Chemscore.DEClash.Weighted>
0.4692

> <Gold.Chemscore.DEInternal.Weighted>
0.7111

> <Gold.Chemscore.Rot.Weighted>
5.6700

> <Gold.Chemscore.Internal.Correction.Weighted>
   9.000000E+99

> <Gold.Protein.RotatedTorsions>
[ 6907 6896 6895 6894 ] final   92.86 input  -60.11 | X-H torsion
[ 7974 7965 7964 7962 ] final  -94.71 input  175.53 | X-H torsion
[ 8008 7997 7996 7995 ] final -147.49 input   59.86 | X-H torsion
[ 10167 10162 10161 10158 ] final  -72.99 input  -65.29 | X-H torsion
[ 10718 10713 10712 10709 ] final  107.55 input   66.30 | X-H torsion
[ 10763 10752 10751 10750 ] final  -58.71 input  -60.55 | X-H torsion
[ 11005 11000 10999 10996 ] final -166.16 input  -57.11 | X-H torsion

> <Gold.Protein.ActiveResidues>
 VAL166  LYS551  ARG553  GLY616  TRP617  ASP618  TYR619  PRO620  LYS621  CYS622 
 ASP623  PHE694  ASN695  SER759  ASP760  ASP761  ALA762  ILE779  LEU786  VAL792 
 PHE793  MET794  SER795  GLU796  ALA797  LYS798  CYS799  TRP800  GLU811  SER814 

> <Gold.Protein.RotatedAtoms>
  152.5453  134.1437  159.8489 H   0  0  0  0  0  0  0  0  0  0  0  0  # atno 6907 bound_to 6896
  151.1471  133.4925  159.2603 H   0  0  0  0  0  0  0  0  0  0  0  0  # atno 6908 bound_to 6896
  151.1512  135.0238  159.8724 H   0  0  0  0  0  0  0  0  0  0  0  0  # atno 6909 bound_to 6896
  145.3697  140.9503  143.2454 H   0  0  0  0  0  0  0  0  0  0  0  0  # atno 7974 bound_to 7965
  155.5763  140.0639  157.2794 H   0  0  0  0  0  0  0  0  0  0  0  0  # atno 8008 bound_to 7997
  154.4346  140.1860  156.0977 H   0  0  0  0  0  0  0  0  0  0  0  0  # atno 8009 bound_to 7997
  156.0338  140.3303  155.7172 H   0  0  0  0  0  0  0  0  0  0  0  0  # atno 8010 bound_to 7997
  140.5147  143.2340  151.7533 H   0  0  0  0  0  0  0  0  0  0  0  0  # atno 10167 bound_to 10162
  157.6624  131.0875  150.6172 H   0  0  0  0  0  0  0  0  0  0  0  0  # atno 10718 bound_to 10713
  154.2423  135.6341  153.5211 H   0  0  0  0  0  0  0  0  0  0  0  0  # atno 10763 bound_to 10752
  152.9928  135.5545  154.5897 H   0  0  0  0  0  0  0  0  0  0  0  0  # atno 10764 bound_to 10752
  154.5405  135.2894  155.1074 H   0  0  0  0  0  0  0  0  0  0  0  0  # atno 10765 bound_to 10752
  140.5675  134.5271  157.5155 H   0  0  0  0  0  0  0  0  0  0  0  0  # atno 11005 bound_to 11000
  144.8585  139.5213  143.6823 LP  0  0  0  0  0  0  0  0  0  0  0  0  # atno 17320 bound_to 7965
  146.2891  139.7087  142.9174 LP  0  0  0  0  0  0  0  0  0  0  0  0  # atno 17321 bound_to 7965
  139.4906  144.4341  151.9839 LP  0  0  0  0  0  0  0  0  0  0  0  0  # atno 17342 bound_to 10162
  140.3435  144.3175  150.5962 LP  0  0  0  0  0  0  0  0  0  0  0  0  # atno 17343 bound_to 10162
  156.6475  130.4475  149.5731 LP  0  0  0  0  0  0  0  0  0  0  0  0  # atno 17370 bound_to 10713
  156.2163  130.6710  151.1322 LP  0  0  0  0  0  0  0  0  0  0  0  0  # atno 17371 bound_to 10713
  139.9377  134.7844  156.0758 LP  0  0  0  0  0  0  0  0  0  0  0  0  # atno 17394 bound_to 11000
  141.1076  133.6654  156.2902 LP  0  0  0  0  0  0  0  0  0  0  0  0  # atno 17395 bound_to 11000

$$$$
