#       Name:                AV-unprocessed.smi:3160
#       Creating user name   scv26
#       Creation time:       Fri Mar 27 17:47:58 2020


#       File generated by GOLD software.
#

@<TRIPOS>MOLECULE
AV-unprocessed.smi:3160
    41    42     1
SMALL
NO_CHARGES


@<TRIPOS>ATOM
      1 ****        -2.6640  -2.3925  -4.3161 C.3            1 S1                 0.0000
      2 ****        -2.5782  -2.0439  -2.8582 C.2            1 S1                 0.0000
      3 ****        -3.2646  -2.6546  -1.7709 C.2            1 S1                 0.0000
      4 ****        -2.9654  -2.1098  -0.6030 N.2            1 S1                 0.0000
      5 ****        -2.0812  -1.1334  -0.8995 N.pl3          1 S1                 0.0000
      6 ****        -1.5229  -0.3144   0.1689 C.3            1 S1                 0.0000
      7 ****        -1.8828   1.1636  -0.0689 C.3            1 S1                 0.0000
      8 ****         0.0017  -0.5477   0.3374 C.3            1 S1                 0.0000
      9 ****         0.3832  -2.0371   0.4203 C.3            1 S1                 0.0000
     10 ****         0.4953   0.1374   1.5541 N.4            1 S1                 1.0000
     11 ****         1.3677   1.3077   1.3150 C.3            1 S1                 0.0000
     12 ****         2.7713   0.9264   0.8372 C.3            1 S1                 0.0000
     13 ****         3.6409   2.1432   1.1748 C.3            1 S1                 0.0000
     14 ****         2.9079   2.9002   2.2945 C.3            1 S1                 0.0000
     15 ****         1.6389   2.0955   2.5963 C.3            1 S1                 0.0000
     16 ****        -1.8286  -1.0742  -2.2556 C.2            1 S1                 0.0000
     17 ****        -3.5738  -2.9473  -4.5466 H              1 S1                 0.0000
     18 ****        -1.8223  -3.0090  -4.6320 H              1 S1                 0.0000
     19 ****        -2.6648  -1.5015  -4.9443 H              1 S1                 0.0000
     20 ****        -3.9675  -3.4742  -1.7965 H              1 S1                 0.0000
     21 ****        -2.0095  -0.6200   1.0976 H              1 S1                 0.0000
     22 ****        -1.5932   1.7879   0.7762 H              1 S1                 0.0000
     23 ****        -2.9581   1.2862  -0.2042 H              1 S1                 0.0000
     24 ****        -1.3902   1.5577  -0.9581 H              1 S1                 0.0000
     25 ****         0.5089  -0.1396  -0.5382 H              1 S1                 0.0000
     26 ****         0.1401  -2.5710  -0.4985 H              1 S1                 0.0000
     27 ****        -0.1350  -2.5339   1.2412 H              1 S1                 0.0000
     28 ****         1.4548  -2.1574   0.5831 H              1 S1                 0.0000
     29 ****        -0.3098   0.4422   2.0824 H              1 S1                 0.0000
     30 ****         0.9017   1.9750   0.5879 H              1 S1                 0.0000
     31 ****         3.1317   0.0587   1.3921 H              1 S1                 0.0000
     32 ****         2.8040   0.6753  -0.2233 H              1 S1                 0.0000
     33 ****         4.6450   1.8419   1.4761 H              1 S1                 0.0000
     34 ****         3.7435   2.7876   0.3010 H              1 S1                 0.0000
     35 ****         3.5274   3.0150   3.1846 H              1 S1                 0.0000
     36 ****         2.6446   3.9013   1.9503 H              1 S1                 0.0000
     37 ****         0.8002   2.7305   2.8840 H              1 S1                 0.0000
     38 ****         1.8350   1.4107   3.4230 H              1 S1                 0.0000
     39 ****        -1.1421  -0.3546  -2.6767 H              1 S1                 0.0000
     40 ****         1.0086  -0.5283   2.1138 H              1 S1                 0.0000
     41 ****        -3.3159  -2.3644   0.2983 LP             1 S1                 0.0000
@<TRIPOS>BOND
    1    1    2 1     
    2    1   17 1     
    3    1   18 1     
    4    1   19 1     
    5    2   16 2     
    6    2    3 1     
    7    3    4 2     
    8    3   20 1     
    9    4    5 1     
   10    5    6 1     
   11    5   16 1     
   12    6    7 1     
   13    6    8 1     
   14    6   21 1     
   15    7   22 1     
   16    7   23 1     
   17    7   24 1     
   18    8    9 1     
   19    8   10 1     
   20    8   25 1     
   21    9   26 1     
   22    9   27 1     
   23    9   28 1     
   24   10   11 1     
   25   10   29 1     
   26   10   40 1     
   27   11   15 1     
   28   11   12 1     
   29   11   30 1     
   30   12   13 1     
   31   12   31 1     
   32   12   32 1     
   33   13   14 1     
   34   13   33 1     
   35   13   34 1     
   36   14   15 1     
   37   14   35 1     
   38   14   36 1     
   39   15   37 1     
   40   15   38 1     
   41   16   39 1     
   42    4   41 1     
@<TRIPOS>SUBSTRUCTURE
      1 S1             1
@<TRIPOS>SET
LONE_PAIRS      STATIC     ATOMS    <user>   **** ""
1 41
DONOR_HYDROGENS      STATIC     ATOMS    <user>   **** ""
2 29 40
ATOM$BLUE        STATIC     ATOMS    COLORGROUP SYSTEM
1 41
ATOM$RED        STATIC     ATOMS    COLORGROUP SYSTEM
2 29 40
