AV-unprocessed.smi:2997|AV-procd|sdf|11414|dock9
  -GOLD-   2272016333D 1   1.00000     0.00000
 Structure written by MMmdl.
 39 41  0  0  0  0  0  0  0  0  2 V2000
  151.7103  145.4034  160.5749 C   0  0  0  0  0  0  0  0  0  0  0  0
  151.7090  144.1816  159.6718 C   0  0  0  0  0  0  0  0  0  0  0  0
  151.0213  144.2548  158.4393 C   0  0  0  0  0  0  0  0  0  0  0  0
  151.0357  143.1201  157.6367 C   0  0  0  0  0  0  0  0  0  0  0  0
  150.4627  142.8750  156.3868 N   0  3  0  0  0  0  0  0  0  0  0  0
  150.7523  141.6029  155.9957 C   0  0  0  0  0  0  0  0  0  0  0  0
  151.5004  141.0327  156.9788 N   0  0  0  0  0  0  0  0  0  0  0  0
  152.0806  139.6860  157.0620 C   0  0  0  0  0  0  0  0  0  0  0  0
  151.9967  138.9173  155.7296 C   0  0  2  0  0  0  0  0  0  0  0  0
  152.6912  139.6359  154.7270 O   0  0  0  0  0  0  0  0  0  0  0  0
  150.5386  138.6820  155.2928 C   0  0  0  0  0  0  0  0  0  0  0  0
  150.0223  137.4031  155.7480 N   0  0  0  0  0  0  0  0  0  0  0  0
  149.6642  136.3075  154.9908 C   0  0  0  0  0  0  0  0  0  0  0  0
  149.2288  135.3423  155.8529 C   0  0  0  0  0  0  0  0  0  0  0  0
  149.3618  135.9480  157.1335 C   0  0  0  0  0  0  0  0  0  0  0  0
  149.8359  137.1817  157.0673 N   0  0  0  0  0  0  0  0  0  0  0  0
  151.7039  141.9417  158.0215 C   0  0  0  0  0  0  0  0  0  0  0  0
  152.3892  141.8530  159.2305 C   0  0  0  0  0  0  0  0  0  0  0  0
  152.3849  142.9962  160.0618 C   0  0  0  0  0  0  0  0  0  0  0  0
  153.1205  142.9288  161.3894 C   0  0  0  0  0  0  0  0  0  0  0  0
  151.1318  146.2203  160.1427 H   0  0  0  0  0  0  0  0  0  0  0  0
  152.7278  145.7625  160.7317 H   0  0  0  0  0  0  0  0  0  0  0  0
  151.2736  145.1637  161.5445 H   0  0  0  0  0  0  0  0  0  0  0  0
  150.5061  145.1542  158.1352 H   0  0  0  0  0  0  0  0  0  0  0  0
  150.4490  141.1326  155.0714 H   0  0  0  0  0  0  0  0  0  0  0  0
  153.1139  139.7739  157.4003 H   0  0  0  0  0  0  0  0  0  0  0  0
  151.5446  139.1465  157.8442 H   0  0  0  0  0  0  0  0  0  0  0  0
  152.4898  137.9510  155.8433 H   0  0  0  0  0  0  0  0  0  0  0  0
  153.0451  139.0170  154.1058 H   0  0  0  0  0  0  0  0  0  0  0  0
  149.8965  139.4658  155.6963 H   0  0  0  0  0  0  0  0  0  0  0  0
  150.4501  138.7365  154.2063 H   0  0  0  0  0  0  0  0  0  0  0  0
  149.7466  136.3071  153.9140 H   0  0  0  0  0  0  0  0  0  0  0  0
  148.8705  134.3536  155.6068 H   0  0  0  0  0  0  0  0  0  0  0  0
  149.1289  135.5313  158.1023 H   0  0  0  0  0  0  0  0  0  0  0  0
  152.9032  140.9505  159.5259 H   0  0  0  0  0  0  0  0  0  0  0  0
  153.6095  141.9640  161.5264 H   0  0  0  0  0  0  0  0  0  0  0  0
  152.4263  143.0715  162.2178 H   0  0  0  0  0  0  0  0  0  0  0  0
  153.8881  143.7010  161.4426 H   0  0  0  0  0  0  0  0  0  0  0  0
  149.9160  143.5262  155.8378 H   0  0  0  0  0  0  0  0  0  0  0  0
  1  2  1  0  0  0  0
  1 21  1  0  0  0  0
  1 22  1  0  0  0  0
  1 23  1  0  0  0  0
  2 19  1  0  0  0  0
  2  3  2  0  0  0  0
  3  4  1  0  0  0  0
  3 24  1  0  0  0  0
  4 17  2  0  0  0  0
  4  5  1  0  0  0  0
  5  6  2  0  0  0  0
  5 39  1  0  0  0  0
  6  7  1  0  0  0  0
  6 25  1  0  0  0  0
  7  8  1  0  0  0  0
  7 17  1  0  0  0  0
  8  9  1  0  0  0  0
  8 26  1  0  0  0  0
  8 27  1  0  0  0  0
  9 10  1  0  0  0  0
  9 11  1  0  0  0  0
  9 28  1  0  0  0  0
 10 29  1  0  0  0  0
 11 12  1  0  0  0  0
 11 30  1  0  0  0  0
 11 31  1  0  0  0  0
 12 16  1  0  0  0  0
 12 13  1  0  0  0  0
 13 14  2  0  0  0  0
 13 32  1  0  0  0  0
 14 15  1  0  0  0  0
 14 33  1  0  0  0  0
 15 16  2  0  0  0  0
 15 34  1  0  0  0  0
 17 18  1  0  0  0  0
 18 19  2  0  0  0  0
 18 35  1  0  0  0  0
 19 20  1  0  0  0  0
 20 36  1  0  0  0  0
 20 37  1  0  0  0  0
 20 38  1  0  0  0  0
M  CHG  1   5   1
M  END
> <s_m_source_file>
AV-unprocessed.smi

> <i_m_source_file_index>
2997

> <i_lp_mmshare_version>
43012

> <i_f3d_flags>
0

> <s_epik_input>
W0NIM11jKFtjSF0xKWMoW0NIM10pW2NIXWMoYzEyKW4oW2NIXW4yKVtDSDJdW0NASF0oW09IXSlbQ0gyXW4zW2NIXVtjSF1bY0hdbjM=

> <s_epik_cmdline>
J2VwaWtfcHl0aG9uJywgJy1waCcsICc3LjAnLCAnLXRuJywgJzgnLCAnLW1hJywgJzIwMCcsICctbWV0YWxfYmluZGluZycsICctaW1hZScsICc8aW5maWxlLm1hZT4nLCAnLW9tYWUnLCAnPG91dGZpbGUubWFlPic=

> <r_lp_tautomer_probability>
1

> <r_epik_Ionization_Penalty>
1.09215

> <r_epik_Ionization_Penalty_Charging>
1.09214

> <r_epik_Ionization_Penalty_Neutral>
1.42327e-05

> <r_epik_State_Penalty>
1.14852

> <r_epik_Charging_Adjusted_Penalty>
2.24066

> <i_epik_Tot_Q>
1

> <i_epik_Tot_abs_Q>
1

> <r_epik_Metal_State_Penalty>
1.23686

> <b_epik_Metal_Only>
0

> <s_lp_Force_Field>
OPLS_2005

> <r_lp_Energy>
13.1956

> <b_lp_Chiralities_Consistent>
1

> <s_lp_Variant>
AV-unprocessed.smi:2997-3

> <Gold.Version>
5.8.1

> <Gold.Id.Protein>
6NUR|6NUR_protein|mol2

> <Gold.PLP.Fitness>
52.1705

> <Gold.PLP.PLP>
-40.2378

> <Gold.PLP.part.hbond>
-2.9726

> <Gold.PLP.part.metal>
0.0000

> <Gold.PLP.part.buried>
-4.8992

> <Gold.PLP.part.nonpolar>
-33.0309

> <Gold.PLP.part.repulsive>
0.0868

> <Gold.PLP.ligand.clash>
0.0000

> <Gold.PLP.ligand.torsion>
0.6112

> <Gold.PLP.Chemscore.Hbond>
3.3813

> <Gold.PLP.Chemscore.CHOScore>
1.0000

> <Gold.PLP.Chemscore.Metal>
0.0000

> <Gold.Chemscore.Hbonds>
donor molecule, donor type, donor heavy atom, donor atom, acceptor molecule, acceptor atom, score
      L1  H     5    39       P1  8028  2.00
      P1  H  7989  7998       L1    10  0.53
      P1  H  7997  8009       L1    10  0.62
      L1  C    13    32       P1  7948  1.00

> <Gold.PLP.Chemscore.Internal.Correction>
0.0112

> <Gold.Rescore>
     Score         DG    S(hbond)    S(metal)    S(lipo)     H(rot)  DE(clash)    DE(int)     intcor
     16.63     -18.78       1.78        0.00     111.36       2.21       0.01       2.14       ----

> <Gold.Chemscore.Fitness>
16.6274

> <Gold.Chemscore.DG>
-18.7816

> <Gold.Chemscore.ZeroCoef>
-5.4800

> <Gold.Chemscore.Hbond>
1.7778

> <Gold.Chemscore.Metal>
0.0000

> <Gold.Chemscore.Lipo>
111.3554

> <Gold.Chemscore.Internal_Hbond>
0.0000

> <Gold.Chemscore.DEClash>
0.0143

> <Gold.Chemscore.DEInternal>
2.1399

> <Gold.Chemscore.Rot>
2.2129

> <Gold.Chemscore.Internal.Correction>
   9.000000E+99

> <Gold.Chemscore.Hbonds>
donor molecule, donor type, donor heavy atom, donor atom, acceptor molecule, acceptor atom, score
      L1  H     5    39       P1  8028  0.95
      P1  H  7989  7998       L1    10  0.12
      P1  H  7997  8009       L1    10  0.06

> <Gold.Chemscore.Hbond.Weighted>
-5.9379

> <Gold.Chemscore.Metal.Weighted>
-0.0000

> <Gold.Chemscore.Lipo.Weighted>
-13.0286

> <Gold.Chemscore.Internal_Hbond.Weighted>
0.0000

> <Gold.Chemscore.DEClash.Weighted>
0.0143

> <Gold.Chemscore.DEInternal.Weighted>
2.1399

> <Gold.Chemscore.Rot.Weighted>
5.6649

> <Gold.Chemscore.Internal.Correction.Weighted>
   9.000000E+99

> <Gold.Protein.RotatedTorsions>
[ 6907 6896 6895 6894 ] final -141.87 input  -60.11 | X-H torsion
[ 7974 7965 7964 7962 ] final  124.23 input  175.53 | X-H torsion
[ 8008 7997 7996 7995 ] final -129.20 input   59.86 | X-H torsion
[ 10167 10162 10161 10158 ] final -115.37 input  -65.29 | X-H torsion
[ 10718 10713 10712 10709 ] final  -53.37 input   66.30 | X-H torsion
[ 10763 10752 10751 10750 ] final -130.36 input  -60.55 | X-H torsion
[ 11005 11000 10999 10996 ] final  -98.91 input  -57.11 | X-H torsion

> <Gold.Protein.ActiveResidues>
 VAL166  LYS551  ARG553  GLY616  TRP617  ASP618  TYR619  PRO620  LYS621  CYS622 
 ASP623  PHE694  ASN695  SER759  ASP760  ASP761  ALA762  ILE779  LEU786  VAL792 
 PHE793  MET794  SER795  GLU796  ALA797  LYS798  CYS799  TRP800  GLU811  SER814 

> <Gold.Protein.RotatedAtoms>
  151.0795  133.5401  159.2621 H   0  0  0  0  0  0  0  0  0  0  0  0  # atno 6907 bound_to 6896
  151.2310  135.0554  159.8997 H   0  0  0  0  0  0  0  0  0  0  0  0  # atno 6908 bound_to 6896
  152.5422  134.0584  159.8194 H   0  0  0  0  0  0  0  0  0  0  0  0  # atno 6909 bound_to 6896
  145.0867  139.3616  143.4881 H   0  0  0  0  0  0  0  0  0  0  0  0  # atno 7974 bound_to 7965
  155.2752  140.0441  157.3010 H   0  0  0  0  0  0  0  0  0  0  0  0  # atno 8008 bound_to 7997
  154.5629  140.2351  155.8276 H   0  0  0  0  0  0  0  0  0  0  0  0  # atno 8009 bound_to 7997
  156.2062  140.3012  155.9639 H   0  0  0  0  0  0  0  0  0  0  0  0  # atno 8010 bound_to 7997
  140.0908  143.4702  152.1871 H   0  0  0  0  0  0  0  0  0  0  0  0  # atno 10167 bound_to 10162
  156.1541  130.4150  149.9898 H   0  0  0  0  0  0  0  0  0  0  0  0  # atno 10718 bound_to 10713
  154.8755  135.3865  154.4071 H   0  0  0  0  0  0  0  0  0  0  0  0  # atno 10763 bound_to 10752
  153.4789  135.7030  153.5955 H   0  0  0  0  0  0  0  0  0  0  0  0  # atno 10764 bound_to 10752
  153.4379  135.3863  155.2178 H   0  0  0  0  0  0  0  0  0  0  0  0  # atno 10765 bound_to 10752
  141.1328  133.8281  157.0902 H   0  0  0  0  0  0  0  0  0  0  0  0  # atno 11005 bound_to 11000
  146.3531  140.0683  142.8625 LP  0  0  0  0  0  0  0  0  0  0  0  0  # atno 17320 bound_to 7965
  145.1114  140.9407  143.4654 LP  0  0  0  0  0  0  0  0  0  0  0  0  # atno 17321 bound_to 7965
  139.5726  144.7471  151.3850 LP  0  0  0  0  0  0  0  0  0  0  0  0  # atno 17342 bound_to 10162
  140.7029  143.7585  150.7434 LP  0  0  0  0  0  0  0  0  0  0  0  0  # atno 17343 bound_to 10162
  156.7747  130.9199  151.3645 LP  0  0  0  0  0  0  0  0  0  0  0  0  # atno 17370 bound_to 10713
  157.6681  130.9025  149.9977 LP  0  0  0  0  0  0  0  0  0  0  0  0  # atno 17371 bound_to 10713
  140.0397  134.9860  157.0938 LP  0  0  0  0  0  0  0  0  0  0  0  0  # atno 17394 bound_to 11000
  140.4155  134.1936  155.7163 LP  0  0  0  0  0  0  0  0  0  0  0  0  # atno 17395 bound_to 11000

$$$$
