AV-unprocessed.smi:3332|AV-procd|sdf|12829|dock3
  -GOLD-   2272019203D 1   1.00000     0.00000
 Structure written by MMmdl.
 41 42  0  0  0  0  0  0  0  0  1 V2000
  146.3727  138.8878  151.4918 C   0  0  0  0  0  0  0  0  0  0  0  0
  146.2441  139.2486  152.9757 C   0  0  0  0  0  0  0  0  0  0  0  0
  147.5341  139.7559  153.5500 C   0  0  0  0  0  0  0  0  0  0  0  0
  148.6167  138.8808  153.6824 N   0  0  0  0  0  0  0  0  0  0  0  0
  149.6935  139.4689  154.2068 C   0  0  0  0  0  0  0  0  0  0  0  0
  150.9927  138.7692  154.4236 C   0  0  0  0  0  0  0  0  0  0  0  0
  151.2880  138.5328  155.9129 C   0  0  0  0  0  0  0  0  0  0  0  0
  150.9603  139.7047  156.7161 N   0  0  0  0  0  0  0  0  0  0  0  0
  151.8161  140.3453  157.5271 C   0  0  0  0  0  0  0  0  0  0  0  0
  152.9893  140.0034  157.6758 O   0  0  0  0  0  0  0  0  0  0  0  0
  151.2647  141.5617  158.2798 C   0  0  0  0  0  0  0  0  0  0  0  0
  152.3529  142.4067  158.9782 C   0  0  2  0  0  0  0  0  0  0  0  0
  153.0998  141.6602  160.0573 C   0  0  0  0  0  0  0  0  0  0  0  0
  153.0960  142.3019  161.2234 C   0  0  0  0  0  0  0  0  0  0  0  0
  152.3473  143.6039  161.1619 C   0  0  0  0  0  0  0  0  0  0  0  0
  151.7821  143.6402  159.7244 C   0  0  0  0  0  0  0  0  0  0  0  0
  149.4511  141.1758  154.5492 S   0  0  0  0  0  0  0  0  0  0  0  0
  147.8118  141.0369  153.9674 C   0  0  0  0  0  0  0  0  0  0  0  0
  146.9020  142.2202  153.9581 C   0  0  0  0  0  0  0  0  0  0  0  0
  145.4241  138.5241  151.0963 H   0  0  0  0  0  0  0  0  0  0  0  0
  147.1186  138.1073  151.3391 H   0  0  0  0  0  0  0  0  0  0  0  0
  146.6694  139.7555  150.9019 H   0  0  0  0  0  0  0  0  0  0  0  0
  145.4562  139.9924  153.0974 H   0  0  0  0  0  0  0  0  0  0  0  0
  145.9093  138.3708  153.5296 H   0  0  0  0  0  0  0  0  0  0  0  0
  150.9641  137.8203  153.8867 H   0  0  0  0  0  0  0  0  0  0  0  0
  151.7900  139.3602  153.9708 H   0  0  0  0  0  0  0  0  0  0  0  0
  150.6964  137.6937  156.2803 H   0  0  0  0  0  0  0  0  0  0  0  0
  152.3353  138.2604  156.0564 H   0  0  0  0  0  0  0  0  0  0  0  0
  150.0148  140.0534  156.6513 H   0  0  0  0  0  0  0  0  0  0  0  0
  150.7251  142.1816  157.5629 H   0  0  0  0  0  0  0  0  0  0  0  0
  150.5289  141.2321  159.0152 H   0  0  0  0  0  0  0  0  0  0  0  0
  153.0877  142.7416  158.2443 H   0  0  0  0  0  0  0  0  0  0  0  0
  153.5902  140.7155  159.8735 H   0  0  0  0  0  0  0  0  0  0  0  0
  153.5783  141.9566  162.1260 H   0  0  0  0  0  0  0  0  0  0  0  0
  151.5546  143.6272  161.9102 H   0  0  0  0  0  0  0  0  0  0  0  0
  153.0295  144.4336  161.3490 H   0  0  0  0  0  0  0  0  0  0  0  0
  152.0529  144.5670  159.2175 H   0  0  0  0  0  0  0  0  0  0  0  0
  150.6924  143.6057  159.7592 H   0  0  0  0  0  0  0  0  0  0  0  0
  146.4548  142.3567  152.9734 H   0  0  0  0  0  0  0  0  0  0  0  0
  147.4391  143.1346  154.2112 H   0  0  0  0  0  0  0  0  0  0  0  0
  146.0964  142.0923  154.6810 H   0  0  0  0  0  0  0  0  0  0  0  0
  1  2  1  0  0  0  0
  1 20  1  0  0  0  0
  1 21  1  0  0  0  0
  1 22  1  0  0  0  0
  2  3  1  0  0  0  0
  2 23  1  0  0  0  0
  2 24  1  0  0  0  0
  3 18  2  0  0  0  0
  3  4  1  0  0  0  0
  4  5  2  0  0  0  0
  5  6  1  0  0  0  0
  5 17  1  0  0  0  0
  6  7  1  0  0  0  0
  6 25  1  0  0  0  0
  6 26  1  0  0  0  0
  7  8  1  0  0  0  0
  7 27  1  0  0  0  0
  7 28  1  0  0  0  0
  8  9  1  0  0  0  0
  8 29  1  0  0  0  0
  9 10  2  0  0  0  0
  9 11  1  0  0  0  0
 11 12  1  0  0  0  0
 11 30  1  0  0  0  0
 11 31  1  0  0  0  0
 12 16  1  0  0  0  0
 12 13  1  0  0  0  0
 12 32  1  0  0  0  0
 13 14  2  0  0  0  0
 13 33  1  0  0  0  0
 14 15  1  0  0  0  0
 14 34  1  0  0  0  0
 15 16  1  0  0  0  0
 15 35  1  0  0  0  0
 15 36  1  0  0  0  0
 16 37  1  0  0  0  0
 16 38  1  0  0  0  0
 17 18  1  0  0  0  0
 18 19  1  0  0  0  0
 19 39  1  0  0  0  0
 19 40  1  0  0  0  0
 19 41  1  0  0  0  0
M  END
> <s_m_source_file>
AV-unprocessed.smi

> <i_m_source_file_index>
3332

> <i_lp_mmshare_version>
43012

> <i_f3d_flags>
0

> <s_epik_input>
W0NIM11bQ0gyXWMxbmMoc2MxW0NIM10pW0NIMl1bQ0gyXVtOSF1DKD1PKVtDSDJdW0NAQEhdMltDSF09W0NIXVtDSDJdW0NIMl0y

> <s_epik_cmdline>
J2VwaWtfcHl0aG9uJywgJy1waCcsICc3LjAnLCAnLXRuJywgJzgnLCAnLW1hJywgJzIwMCcsICctbWV0YWxfYmluZGluZycsICctaW1hZScsICc8aW5maWxlLm1hZT4nLCAnLW9tYWUnLCAnPG91dGZpbGUubWFlPic=

> <r_epik_Ionization_Penalty>
0.00221844

> <r_epik_Ionization_Penalty_Charging>
0

> <r_epik_Ionization_Penalty_Neutral>
0.00221844

> <r_epik_State_Penalty>
0.00152607

> <r_epik_Charging_Adjusted_Penalty>
0.00152607

> <i_epik_Tot_Q>
0

> <i_epik_Tot_abs_Q>
0

> <r_epik_Metal_State_Penalty>
-0

> <b_epik_Metal_Only>
0

> <s_lp_Force_Field>
OPLS_2005

> <r_lp_Energy>
6.78745

> <b_lp_Chiralities_Consistent>
1

> <s_lp_Variant>
AV-unprocessed.smi:3332-1

> <Gold.Version>
5.8.1

> <Gold.Id.Protein>
6NUR|6NUR_protein|mol2

> <Gold.PLP.Fitness>
47.7083

> <Gold.PLP.PLP>
-45.4168

> <Gold.PLP.part.hbond>
-1.0000

> <Gold.PLP.part.metal>
0.0000

> <Gold.PLP.part.buried>
-2.0345

> <Gold.PLP.part.nonpolar>
-42.9531

> <Gold.PLP.part.repulsive>
0.2845

> <Gold.PLP.ligand.clash>
0.0000

> <Gold.PLP.ligand.torsion>
0.3846

> <Gold.PLP.Chemscore.Hbond>
1.0000

> <Gold.PLP.Chemscore.CHOScore>
0.0000

> <Gold.PLP.Chemscore.Metal>
0.0000

> <Gold.Chemscore.Hbonds>
donor molecule, donor type, donor heavy atom, donor atom, acceptor molecule, acceptor atom, score
      P1  H  7997  8009       L1    10  1.00

> <Gold.PLP.Chemscore.Internal.Correction>
0.0607

> <Gold.Rescore>
     Score         DG    S(hbond)    S(metal)    S(lipo)     H(rot)  DE(clash)    DE(int)     intcor
     17.25     -19.13       0.99        0.00     121.34       1.51       0.06       1.83       ----

> <Gold.Chemscore.Fitness>
17.2455

> <Gold.Chemscore.DG>
-19.1299

> <Gold.Chemscore.ZeroCoef>
-5.4800

> <Gold.Chemscore.Hbond>
0.9937

> <Gold.Chemscore.Metal>
0.0000

> <Gold.Chemscore.Lipo>
121.3440

> <Gold.Chemscore.Internal_Hbond>
0.0000

> <Gold.Chemscore.DEClash>
0.0553

> <Gold.Chemscore.DEInternal>
1.8291

> <Gold.Chemscore.Rot>
1.5103

> <Gold.Chemscore.Internal.Correction>
   9.000000E+99

> <Gold.Chemscore.Hbonds>
donor molecule, donor type, donor heavy atom, donor atom, acceptor molecule, acceptor atom, score
      P1  H  7997  8009       L1    10  0.98

> <Gold.Chemscore.Hbond.Weighted>
-3.3190

> <Gold.Chemscore.Metal.Weighted>
-0.0000

> <Gold.Chemscore.Lipo.Weighted>
-14.1972

> <Gold.Chemscore.Internal_Hbond.Weighted>
0.0000

> <Gold.Chemscore.DEClash.Weighted>
0.0553

> <Gold.Chemscore.DEInternal.Weighted>
1.8291

> <Gold.Chemscore.Rot.Weighted>
3.8664

> <Gold.Chemscore.Internal.Correction.Weighted>
   9.000000E+99

> <Gold.Protein.RotatedTorsions>
[ 6907 6896 6895 6894 ] final  107.24 input  -60.11 | X-H torsion
[ 7974 7965 7964 7962 ] final  -95.19 input  175.53 | X-H torsion
[ 8008 7997 7996 7995 ] final  170.70 input   59.86 | X-H torsion
[ 10167 10162 10161 10158 ] final  -51.31 input  -65.29 | X-H torsion
[ 10718 10713 10712 10709 ] final  -36.53 input   66.30 | X-H torsion
[ 10763 10752 10751 10750 ] final -135.55 input  -60.55 | X-H torsion
[ 11005 11000 10999 10996 ] final  -30.98 input  -57.11 | X-H torsion

> <Gold.Protein.ActiveResidues>
 VAL166  LYS551  ARG553  GLY616  TRP617  ASP618  TYR619  PRO620  LYS621  CYS622 
 ASP623  PHE694  ASN695  SER759  ASP760  ASP761  ALA762  ILE779  LEU786  VAL792 
 PHE793  MET794  SER795  GLU796  ALA797  LYS798  CYS799  TRP800  GLU811  SER814 

> <Gold.Protein.RotatedAtoms>
  152.5162  133.9263  159.7558 H   0  0  0  0  0  0  0  0  0  0  0  0  # atno 6907 bound_to 6896
  150.9624  133.6423  159.2759 H   0  0  0  0  0  0  0  0  0  0  0  0  # atno 6908 bound_to 6896
  151.3663  135.0919  159.9504 H   0  0  0  0  0  0  0  0  0  0  0  0  # atno 6909 bound_to 6896
  145.3634  140.9495  143.2488 H   0  0  0  0  0  0  0  0  0  0  0  0  # atno 7974 bound_to 7965
  156.1341  140.1531  156.9021 H   0  0  0  0  0  0  0  0  0  0  0  0  # atno 8008 bound_to 7997
  154.4933  140.0845  156.7681 H   0  0  0  0  0  0  0  0  0  0  0  0  # atno 8009 bound_to 7997
  155.4201  140.3422  155.4273 H   0  0  0  0  0  0  0  0  0  0  0  0  # atno 8010 bound_to 7997
  140.6594  143.2624  151.4485 H   0  0  0  0  0  0  0  0  0  0  0  0  # atno 10167 bound_to 10162
  156.3258  130.4272  149.7918 H   0  0  0  0  0  0  0  0  0  0  0  0  # atno 10718 bound_to 10713
  154.8701  135.3700  154.4916 H   0  0  0  0  0  0  0  0  0  0  0  0  # atno 10763 bound_to 10752
  153.5563  135.7024  153.5573 H   0  0  0  0  0  0  0  0  0  0  0  0  # atno 10764 bound_to 10752
  153.3669  135.4031  155.1724 H   0  0  0  0  0  0  0  0  0  0  0  0  # atno 10765 bound_to 10752
  140.9429  133.7268  156.1103 H   0  0  0  0  0  0  0  0  0  0  0  0  # atno 11005 bound_to 11000
  144.8630  139.5149  143.6803 LP  0  0  0  0  0  0  0  0  0  0  0  0  # atno 17320 bound_to 7965
  146.2917  139.7160  142.9156 LP  0  0  0  0  0  0  0  0  0  0  0  0  # atno 17321 bound_to 7965
  139.5825  144.1679  152.1986 LP  0  0  0  0  0  0  0  0  0  0  0  0  # atno 17342 bound_to 10162
  140.1008  144.5541  150.6990 LP  0  0  0  0  0  0  0  0  0  0  0  0  # atno 17343 bound_to 10162
  156.5209  130.8214  151.3203 LP  0  0  0  0  0  0  0  0  0  0  0  0  # atno 17370 bound_to 10713
  157.7421  130.9883  150.2491 LP  0  0  0  0  0  0  0  0  0  0  0  0  # atno 17371 bound_to 10713
  140.7709  134.3833  157.5508 LP  0  0  0  0  0  0  0  0  0  0  0  0  # atno 17394 bound_to 11000
  139.8825  134.9021  156.2826 LP  0  0  0  0  0  0  0  0  0  0  0  0  # atno 17395 bound_to 11000

$$$$
