AV-unprocessed.smi:3158|AV-procd|sdf|12043|dock8
  -GOLD-   2272017463D 1   1.00000     0.00000
 Structure written by MMmdl.
 40 40  0  0  0  0  0  0  0  0  2 V2000
  148.1818  145.4072  161.1584 C   0  0  0  0  0  0  0  0  0  0  0  0
  146.6569  145.5902  161.1466 C   0  0  0  0  0  0  0  0  0  0  0  0
  146.0105  145.4547  159.7522 C   0  0  2  0  0  0  0  0  0  0  0  0
  144.5390  145.0303  159.8542 C   0  0  0  0  0  0  0  0  0  0  0  0
  146.7289  144.4823  158.9294 N   0  0  0  0  0  0  0  0  0  0  0  0
  146.9947  143.2112  159.2697 C   0  0  0  0  0  0  0  0  0  0  0  0
  146.6520  142.7086  160.3408 O   0  0  0  0  0  0  0  0  0  0  0  0
  147.7669  142.3728  158.2424 C   0  0  1  0  0  0  0  0  0  0  0  0
  146.9720  142.2868  156.9309 C   0  0  0  0  0  0  0  0  0  0  0  0
  149.0993  142.9611  157.9861 N   0  3  0  0  0  0  0  0  0  0  0  0
  150.1298  141.9986  157.5380 C   0  0  0  0  0  0  0  0  0  0  0  0
  151.5229  142.6477  157.5112 C   0  0  0  0  0  0  0  0  0  0  0  0
  152.0476  142.8749  158.8472 N   0  0  0  0  0  0  0  0  0  0  0  0
  151.6540  143.8164  159.7751 C   0  0  0  0  0  0  0  0  0  0  0  0
  152.4345  143.6464  160.8827 C   0  0  0  0  0  0  0  0  0  0  0  0
  153.2955  142.5702  160.5286 C   0  0  0  0  0  0  0  0  0  0  0  0
  153.0670  142.1167  159.3070 N   0  0  0  0  0  0  0  0  0  0  0  0
  148.5868  145.6045  162.1511 H   0  0  0  0  0  0  0  0  0  0  0  0
  148.6668  146.0899  160.4599 H   0  0  0  0  0  0  0  0  0  0  0  0
  148.4660  144.3909  160.8871 H   0  0  0  0  0  0  0  0  0  0  0  0
  146.2043  144.8763  161.8360 H   0  0  0  0  0  0  0  0  0  0  0  0
  146.4285  146.5792  161.5460 H   0  0  0  0  0  0  0  0  0  0  0  0
  146.0292  146.4337  159.2700 H   0  0  0  0  0  0  0  0  0  0  0  0
  143.9607  145.7547  160.4285 H   0  0  0  0  0  0  0  0  0  0  0  0
  144.4367  144.0610  160.3434 H   0  0  0  0  0  0  0  0  0  0  0  0
  144.0818  144.9557  158.8669 H   0  0  0  0  0  0  0  0  0  0  0  0
  147.0506  144.8071  158.0289 H   0  0  0  0  0  0  0  0  0  0  0  0
  147.9035  141.3596  158.6250 H   0  0  0  0  0  0  0  0  0  0  0  0
  145.9865  141.8481  157.0928 H   0  0  0  0  0  0  0  0  0  0  0  0
  147.4891  141.6636  156.2007 H   0  0  0  0  0  0  0  0  0  0  0  0
  146.8280  143.2709  156.4822 H   0  0  0  0  0  0  0  0  0  0  0  0
  149.0127  143.6785  157.2810 H   0  0  0  0  0  0  0  0  0  0  0  0
  150.1473  141.1245  158.1901 H   0  0  0  0  0  0  0  0  0  0  0  0
  149.8612  141.6370  156.5452 H   0  0  0  0  0  0  0  0  0  0  0  0
  152.2242  142.0070  156.9751 H   0  0  0  0  0  0  0  0  0  0  0  0
  151.4916  143.5979  156.9765 H   0  0  0  0  0  0  0  0  0  0  0  0
  150.8574  144.5186  159.5760 H   0  0  0  0  0  0  0  0  0  0  0  0
  152.3984  144.2073  161.8049 H   0  0  0  0  0  0  0  0  0  0  0  0
  154.0759  142.1100  161.1169 H   0  0  0  0  0  0  0  0  0  0  0  0
  149.4094  143.3891  158.8474 H   0  0  0  0  0  0  0  0  0  0  0  0
  1  2  1  0  0  0  0
  1 18  1  0  0  0  0
  1 19  1  0  0  0  0
  1 20  1  0  0  0  0
  2  3  1  0  0  0  0
  2 21  1  0  0  0  0
  2 22  1  0  0  0  0
  3  4  1  0  0  0  0
  3  5  1  0  0  0  0
  3 23  1  0  0  0  0
  4 24  1  0  0  0  0
  4 25  1  0  0  0  0
  4 26  1  0  0  0  0
  5  6  1  0  0  0  0
  5 27  1  0  0  0  0
  6  7  2  0  0  0  0
  6  8  1  0  0  0  0
  8  9  1  0  0  0  0
  8 10  1  0  0  0  0
  8 28  1  0  0  0  0
  9 29  1  0  0  0  0
  9 30  1  0  0  0  0
  9 31  1  0  0  0  0
 10 11  1  0  0  0  0
 10 32  1  0  0  0  0
 10 40  1  0  0  0  0
 11 12  1  0  0  0  0
 11 33  1  0  0  0  0
 11 34  1  0  0  0  0
 12 13  1  0  0  0  0
 12 35  1  0  0  0  0
 12 36  1  0  0  0  0
 13 17  1  0  0  0  0
 13 14  1  0  0  0  0
 14 15  2  0  0  0  0
 14 37  1  0  0  0  0
 15 16  1  0  0  0  0
 15 38  1  0  0  0  0
 16 17  2  0  0  0  0
 16 39  1  0  0  0  0
M  CHG  1  10   1
M  END
> <s_m_source_file>
AV-unprocessed.smi

> <i_m_source_file_index>
3158

> <i_lp_mmshare_version>
43012

> <i_f3d_flags>
0

> <s_epik_input>
W0NIM11bQ0gyXVtDQEhdKFtDSDNdKVtOSF1DKD1PKVtDQEhdKFtDSDNdKVtOSF1bQ0gyXVtDSDJdbjFbY0hdW2NIXVtjSF1uMQ==

> <s_epik_cmdline>
J2VwaWtfcHl0aG9uJywgJy1waCcsICc3LjAnLCAnLXRuJywgJzgnLCAnLW1hJywgJzIwMCcsICctbWV0YWxfYmluZGluZycsICctaW1hZScsICc8aW5maWxlLm1hZT4nLCAnLW9tYWUnLCAnPG91dGZpbGUubWFlPic=

> <r_lp_tautomer_probability>
1

> <r_epik_Ionization_Penalty>
0.20724

> <r_epik_Ionization_Penalty_Charging>
0.207237

> <r_epik_Ionization_Penalty_Neutral>
3.33806e-06

> <r_epik_State_Penalty>
0.197234

> <r_epik_Charging_Adjusted_Penalty>
0.404471

> <i_epik_Tot_Q>
1

> <i_epik_Tot_abs_Q>
1

> <r_epik_Metal_State_Penalty>
0.197524

> <b_epik_Metal_Only>
0

> <s_lp_Force_Field>
OPLS_2005

> <r_lp_Energy>
5.46656

> <b_lp_Chiralities_Consistent>
1

> <s_lp_Variant>
AV-unprocessed.smi:3158-3

> <Gold.Version>
5.8.1

> <Gold.Id.Protein>
6NUR|6NUR_protein|mol2

> <Gold.PLP.Fitness>
45.4483

> <Gold.PLP.PLP>
-33.0612

> <Gold.PLP.part.hbond>
-4.0846

> <Gold.PLP.part.metal>
0.0000

> <Gold.PLP.part.buried>
-4.3168

> <Gold.PLP.part.nonpolar>
-25.2188

> <Gold.PLP.part.repulsive>
0.1272

> <Gold.PLP.ligand.clash>
0.0000

> <Gold.PLP.ligand.torsion>
0.8273

> <Gold.PLP.Chemscore.Hbond>
4.6497

> <Gold.PLP.Chemscore.CHOScore>
0.0000

> <Gold.PLP.Chemscore.Metal>
0.0000

> <Gold.Chemscore.Hbonds>
donor molecule, donor type, donor heavy atom, donor atom, acceptor molecule, acceptor atom, score
      L1  H     5    27       P1  8029  0.91
      L1  H    10    32       P1  8028  2.00
      P1  H  6933  6944       L1     7  0.53
      P1  H  6934  6946       L1     7  1.00

> <Gold.PLP.Chemscore.Internal.Correction>
0.0925

> <Gold.Rescore>
     Score         DG    S(hbond)    S(metal)    S(lipo)     H(rot)  DE(clash)    DE(int)     intcor
     15.25     -16.97       2.50        0.00      75.28       2.21       0.07       1.65       ----

> <Gold.Chemscore.Fitness>
15.2476

> <Gold.Chemscore.DG>
-16.9737

> <Gold.Chemscore.ZeroCoef>
-5.4800

> <Gold.Chemscore.Hbond>
2.5007

> <Gold.Chemscore.Metal>
0.0000

> <Gold.Chemscore.Lipo>
75.2764

> <Gold.Chemscore.Internal_Hbond>
0.0000

> <Gold.Chemscore.DEClash>
0.0743

> <Gold.Chemscore.DEInternal>
1.6519

> <Gold.Chemscore.Rot>
2.2132

> <Gold.Chemscore.Internal.Correction>
   9.000000E+99

> <Gold.Chemscore.Hbonds>
donor molecule, donor type, donor heavy atom, donor atom, acceptor molecule, acceptor atom, score
      L1  H     5    27       P1  8029  0.68
      L1  H    10    32       P1  8028  0.30
      P1  H  6933  6944       L1     7  0.29
      P1  H  6934  6946       L1     7  0.95

> <Gold.Chemscore.Hbond.Weighted>
-8.3522

> <Gold.Chemscore.Metal.Weighted>
-0.0000

> <Gold.Chemscore.Lipo.Weighted>
-8.8073

> <Gold.Chemscore.Internal_Hbond.Weighted>
0.0000

> <Gold.Chemscore.DEClash.Weighted>
0.0743

> <Gold.Chemscore.DEInternal.Weighted>
1.6519

> <Gold.Chemscore.Rot.Weighted>
5.6658

> <Gold.Chemscore.Internal.Correction.Weighted>
   9.000000E+99

> <Gold.Protein.RotatedTorsions>
[ 6907 6896 6895 6894 ] final  155.92 input  -60.11 | X-H torsion
[ 7974 7965 7964 7962 ] final   58.44 input  175.53 | X-H torsion
[ 8008 7997 7996 7995 ] final -144.85 input   59.86 | X-H torsion
[ 10167 10162 10161 10158 ] final  -18.55 input  -65.29 | X-H torsion
[ 10718 10713 10712 10709 ] final  119.42 input   66.30 | X-H torsion
[ 10763 10752 10751 10750 ] final  152.27 input  -60.55 | X-H torsion
[ 11005 11000 10999 10996 ] final  -78.34 input  -57.11 | X-H torsion

> <Gold.Protein.ActiveResidues>
 VAL166  LYS551  ARG553  GLY616  TRP617  ASP618  TYR619  PRO620  LYS621  CYS622 
 ASP623  PHE694  ASN695  SER759  ASP760  ASP761  ALA762  ILE779  LEU786  VAL792 
 PHE793  MET794  SER795  GLU796  ALA797  LYS798  CYS799  TRP800  GLU811  SER814 

> <Gold.Protein.RotatedAtoms>
  152.0372  133.3962  159.4321 H   0  0  0  0  0  0  0  0  0  0  0  0  # atno 6907 bound_to 6896
  150.6878  134.3455  159.4895 H   0  0  0  0  0  0  0  0  0  0  0  0  # atno 6908 bound_to 6896
  152.1248  134.9178  160.0612 H   0  0  0  0  0  0  0  0  0  0  0  0  # atno 6909 bound_to 6896
  145.9181  139.3707  143.0495 H   0  0  0  0  0  0  0  0  0  0  0  0  # atno 7974 bound_to 7965
  155.5337  140.0602  157.2884 H   0  0  0  0  0  0  0  0  0  0  0  0  # atno 8008 bound_to 7997
  154.4476  140.1931  156.0564 H   0  0  0  0  0  0  0  0  0  0  0  0  # atno 8009 bound_to 7997
  156.0634  140.3269  155.7493 H   0  0  0  0  0  0  0  0  0  0  0  0  # atno 8010 bound_to 7997
  140.7260  143.4905  150.9998 H   0  0  0  0  0  0  0  0  0  0  0  0  # atno 10167 bound_to 10162
  157.5962  131.1057  150.7894 H   0  0  0  0  0  0  0  0  0  0  0  0  # atno 10718 bound_to 10713
  154.1174  135.2835  155.3216 H   0  0  0  0  0  0  0  0  0  0  0  0  # atno 10763 bound_to 10752
  154.6447  135.5390  153.7834 H   0  0  0  0  0  0  0  0  0  0  0  0  # atno 10764 bound_to 10752
  153.0324  135.6495  154.1329 H   0  0  0  0  0  0  0  0  0  0  0  0  # atno 10765 bound_to 10752
  141.1664  133.7059  156.7957 H   0  0  0  0  0  0  0  0  0  0  0  0  # atno 11005 bound_to 11000
  145.8585  140.9488  143.0712 LP  0  0  0  0  0  0  0  0  0  0  0  0  # atno 17320 bound_to 7965
  144.6750  140.0500  143.7479 LP  0  0  0  0  0  0  0  0  0  0  0  0  # atno 17321 bound_to 7965
  139.8609  143.7315  152.3173 LP  0  0  0  0  0  0  0  0  0  0  0  0  # atno 17342 bound_to 10162
  139.7530  144.7528  151.0477 LP  0  0  0  0  0  0  0  0  0  0  0  0  # atno 17343 bound_to 10162
  156.8304  130.5014  149.5332 LP  0  0  0  0  0  0  0  0  0  0  0  0  # atno 17370 bound_to 10713
  156.1026  130.5980  150.9918 LP  0  0  0  0  0  0  0  0  0  0  0  0  # atno 17371 bound_to 10713
  140.2293  134.8698  157.3460 LP  0  0  0  0  0  0  0  0  0  0  0  0  # atno 17394 bound_to 11000
  140.1907  134.4375  155.7717 LP  0  0  0  0  0  0  0  0  0  0  0  0  # atno 17395 bound_to 11000

$$$$
