#       Name:                AV-unprocessed.smi:899
#       Creating user name   scv26
#       Creation time:       Fri Mar 27 01:57:41 2020


#       File generated by GOLD software.
#

@<TRIPOS>MOLECULE
AV-unprocessed.smi:899
    40    41     1
SMALL
NO_CHARGES


@<TRIPOS>ATOM
      1 ****        -6.2399  -2.2215   2.2250 N.1            1 S1                 0.0000
      2 ****        -5.8128  -1.9791   1.1772 C.1            1 S1                 0.0000
      3 ****        -5.2703  -1.6715  -0.1549 C.3            1 S1                 0.0000
      4 ****        -3.7631  -1.5219  -0.1352 C.ar           1 S1                 0.0000
      5 ****        -2.9419  -2.6618  -0.0358 C.ar           1 S1                 0.0000
      6 ****        -1.5409  -2.5235  -0.0198 C.ar           1 S1                 0.0000
      7 ****        -0.9393  -1.2510  -0.1040 C.ar           1 S1                 0.0000
      8 ****         0.4384  -1.2084  -0.0864 O.3            1 S1                 0.0000
      9 ****         1.0737   0.0587  -0.1867 C.3            1 S1                 0.0000
     10 ****         2.5945  -0.1537  -0.1823 C.3            1 S1                 0.0000
     11 ****         3.3145   1.1253  -0.2365 N.am           1 S1                 0.0000
     12 ****         3.7427   1.6833   0.9800 C.2            1 S1                 0.0000
     13 ****         4.4053   2.8550   1.0352 C.2            1 S1                 0.0000
     14 ****         4.9194   3.5175   2.5458 Cl             1 S1                 0.0000
     15 ****         4.6736   3.5510  -0.2217 C.2            1 S1                 0.0000
     16 ****         5.2797   4.6215  -0.2077 O.2            1 S1                 0.0000
     17 ****         4.2295   2.9708  -1.3751 N.pl3          1 S1                -1.0000
     18 ****         3.5551   1.7802  -1.4110 C.2            1 S1                 0.0000
     19 ****         3.1563   1.2809  -2.4635 O.2            1 S1                 0.0000
     20 ****        -1.7721  -0.1074  -0.2016 C.ar           1 S1                 0.0000
     21 ****        -3.1739  -0.2448  -0.2167 C.ar           1 S1                 0.0000
     22 ****        -5.5526  -2.4740  -0.8369 H              1 S1                 0.0000
     23 ****        -5.7391  -0.7548  -0.5142 H              1 S1                 0.0000
     24 ****        -3.3847  -3.6450   0.0288 H              1 S1                 0.0000
     25 ****        -0.9200  -3.4041   0.0564 H              1 S1                 0.0000
     26 ****         0.7712   0.5600  -1.1076 H              1 S1                 0.0000
     27 ****         0.7861   0.6896   0.6560 H              1 S1                 0.0000
     28 ****         2.8817  -0.7077   0.7124 H              1 S1                 0.0000
     29 ****         2.8857  -0.7922  -1.0181 H              1 S1                 0.0000
     30 ****         3.4975   1.1059   1.8595 H              1 S1                 0.0000
     31 ****        -1.3596   0.8880  -0.2670 H              1 S1                 0.0000
     32 ****        -3.7958   0.6352  -0.2923 H              1 S1                 0.0000
     33 ****        -6.6090  -2.4310   3.1304 LP             1 S1                 0.0000
     34 ****         0.7618  -1.7634  -0.8529 LP             1 S1                 0.0000
     35 ****         0.7366  -1.6220   0.7738 LP             1 S1                 0.0000
     36 ****         5.5862   5.0112   0.6607 LP             1 S1                 0.0000
     37 ****         5.4660   5.1019  -1.0648 LP             1 S1                 0.0000
     38 ****         4.4064   3.4408  -2.2399 LP             1 S1                 0.0000
     39 ****         2.6652   0.4099  -2.4492 LP             1 S1                 0.0000
     40 ****         3.3235   1.7464  -3.3327 LP             1 S1                 0.0000
@<TRIPOS>BOND
    1    1    2 3     
    2    2    3 1     
    3    3    4 1     
    4    3   22 1     
    5    3   23 1     
    6    4   21 ar    
    7    4    5 ar    
    8    5    6 ar    
    9    5   24 1     
   10    6    7 ar    
   11    6   25 1     
   12    7    8 1     
   13    7   20 ar    
   14    8    9 1     
   15    9   10 1     
   16    9   26 1     
   17    9   27 1     
   18   10   11 1     
   19   10   28 1     
   20   10   29 1     
   21   11   18 am    
   22   11   12 1     
   23   12   13 2     
   24   12   30 1     
   25   13   14 1     
   26   13   15 1     
   27   15   16 2     
   28   15   17 1     
   29   17   18 1     
   30   18   19 2     
   31   20   21 ar    
   32   20   31 1     
   33   21   32 1     
   34    1   33 1     
   35    8   34 1     
   36    8   35 1     
   37   16   36 1     
   38   16   37 1     
   39   17   38 1     
   40   19   39 1     
   41   19   40 1     
@<TRIPOS>SUBSTRUCTURE
      1 S1             1
@<TRIPOS>SET
LONE_PAIRS      STATIC     ATOMS    <user>   **** ""
8 33 34 35 36 37 38 39 40
ATOM$BLUE        STATIC     ATOMS    COLORGROUP SYSTEM
8 33 34 35 36 37 38 39 40
