#       Name:                AV-unprocessed.smi:1504
#       Creating user name   scv26
#       Creation time:       Fri Mar 27 06:19:09 2020


#       File generated by GOLD software.
#

@<TRIPOS>MOLECULE
AV-unprocessed.smi:1504
    42    43     1
SMALL
NO_CHARGES


@<TRIPOS>ATOM
      1 ****         0.6928   1.3594   0.3769 O.2            1 S1                 0.0000
      2 ****         0.5346   0.2250  -0.0743 C.2            1 S1                 0.0000
      3 ****         1.5338  -0.6390  -0.2990 N.am           1 S1                 0.0000
      4 ****         2.9478  -0.3638  -0.0609 C.3            1 S1                 0.0000
      5 ****         3.3234  -0.3731   1.4346 C.3            1 S1                 0.0000
      6 ****         2.8888  -1.6326   2.1646 C.ar           1 S1                 0.0000
      7 ****         1.7663  -1.6199   3.0202 C.ar           1 S1                 0.0000
      8 ****         1.4044  -2.8152   3.6706 C.ar           1 S1                 0.0000
      9 ****         2.1753  -3.9713   3.4425 C.ar           1 S1                 0.0000
     10 ****         3.2785  -3.8798   2.5705 C.ar           1 S1                 0.0000
     11 ****         3.6335  -2.7389   1.9409 N.ar           1 S1                 0.0000
     12 ****        -0.6560  -0.2938  -0.4060 N.am           1 S1                 0.0000
     13 ****        -1.9407   0.3877  -0.2775 C.3            1 S1                 0.0000
     14 ****        -2.3832   1.0614  -1.5923 C.3            1 S1                 0.0000
     15 ****        -1.4525   2.2001  -2.0626 C.3            1 S1                 0.0000
     16 ****        -2.1466   2.9693  -3.1901 C.3            1 S1                 0.0000
     17 ****        -3.9288   2.9431  -2.7756 S.o2           1 S1                 0.0000
     18 ****        -4.2997   4.2101  -2.1274 O.2            1 S1                 0.0000
     19 ****        -4.6827   2.4346  -3.9315 O.2            1 S1                 0.0000
     20 ****        -3.8067   1.6348  -1.4963 C.3            1 S1                 0.0000
     21 ****         1.3038  -1.5503  -0.6677 H              1 S1                 0.0000
     22 ****         3.5213  -1.1302  -0.5829 H              1 S1                 0.0000
     23 ****         3.2248   0.5887  -0.5152 H              1 S1                 0.0000
     24 ****         4.4029  -0.2588   1.5402 H              1 S1                 0.0000
     25 ****         2.8837   0.4933   1.9304 H              1 S1                 0.0000
     26 ****         1.1932  -0.7170   3.1729 H              1 S1                 0.0000
     27 ****         0.5515  -2.8444   4.3324 H              1 S1                 0.0000
     28 ****         1.9283  -4.9053   3.9251 H              1 S1                 0.0000
     29 ****         3.8919  -4.7466   2.3735 H              1 S1                 0.0000
     30 ****        -0.6777  -1.2358  -0.7686 H              1 S1                 0.0000
     31 ****        -2.6781  -0.3621   0.0104 H              1 S1                 0.0000
     32 ****        -1.9147   1.1141   0.5367 H              1 S1                 0.0000
     33 ****        -2.3933   0.3061  -2.3799 H              1 S1                 0.0000
     34 ****        -1.2719   2.8817  -1.2302 H              1 S1                 0.0000
     35 ****        -0.4806   1.8275  -2.3865 H              1 S1                 0.0000
     36 ****        -1.7948   3.9963  -3.2893 H              1 S1                 0.0000
     37 ****        -2.0145   2.4591  -4.1445 H              1 S1                 0.0000
     38 ****        -4.5785   0.8817  -1.6560 H              1 S1                 0.0000
     39 ****        -3.9777   2.1043  -0.5271 H              1 S1                 0.0000
     40 ****         1.6116   1.6854   0.5993 LP             1 S1                 0.0000
     41 ****        -0.0976   1.9549   0.5210 LP             1 S1                 0.0000
     42 ****         4.4231  -2.7131   1.3279 LP             1 S1                 0.0000
@<TRIPOS>BOND
    1    1    2 2     
    2    2    3 am    
    3    2   12 am    
    4    3    4 1     
    5    3   21 1     
    6    4    5 1     
    7    4   22 1     
    8    4   23 1     
    9    5    6 1     
   10    5   24 1     
   11    5   25 1     
   12    6   11 ar    
   13    6    7 ar    
   14    7    8 ar    
   15    7   26 1     
   16    8    9 ar    
   17    8   27 1     
   18    9   10 ar    
   19    9   28 1     
   20   10   11 ar    
   21   10   29 1     
   22   12   13 1     
   23   12   30 1     
   24   13   14 1     
   25   13   31 1     
   26   13   32 1     
   27   14   20 1     
   28   14   15 1     
   29   14   33 1     
   30   15   16 1     
   31   15   34 1     
   32   15   35 1     
   33   16   17 1     
   34   16   36 1     
   35   16   37 1     
   36   17   18 2     
   37   17   19 2     
   38   17   20 1     
   39   20   38 1     
   40   20   39 1     
   41    1   40 1     
   42    1   41 1     
   43   11   42 1     
@<TRIPOS>SUBSTRUCTURE
      1 S1             1
@<TRIPOS>SET
LONE_PAIRS      STATIC     ATOMS    <user>   **** ""
5 40 41 42 18 19
DONOR_HYDROGENS      STATIC     ATOMS    <user>   **** ""
2 21 30
ATOM$BLUE        STATIC     ATOMS    COLORGROUP SYSTEM
5 40 41 42 18 19
ATOM$RED        STATIC     ATOMS    COLORGROUP SYSTEM
2 21 30
