#       Name:                AV-unprocessed.smi:1096
#       Creating user name   scv26
#       Creation time:       Fri Mar 27 03:28:40 2020


#       File generated by GOLD software.
#

@<TRIPOS>MOLECULE
AV-unprocessed.smi:1096
    53    55     1
SMALL
NO_CHARGES


@<TRIPOS>ATOM
      1 ****        -2.2360   2.8217  -0.9764 O.2            1 S1                 0.0000
      2 ****        -2.6914   1.6781  -1.0125 C.2            1 S1                 0.0000
      3 ****        -3.9970   1.3615  -1.0724 N.am           1 S1                 0.0000
      4 ****        -5.1141   2.2386  -1.0791 C.ar           1 S1                 0.0000
      5 ****        -6.3731   1.6033  -1.1759 C.ar           1 S1                 0.0000
      6 ****        -7.5445   2.3849  -1.1869 C.ar           1 S1                 0.0000
      7 ****        -7.4270   3.7836  -1.0998 C.ar           1 S1                 0.0000
      8 ****        -6.1364   4.3360  -1.0060 C.ar           1 S1                 0.0000
      9 ****        -5.0123   3.5889  -0.9958 N.ar           1 S1                 0.0000
     10 ****        -1.9263   0.5766  -0.9991 N.am           1 S1                 0.0000
     11 ****        -0.4672   0.5625  -0.9528 C.3            1 S1                 0.0000
     12 ****         0.0508  -0.7767  -1.5092 C.3            1 S1                 0.0000
     13 ****         1.5826  -0.8681  -1.4201 C.3            1 S1                 0.0000
     14 ****         2.0715  -0.6710   0.0326 C.3            1 S1                 0.0000
     15 ****         3.6084  -0.7713   0.1437 C.2            1 S1                 0.0000
     16 ****         4.2892  -0.3721  -0.8026 O.2            1 S1                 0.0000
     17 ****         4.1730  -1.3229   1.2478 N.am           1 S1                 0.0000
     18 ****         5.6003  -1.6600   1.3126 C.3            1 S1                 0.0000
     19 ****         5.7643  -3.1728   1.0849 C.3            1 S1                 0.0000
     20 ****         4.9218  -4.1307   2.3852 S.3            1 S1                 0.0000
     21 ****         3.2961  -3.3109   2.3724 C.3            1 S1                 0.0000
     22 ****         3.4550  -1.7837   2.4425 C.3            1 S1                 0.0000
     23 ****         1.5704   0.6858   0.5689 C.3            1 S1                 0.0000
     24 ****         0.0387   0.7876   0.4872 C.3            1 S1                 0.0000
     25 ****        -4.2180   0.3776  -1.1129 H              1 S1                 0.0000
     26 ****        -6.4454   0.5273  -1.2416 H              1 S1                 0.0000
     27 ****        -8.5158   1.9183  -1.2607 H              1 S1                 0.0000
     28 ****        -8.3023   4.4162  -1.1048 H              1 S1                 0.0000
     29 ****        -6.0023   5.4053  -0.9363 H              1 S1                 0.0000
     30 ****        -2.3864  -0.3214  -1.0309 H              1 S1                 0.0000
     31 ****        -0.0863   1.3635  -1.5894 H              1 S1                 0.0000
     32 ****        -0.3927  -1.6055  -0.9552 H              1 S1                 0.0000
     33 ****        -0.2628  -0.8960  -2.5470 H              1 S1                 0.0000
     34 ****         1.9122  -1.8363  -1.7994 H              1 S1                 0.0000
     35 ****         2.0188  -0.1131  -2.0763 H              1 S1                 0.0000
     36 ****         1.6143  -1.4751   0.6079 H              1 S1                 0.0000
     37 ****         6.1905  -1.1109   0.5777 H              1 S1                 0.0000
     38 ****         6.0126  -1.3772   2.2821 H              1 S1                 0.0000
     39 ****         5.3555  -3.4567   0.1143 H              1 S1                 0.0000
     40 ****         6.8201  -3.4445   1.0784 H              1 S1                 0.0000
     41 ****         2.7577  -3.5982   1.4686 H              1 S1                 0.0000
     42 ****         2.7145  -3.6729   3.2204 H              1 S1                 0.0000
     43 ****         4.0142  -1.5123   3.3390 H              1 S1                 0.0000
     44 ****         2.4881  -1.2994   2.5693 H              1 S1                 0.0000
     45 ****         1.8864   0.8278   1.6030 H              1 S1                 0.0000
     46 ****         2.0181   1.5008  -0.0021 H              1 S1                 0.0000
     47 ****        -0.2796   1.7650   0.8514 H              1 S1                 0.0000
     48 ****        -0.4075   0.0499   1.1557 H              1 S1                 0.0000
     49 ****        -2.8549   3.6070  -0.9910 LP             1 S1                 0.0000
     50 ****        -1.2473   2.9650  -0.9325 LP             1 S1                 0.0000
     51 ****        -4.1152   4.0254  -0.9277 LP             1 S1                 0.0000
     52 ****         3.8441   0.0046  -1.6150 LP             1 S1                 0.0000
     53 ****         5.2868  -0.4249  -0.7582 LP             1 S1                 0.0000
@<TRIPOS>BOND
    1    1    2 2     
    2    2    3 am    
    3    2   10 am    
    4    3    4 1     
    5    3   25 1     
    6    4    9 ar    
    7    4    5 ar    
    8    5    6 ar    
    9    5   26 1     
   10    6    7 ar    
   11    6   27 1     
   12    7    8 ar    
   13    7   28 1     
   14    8    9 ar    
   15    8   29 1     
   16   10   11 1     
   17   10   30 1     
   18   11   24 1     
   19   11   12 1     
   20   11   31 1     
   21   12   13 1     
   22   12   32 1     
   23   12   33 1     
   24   13   14 1     
   25   13   34 1     
   26   13   35 1     
   27   14   15 1     
   28   14   23 1     
   29   14   36 1     
   30   15   16 2     
   31   15   17 am    
   32   17   22 1     
   33   17   18 1     
   34   18   19 1     
   35   18   37 1     
   36   18   38 1     
   37   19   20 1     
   38   19   39 1     
   39   19   40 1     
   40   20   21 1     
   41   21   22 1     
   42   21   41 1     
   43   21   42 1     
   44   22   43 1     
   45   22   44 1     
   46   23   24 1     
   47   23   45 1     
   48   23   46 1     
   49   24   47 1     
   50   24   48 1     
   51    1   49 1     
   52    1   50 1     
   53    9   51 1     
   54   16   52 1     
   55   16   53 1     
@<TRIPOS>SUBSTRUCTURE
      1 S1             1
@<TRIPOS>SET
LONE_PAIRS      STATIC     ATOMS    <user>   **** ""
5 49 50 51 52 53
DONOR_HYDROGENS      STATIC     ATOMS    <user>   **** ""
2 25 30
ATOM$BLUE        STATIC     ATOMS    COLORGROUP SYSTEM
5 49 50 51 52 53
ATOM$RED        STATIC     ATOMS    COLORGROUP SYSTEM
2 25 30
