#       Name:                AV-unprocessed.smi:1833
#       Creating user name   scv26
#       Creation time:       Fri Mar 27 09:16:20 2020


#       File generated by GOLD software.
#

@<TRIPOS>MOLECULE
AV-unprocessed.smi:1833
    45    46     1
SMALL
NO_CHARGES


@<TRIPOS>ATOM
      1 ****        -3.7944  -1.0459   3.5392 C.3            1 S1                 0.0000
      2 ****        -3.9000  -2.0022   2.3424 C.3            1 S1                 0.0000
      3 ****        -3.3375  -1.4234   1.0958 N.4            1 S1                 1.0000
      4 ****        -3.8658  -2.0977  -0.1192 C.3            1 S1                 0.0000
      5 ****        -3.3777  -1.4042  -1.4018 C.3            1 S1                 0.0000
      6 ****        -1.8463  -1.3309  -1.4410 C.3            1 S1                 0.0000
      7 ****        -1.3211  -0.6545  -0.1656 C.3            1 S1                 0.0000
      8 ****         0.1398  -0.6559  -0.1669 N.am           1 S1                 0.0000
      9 ****         0.9231   0.4307  -0.1048 C.2            1 S1                 0.0000
     10 ****         0.5027   1.5842  -0.0147 O.2            1 S1                 0.0000
     11 ****         2.2228   0.1091  -0.1634 N.am           1 S1                 0.0000
     12 ****         3.3215   1.0680  -0.1627 C.3            1 S1                 0.0000
     13 ****         3.5396   1.6744  -1.5583 C.3            1 S1                 0.0000
     14 ****         4.6898   2.6237  -1.5964 C.2            1 S1                 0.0000
     15 ****         5.9500   2.2451  -1.8281 N.2            1 S1                 0.0000
     16 ****         6.8459   3.3161  -1.7862 C.2            1 S1                 0.0000
     17 ****         6.2487   4.5181  -1.5035 C.2            1 S1                 0.0000
     18 ****         4.5296   4.3471  -1.2755 S.3            1 S1                 0.0000
     19 ****        -1.8503  -1.3752   1.0893 C.3            1 S1                 0.0000
     20 ****        -4.3005  -1.4656   4.4089 H              1 S1                 0.0000
     21 ****        -4.2607  -0.0851   3.3195 H              1 S1                 0.0000
     22 ****        -2.7602  -0.8619   3.8284 H              1 S1                 0.0000
     23 ****        -3.4162  -2.9542   2.5661 H              1 S1                 0.0000
     24 ****        -4.9573  -2.2232   2.1897 H              1 S1                 0.0000
     25 ****        -3.5595  -3.1451  -0.1179 H              1 S1                 0.0000
     26 ****        -4.9563  -2.0863  -0.1025 H              1 S1                 0.0000
     27 ****        -3.7472  -1.9380  -2.2780 H              1 S1                 0.0000
     28 ****        -3.7942  -0.3974  -1.4554 H              1 S1                 0.0000
     29 ****        -1.4343  -2.3374  -1.5297 H              1 S1                 0.0000
     30 ****        -1.5217  -0.7797  -2.3246 H              1 S1                 0.0000
     31 ****        -1.6963   0.3707  -0.1496 H              1 S1                 0.0000
     32 ****         0.5917  -1.5558  -0.2413 H              1 S1                 0.0000
     33 ****         2.4725  -0.8666  -0.2342 H              1 S1                 0.0000
     34 ****         3.1364   1.8533   0.5722 H              1 S1                 0.0000
     35 ****         4.2232   0.5469   0.1601 H              1 S1                 0.0000
     36 ****         3.7151   0.8836  -2.2889 H              1 S1                 0.0000
     37 ****         2.6451   2.2062  -1.8845 H              1 S1                 0.0000
     38 ****         7.8944   3.1318  -1.9679 H              1 S1                 0.0000
     39 ****         6.7137   5.4885  -1.4126 H              1 S1                 0.0000
     40 ****        -1.4886  -0.8518   1.9740 H              1 S1                 0.0000
     41 ****        -1.4550  -2.3914   1.1400 H              1 S1                 0.0000
     42 ****        -3.6637  -0.4683   1.0516 H              1 S1                 0.0000
     43 ****        -0.4819   1.7565   0.0165 LP             1 S1                 0.0000
     44 ****         1.1457   2.3489   0.0272 LP             1 S1                 0.0000
     45 ****         6.2216   1.3003  -2.0112 LP             1 S1                 0.0000
@<TRIPOS>BOND
    1    1    2 1     
    2    1   20 1     
    3    1   21 1     
    4    1   22 1     
    5    2    3 1     
    6    2   23 1     
    7    2   24 1     
    8    3   19 1     
    9    3    4 1     
   10    3   42 1     
   11    4    5 1     
   12    4   25 1     
   13    4   26 1     
   14    5    6 1     
   15    5   27 1     
   16    5   28 1     
   17    6    7 1     
   18    6   29 1     
   19    6   30 1     
   20    7    8 1     
   21    7   19 1     
   22    7   31 1     
   23    8    9 am    
   24    8   32 1     
   25    9   10 2     
   26    9   11 am    
   27   11   12 1     
   28   11   33 1     
   29   12   13 1     
   30   12   34 1     
   31   12   35 1     
   32   13   14 1     
   33   13   36 1     
   34   13   37 1     
   35   14   18 1     
   36   14   15 2     
   37   15   16 1     
   38   16   17 2     
   39   16   38 1     
   40   17   18 1     
   41   17   39 1     
   42   19   40 1     
   43   19   41 1     
   44   10   43 1     
   45   10   44 1     
   46   15   45 1     
@<TRIPOS>SUBSTRUCTURE
      1 S1             1
@<TRIPOS>SET
LONE_PAIRS      STATIC     ATOMS    <user>   **** ""
3 43 44 45
DONOR_HYDROGENS      STATIC     ATOMS    <user>   **** ""
3 42 32 33
ATOM$BLUE        STATIC     ATOMS    COLORGROUP SYSTEM
3 43 44 45
ATOM$RED        STATIC     ATOMS    COLORGROUP SYSTEM
3 42 32 33
