AV-unprocessed.smi:557|AV-procd|sdf|2914|dock8
  -GOLD-   2262023403D 1   1.00000     0.00000
 Structure written by MMmdl.
 47 49  0  0  0  0  0  0  0  0  2 V2000
  151.2584  141.9975  157.9719 C   0  0  0  0  0  0  0  0  0  0  0  0
  151.2518  140.8605  157.0765 N   0  0  0  0  0  0  0  0  0  0  0  0
  150.2602  140.4531  156.2104 C   0  0  0  0  0  0  0  0  0  0  0  0
  150.7070  139.3284  155.5757 C   0  0  0  0  0  0  0  0  0  0  0  0
  150.0068  138.4915  154.5423 C   0  0  0  0  0  0  0  0  0  0  0  0
  148.4834  138.6449  154.6355 C   0  0  0  0  0  0  0  0  0  0  0  0
  147.8166  137.7294  153.7138 N   0  0  0  0  0  0  0  0  0  0  0  0
  146.4937  137.5829  153.5303 C   0  0  0  0  0  0  0  0  0  0  0  0
  145.6714  138.2514  154.1533 O   0  0  0  0  0  0  0  0  0  0  0  0
  146.1557  136.6610  152.6121 N   0  0  0  0  0  0  0  0  0  0  0  0
  144.7892  136.3068  152.2333 C   0  0  2  0  0  0  0  0  0  0  0  0
  143.8621  136.1071  153.4475 C   0  0  0  0  0  0  0  0  0  0  0  0
  143.0031  134.8918  153.0836 C   0  0  0  0  0  0  0  0  0  0  0  0
  143.9188  134.0716  152.2824 N   0  3  1  0  0  0  0  0  0  0  0  0
  143.3698  132.9183  151.5408 C   0  0  0  0  0  0  0  0  0  0  0  0
  144.5470  132.1194  150.9409 C   0  0  0  0  0  0  0  0  0  0  0  0
  145.5026  133.0136  150.1183 C   0  0  0  0  0  0  0  0  0  0  0  0
  145.9356  134.2698  150.9051 C   0  0  0  0  0  0  0  0  0  0  0  0
  144.6793  134.9939  151.4215 C   0  0  2  0  0  0  0  0  0  0  0  0
  152.0037  139.1291  156.1301 C   0  0  0  0  0  0  0  0  0  0  0  0
  152.3259  140.0462  157.0277 N   0  0  0  0  0  0  0  0  0  0  0  0
  150.2822  142.4836  157.9665 H   0  0  0  0  0  0  0  0  0  0  0  0
  152.0142  142.7148  157.6510 H   0  0  0  0  0  0  0  0  0  0  0  0
  151.4836  141.6687  158.9869 H   0  0  0  0  0  0  0  0  0  0  0  0
  149.3274  140.9899  156.1184 H   0  0  0  0  0  0  0  0  0  0  0  0
  150.3377  138.7681  153.5404 H   0  0  0  0  0  0  0  0  0  0  0  0
  150.2714  137.4402  154.6622 H   0  0  0  0  0  0  0  0  0  0  0  0
  148.1530  138.4415  155.6557 H   0  0  0  0  0  0  0  0  0  0  0  0
  148.1975  139.6710  154.3975 H   0  0  0  0  0  0  0  0  0  0  0  0
  148.4213  137.1444  153.1549 H   0  0  0  0  0  0  0  0  0  0  0  0
  146.9023  136.1610  152.1513 H   0  0  0  0  0  0  0  0  0  0  0  0
  144.3736  137.1158  151.6289 H   0  0  0  0  0  0  0  0  0  0  0  0
  144.4489  135.8780  154.3385 H   0  0  0  0  0  0  0  0  0  0  0  0
  143.2616  136.9904  153.6682 H   0  0  0  0  0  0  0  0  0  0  0  0
  142.6358  134.3569  153.9596 H   0  0  0  0  0  0  0  0  0  0  0  0
  142.1486  135.1926  152.4754 H   0  0  0  0  0  0  0  0  0  0  0  0
  142.7919  132.2867  152.2162 H   0  0  0  0  0  0  0  0  0  0  0  0
  142.6921  133.2619  150.7578 H   0  0  0  0  0  0  0  0  0  0  0  0
  145.1085  131.6501  151.7499 H   0  0  0  0  0  0  0  0  0  0  0  0
  144.1689  131.3069  150.3201 H   0  0  0  0  0  0  0  0  0  0  0  0
  146.3800  132.4429  149.8123 H   0  0  0  0  0  0  0  0  0  0  0  0
  145.0013  133.3204  149.1996 H   0  0  0  0  0  0  0  0  0  0  0  0
  146.5819  133.9872  151.7373 H   0  0  0  0  0  0  0  0  0  0  0  0
  146.5178  134.9254  150.2574 H   0  0  0  0  0  0  0  0  0  0  0  0
  144.0519  135.2253  150.5576 H   0  0  0  0  0  0  0  0  0  0  0  0
  152.7153  138.3473  155.9087 H   0  0  0  0  0  0  0  0  0  0  0  0
  144.5853  133.6953  152.9416 H   0  0  0  0  0  0  0  0  0  0  0  0
  1  2  1  0  0  0  0
  1 22  1  0  0  0  0
  1 23  1  0  0  0  0
  1 24  1  0  0  0  0
  2 21  1  0  0  0  0
  2  3  1  0  0  0  0
  3  4  2  0  0  0  0
  3 25  1  0  0  0  0
  4  5  1  0  0  0  0
  4 20  1  0  0  0  0
  5  6  1  0  0  0  0
  5 26  1  0  0  0  0
  5 27  1  0  0  0  0
  6  7  1  0  0  0  0
  6 28  1  0  0  0  0
  6 29  1  0  0  0  0
  7  8  1  0  0  0  0
  7 30  1  0  0  0  0
  8  9  2  0  0  0  0
  8 10  1  0  0  0  0
 10 11  1  0  0  0  0
 10 31  1  0  0  0  0
 11 19  1  0  0  0  0
 11 12  1  0  0  0  0
 11 32  1  0  0  0  0
 12 13  1  0  0  0  0
 12 33  1  0  0  0  0
 12 34  1  0  0  0  0
 13 14  1  0  0  0  0
 13 35  1  0  0  0  0
 13 36  1  0  0  0  0
 14 19  1  0  0  0  0
 14 15  1  0  0  0  0
 14 47  1  0  0  0  0
 15 16  1  0  0  0  0
 15 37  1  0  0  0  0
 15 38  1  0  0  0  0
 16 17  1  0  0  0  0
 16 39  1  0  0  0  0
 16 40  1  0  0  0  0
 17 18  1  0  0  0  0
 17 41  1  0  0  0  0
 17 42  1  0  0  0  0
 18 19  1  0  0  0  0
 18 43  1  0  0  0  0
 18 44  1  0  0  0  0
 19 45  1  0  0  0  0
 20 21  2  0  0  0  0
 20 46  1  0  0  0  0
M  CHG  1  14   1
M  END
> <s_m_source_file>
AV-unprocessed.smi

> <i_m_source_file_index>
557

> <i_lp_mmshare_version>
43012

> <i_f3d_flags>
0

> <s_epik_input>
W0NIM11uMVtjSF1jKFtjSF1uMSlbQ0gyXVtDSDJdW05IXUMoPU8pW05IXVtDQEhdKFtDSDJdW0NIMl0yKVtDQEhdKE4yMylbQ0gyXVtDSDJdW0NIMl1bQ0gyXTM=

> <s_epik_cmdline>
J2VwaWtfcHl0aG9uJywgJy1waCcsICc3LjAnLCAnLXRuJywgJzgnLCAnLW1hJywgJzIwMCcsICctbWV0YWxfYmluZGluZycsICctaW1hZScsICc8aW5maWxlLm1hZT4nLCAnLW9tYWUnLCAnPG91dGZpbGUubWFlPic=

> <r_lp_tautomer_probability>
1

> <r_epik_Ionization_Penalty>
0.000956547

> <r_epik_Ionization_Penalty_Charging>
0.000435796

> <r_epik_Ionization_Penalty_Neutral>
0.000520752

> <r_epik_State_Penalty>
-0

> <r_epik_Charging_Adjusted_Penalty>
0.000435796

> <i_epik_Tot_Q>
1

> <i_epik_Tot_abs_Q>
1

> <r_epik_Metal_State_Penalty>
-0

> <b_epik_Metal_Only>
0

> <s_lp_Force_Field>
OPLS_2005

> <r_lp_Energy>
46.5188

> <b_lp_Chiralities_Consistent>
1

> <s_lp_Variant>
AV-unprocessed.smi:557-1

> <Gold.Version>
5.8.1

> <Gold.Id.Protein>
6NUR|6NUR_protein|mol2

> <Gold.PLP.Fitness>
44.1199

> <Gold.PLP.PLP>
-36.8269

> <Gold.PLP.part.hbond>
-2.8802

> <Gold.PLP.part.metal>
0.0000

> <Gold.PLP.part.buried>
-4.3056

> <Gold.PLP.part.nonpolar>
-30.6990

> <Gold.PLP.part.repulsive>
0.2183

> <Gold.PLP.ligand.clash>
0.0000

> <Gold.PLP.ligand.torsion>
0.5191

> <Gold.PLP.Chemscore.Hbond>
2.7753

> <Gold.PLP.Chemscore.CHOScore>
0.0000

> <Gold.PLP.Chemscore.Metal>
0.0000

> <Gold.Chemscore.Hbonds>
donor molecule, donor type, donor heavy atom, donor atom, acceptor molecule, acceptor atom, score
      L1  H     7    30       P1  7948  1.00
      L1  H    10    31       P1  7948  0.80
      P1  H  7997  8010       L1    21  0.73

> <Gold.PLP.Chemscore.Internal.Correction>
0.0054

> <Gold.Rescore>
     Score         DG    S(hbond)    S(metal)    S(lipo)     H(rot)  DE(clash)    DE(int)     intcor
     17.59     -19.20       2.30        0.00      86.53       1.60       0.03       1.57       ----

> <Gold.Chemscore.Fitness>
17.5924

> <Gold.Chemscore.DG>
-19.1952

> <Gold.Chemscore.ZeroCoef>
-5.4800

> <Gold.Chemscore.Hbond>
2.3029

> <Gold.Chemscore.Metal>
0.0000

> <Gold.Chemscore.Lipo>
86.5303

> <Gold.Chemscore.Internal_Hbond>
0.0000

> <Gold.Chemscore.DEClash>
0.0322

> <Gold.Chemscore.DEInternal>
1.5707

> <Gold.Chemscore.Rot>
1.6018

> <Gold.Chemscore.Internal.Correction>
   9.000000E+99

> <Gold.Chemscore.Hbonds>
donor molecule, donor type, donor heavy atom, donor atom, acceptor molecule, acceptor atom, score
      L1  H     7    30       P1  7948  0.99
      L1  H    10    31       P1  7948  0.75
      P1  H  7997  8010       L1    21  0.12

> <Gold.Chemscore.Hbond.Weighted>
-7.6918

> <Gold.Chemscore.Metal.Weighted>
-0.0000

> <Gold.Chemscore.Lipo.Weighted>
-10.1240

> <Gold.Chemscore.Internal_Hbond.Weighted>
0.0000

> <Gold.Chemscore.DEClash.Weighted>
0.0322

> <Gold.Chemscore.DEInternal.Weighted>
1.5707

> <Gold.Chemscore.Rot.Weighted>
4.1006

> <Gold.Chemscore.Internal.Correction.Weighted>
   9.000000E+99

> <Gold.Protein.RotatedTorsions>
[ 6907 6896 6895 6894 ] final -156.70 input  -60.11 | X-H torsion
[ 7974 7965 7964 7962 ] final   20.82 input  175.53 | X-H torsion
[ 8008 7997 7996 7995 ] final   59.93 input   59.86 | X-H torsion
[ 10167 10162 10161 10158 ] final   98.64 input  -65.29 | X-H torsion
[ 10718 10713 10712 10709 ] final -179.82 input   66.30 | X-H torsion
[ 10763 10752 10751 10750 ] final   86.76 input  -60.55 | X-H torsion
[ 11005 11000 10999 10996 ] final  -10.48 input  -57.11 | X-H torsion

> <Gold.Protein.ActiveResidues>
 VAL166  LYS551  ARG553  GLY616  TRP617  ASP618  TYR619  PRO620  LYS621  CYS622 
 ASP623  PHE694  ASN695  SER759  ASP760  ASP761  ALA762  ILE779  LEU786  VAL792 
 PHE793  MET794  SER795  GLU796  ALA797  LYS798  CYS799  TRP800  GLU811  SER814 

> <Gold.Protein.RotatedAtoms>
  151.2917  133.4162  159.2633 H   0  0  0  0  0  0  0  0  0  0  0  0  # atno 6907 bound_to 6896
  151.0272  134.9513  159.8102 H   0  0  0  0  0  0  0  0  0  0  0  0  # atno 6908 bound_to 6896
  152.5337  134.2878  159.9084 H   0  0  0  0  0  0  0  0  0  0  0  0  # atno 6909 bound_to 6896
  146.2096  139.8115  142.8699 H   0  0  0  0  0  0  0  0  0  0  0  0  # atno 7974 bound_to 7965
  155.5741  140.3490  155.4523 H   0  0  0  0  0  0  0  0  0  0  0  0  # atno 8008 bound_to 7997
  156.0422  140.1298  157.0168 H   0  0  0  0  0  0  0  0  0  0  0  0  # atno 8009 bound_to 7997
  154.4397  140.1021  156.6239 H   0  0  0  0  0  0  0  0  0  0  0  0  # atno 8010 bound_to 7997
  139.7690  144.6929  151.0183 H   0  0  0  0  0  0  0  0  0  0  0  0  # atno 10167 bound_to 10162
  156.8647  130.9763  151.3080 H   0  0  0  0  0  0  0  0  0  0  0  0  # atno 10718 bound_to 10713
  153.1602  135.4568  154.9761 H   0  0  0  0  0  0  0  0  0  0  0  0  # atno 10763 bound_to 10752
  154.7892  135.3214  154.7820 H   0  0  0  0  0  0  0  0  0  0  0  0  # atno 10764 bound_to 10752
  153.8311  135.6938  153.4869 H   0  0  0  0  0  0  0  0  0  0  0  0  # atno 10765 bound_to 10752
  140.7452  133.8637  155.9000 H   0  0  0  0  0  0  0  0  0  0  0  0  # atno 11005 bound_to 11000
  145.3191  141.0239  143.3511 LP  0  0  0  0  0  0  0  0  0  0  0  0  # atno 17320 bound_to 7965
  144.8880  139.4813  143.6691 LP  0  0  0  0  0  0  0  0  0  0  0  0  # atno 17321 bound_to 7965
  140.7813  143.4610  151.0278 LP  0  0  0  0  0  0  0  0  0  0  0  0  # atno 17342 bound_to 10162
  139.8294  143.7712  152.3179 LP  0  0  0  0  0  0  0  0  0  0  0  0  # atno 17343 bound_to 10162
  157.6230  130.8670  149.9141 LP  0  0  0  0  0  0  0  0  0  0  0  0  # atno 17370 bound_to 10713
  156.0758  130.3679  150.0681 LP  0  0  0  0  0  0  0  0  0  0  0  0  # atno 17371 bound_to 10713
  140.9800  134.1417  157.4502 LP  0  0  0  0  0  0  0  0  0  0  0  0  # atno 17394 bound_to 11000
  139.8798  135.0007  156.6027 LP  0  0  0  0  0  0  0  0  0  0  0  0  # atno 17395 bound_to 11000

$$$$
