#       Name:                AV-unprocessed.smi:198
#       Creating user name   scv26
#       Creation time:       Thu Mar 26 19:42:45 2020


#       File generated by GOLD software.
#

@<TRIPOS>MOLECULE
AV-unprocessed.smi:198
    67    71     1
SMALL
NO_CHARGES


@<TRIPOS>ATOM
      1 ****        -4.9144   0.0515   4.1391 C.3            1 S1                 0.0000
      2 ****        -4.3985   0.4439   2.8099 N.4            1 S1                 1.0000
      3 ****        -3.0521   1.0614   2.8882 C.3            1 S1                 0.0000
      4 ****        -2.6099   1.5895   1.5157 C.3            1 S1                 0.0000
      5 ****        -2.6314   0.4635   0.4595 C.3            1 S1                 0.0000
      6 ****        -4.0144  -0.2286   0.4232 C.3            1 S1                 0.0000
      7 ****        -5.0764   0.6463  -0.2750 C.3            1 S1                 0.0000
      8 ****        -4.5877   1.0688  -1.6676 C.3            1 S1                 0.0000
      9 ****        -3.2222   1.7680  -1.5873 C.3            1 S1                 0.0000
     10 ****        -2.2485   0.9332  -0.8782 N.3            1 S1                 0.0000
     11 ****        -0.9323   1.2304  -1.0394 C.ar           1 S1                 0.0000
     12 ****        -0.5643   2.4953  -1.3779 N.ar           1 S1                 0.0000
     13 ****         0.7266   2.8096  -1.5172 C.ar           1 S1                 0.0000
     14 ****         1.7961   2.0273  -1.3645 N.ar           1 S1                 0.0000
     15 ****         1.4365   0.7545  -1.0315 C.ar           1 S1                 0.0000
     16 ****         0.1074   0.2746  -0.8549 C.ar           1 S1                 0.0000
     17 ****         0.1333  -1.0791  -0.5415 N.2            1 S1                 0.0000
     18 ****         1.4030  -1.3799  -0.5269 C.2            1 S1                 0.0000
     19 ****         2.2587  -0.3340  -0.7927 N.pl3          1 S1                 0.0000
     20 ****         3.6927  -0.3849  -0.8538 C.3            1 S1                 0.0000
     21 ****         4.3964  -1.1576  -1.9699 C.3            1 S1                 0.0000
     22 ****         5.4989  -1.6045  -0.9828 C.3            1 S1                 0.0000
     23 ****         5.8480  -3.0998  -1.0324 C.3            1 S1                 0.0000
     24 ****         6.4055  -3.4581  -2.2806 O.3            1 S1                 0.0000
     25 ****         6.8329  -0.8250  -1.0125 C.3            1 S1                 0.0000
     26 ****         6.6631   0.5746  -0.9181 O.3            1 S1                 0.0000
     27 ****         4.5099  -1.2168   0.1404 C.3            1 S1                 0.0000
     28 ****        -4.4451  -0.6755   1.8354 C.3            1 S1                 0.0000
     29 ****        -4.2889  -0.7208   4.5891 H              1 S1                 0.0000
     30 ****        -5.9310  -0.3348   4.0592 H              1 S1                 0.0000
     31 ****        -4.9373   0.9089   4.8127 H              1 S1                 0.0000
     32 ****        -3.0675   1.8838   3.6044 H              1 S1                 0.0000
     33 ****        -2.3330   0.3295   3.2598 H              1 S1                 0.0000
     34 ****        -3.2608   2.4120   1.2190 H              1 S1                 0.0000
     35 ****        -1.6066   2.0093   1.5969 H              1 S1                 0.0000
     36 ****        -1.9177  -0.2922   0.7842 H              1 S1                 0.0000
     37 ****        -3.9103  -1.1327  -0.1791 H              1 S1                 0.0000
     38 ****        -6.0147   0.0980  -0.3659 H              1 S1                 0.0000
     39 ****        -5.2949   1.5334   0.3199 H              1 S1                 0.0000
     40 ****        -4.5072   0.1891  -2.3076 H              1 S1                 0.0000
     41 ****        -5.3175   1.7281  -2.1382 H              1 S1                 0.0000
     42 ****        -2.8691   1.9743  -2.5987 H              1 S1                 0.0000
     43 ****        -3.3208   2.7298  -1.0830 H              1 S1                 0.0000
     44 ****         0.9319   3.8352  -1.7864 H              1 S1                 0.0000
     45 ****         1.7488  -2.3823  -0.3209 H              1 S1                 0.0000
     46 ****         4.0397   0.6487  -0.8377 H              1 S1                 0.0000
     47 ****         3.7952  -1.9900  -2.3397 H              1 S1                 0.0000
     48 ****         4.7455  -0.5346  -2.7941 H              1 S1                 0.0000
     49 ****         6.5487  -3.3692  -0.2412 H              1 S1                 0.0000
     50 ****         4.9593  -3.7126  -0.8786 H              1 S1                 0.0000
     51 ****         5.7757  -3.2632  -2.9578 H              1 S1                 0.0000
     52 ****         7.4781  -1.1347  -0.1898 H              1 S1                 0.0000
     53 ****         7.3837  -1.0239  -1.9321 H              1 S1                 0.0000
     54 ****         7.5155   0.9825  -0.9322 H              1 S1                 0.0000
     55 ****         4.9472  -0.6358   0.9532 H              1 S1                 0.0000
     56 ****         3.9616  -2.0728   0.5348 H              1 S1                 0.0000
     57 ****        -3.7889  -1.4751   2.1832 H              1 S1                 0.0000
     58 ****        -5.4523  -1.0927   1.7999 H              1 S1                 0.0000
     59 ****        -5.0226   1.1569   2.4597 H              1 S1                 0.0000
     60 ****        -2.3257   0.1004  -1.4264 LP             1 S1                 0.0000
     61 ****        -1.2644   3.1943  -1.5234 LP             1 S1                 0.0000
     62 ****         2.7407   2.3347  -1.4795 LP             1 S1                 0.0000
     63 ****        -0.6435  -1.6843  -0.3671 LP             1 S1                 0.0000
     64 ****         6.6165  -4.4356  -2.2876 LP             1 S1                 0.0000
     65 ****         7.2431  -2.9351  -2.4384 LP             1 S1                 0.0000
     66 ****         6.1953   0.8006  -0.0636 LP             1 S1                 0.0000
     67 ****         6.1202   0.9013  -1.6918 LP             1 S1                 0.0000
@<TRIPOS>BOND
    1    1    2 1     
    2    1   29 1     
    3    1   30 1     
    4    1   31 1     
    5    2   28 1     
    6    2    3 1     
    7    2   59 1     
    8    3    4 1     
    9    3   32 1     
   10    3   33 1     
   11    4    5 1     
   12    4   34 1     
   13    4   35 1     
   14    5   10 1     
   15    5    6 1     
   16    5   36 1     
   17    6    7 1     
   18    6   28 1     
   19    6   37 1     
   20    7    8 1     
   21    7   38 1     
   22    7   39 1     
   23    8    9 1     
   24    8   40 1     
   25    8   41 1     
   26    9   10 1     
   27    9   42 1     
   28    9   43 1     
   29   10   11 1     
   30   11   16 ar    
   31   11   12 ar    
   32   12   13 ar    
   33   13   14 ar    
   34   13   44 1     
   35   14   15 ar    
   36   15   19 1     
   37   15   16 ar    
   38   16   17 1     
   39   17   18 2     
   40   18   19 1     
   41   18   45 1     
   42   19   20 1     
   43   20   27 1     
   44   20   21 1     
   45   20   46 1     
   46   21   22 1     
   47   21   47 1     
   48   21   48 1     
   49   22   23 1     
   50   22   25 1     
   51   22   27 1     
   52   23   24 1     
   53   23   49 1     
   54   23   50 1     
   55   24   51 1     
   56   25   26 1     
   57   25   52 1     
   58   25   53 1     
   59   26   54 1     
   60   27   55 1     
   61   27   56 1     
   62   28   57 1     
   63   28   58 1     
   64   10   60 1     
   65   12   61 1     
   66   14   62 1     
   67   17   63 1     
   68   24   64 1     
   69   24   65 1     
   70   26   66 1     
   71   26   67 1     
@<TRIPOS>SUBSTRUCTURE
      1 S1             1
@<TRIPOS>SET
LONE_PAIRS      STATIC     ATOMS    <user>   **** ""
8 60 61 62 63 64 65 66 67
DONOR_HYDROGENS      STATIC     ATOMS    <user>   **** ""
3 59 51 54
ATOM$BLUE        STATIC     ATOMS    COLORGROUP SYSTEM
8 60 61 62 63 64 65 66 67
ATOM$RED        STATIC     ATOMS    COLORGROUP SYSTEM
3 59 51 54
