AV-unprocessed.smi:618|AV-procd|sdf|3080|dock2
  -GOLD-   22720 0 03D 1   1.00000     0.00000
 Structure written by MMmdl.
 41 43  0  0  0  0  0  0  0  0  2 V2000
  146.9494  139.8063  153.8123 O   0  0  0  0  0  0  0  0  0  0  0  0
  147.5437  138.8097  153.4016 C   0  0  0  0  0  0  0  0  0  0  0  0
  146.9924  137.9175  152.5669 N   0  0  0  0  0  0  0  0  0  0  0  0
  145.6344  138.0004  152.0395 C   0  0  0  0  0  0  0  0  0  0  0  0
  144.7708  136.7979  152.4826 C   0  0  2  0  0  0  0  0  0  0  0  0
  145.4187  135.9757  153.6233 C   0  0  0  0  0  0  0  0  0  0  0  0
  146.5094  135.1523  153.0693 N   0  3  1  0  0  0  0  0  0  0  0  0
  147.2638  134.2872  153.9930 C   0  0  0  0  0  0  0  0  0  0  0  0
  147.8346  133.1623  153.1067 C   0  0  0  0  0  0  0  0  0  0  0  0
  147.2274  133.3829  151.7098 C   0  0  0  0  0  0  0  0  0  0  0  0
  146.0289  134.2826  151.9939 C   0  0  2  0  0  0  0  0  0  0  0  0
  145.4923  135.1509  150.8504 C   0  0  0  0  0  0  0  0  0  0  0  0
  144.4294  135.9547  151.3705 O   0  0  0  0  0  0  0  0  0  0  0  0
  148.8125  138.4824  153.6993 N   0  0  0  0  0  0  0  0  0  0  0  0
  149.7197  139.1624  154.5562 C   0  0  0  0  0  0  0  0  0  0  0  0
  149.3938  140.3222  155.3005 C   0  0  0  0  0  0  0  0  0  0  0  0
  150.3757  140.8949  156.1315 C   0  0  0  0  0  0  0  0  0  0  0  0
  151.6435  140.2848  156.1938 C   0  0  0  0  0  0  0  0  0  0  0  0
  151.9636  139.1715  155.5010 N   0  0  0  0  0  0  0  0  0  0  0  0
  151.0168  138.6272  154.7076 C   0  0  0  0  0  0  0  0  0  0  0  0
  147.5508  137.1287  152.2747 H   0  0  0  0  0  0  0  0  0  0  0  0
  145.1961  138.9425  152.3670 H   0  0  0  0  0  0  0  0  0  0  0  0
  145.6716  138.0528  150.9500 H   0  0  0  0  0  0  0  0  0  0  0  0
  143.8303  137.1925  152.8684 H   0  0  0  0  0  0  0  0  0  0  0  0
  145.8023  136.6299  154.4070 H   0  0  0  0  0  0  0  0  0  0  0  0
  144.6733  135.3260  154.0846 H   0  0  0  0  0  0  0  0  0  0  0  0
  148.0423  134.8512  154.5071 H   0  0  0  0  0  0  0  0  0  0  0  0
  146.5937  133.8682  154.7454 H   0  0  0  0  0  0  0  0  0  0  0  0
  148.9241  133.1906  153.0682 H   0  0  0  0  0  0  0  0  0  0  0  0
  147.5451  132.1891  153.5047 H   0  0  0  0  0  0  0  0  0  0  0  0
  147.9452  133.9007  151.0717 H   0  0  0  0  0  0  0  0  0  0  0  0
  146.9481  132.4512  151.2166 H   0  0  0  0  0  0  0  0  0  0  0  0
  145.2175  133.6623  152.3817 H   0  0  0  0  0  0  0  0  0  0  0  0
  146.2762  135.7723  150.4167 H   0  0  0  0  0  0  0  0  0  0  0  0
  145.1026  134.5245  150.0479 H   0  0  0  0  0  0  0  0  0  0  0  0
  149.1928  137.6826  153.2145 H   0  0  0  0  0  0  0  0  0  0  0  0
  148.4141  140.7726  155.2626 H   0  0  0  0  0  0  0  0  0  0  0  0
  150.1602  141.7800  156.7114 H   0  0  0  0  0  0  0  0  0  0  0  0
  152.4186  140.6985  156.8216 H   0  0  0  0  0  0  0  0  0  0  0  0
  151.3077  137.7358  154.1709 H   0  0  0  0  0  0  0  0  0  0  0  0
  147.1818  135.7797  152.6514 H   0  0  0  0  0  0  0  0  0  0  0  0
  1  2  2  0  0  0  0
  2  3  1  0  0  0  0
  2 14  1  0  0  0  0
  3  4  1  0  0  0  0
  3 21  1  0  0  0  0
  4  5  1  0  0  0  0
  4 22  1  0  0  0  0
  4 23  1  0  0  0  0
  5 13  1  0  0  0  0
  5  6  1  0  0  0  0
  5 24  1  0  0  0  0
  6  7  1  0  0  0  0
  6 25  1  0  0  0  0
  6 26  1  0  0  0  0
  7 11  1  0  0  0  0
  7  8  1  0  0  0  0
  7 41  1  0  0  0  0
  8  9  1  0  0  0  0
  8 27  1  0  0  0  0
  8 28  1  0  0  0  0
  9 10  1  0  0  0  0
  9 29  1  0  0  0  0
  9 30  1  0  0  0  0
 10 11  1  0  0  0  0
 10 31  1  0  0  0  0
 10 32  1  0  0  0  0
 11 12  1  0  0  0  0
 11 33  1  0  0  0  0
 12 13  1  0  0  0  0
 12 34  1  0  0  0  0
 12 35  1  0  0  0  0
 14 15  1  0  0  0  0
 14 36  1  0  0  0  0
 15 20  1  0  0  0  0
 15 16  2  0  0  0  0
 16 17  1  0  0  0  0
 16 37  1  0  0  0  0
 17 18  2  0  0  0  0
 17 38  1  0  0  0  0
 18 19  1  0  0  0  0
 18 39  1  0  0  0  0
 19 20  2  0  0  0  0
 20 40  1  0  0  0  0
M  CHG  1   7   1
M  END
> <s_m_source_file>
AV-unprocessed.smi

> <i_m_source_file_index>
618

> <i_lp_mmshare_version>
43012

> <i_f3d_flags>
0

> <s_epik_input>
W2NIXTFuW2NIXVtjSF1bY0hdYzFbTkhdQyg9TylbTkhdW0NIMl1bQ0BIXShbQ0gyXTIpT1tDSDJdW0NAQEhdKE4yMylbQ0gyXVtDSDJdW0NIMl0z

> <s_epik_cmdline>
J2VwaWtfcHl0aG9uJywgJy1waCcsICc3LjAnLCAnLXRuJywgJzgnLCAnLW1hJywgJzIwMCcsICctbWV0YWxfYmluZGluZycsICctaW1hZScsICc8aW5maWxlLm1hZT4nLCAnLW9tYWUnLCAnPG91dGZpbGUubWFlPic=

> <r_epik_Ionization_Penalty>
0.111044

> <r_epik_Ionization_Penalty_Charging>
0.10673

> <r_epik_Ionization_Penalty_Neutral>
0.00431361

> <r_epik_State_Penalty>
0.0978747

> <r_epik_Charging_Adjusted_Penalty>
0.204605

> <i_epik_Tot_Q>
1

> <i_epik_Tot_abs_Q>
1

> <r_epik_Metal_State_Penalty>
0.0947591

> <b_epik_Metal_Only>
0

> <s_lp_Force_Field>
OPLS_2005

> <r_lp_Energy>
41.554

> <b_lp_Chiralities_Consistent>
1

> <s_lp_Variant>
AV-unprocessed.smi:618-7

> <Gold.Version>
5.8.1

> <Gold.Id.Protein>
6NUR|6NUR_protein|mol2

> <Gold.PLP.Fitness>
44.4182

> <Gold.PLP.PLP>
-32.1527

> <Gold.PLP.part.hbond>
-3.8465

> <Gold.PLP.part.metal>
0.0000

> <Gold.PLP.part.buried>
2.0299

> <Gold.PLP.part.nonpolar>
-28.3829

> <Gold.PLP.part.repulsive>
0.5370

> <Gold.PLP.ligand.clash>
1.3175

> <Gold.PLP.ligand.torsion>
0.6941

> <Gold.PLP.Chemscore.Hbond>
3.9920

> <Gold.PLP.Chemscore.CHOScore>
0.9950

> <Gold.PLP.Chemscore.Metal>
0.0000

> <Gold.Chemscore.Hbonds>
donor molecule, donor type, donor heavy atom, donor atom, acceptor molecule, acceptor atom, score
      L1  H     3    21       P1  7948  1.00
      L1  H     7    41       P1  7948  2.00
      L1  H    14    36       P1  7948  0.99

> <Gold.PLP.Chemscore.Internal.Correction>
0.0101

> <Gold.Rescore>
     Score         DG    S(hbond)    S(metal)    S(lipo)     H(rot)  DE(clash)    DE(int)     intcor
     17.27     -20.60       2.82        0.00      76.33       1.27       0.11       3.23       ----

> <Gold.Chemscore.Fitness>
17.2727

> <Gold.Chemscore.DG>
-20.6046

> <Gold.Chemscore.ZeroCoef>
-5.4800

> <Gold.Chemscore.Hbond>
2.8246

> <Gold.Chemscore.Metal>
0.0000

> <Gold.Chemscore.Lipo>
76.3277

> <Gold.Chemscore.Internal_Hbond>
0.0000

> <Gold.Chemscore.DEClash>
0.1057

> <Gold.Chemscore.DEInternal>
3.2262

> <Gold.Chemscore.Rot>
1.2656

> <Gold.Chemscore.Internal.Correction>
   9.000000E+99

> <Gold.Chemscore.Hbonds>
donor molecule, donor type, donor heavy atom, donor atom, acceptor molecule, acceptor atom, score
      L1  H     3    21       P1  7948  0.99
      L1  H     7    41       P1  7948  0.95
      L1  H    14    36       P1  7948  0.92

> <Gold.Chemscore.Hbond.Weighted>
-9.4341

> <Gold.Chemscore.Metal.Weighted>
-0.0000

> <Gold.Chemscore.Lipo.Weighted>
-8.9303

> <Gold.Chemscore.Internal_Hbond.Weighted>
0.0000

> <Gold.Chemscore.DEClash.Weighted>
0.1057

> <Gold.Chemscore.DEInternal.Weighted>
3.2262

> <Gold.Chemscore.Rot.Weighted>
3.2399

> <Gold.Chemscore.Internal.Correction.Weighted>
   9.000000E+99

> <Gold.Protein.RotatedTorsions>
[ 6907 6896 6895 6894 ] final   74.35 input  -60.11 | X-H torsion
[ 7974 7965 7964 7962 ] final   55.90 input  175.53 | X-H torsion
[ 8008 7997 7996 7995 ] final  -61.24 input   59.86 | X-H torsion
[ 10167 10162 10161 10158 ] final -127.85 input  -65.29 | X-H torsion
[ 10718 10713 10712 10709 ] final  125.37 input   66.30 | X-H torsion
[ 10763 10752 10751 10750 ] final  -55.45 input  -60.55 | X-H torsion
[ 11005 11000 10999 10996 ] final  -93.83 input  -57.11 | X-H torsion

> <Gold.Protein.ActiveResidues>
 VAL166  LYS551  ARG553  GLY616  TRP617  ASP618  TYR619  PRO620  LYS621  CYS622 
 ASP623  PHE694  ASN695  SER759  ASP760  ASP761  ALA762  ILE779  LEU786  VAL792 
 PHE793  MET794  SER795  GLU796  ALA797  LYS798  CYS799  TRP800  GLU811  SER814 

> <Gold.Protein.RotatedAtoms>
  152.4971  134.4284  159.9503 H   0  0  0  0  0  0  0  0  0  0  0  0  # atno 6907 bound_to 6896
  151.4261  133.3677  159.2770 H   0  0  0  0  0  0  0  0  0  0  0  0  # atno 6908 bound_to 6896
  150.9187  134.8628  159.7534 H   0  0  0  0  0  0  0  0  0  0  0  0  # atno 6909 bound_to 6896
  145.9455  139.3926  143.0338 H   0  0  0  0  0  0  0  0  0  0  0  0  # atno 7974 bound_to 7965
  154.4438  140.1022  156.6399 H   0  0  0  0  0  0  0  0  0  0  0  0  # atno 8008 bound_to 7997
  155.5513  140.3485  155.4450 H   0  0  0  0  0  0  0  0  0  0  0  0  # atno 8009 bound_to 7997
  156.0527  140.1307  157.0021 H   0  0  0  0  0  0  0  0  0  0  0  0  # atno 8010 bound_to 7997
  139.9565  143.5997  152.2459 H   0  0  0  0  0  0  0  0  0  0  0  0  # atno 10167 bound_to 10162
  157.5509  131.1094  150.8704 H   0  0  0  0  0  0  0  0  0  0  0  0  # atno 10718 bound_to 10713
  154.1909  135.6427  153.5060 H   0  0  0  0  0  0  0  0  0  0  0  0  # atno 10763 bound_to 10752
  153.0035  135.5428  154.6416 H   0  0  0  0  0  0  0  0  0  0  0  0  # atno 10764 bound_to 10752
  154.5804  135.2925  155.0711 H   0  0  0  0  0  0  0  0  0  0  0  0  # atno 10765 bound_to 10752
  141.1487  133.7914  157.0213 H   0  0  0  0  0  0  0  0  0  0  0  0  # atno 11005 bound_to 11000
  145.8242  140.9664  143.0883 LP  0  0  0  0  0  0  0  0  0  0  0  0  # atno 17320 bound_to 7965
  144.6786  140.0080  143.7484 LP  0  0  0  0  0  0  0  0  0  0  0  0  # atno 17321 bound_to 7965
  139.6587  144.7662  151.2004 LP  0  0  0  0  0  0  0  0  0  0  0  0  # atno 17342 bound_to 10162
  140.7567  143.6044  150.8667 LP  0  0  0  0  0  0  0  0  0  0  0  0  # atno 17343 bound_to 10162
  156.9229  130.5321  149.5279 LP  0  0  0  0  0  0  0  0  0  0  0  0  # atno 17370 bound_to 10713
  156.0576  130.5634  150.9124 LP  0  0  0  0  0  0  0  0  0  0  0  0  # atno 17371 bound_to 10713
  140.0813  134.9646  157.1629 LP  0  0  0  0  0  0  0  0  0  0  0  0  # atno 17394 bound_to 11000
  140.3572  134.2534  155.7191 LP  0  0  0  0  0  0  0  0  0  0  0  0  # atno 17395 bound_to 11000

$$$$
