AV-unprocessed.smi:1661|AV-procd|sdf|6654|dock10
  -GOLD-   22720 7363D 1   1.00000     0.00000
 Structure written by MMmdl.
 38 39  0  0  0  0  0  0  0  0  2 V2000
  145.3815  131.6525  152.1418 C   0  0  0  0  0  0  0  0  0  0  0  0
  146.6224  132.4688  151.7399 C   0  0  2  0  0  0  0  0  0  0  0  0
  147.1537  133.3494  152.8852 C   0  0  0  0  0  0  0  0  0  0  0  0
  146.2592  134.5757  153.1413 C   0  0  0  0  0  0  0  0  0  0  0  0
  146.0790  135.3817  151.9058 N   0  3  2  0  0  0  0  0  0  0  0  0
  145.3270  136.6362  152.1629 C   0  0  0  0  0  0  0  0  0  0  0  0
  146.0556  137.8831  151.6237 C   0  0  0  0  0  0  0  0  0  0  0  0
  147.3117  138.1179  152.3264 N   0  0  0  0  0  0  0  0  0  0  0  0
  147.5824  139.1989  153.0720 C   0  0  0  0  0  0  0  0  0  0  0  0
  146.7883  140.1267  153.2286 O   0  0  0  0  0  0  0  0  0  0  0  0
  148.8135  139.1273  153.6080 N   0  0  0  0  0  0  0  0  0  0  0  0
  149.4651  140.0721  154.4445 C   0  0  0  0  0  0  0  0  0  0  0  0
  150.7489  139.9704  154.8229 N   0  0  0  0  0  0  0  0  0  0  0  0
  151.1342  141.0250  155.6408 N   0  0  0  0  0  0  0  0  0  0  0  0
  150.1276  141.8791  155.8463 C   0  0  0  0  0  0  0  0  0  0  0  0
  148.6100  141.4787  155.0609 S   0  0  0  0  0  0  0  0  0  0  0  0
  145.5041  134.5674  150.8019 C   0  0  0  0  0  0  0  0  0  0  0  0
  146.3835  133.3417  150.4949 C   0  0  0  0  0  0  0  0  0  0  0  0
  144.5376  132.2881  152.4084 H   0  0  0  0  0  0  0  0  0  0  0  0
  145.5958  131.0136  152.9989 H   0  0  0  0  0  0  0  0  0  0  0  0
  145.0600  131.0050  151.3256 H   0  0  0  0  0  0  0  0  0  0  0  0
  147.4001  131.7455  151.4915 H   0  0  0  0  0  0  0  0  0  0  0  0
  147.2544  132.7619  153.7985 H   0  0  0  0  0  0  0  0  0  0  0  0
  148.1588  133.6923  152.6351 H   0  0  0  0  0  0  0  0  0  0  0  0
  145.2854  134.2675  153.5240 H   0  0  0  0  0  0  0  0  0  0  0  0
  146.7192  135.1902  153.9162 H   0  0  0  0  0  0  0  0  0  0  0  0
  144.3236  136.5598  151.7413 H   0  0  0  0  0  0  0  0  0  0  0  0
  145.1984  136.7534  153.2398 H   0  0  0  0  0  0  0  0  0  0  0  0
  146.2428  137.7848  150.5529 H   0  0  0  0  0  0  0  0  0  0  0  0
  145.4466  138.7771  151.7514 H   0  0  0  0  0  0  0  0  0  0  0  0
  148.0187  137.4006  152.2512 H   0  0  0  0  0  0  0  0  0  0  0  0
  149.3504  138.3006  153.3917 H   0  0  0  0  0  0  0  0  0  0  0  0
  150.2793  142.7509  156.4653 H   0  0  0  0  0  0  0  0  0  0  0  0
  144.4927  134.2551  151.0645 H   0  0  0  0  0  0  0  0  0  0  0  0
  145.4181  135.1651  149.8956 H   0  0  0  0  0  0  0  0  0  0  0  0
  147.3449  133.6843  150.1095 H   0  0  0  0  0  0  0  0  0  0  0  0
  145.9337  132.7481  149.6982 H   0  0  0  0  0  0  0  0  0  0  0  0
  147.0059  135.6598  151.6163 H   0  0  0  0  0  0  0  0  0  0  0  0
  1  2  1  0  0  0  0
  1 19  1  0  0  0  0
  1 20  1  0  0  0  0
  1 21  1  0  0  0  0
  2 18  1  0  0  0  0
  2  3  1  0  0  0  0
  2 22  1  0  0  0  0
  3  4  1  0  0  0  0
  3 23  1  0  0  0  0
  3 24  1  0  0  0  0
  4  5  1  0  0  0  0
  4 25  1  0  0  0  0
  4 26  1  0  0  0  0
  5  6  1  0  0  0  0
  5 17  1  0  0  0  0
  5 38  1  0  0  0  0
  6  7  1  0  0  0  0
  6 27  1  0  0  0  0
  6 28  1  0  0  0  0
  7  8  1  0  0  0  0
  7 29  1  0  0  0  0
  7 30  1  0  0  0  0
  8  9  1  0  0  0  0
  8 31  1  0  0  0  0
  9 10  2  0  0  0  0
  9 11  1  0  0  0  0
 11 12  1  0  0  0  0
 11 32  1  0  0  0  0
 12 16  1  0  0  0  0
 12 13  2  0  0  0  0
 13 14  1  0  0  0  0
 14 15  2  0  0  0  0
 15 16  1  0  0  0  0
 15 33  1  0  0  0  0
 17 18  1  0  0  0  0
 17 34  1  0  0  0  0
 17 35  1  0  0  0  0
 18 36  1  0  0  0  0
 18 37  1  0  0  0  0
M  CHG  1   5   1
M  END
> <s_m_source_file>
AV-unprocessed.smi

> <i_m_source_file_index>
1661

> <i_lp_mmshare_version>
43012

> <i_f3d_flags>
0

> <s_epik_input>
W0NIM11bQ0hdMVtDSDJdW0NIMl1OKFtDSDJdW0NIMl0xKVtDSDJdW0NIMl1bTkhdQyg9TylbTkhdYzJubltjSF1zMg==

> <s_epik_cmdline>
J2VwaWtfcHl0aG9uJywgJy1waCcsICc3LjAnLCAnLXRuJywgJzgnLCAnLW1hJywgJzIwMCcsICctbWV0YWxfYmluZGluZycsICctaW1hZScsICc8aW5maWxlLm1hZT4nLCAnLW9tYWUnLCAnPG91dGZpbGUubWFlPic=

> <r_lp_tautomer_probability>
1

> <r_epik_Ionization_Penalty>
0.0053917

> <r_epik_Ionization_Penalty_Charging>
0.00168873

> <r_epik_Ionization_Penalty_Neutral>
0.00370297

> <r_epik_State_Penalty>
-0

> <r_epik_Charging_Adjusted_Penalty>
0.00168873

> <i_epik_Tot_Q>
1

> <i_epik_Tot_abs_Q>
1

> <r_epik_Metal_State_Penalty>
0.36997

> <b_epik_Metal_Only>
0

> <s_lp_Force_Field>
OPLS_2005

> <r_lp_Energy>
16.5964

> <b_lp_Chiralities_Consistent>
1

> <s_lp_Variant>
AV-unprocessed.smi:1661-2

> <Gold.Version>
5.8.1

> <Gold.Id.Protein>
6NUR|6NUR_protein|mol2

> <Gold.PLP.Fitness>
40.3297

> <Gold.PLP.PLP>
-30.0770

> <Gold.PLP.part.hbond>
-5.4771

> <Gold.PLP.part.metal>
0.0000

> <Gold.PLP.part.buried>
2.1283

> <Gold.PLP.part.nonpolar>
-26.4827

> <Gold.PLP.part.repulsive>
0.5041

> <Gold.PLP.ligand.clash>
0.0000

> <Gold.PLP.ligand.torsion>
0.6983

> <Gold.PLP.Chemscore.Hbond>
3.2413

> <Gold.PLP.Chemscore.CHOScore>
0.6352

> <Gold.PLP.Chemscore.Metal>
0.0000

> <Gold.Chemscore.Hbonds>
donor molecule, donor type, donor heavy atom, donor atom, acceptor molecule, acceptor atom, score
      L1  H     5    38       P1  7948  2.00
      L1  H     8    31       P1  7948  0.99
      P1  H  7989  7998       L1    13  0.25
      L1  C    15    33       P1  8028  0.62

> <Gold.PLP.Chemscore.Internal.Correction>
0.0199

> <Gold.Rescore>
     Score         DG    S(hbond)    S(metal)    S(lipo)     H(rot)  DE(clash)    DE(int)     intcor
     12.72     -14.90       2.02        0.00      60.10       1.70       0.24       1.94       ----

> <Gold.Chemscore.Fitness>
12.7190

> <Gold.Chemscore.DG>
-14.8965

> <Gold.Chemscore.ZeroCoef>
-5.4800

> <Gold.Chemscore.Hbond>
2.0205

> <Gold.Chemscore.Metal>
0.0000

> <Gold.Chemscore.Lipo>
60.1009

> <Gold.Chemscore.Internal_Hbond>
0.0000

> <Gold.Chemscore.DEClash>
0.2355

> <Gold.Chemscore.DEInternal>
1.9420

> <Gold.Chemscore.Rot>
1.7046

> <Gold.Chemscore.Internal.Correction>
   9.000000E+99

> <Gold.Chemscore.Hbonds>
donor molecule, donor type, donor heavy atom, donor atom, acceptor molecule, acceptor atom, score
      L1  H     5    38       P1  7948  0.94
      L1  H     8    31       P1  7948  0.92

> <Gold.Chemscore.Hbond.Weighted>
-6.7485

> <Gold.Chemscore.Metal.Weighted>
-0.0000

> <Gold.Chemscore.Lipo.Weighted>
-7.0318

> <Gold.Chemscore.Internal_Hbond.Weighted>
0.0000

> <Gold.Chemscore.DEClash.Weighted>
0.2355

> <Gold.Chemscore.DEInternal.Weighted>
1.9420

> <Gold.Chemscore.Rot.Weighted>
4.3638

> <Gold.Chemscore.Internal.Correction.Weighted>
   9.000000E+99

> <Gold.Protein.RotatedTorsions>
[ 6907 6896 6895 6894 ] final -119.84 input  -60.11 | X-H torsion
[ 7974 7965 7964 7962 ] final -166.61 input  175.53 | X-H torsion
[ 8008 7997 7996 7995 ] final   -0.04 input   59.86 | X-H torsion
[ 10167 10162 10161 10158 ] final    9.59 input  -65.29 | X-H torsion
[ 10718 10713 10712 10709 ] final   83.98 input   66.30 | X-H torsion
[ 10763 10752 10751 10750 ] final -149.20 input  -60.55 | X-H torsion
[ 11005 11000 10999 10996 ] final   22.75 input  -57.11 | X-H torsion

> <Gold.Protein.ActiveResidues>
 VAL166  LYS551  ARG553  GLY616  TRP617  ASP618  TYR619  PRO620  LYS621  CYS622 
 ASP623  PHE694  ASN695  SER759  ASP760  ASP761  ALA762  ILE779  LEU786  VAL792 
 PHE793  MET794  SER795  GLU796  ALA797  LYS798  CYS799  TRP800  GLU811  SER814 

> <Gold.Protein.RotatedAtoms>
  150.8340  133.8043  159.3086 H   0  0  0  0  0  0  0  0  0  0  0  0  # atno 6907 bound_to 6896
  151.5765  135.1059  160.0017 H   0  0  0  0  0  0  0  0  0  0  0  0  # atno 6908 bound_to 6896
  152.4416  133.7416  159.6700 H   0  0  0  0  0  0  0  0  0  0  0  0  # atno 6909 bound_to 6896
  144.7241  140.2640  143.6260 H   0  0  0  0  0  0  0  0  0  0  0  0  # atno 7974 bound_to 7965
  154.6626  140.2594  155.7092 H   0  0  0  0  0  0  0  0  0  0  0  0  # atno 8008 bound_to 7997
  156.2625  140.2845  156.1026 H   0  0  0  0  0  0  0  0  0  0  0  0  # atno 8009 bound_to 7997
  155.1286  140.0378  157.2759 H   0  0  0  0  0  0  0  0  0  0  0  0  # atno 8010 bound_to 7997
  140.6246  143.8130  150.7217 H   0  0  0  0  0  0  0  0  0  0  0  0  # atno 10167 bound_to 10162
  157.6889  131.0114  150.2604 H   0  0  0  0  0  0  0  0  0  0  0  0  # atno 10718 bound_to 10713
  154.8191  135.3315  154.7091 H   0  0  0  0  0  0  0  0  0  0  0  0  # atno 10763 bound_to 10752
  153.7727  135.6924  153.4908 H   0  0  0  0  0  0  0  0  0  0  0  0  # atno 10764 bound_to 10752
  153.2034  135.4508  155.0242 H   0  0  0  0  0  0  0  0  0  0  0  0  # atno 10765 bound_to 10752
  140.3771  134.1960  155.7664 H   0  0  0  0  0  0  0  0  0  0  0  0  # atno 11005 bound_to 11000
  145.8108  139.2002  143.1994 LP  0  0  0  0  0  0  0  0  0  0  0  0  # atno 17320 bound_to 7965
  146.0598  140.7983  142.9740 LP  0  0  0  0  0  0  0  0  0  0  0  0  # atno 17321 bound_to 7965
  140.1728  143.4180  152.1989 LP  0  0  0  0  0  0  0  0  0  0  0  0  # atno 17342 bound_to 10162
  139.5468  144.7305  151.4558 LP  0  0  0  0  0  0  0  0  0  0  0  0  # atno 17343 bound_to 10162
  156.3184  130.3782  149.7597 LP  0  0  0  0  0  0  0  0  0  0  0  0  # atno 17370 bound_to 10713
  156.5175  130.8200  151.3191 LP  0  0  0  0  0  0  0  0  0  0  0  0  # atno 17371 bound_to 10713
  141.1936  133.8148  157.0793 LP  0  0  0  0  0  0  0  0  0  0  0  0  # atno 17394 bound_to 11000
  140.0507  134.9807  157.1131 LP  0  0  0  0  0  0  0  0  0  0  0  0  # atno 17395 bound_to 11000

$$$$
