AV-unprocessed.smi:2032|AV-procd|sdf|8250|dock3
  -GOLD-   2272010523D 1   1.00000     0.00000
 Structure written by MMmdl.
 41 42  0  0  0  0  0  0  0  0  2 V2000
  152.0482  144.7042  158.1504 C   0  0  0  0  0  0  0  0  0  0  0  0
  151.1689  143.7320  158.9559 C   0  0  1  0  0  0  0  0  0  0  0  0
  151.1688  142.2972  158.3918 C   0  0  0  0  0  0  0  0  0  0  0  0
  152.4140  141.5637  158.6466 N   0  0  0  0  0  0  0  0  0  0  0  0
  152.3799  140.1816  158.1109 C   0  0  1  0  0  0  0  0  0  0  0  0
  151.4314  139.2528  158.9122 C   0  0  0  0  0  0  0  0  0  0  0  0
  151.9944  140.1128  156.6069 C   0  0  0  0  0  0  0  0  0  0  0  0
  151.9823  138.7463  156.0950 N   0  0  0  0  0  0  0  0  0  0  0  0
  151.4207  138.3561  154.9432 C   0  0  0  0  0  0  0  0  0  0  0  0
  150.8644  139.1858  154.2198 O   0  0  0  0  0  0  0  0  0  0  0  0
  151.5385  137.0305  154.7003 N   0  5  0  0  0  0  0  0  0  0  0  0
  150.5317  136.1990  155.0144 C   0  0  0  0  0  0  0  0  0  0  0  0
  150.5303  134.9004  154.6913 N   0  0  0  0  0  0  0  0  0  0  0  0
  149.3839  134.2246  155.1133 C   0  0  0  0  0  0  0  0  0  0  0  0
  148.4862  135.0297  155.7629 C   0  0  0  0  0  0  0  0  0  0  0  0
  149.0578  136.6705  155.8659 S   0  0  0  0  0  0  0  0  0  0  0  0
  152.6752  141.6091  160.0883 C   0  0  0  0  0  0  0  0  0  0  0  0
  152.7299  143.0445  160.6424 C   0  0  2  0  0  0  0  0  0  0  0  0
  152.9166  143.0674  162.1631 C   0  0  0  0  0  0  0  0  0  0  0  0
  151.5152  143.7216  160.3385 O   0  0  0  0  0  0  0  0  0  0  0  0
  151.6883  144.7933  157.1253 H   0  0  0  0  0  0  0  0  0  0  0  0
  153.0863  144.3760  158.1022 H   0  0  0  0  0  0  0  0  0  0  0  0
  152.0320  145.7005  158.5928 H   0  0  0  0  0  0  0  0  0  0  0  0
  150.1480  144.1112  158.9022 H   0  0  0  0  0  0  0  0  0  0  0  0
  150.3319  141.7473  158.8251 H   0  0  0  0  0  0  0  0  0  0  0  0
  150.9727  142.3709  157.3237 H   0  0  0  0  0  0  0  0  0  0  0  0
  153.3837  139.7630  158.1996 H   0  0  0  0  0  0  0  0  0  0  0  0
  151.3582  138.2554  158.4801 H   0  0  0  0  0  0  0  0  0  0  0  0
  150.4223  139.6638  158.9551 H   0  0  0  0  0  0  0  0  0  0  0  0
  151.7749  139.0924  159.9329 H   0  0  0  0  0  0  0  0  0  0  0  0
  151.0156  140.5694  156.4516 H   0  0  0  0  0  0  0  0  0  0  0  0
  152.7056  140.6539  155.9849 H   0  0  0  0  0  0  0  0  0  0  0  0
  152.4276  138.0391  156.6610 H   0  0  0  0  0  0  0  0  0  0  0  0
  149.2898  133.1686  154.9070 H   0  0  0  0  0  0  0  0  0  0  0  0
  147.5296  134.7607  156.1845 H   0  0  0  0  0  0  0  0  0  0  0  0
  151.9120  141.0376  160.6189 H   0  0  0  0  0  0  0  0  0  0  0  0
  153.6334  141.1502  160.3213 H   0  0  0  0  0  0  0  0  0  0  0  0
  153.5663  143.5769  160.1890 H   0  0  0  0  0  0  0  0  0  0  0  0
  153.8437  142.5716  162.4523 H   0  0  0  0  0  0  0  0  0  0  0  0
  152.0941  142.5614  162.6693 H   0  0  0  0  0  0  0  0  0  0  0  0
  152.9574  144.0915  162.5349 H   0  0  0  0  0  0  0  0  0  0  0  0
  1  2  1  0  0  0  0
  1 21  1  0  0  0  0
  1 22  1  0  0  0  0
  1 23  1  0  0  0  0
  2 20  1  0  0  0  0
  2  3  1  0  0  0  0
  2 24  1  0  0  0  0
  3  4  1  0  0  0  0
  3 25  1  0  0  0  0
  3 26  1  0  0  0  0
  4  5  1  0  0  0  0
  4 17  1  0  0  0  0
  5  6  1  0  0  0  0
  5  7  1  0  0  0  0
  5 27  1  0  0  0  0
  6 28  1  0  0  0  0
  6 29  1  0  0  0  0
  6 30  1  0  0  0  0
  7  8  1  0  0  0  0
  7 31  1  0  0  0  0
  7 32  1  0  0  0  0
  8  9  1  0  0  0  0
  8 33  1  0  0  0  0
  9 10  2  0  0  0  0
  9 11  1  0  0  0  0
 11 12  1  0  0  0  0
 12 16  1  0  0  0  0
 12 13  2  0  0  0  0
 13 14  1  0  0  0  0
 14 15  2  0  0  0  0
 14 34  1  0  0  0  0
 15 16  1  0  0  0  0
 15 35  1  0  0  0  0
 17 18  1  0  0  0  0
 17 36  1  0  0  0  0
 17 37  1  0  0  0  0
 18 19  1  0  0  0  0
 18 20  1  0  0  0  0
 18 38  1  0  0  0  0
 19 39  1  0  0  0  0
 19 40  1  0  0  0  0
 19 41  1  0  0  0  0
M  CHG  1  11  -1
M  END
> <s_m_source_file>
AV-unprocessed.smi

> <i_m_source_file_index>
2032

> <i_lp_mmshare_version>
43012

> <i_f3d_flags>
0

> <s_epik_input>
W0NIM11bQ0BASF0xW0NIMl1OKFtDSDJdW0NASF0oTzEpW0NIM10pW0NASF0oW0NIM10pW0NIMl1bTkhdQyg9TylbTkhdYzJuW2NIXVtjSF1zMg==

> <s_epik_cmdline>
J2VwaWtfcHl0aG9uJywgJy1waCcsICc3LjAnLCAnLXRuJywgJzgnLCAnLW1hJywgJzIwMCcsICctbWV0YWxfYmluZGluZycsICctaW1hZScsICc8aW5maWxlLm1hZT4nLCAnLW9tYWUnLCAnPG91dGZpbGUubWFlPic=

> <r_lp_tautomer_probability>
0.999

> <r_epik_Ionization_Penalty>
7.22375

> <r_epik_Ionization_Penalty_Charging>
5.82415

> <r_epik_Ionization_Penalty_Neutral>
1.39959

> <r_epik_State_Penalty>
6.03347

> <r_epik_Charging_Adjusted_Penalty>
11.8576

> <i_epik_Tot_Q>
-1

> <i_epik_Tot_abs_Q>
1

> <r_epik_Metal_State_Penalty>
2.01024

> <b_epik_Metal_Only>
1

> <s_lp_Force_Field>
OPLS_2005

> <r_lp_Energy>
26.7829

> <b_lp_Chiralities_Consistent>
1

> <s_lp_Variant>
AV-unprocessed.smi:2032-20

> <Gold.Version>
5.8.1

> <Gold.Id.Protein>
6NUR|6NUR_protein|mol2

> <Gold.PLP.Fitness>
43.3174

> <Gold.PLP.PLP>
-36.0807

> <Gold.PLP.part.hbond>
-2.0000

> <Gold.PLP.part.metal>
0.0000

> <Gold.PLP.part.buried>
-5.3918

> <Gold.PLP.part.nonpolar>
-29.5488

> <Gold.PLP.part.repulsive>
0.6996

> <Gold.PLP.ligand.clash>
0.0000

> <Gold.PLP.ligand.torsion>
0.9166

> <Gold.PLP.Chemscore.Hbond>
3.0000

> <Gold.PLP.Chemscore.CHOScore>
0.0000

> <Gold.PLP.Chemscore.Metal>
0.0000

> <Gold.Chemscore.Hbonds>
donor molecule, donor type, donor heavy atom, donor atom, acceptor molecule, acceptor atom, score
      P1  H  7989  7998       L1    10  1.00
      P1  H 10752 10764       L1    11  1.90

> <Gold.PLP.Chemscore.Internal.Correction>
0.0699

> <Gold.Rescore>
     Score         DG    S(hbond)    S(metal)    S(lipo)     H(rot)  DE(clash)    DE(int)     intcor
     16.98     -18.34       1.81        0.00      92.03       1.54       0.34       1.02       ----

> <Gold.Chemscore.Fitness>
16.9798

> <Gold.Chemscore.DG>
-18.3413

> <Gold.Chemscore.ZeroCoef>
-5.4800

> <Gold.Chemscore.Hbond>
1.8096

> <Gold.Chemscore.Metal>
0.0000

> <Gold.Chemscore.Lipo>
92.0312

> <Gold.Chemscore.Internal_Hbond>
0.0000

> <Gold.Chemscore.DEClash>
0.3437

> <Gold.Chemscore.DEInternal>
1.0179

> <Gold.Chemscore.Rot>
1.5431

> <Gold.Chemscore.Internal.Correction>
   9.000000E+99

> <Gold.Chemscore.Hbonds>
donor molecule, donor type, donor heavy atom, donor atom, acceptor molecule, acceptor atom, score
      P1  H  7989  7998       L1    10  0.98
      P1  H 10752 10764       L1    11  0.20

> <Gold.Chemscore.Hbond.Weighted>
-6.0440

> <Gold.Chemscore.Metal.Weighted>
-0.0000

> <Gold.Chemscore.Lipo.Weighted>
-10.7677

> <Gold.Chemscore.Internal_Hbond.Weighted>
0.0000

> <Gold.Chemscore.DEClash.Weighted>
0.3437

> <Gold.Chemscore.DEInternal.Weighted>
1.0179

> <Gold.Chemscore.Rot.Weighted>
3.9503

> <Gold.Chemscore.Internal.Correction.Weighted>
   9.000000E+99

> <Gold.Protein.RotatedTorsions>
[ 6907 6896 6895 6894 ] final   42.36 input  -60.11 | X-H torsion
[ 7974 7965 7964 7962 ] final  -95.45 input  175.53 | X-H torsion
[ 8008 7997 7996 7995 ] final  -31.24 input   59.86 | X-H torsion
[ 10167 10162 10161 10158 ] final -123.87 input  -65.29 | X-H torsion
[ 10718 10713 10712 10709 ] final   25.40 input   66.30 | X-H torsion
[ 10763 10752 10751 10750 ] final  -81.45 input  -60.55 | X-H torsion
[ 11005 11000 10999 10996 ] final    4.61 input  -57.11 | X-H torsion

> <Gold.Protein.ActiveResidues>
 VAL166  LYS551  ARG553  GLY616  TRP617  ASP618  TYR619  PRO620  LYS621  CYS622 
 ASP623  PHE694  ASN695  SER759  ASP760  ASP761  ALA762  ILE779  LEU786  VAL792 
 PHE793  MET794  SER795  GLU796  ALA797  LYS798  CYS799  TRP800  GLU811  SER814 

> <Gold.Protein.RotatedAtoms>
  152.2069  134.8537  160.0501 H   0  0  0  0  0  0  0  0  0  0  0  0  # atno 6907 bound_to 6896
  151.9370  133.3622  159.3959 H   0  0  0  0  0  0  0  0  0  0  0  0  # atno 6908 bound_to 6896
  150.6967  134.4403  159.5333 H   0  0  0  0  0  0  0  0  0  0  0  0  # atno 6909 bound_to 6896
  145.3599  140.9490  143.2507 H   0  0  0  0  0  0  0  0  0  0  0  0  # atno 7974 bound_to 7965
  154.4221  140.1770  156.1535 H   0  0  0  0  0  0  0  0  0  0  0  0  # atno 8008 bound_to 7997
  155.9896  140.3370  155.6716 H   0  0  0  0  0  0  0  0  0  0  0  0  # atno 8009 bound_to 7997
  155.6390  140.0678  157.2615 H   0  0  0  0  0  0  0  0  0  0  0  0  # atno 8010 bound_to 7997
  139.9989  143.5562  152.2312 H   0  0  0  0  0  0  0  0  0  0  0  0  # atno 10167 bound_to 10162
  157.1928  130.6854  149.6157 H   0  0  0  0  0  0  0  0  0  0  0  0  # atno 10718 bound_to 10713
  154.5637  135.5626  153.7031 H   0  0  0  0  0  0  0  0  0  0  0  0  # atno 10763 bound_to 10752
  153.0026  135.6280  154.2209 H   0  0  0  0  0  0  0  0  0  0  0  0  # atno 10764 bound_to 10752
  154.2148  135.2872  155.2925 H   0  0  0  0  0  0  0  0  0  0  0  0  # atno 10765 bound_to 10752
  140.5800  134.0022  155.8043 H   0  0  0  0  0  0  0  0  0  0  0  0  # atno 11005 bound_to 11000
  144.8654  139.5115  143.6792 LP  0  0  0  0  0  0  0  0  0  0  0  0  # atno 17320 bound_to 7965
  146.2932  139.7200  142.9146 LP  0  0  0  0  0  0  0  0  0  0  0  0  # atno 17321 bound_to 7965
  139.6286  144.7641  151.2585 LP  0  0  0  0  0  0  0  0  0  0  0  0  # atno 17342 bound_to 10162
  140.7426  143.6519  150.8240 LP  0  0  0  0  0  0  0  0  0  0  0  0  # atno 17343 bound_to 10162
  155.9709  130.4609  150.6089 LP  0  0  0  0  0  0  0  0  0  0  0  0  # atno 17370 bound_to 10713
  157.3844  131.0786  151.1449 LP  0  0  0  0  0  0  0  0  0  0  0  0  # atno 17371 bound_to 10713
  141.1002  133.9780  157.3091 LP  0  0  0  0  0  0  0  0  0  0  0  0  # atno 17394 bound_to 11000
  139.9322  135.0199  156.8437 LP  0  0  0  0  0  0  0  0  0  0  0  0  # atno 17395 bound_to 11000

$$$$
