#       Name:                AV-unprocessed.smi:2655
#       Creating user name   scv26
#       Creation time:       Fri Mar 27 14:32:01 2020


#       File generated by GOLD software.
#

@<TRIPOS>MOLECULE
AV-unprocessed.smi:2655
    42    43     1
SMALL
NO_CHARGES


@<TRIPOS>ATOM
      1 ****        -2.7930   3.2929  -1.6937 C.3            1 S1                 0.0000
      2 ****        -2.8453   3.3555  -0.1940 C.2            1 S1                 0.0000
      3 ****        -3.1650   4.5057   0.3916 N.2            1 S1                 0.0000
      4 ****        -3.1197   4.2343   1.7095 N.pl3          1 S1                 0.0000
      5 ****        -2.7774   2.9273   1.9449 C.2            1 S1                 0.0000
      6 ****        -2.6722   2.4468   3.2132 O.3            1 S1                 0.0000
      7 ****        -2.5916   2.3065   0.7442 C.2            1 S1                 0.0000
      8 ****        -2.2102   0.8766   0.4688 C.3            1 S1                 0.0000
      9 ****        -0.6963   0.7242   0.2716 C.3            1 S1                 0.0000
     10 ****        -0.3521  -0.6647  -0.0036 N.am           1 S1                 0.0000
     11 ****         0.8706  -1.1083  -0.3250 C.2            1 S1                 0.0000
     12 ****         1.8108  -0.3138  -0.4006 O.2            1 S1                 0.0000
     13 ****         0.9281  -2.4435  -0.5385 N.pl3          1 S1                -1.0000
     14 ****         2.0873  -3.0235  -0.8860 C.2            1 S1                 0.0000
     15 ****         3.1143  -3.4416   0.0040 C.2            1 S1                 0.0000
     16 ****         4.0538  -3.9753  -0.8317 C.2            1 S1                 0.0000
     17 ****         5.3870  -4.5969  -0.5900 C.3            1 S1                 0.0000
     18 ****         3.6342  -3.8992  -2.1232 O.3            1 S1                 0.0000
     19 ****         2.3719  -3.2943  -2.1488 N.2            1 S1                 0.0000
     20 ****        -2.2006   2.4442  -2.0356 H              1 S1                 0.0000
     21 ****        -2.3447   4.1942  -2.1128 H              1 S1                 0.0000
     22 ****        -3.7932   3.1903  -2.1147 H              1 S1                 0.0000
     23 ****        -3.3206   4.9350   2.4088 H              1 S1                 0.0000
     24 ****        -2.7281   0.5084  -0.4176 H              1 S1                 0.0000
     25 ****        -2.5322   0.2310   1.2867 H              1 S1                 0.0000
     26 ****        -0.3618   1.3520  -0.5559 H              1 S1                 0.0000
     27 ****        -0.1650   1.0554   1.1652 H              1 S1                 0.0000
     28 ****        -1.0971  -1.3439   0.0497 H              1 S1                 0.0000
     29 ****         3.1549  -3.3589   1.0798 H              1 S1                 0.0000
     30 ****         5.2921  -5.4757   0.0477 H              1 S1                 0.0000
     31 ****         6.0569  -3.8916  -0.0981 H              1 S1                 0.0000
     32 ****         5.8522  -4.9077  -1.5257 H              1 S1                 0.0000
     33 ****        -2.8480   3.1581   3.8091 H              1 S1                 0.0000
     34 ****        -3.3886   5.3758  -0.0477 LP             1 S1                 0.0000
     35 ****        -1.7491   2.0947   3.3676 LP             1 S1                 0.0000
     36 ****        -3.3368   1.7131   3.3547 LP             1 S1                 0.0000
     37 ****         1.6594   0.6585  -0.2222 LP             1 S1                 0.0000
     38 ****         2.7246  -0.6418  -0.6402 LP             1 S1                 0.0000
     39 ****         0.1035  -3.0000  -0.4369 LP             1 S1                 0.0000
     40 ****         3.5751  -4.8183  -2.5127 LP             1 S1                 0.0000
     41 ****         4.2805  -3.3524  -2.6555 LP             1 S1                 0.0000
     42 ****         1.8057  -3.1068  -2.9514 LP             1 S1                 0.0000
@<TRIPOS>BOND
    1    1   20 1     
    2    1   21 1     
    3    1   22 1     
    4    1    2 1     
    5    2    7 1     
    6    2    3 2     
    7    3    4 1     
    8    4   23 1     
    9    4    5 1     
   10    5    7 2     
   11    5    6 1     
   12    6   33 1     
   13    7    8 1     
   14    8    9 1     
   15    8   24 1     
   16    8   25 1     
   17    9   10 1     
   18    9   26 1     
   19    9   27 1     
   20   10   11 am    
   21   10   28 1     
   22   11   12 2     
   23   11   13 1     
   24   13   14 1     
   25   14   19 2     
   26   14   15 1     
   27   15   16 2     
   28   15   29 1     
   29   16   17 1     
   30   16   18 1     
   31   17   30 1     
   32   17   31 1     
   33   17   32 1     
   34   18   19 1     
   35    3   34 1     
   36    6   35 1     
   37    6   36 1     
   38   12   37 1     
   39   12   38 1     
   40   13   39 1     
   41   18   40 1     
   42   18   41 1     
   43   19   42 1     
@<TRIPOS>SUBSTRUCTURE
      1 S1             1
@<TRIPOS>SET
LONE_PAIRS      STATIC     ATOMS    <user>   **** ""
9 34 35 36 37 38 39 40 41 42
DONOR_HYDROGENS      STATIC     ATOMS    <user>   **** ""
3 23 33 28
ATOM$BLUE        STATIC     ATOMS    COLORGROUP SYSTEM
9 34 35 36 37 38 39 40 41 42
ATOM$RED        STATIC     ATOMS    COLORGROUP SYSTEM
3 23 33 28
