AV-unprocessed.smi:2000|AV-procd|sdf|8101|dock2
  -GOLD-   2272010323D 1   1.00000     0.00000
 Structure written by MMmdl.
 43 44  0  0  0  0  0  0  0  0  1 V2000
  149.2852  138.9624  154.0300 C   0  0  0  0  0  0  0  0  0  0  0  0
  149.4929  138.1934  155.3448 C   0  0  1  0  0  0  0  0  0  0  0  0
  148.4863  137.0443  155.4944 C   0  0  0  0  0  0  0  0  0  0  0  0
  147.8971  136.8643  156.5606 O   0  0  0  0  0  0  0  0  0  0  0  0
  148.3064  136.2622  154.4179 N   0  0  0  0  0  0  0  0  0  0  0  0
  147.4109  135.1101  154.3634 C   0  0  0  0  0  0  0  0  0  0  0  0
  148.1019  133.7543  154.1909 C   0  0  0  0  0  0  0  0  0  0  0  0
  149.2834  133.4381  154.9029 C   0  0  0  0  0  0  0  0  0  0  0  0
  149.9022  132.1918  154.6995 C   0  0  0  0  0  0  0  0  0  0  0  0
  149.3201  131.3008  153.7814 C   0  0  0  0  0  0  0  0  0  0  0  0
  148.2005  131.5864  153.0871 N   0  0  0  0  0  0  0  0  0  0  0  0
  147.5999  132.7865  153.2798 C   0  0  0  0  0  0  0  0  0  0  0  0
  146.4252  133.0408  152.5505 N   0  0  0  0  0  0  0  0  0  0  0  0
  145.8960  131.8474  151.9024 C   0  0  0  0  0  0  0  0  0  0  0  0
  144.5182  132.1494  151.2875 C   0  0  0  0  0  0  0  0  0  0  0  0
  144.6198  133.2581  150.3974 O   0  0  0  0  0  0  0  0  0  0  0  0
  145.0681  134.4376  151.0595 C   0  0  0  0  0  0  0  0  0  0  0  0
  146.4650  134.1915  151.6543 C   0  0  0  0  0  0  0  0  0  0  0  0
  151.2265  137.5399  155.4272 S   0  0  0  0  0  0  0  0  0  0  0  0
  152.2515  139.0360  155.1042 C   0  0  0  0  0  0  0  0  0  0  0  0
  151.5027  137.0863  156.7991 O   0  0  0  0  0  0  0  0  0  0  0  0
  151.4143  136.6045  154.3079 O   0  0  0  0  0  0  0  0  0  0  0  0
  148.2594  139.3210  153.9372 H   0  0  0  0  0  0  0  0  0  0  0  0
  149.5021  138.3378  153.1623 H   0  0  0  0  0  0  0  0  0  0  0  0
  149.9419  139.8310  153.9805 H   0  0  0  0  0  0  0  0  0  0  0  0
  149.3721  138.8889  156.1762 H   0  0  0  0  0  0  0  0  0  0  0  0
  148.8301  136.4723  153.5807 H   0  0  0  0  0  0  0  0  0  0  0  0
  146.7861  135.1089  155.2574 H   0  0  0  0  0  0  0  0  0  0  0  0
  146.7338  135.2524  153.5210 H   0  0  0  0  0  0  0  0  0  0  0  0
  149.7258  134.1355  155.5983 H   0  0  0  0  0  0  0  0  0  0  0  0
  150.8027  131.9266  155.2331 H   0  0  0  0  0  0  0  0  0  0  0  0
  149.7661  130.3346  153.5975 H   0  0  0  0  0  0  0  0  0  0  0  0
  146.5887  131.5223  151.1247 H   0  0  0  0  0  0  0  0  0  0  0  0
  145.8144  131.0299  152.6198 H   0  0  0  0  0  0  0  0  0  0  0  0
  144.1548  131.2829  150.7349 H   0  0  0  0  0  0  0  0  0  0  0  0
  143.7844  132.3615  152.0666 H   0  0  0  0  0  0  0  0  0  0  0  0
  145.1039  135.2570  150.3416 H   0  0  0  0  0  0  0  0  0  0  0  0
  144.3580  134.7245  151.8369 H   0  0  0  0  0  0  0  0  0  0  0  0
  146.8043  135.0730  152.1994 H   0  0  0  0  0  0  0  0  0  0  0  0
  147.1777  134.0126  150.8478 H   0  0  0  0  0  0  0  0  0  0  0  0
  153.3004  138.7458  155.0462 H   0  0  0  0  0  0  0  0  0  0  0  0
  152.1268  139.7545  155.9140 H   0  0  0  0  0  0  0  0  0  0  0  0
  151.9507  139.4902  154.1605 H   0  0  0  0  0  0  0  0  0  0  0  0
  1  2  1  0  0  0  0
  1 23  1  0  0  0  0
  1 24  1  0  0  0  0
  1 25  1  0  0  0  0
  2  3  1  0  0  0  0
  2 19  1  0  0  0  0
  2 26  1  0  0  0  0
  3  4  2  0  0  0  0
  3  5  1  0  0  0  0
  5  6  1  0  0  0  0
  5 27  1  0  0  0  0
  6  7  1  0  0  0  0
  6 28  1  0  0  0  0
  6 29  1  0  0  0  0
  7 12  1  0  0  0  0
  7  8  2  0  0  0  0
  8  9  1  0  0  0  0
  8 30  1  0  0  0  0
  9 10  2  0  0  0  0
  9 31  1  0  0  0  0
 10 11  1  0  0  0  0
 10 32  1  0  0  0  0
 11 12  2  0  0  0  0
 12 13  1  0  0  0  0
 13 18  1  0  0  0  0
 13 14  1  0  0  0  0
 14 15  1  0  0  0  0
 14 33  1  0  0  0  0
 14 34  1  0  0  0  0
 15 16  1  0  0  0  0
 15 35  1  0  0  0  0
 15 36  1  0  0  0  0
 16 17  1  0  0  0  0
 17 18  1  0  0  0  0
 17 37  1  0  0  0  0
 17 38  1  0  0  0  0
 18 39  1  0  0  0  0
 18 40  1  0  0  0  0
 19 20  1  0  0  0  0
 19 21  2  0  0  0  0
 19 22  2  0  0  0  0
 20 41  1  0  0  0  0
 20 42  1  0  0  0  0
 20 43  1  0  0  0  0
M  END
> <s_m_source_file>
AV-unprocessed.smi

> <i_m_source_file_index>
2000

> <i_lp_mmshare_version>
43012

> <i_f3d_flags>
0

> <s_epik_input>
W0NIM11TKD1PKSg9TylbQ0BIXShbQ0gzXSlDKD1PKVtOSF1bQ0gyXWMxW2NIXVtjSF1bY0hdbmMxTjJbQ0gyXVtDSDJdT1tDSDJdW0NIMl0y

> <s_epik_cmdline>
J2VwaWtfcHl0aG9uJywgJy1waCcsICc3LjAnLCAnLXRuJywgJzgnLCAnLW1hJywgJzIwMCcsICctbWV0YWxfYmluZGluZycsICctaW1hZScsICc8aW5maWxlLm1hZT4nLCAnLW9tYWUnLCAnPG91dGZpbGUubWFlPic=

> <r_lp_tautomer_probability>
1

> <r_epik_Ionization_Penalty>
0.00349769

> <r_epik_Ionization_Penalty_Charging>
0

> <r_epik_Ionization_Penalty_Neutral>
0.00349769

> <r_epik_State_Penalty>
0.00248024

> <r_epik_Charging_Adjusted_Penalty>
0.00248024

> <i_epik_Tot_Q>
0

> <i_epik_Tot_abs_Q>
0

> <r_epik_Metal_State_Penalty>
-0

> <b_epik_Metal_Only>
0

> <s_lp_Force_Field>
OPLS_2005

> <r_lp_Energy>
18.4728

> <b_lp_Chiralities_Consistent>
1

> <s_lp_Variant>
AV-unprocessed.smi:2000-2

> <Gold.Version>
5.8.1

> <Gold.Id.Protein>
6NUR|6NUR_protein|mol2

> <Gold.PLP.Fitness>
34.0945

> <Gold.PLP.PLP>
-29.7779

> <Gold.PLP.part.hbond>
-2.0000

> <Gold.PLP.part.metal>
0.0000

> <Gold.PLP.part.buried>
-3.9658

> <Gold.PLP.part.nonpolar>
-24.8453

> <Gold.PLP.part.repulsive>
2.0828

> <Gold.PLP.ligand.clash>
0.0000

> <Gold.PLP.ligand.torsion>
0.9250

> <Gold.PLP.Chemscore.Hbond>
1.9280

> <Gold.PLP.Chemscore.CHOScore>
0.0000

> <Gold.PLP.Chemscore.Metal>
0.0000

> <Gold.Chemscore.Hbonds>
donor molecule, donor type, donor heavy atom, donor atom, acceptor molecule, acceptor atom, score
      L1  H     5    27       P1  7948  0.93
      P1  H 10752 10764       L1    22  1.00

> <Gold.PLP.Chemscore.Internal.Correction>
0.3826

> <Gold.Rescore>
     Score         DG    S(hbond)    S(metal)    S(lipo)     H(rot)  DE(clash)    DE(int)     intcor
     13.01     -14.51       1.97        0.00      66.29       2.08       0.23       1.27       ----

> <Gold.Chemscore.Fitness>
13.0098

> <Gold.Chemscore.DG>
-14.5113

> <Gold.Chemscore.ZeroCoef>
-5.4800

> <Gold.Chemscore.Hbond>
1.9733

> <Gold.Chemscore.Metal>
0.0000

> <Gold.Chemscore.Lipo>
66.2898

> <Gold.Chemscore.Internal_Hbond>
0.0000

> <Gold.Chemscore.DEClash>
0.2298

> <Gold.Chemscore.DEInternal>
1.2717

> <Gold.Chemscore.Rot>
2.0764

> <Gold.Chemscore.Internal.Correction>
   9.000000E+99

> <Gold.Chemscore.Hbonds>
donor molecule, donor type, donor heavy atom, donor atom, acceptor molecule, acceptor atom, score
      L1  H     5    27       P1  7948  0.91
      P1  H 10752 10764       L1    22  0.85

> <Gold.Chemscore.Hbond.Weighted>
-6.5909

> <Gold.Chemscore.Metal.Weighted>
-0.0000

> <Gold.Chemscore.Lipo.Weighted>
-7.7559

> <Gold.Chemscore.Internal_Hbond.Weighted>
0.0000

> <Gold.Chemscore.DEClash.Weighted>
0.2298

> <Gold.Chemscore.DEInternal.Weighted>
1.2717

> <Gold.Chemscore.Rot.Weighted>
5.3155

> <Gold.Chemscore.Internal.Correction.Weighted>
   9.000000E+99

> <Gold.Protein.RotatedTorsions>
[ 6907 6896 6895 6894 ] final -173.02 input  -60.11 | X-H torsion
[ 7974 7965 7964 7962 ] final  -32.88 input  175.53 | X-H torsion
[ 8008 7997 7996 7995 ] final   78.77 input   59.86 | X-H torsion
[ 10167 10162 10161 10158 ] final  -63.18 input  -65.29 | X-H torsion
[ 10718 10713 10712 10709 ] final  -56.43 input   66.30 | X-H torsion
[ 10763 10752 10751 10750 ] final  -66.72 input  -60.55 | X-H torsion
[ 11005 11000 10999 10996 ] final  -63.17 input  -57.11 | X-H torsion

> <Gold.Protein.ActiveResidues>
 VAL166  LYS551  ARG553  GLY616  TRP617  ASP618  TYR619  PRO620  LYS621  CYS622 
 ASP623  PHE694  ASN695  SER759  ASP760  ASP761  ALA762  ILE779  LEU786  VAL792 
 PHE793  MET794  SER795  GLU796  ALA797  LYS798  CYS799  TRP800  GLU811  SER814 

> <Gold.Protein.RotatedAtoms>
  151.5494  133.3420  159.2949 H   0  0  0  0  0  0  0  0  0  0  0  0  # atno 6907 bound_to 6896
  150.8488  134.7808  159.7003 H   0  0  0  0  0  0  0  0  0  0  0  0  # atno 6908 bound_to 6896
  152.4539  134.5342  159.9871 H   0  0  0  0  0  0  0  0  0  0  0  0  # atno 6909 bound_to 6896
  146.0955  140.5847  142.8845 H   0  0  0  0  0  0  0  0  0  0  0  0  # atno 7974 bound_to 7965
  155.8604  140.3454  155.5752 H   0  0  0  0  0  0  0  0  0  0  0  0  # atno 8008 bound_to 7997
  155.7940  140.0875  157.2013 H   0  0  0  0  0  0  0  0  0  0  0  0  # atno 8009 bound_to 7997
  154.4011  140.1478  156.3183 H   0  0  0  0  0  0  0  0  0  0  0  0  # atno 8010 bound_to 7997
  140.5888  143.2338  151.6184 H   0  0  0  0  0  0  0  0  0  0  0  0  # atno 10167 bound_to 10162
  156.1289  130.4160  150.0304 H   0  0  0  0  0  0  0  0  0  0  0  0  # atno 10718 bound_to 10713
  154.3639  135.6110  153.5705 H   0  0  0  0  0  0  0  0  0  0  0  0  # atno 10763 bound_to 10752
  152.9792  135.5822  154.4601 H   0  0  0  0  0  0  0  0  0  0  0  0  # atno 10764 bound_to 10752
  154.4343  135.2848  155.1869 H   0  0  0  0  0  0  0  0  0  0  0  0  # atno 10765 bound_to 10752
  141.1384  133.6648  156.5640 H   0  0  0  0  0  0  0  0  0  0  0  0  # atno 11005 bound_to 11000
  144.7392  140.4894  143.6881 LP  0  0  0  0  0  0  0  0  0  0  0  0  # atno 17320 bound_to 7965
  145.5957  139.1499  143.3157 LP  0  0  0  0  0  0  0  0  0  0  0  0  # atno 17321 bound_to 7965
  139.5214  144.3192  152.0925 LP  0  0  0  0  0  0  0  0  0  0  0  0  # atno 17342 bound_to 10162
  140.2354  144.4325  150.6282 LP  0  0  0  0  0  0  0  0  0  0  0  0  # atno 17343 bound_to 10162
  156.8221  130.9362  151.3641 LP  0  0  0  0  0  0  0  0  0  0  0  0  # atno 17370 bound_to 10713
  157.6469  130.8852  149.9556 LP  0  0  0  0  0  0  0  0  0  0  0  0  # atno 17371 bound_to 10713
  140.3966  134.7394  157.4754 LP  0  0  0  0  0  0  0  0  0  0  0  0  # atno 17394 bound_to 11000
  140.0527  134.6108  155.8842 LP  0  0  0  0  0  0  0  0  0  0  0  0  # atno 17395 bound_to 11000

$$$$
