AV-unprocessed.smi:1645|AV-procd|sdf|6609|dock9
  -GOLD-   22720 7313D 1   1.00000     0.00000
 Structure written by MMmdl.
 56 59  0  0  0  0  0  0  0  0  3 V2000
  146.8086  140.0284  154.5296 O   0  0  0  0  0  0  0  0  0  0  0  0
  147.7194  139.2534  154.2414 C   0  0  0  0  0  0  0  0  0  0  0  0
  148.9592  139.2756  154.7612 N   0  0  0  0  0  0  0  0  0  0  0  0
  149.5299  140.2032  155.6764 C   0  0  0  0  0  0  0  0  0  0  0  0
  150.4487  139.7036  156.6230 C   0  0  0  0  0  0  0  0  0  0  0  0
  151.0517  140.5786  157.5493 C   0  0  0  0  0  0  0  0  0  0  0  0
  150.7276  141.9584  157.5318 C   0  0  0  0  0  0  0  0  0  0  0  0
  151.2978  142.9133  158.4038 N   0  0  0  0  0  0  0  0  0  0  0  0
  150.5511  144.1597  158.6015 C   0  0  0  0  0  0  0  0  0  0  0  0
  151.4579  145.2743  159.1503 C   0  0  0  0  0  0  0  0  0  0  0  0
  152.1963  144.8148  160.4153 C   0  0  0  0  0  0  0  0  0  0  0  0
  152.9773  143.5258  160.1243 C   0  0  0  0  0  0  0  0  0  0  0  0
  152.0566  142.4303  159.5592 C   0  0  0  0  0  0  0  0  0  0  0  0
  149.8273  142.3871  156.6143 N   0  3  0  0  0  0  0  0  0  0  0  0
  149.2268  141.5854  155.7085 C   0  0  0  0  0  0  0  0  0  0  0  0
  147.5870  138.2638  153.3459 N   0  0  0  0  0  0  0  0  0  0  0  0
  146.3836  137.9928  152.5597 C   0  0  1  0  0  0  0  0  0  0  0  0
  146.5433  138.3573  151.0712 C   0  0  0  0  0  0  0  0  0  0  0  0
  145.8365  137.2257  150.3178 C   0  0  0  0  0  0  0  0  0  0  0  0
  146.0855  136.0589  151.1723 N   0  3  2  0  0  0  0  0  0  0  0  0
  145.3490  134.8091  150.8955 C   0  0  0  0  0  0  0  0  0  0  0  0
  145.9228  133.6960  151.7985 C   0  0  0  0  0  0  0  0  0  0  0  0
  145.9503  134.1066  153.2888 C   0  0  0  0  0  0  0  0  0  0  0  0
  146.6183  135.4840  153.4941 C   0  0  0  0  0  0  0  0  0  0  0  0
  145.9418  136.5100  152.5674 C   0  0  1  0  0  0  0  0  0  0  0  0
  149.5972  138.5797  154.4036 H   0  0  0  0  0  0  0  0  0  0  0  0
  150.6998  138.6530  156.6391 H   0  0  0  0  0  0  0  0  0  0  0  0
  151.7504  140.1686  158.2626 H   0  0  0  0  0  0  0  0  0  0  0  0
  150.0940  144.5107  157.6766 H   0  0  0  0  0  0  0  0  0  0  0  0
  149.7359  143.9675  159.3001 H   0  0  0  0  0  0  0  0  0  0  0  0
  152.1836  145.5621  158.3883 H   0  0  0  0  0  0  0  0  0  0  0  0
  150.8661  146.1644  159.3652 H   0  0  0  0  0  0  0  0  0  0  0  0
  152.8736  145.5961  160.7616 H   0  0  0  0  0  0  0  0  0  0  0  0
  151.4804  144.6404  161.2195 H   0  0  0  0  0  0  0  0  0  0  0  0
  153.7732  143.7369  159.4087 H   0  0  0  0  0  0  0  0  0  0  0  0
  153.4656  143.1705  161.0323 H   0  0  0  0  0  0  0  0  0  0  0  0
  151.3596  142.0916  160.3270 H   0  0  0  0  0  0  0  0  0  0  0  0
  152.6752  141.5773  159.2794 H   0  0  0  0  0  0  0  0  0  0  0  0
  148.5325  142.0911  155.0556 H   0  0  0  0  0  0  0  0  0  0  0  0
  148.3862  137.6718  153.1721 H   0  0  0  0  0  0  0  0  0  0  0  0
  145.5621  138.5924  152.9576 H   0  0  0  0  0  0  0  0  0  0  0  0
  146.1316  139.3383  150.8315 H   0  0  0  0  0  0  0  0  0  0  0  0
  147.5988  138.3676  150.7943 H   0  0  0  0  0  0  0  0  0  0  0  0
  144.7638  137.4163  150.2549 H   0  0  0  0  0  0  0  0  0  0  0  0
  146.2249  137.0844  149.3088 H   0  0  0  0  0  0  0  0  0  0  0  0
  144.2831  134.9509  151.0807 H   0  0  0  0  0  0  0  0  0  0  0  0
  145.4631  134.5380  149.8454 H   0  0  0  0  0  0  0  0  0  0  0  0
  145.3461  132.7790  151.6735 H   0  0  0  0  0  0  0  0  0  0  0  0
  146.9388  133.4638  151.4758 H   0  0  0  0  0  0  0  0  0  0  0  0
  144.9282  134.1435  153.6680 H   0  0  0  0  0  0  0  0  0  0  0  0
  146.4674  133.3479  153.8769 H   0  0  0  0  0  0  0  0  0  0  0  0
  146.5228  135.7869  154.5372 H   0  0  0  0  0  0  0  0  0  0  0  0
  147.6852  135.4188  153.2764 H   0  0  0  0  0  0  0  0  0  0  0  0
  144.8746  136.5135  152.8005 H   0  0  0  0  0  0  0  0  0  0  0  0
  147.0648  135.8447  151.0505 H   0  0  0  0  0  0  0  0  0  0  0  0
  149.5919  143.3798  156.6015 H   0  0  0  0  0  0  0  0  0  0  0  0
  1  2  2  0  0  0  0
  2  3  1  0  0  0  0
  2 16  1  0  0  0  0
  3  4  1  0  0  0  0
  3 26  1  0  0  0  0
  4 15  1  0  0  0  0
  4  5  2  0  0  0  0
  5  6  1  0  0  0  0
  5 27  1  0  0  0  0
  6  7  2  0  0  0  0
  6 28  1  0  0  0  0
  7  8  1  0  0  0  0
  7 14  1  0  0  0  0
  8 13  1  0  0  0  0
  8  9  1  0  0  0  0
  9 10  1  0  0  0  0
  9 29  1  0  0  0  0
  9 30  1  0  0  0  0
 10 11  1  0  0  0  0
 10 31  1  0  0  0  0
 10 32  1  0  0  0  0
 11 12  1  0  0  0  0
 11 33  1  0  0  0  0
 11 34  1  0  0  0  0
 12 13  1  0  0  0  0
 12 35  1  0  0  0  0
 12 36  1  0  0  0  0
 13 37  1  0  0  0  0
 13 38  1  0  0  0  0
 14 15  2  0  0  0  0
 14 56  1  0  0  0  0
 15 39  1  0  0  0  0
 16 17  1  0  0  0  0
 16 40  1  0  0  0  0
 17 25  1  0  0  0  0
 17 18  1  0  0  0  0
 17 41  1  0  0  0  0
 18 19  1  0  0  0  0
 18 42  1  0  0  0  0
 18 43  1  0  0  0  0
 19 20  1  0  0  0  0
 19 44  1  0  0  0  0
 19 45  1  0  0  0  0
 20 25  1  0  0  0  0
 20 21  1  0  0  0  0
 20 55  1  0  0  0  0
 21 22  1  0  0  0  0
 21 46  1  0  0  0  0
 21 47  1  0  0  0  0
 22 23  1  0  0  0  0
 22 48  1  0  0  0  0
 22 49  1  0  0  0  0
 23 24  1  0  0  0  0
 23 50  1  0  0  0  0
 23 51  1  0  0  0  0
 24 25  1  0  0  0  0
 24 52  1  0  0  0  0
 24 53  1  0  0  0  0
 25 54  1  0  0  0  0
M  CHG  1  14   1
M  CHG  1  20   1
M  END
> <s_m_source_file>
AV-unprocessed.smi

> <i_m_source_file_index>
1645

> <i_lp_mmshare_version>
43012

> <i_f3d_flags>
0

> <s_epik_input>
W0NIMl0xW0NIMl1bQ0gyXVtDSDJdW0NASF0oTjEyKVtDQEBIXShbQ0gyXVtDSDJdMilbTkhdQyg9TylbTkhdYzNbY0hdW2NIXWMobltjSF0zKU40W0NIMl1bQ0gyXVtDSDJdW0NIMl1bQ0gyXTQ=

> <s_epik_cmdline>
J2VwaWtfcHl0aG9uJywgJy1waCcsICc3LjAnLCAnLXRuJywgJzgnLCAnLW1hJywgJzIwMCcsICctbWV0YWxfYmluZGluZycsICctaW1hZScsICc8aW5maWxlLm1hZT4nLCAnLW9tYWUnLCAnPG91dGZpbGUubWFlPic=

> <r_lp_tautomer_probability>
0.999994

> <r_epik_Ionization_Penalty>
1.26838

> <r_epik_Ionization_Penalty_Charging>
1.26836

> <r_epik_Ionization_Penalty_Neutral>
1.95562e-05

> <r_epik_State_Penalty>
1.33841

> <r_epik_Charging_Adjusted_Penalty>
2.60677

> <i_epik_Tot_Q>
2

> <i_epik_Tot_abs_Q>
2

> <r_epik_Metal_State_Penalty>
1.40601

> <b_epik_Metal_Only>
0

> <s_lp_Force_Field>
OPLS_2005

> <r_lp_Energy>
64.599

> <b_lp_Chiralities_Consistent>
1

> <s_lp_Variant>
AV-unprocessed.smi:1645-10

> <Gold.Version>
5.8.1

> <Gold.Id.Protein>
6NUR|6NUR_protein|mol2

> <Gold.PLP.Fitness>
51.3058

> <Gold.PLP.PLP>
-38.8981

> <Gold.PLP.part.hbond>
-3.0000

> <Gold.PLP.part.metal>
0.0000

> <Gold.PLP.part.buried>
6.3268

> <Gold.PLP.part.nonpolar>
-42.5890

> <Gold.PLP.part.repulsive>
0.2990

> <Gold.PLP.ligand.clash>
0.0000

> <Gold.PLP.ligand.torsion>
0.5068

> <Gold.PLP.Chemscore.Hbond>
4.3880

> <Gold.PLP.Chemscore.CHOScore>
0.0000

> <Gold.PLP.Chemscore.Metal>
0.0000

> <Gold.Chemscore.Hbonds>
donor molecule, donor type, donor heavy atom, donor atom, acceptor molecule, acceptor atom, score
      L1  H    14    56       P1  8028  1.86
      L1  H    16    40       P1  7948  0.78
      L1  H    20    55       P1  7948  1.72

> <Gold.PLP.Chemscore.Internal.Correction>
0.2574

> <Gold.Rescore>
     Score         DG    S(hbond)    S(metal)    S(lipo)     H(rot)  DE(clash)    DE(int)     intcor
     21.76     -25.39       2.42        0.00     122.88       1.00       3.15       0.49       ----

> <Gold.Chemscore.Fitness>
21.7574

> <Gold.Chemscore.DG>
-25.3922

> <Gold.Chemscore.ZeroCoef>
-5.4800

> <Gold.Chemscore.Hbond>
2.4239

> <Gold.Chemscore.Metal>
0.0000

> <Gold.Chemscore.Lipo>
122.8752

> <Gold.Chemscore.Internal_Hbond>
0.0000

> <Gold.Chemscore.DEClash>
3.1484

> <Gold.Chemscore.DEInternal>
0.4864

> <Gold.Chemscore.Rot>
1.0000

> <Gold.Chemscore.Internal.Correction>
   9.000000E+99

> <Gold.Chemscore.Hbonds>
donor molecule, donor type, donor heavy atom, donor atom, acceptor molecule, acceptor atom, score
      L1  H    14    56       P1  8028  0.91
      L1  H    16    40       P1  7948  0.73
      L1  H    20    55       P1  7948  0.75

> <Gold.Chemscore.Hbond.Weighted>
-8.0958

> <Gold.Chemscore.Metal.Weighted>
-0.0000

> <Gold.Chemscore.Lipo.Weighted>
-14.3764

> <Gold.Chemscore.Internal_Hbond.Weighted>
0.0000

> <Gold.Chemscore.DEClash.Weighted>
3.1484

> <Gold.Chemscore.DEInternal.Weighted>
0.4864

> <Gold.Chemscore.Rot.Weighted>
2.5600

> <Gold.Chemscore.Internal.Correction.Weighted>
   9.000000E+99

> <Gold.Protein.RotatedTorsions>
[ 6907 6896 6895 6894 ] final   35.05 input  -60.11 | X-H torsion
[ 7974 7965 7964 7962 ] final  -31.64 input  175.53 | X-H torsion
[ 8008 7997 7996 7995 ] final   61.03 input   59.86 | X-H torsion
[ 10167 10162 10161 10158 ] final -110.81 input  -65.29 | X-H torsion
[ 10718 10713 10712 10709 ] final   60.43 input   66.30 | X-H torsion
[ 10763 10752 10751 10750 ] final -177.09 input  -60.55 | X-H torsion
[ 11005 11000 10999 10996 ] final   16.12 input  -57.11 | X-H torsion

> <Gold.Protein.ActiveResidues>
 VAL166  LYS551  ARG553  GLY616  TRP617  ASP618  TYR619  PRO620  LYS621  CYS622 
 ASP623  PHE694  ASN695  SER759  ASP760  ASP761  ALA762  ILE779  LEU786  VAL792 
 PHE793  MET794  SER795  GLU796  ALA797  LYS798  CYS799  TRP800  GLU811  SER814 

> <Gold.Protein.RotatedAtoms>
  152.1108  134.9275  160.0566 H   0  0  0  0  0  0  0  0  0  0  0  0  # atno 6907 bound_to 6896
  152.0454  133.3990  159.4362 H   0  0  0  0  0  0  0  0  0  0  0  0  # atno 6908 bound_to 6896
  150.6843  134.3289  159.4862 H   0  0  0  0  0  0  0  0  0  0  0  0  # atno 6909 bound_to 6896
  146.1052  140.5692  142.8803 H   0  0  0  0  0  0  0  0  0  0  0  0  # atno 7974 bound_to 7965
  155.5918  140.3493  155.4568 H   0  0  0  0  0  0  0  0  0  0  0  0  # atno 8008 bound_to 7997
  156.0296  140.1271  157.0297 H   0  0  0  0  0  0  0  0  0  0  0  0  # atno 8009 bound_to 7997
  154.4347  140.1046  156.6066 H   0  0  0  0  0  0  0  0  0  0  0  0  # atno 8010 bound_to 7997
  140.1404  143.4284  152.1566 H   0  0  0  0  0  0  0  0  0  0  0  0  # atno 10167 bound_to 10162
  157.5752  130.8938  149.9334 H   0  0  0  0  0  0  0  0  0  0  0  0  # atno 10718 bound_to 10713
  154.5644  135.2822  155.0888 H   0  0  0  0  0  0  0  0  0  0  0  0  # atno 10763 bound_to 10752
  154.2285  135.6378  153.5171 H   0  0  0  0  0  0  0  0  0  0  0  0  # atno 10764 bound_to 10752
  153.0038  135.5531  154.6247 H   0  0  0  0  0  0  0  0  0  0  0  0  # atno 10765 bound_to 10752
  140.4506  134.1228  155.7702 H   0  0  0  0  0  0  0  0  0  0  0  0  # atno 11005 bound_to 11000
  144.7465  140.5081  143.6832 LP  0  0  0  0  0  0  0  0  0  0  0  0  # atno 17320 bound_to 7965
  145.5775  139.1487  143.3254 LP  0  0  0  0  0  0  0  0  0  0  0  0  # atno 17321 bound_to 7965
  139.5475  144.7310  151.4539 LP  0  0  0  0  0  0  0  0  0  0  0  0  # atno 17342 bound_to 10162
  140.6764  143.8181  150.7063 LP  0  0  0  0  0  0  0  0  0  0  0  0  # atno 17343 bound_to 10162
  156.0797  130.3674  150.0606 LP  0  0  0  0  0  0  0  0  0  0  0  0  # atno 17370 bound_to 10713
  156.8753  130.9538  151.3605 LP  0  0  0  0  0  0  0  0  0  0  0  0  # atno 17371 bound_to 10713
  141.1665  133.8692  157.1698 LP  0  0  0  0  0  0  0  0  0  0  0  0  # atno 17394 bound_to 11000
  140.0009  135.0028  157.0187 LP  0  0  0  0  0  0  0  0  0  0  0  0  # atno 17395 bound_to 11000

$$$$
