AV-unprocessed.smi:498|AV-procd|sdf|2731|dock8
  -GOLD-   2262023183D 1   1.00000     0.00000
 Structure written by MMmdl.
 42 44  0  0  0  0  0  0  0  0  3 V2000
  147.4402  139.7462  152.9394 C   0  0  0  0  0  0  0  0  0  0  0  0
  147.7941  140.9327  153.8392 C   0  0  0  0  0  0  0  0  0  0  0  0
  149.1933  140.9359  154.0673 O   0  0  0  0  0  0  0  0  0  0  0  0
  149.5653  140.1727  155.2019 C   0  0  0  0  0  0  0  0  0  0  0  0
  149.1901  140.9549  156.4668 C   0  0  0  0  0  0  0  0  0  0  0  0
  150.1137  140.6713  157.5833 N   0  0  0  0  0  0  0  0  0  0  0  0
  150.3170  139.5435  158.3402 C   0  0  0  0  0  0  0  0  0  0  0  0
  149.6310  138.2069  158.2375 C   0  0  0  0  0  0  0  0  0  0  0  0
  149.0896  137.7589  159.5195 N   0  5  0  0  0  0  0  0  0  0  0  0
  149.1287  136.4662  159.9476 C   0  0  0  0  0  0  0  0  0  0  0  0
  149.7926  135.5136  159.5250 O   0  0  0  0  0  0  0  0  0  0  0  0
  148.2505  136.2428  161.1194 C   0  0  0  0  0  0  0  0  0  0  0  0
  147.9213  135.1081  161.8172 C   0  0  0  0  0  0  0  0  0  0  0  0
  147.0507  135.5089  162.8678 C   0  0  0  0  0  0  0  0  0  0  0  0
  146.9166  136.8617  162.7470 C   0  0  0  0  0  0  0  0  0  0  0  0
  147.6440  137.3234  161.6939 O   0  0  0  0  0  0  0  0  0  0  0  0
  151.3075  139.8406  159.2309 N   0  3  0  0  0  0  0  0  0  0  0  0
  151.7442  141.1508  159.0497 C   0  0  0  0  0  0  0  0  0  0  0  0
  152.7222  141.8840  159.7138 C   0  0  0  0  0  0  0  0  0  0  0  0
  152.9296  143.2070  159.2719 C   0  0  0  0  0  0  0  0  0  0  0  0
  152.1793  143.7509  158.2093 C   0  0  0  0  0  0  0  0  0  0  0  0
  151.1890  142.9969  157.5457 C   0  0  0  0  0  0  0  0  0  0  0  0
  150.9873  141.6897  157.9904 C   0  0  0  0  0  0  0  0  0  0  0  0
  146.3692  139.7149  152.7383 H   0  0  0  0  0  0  0  0  0  0  0  0
  147.7200  138.8025  153.4081 H   0  0  0  0  0  0  0  0  0  0  0  0
  147.9585  139.8127  151.9824 H   0  0  0  0  0  0  0  0  0  0  0  0
  147.4884  141.8650  153.3624 H   0  0  0  0  0  0  0  0  0  0  0  0
  147.2578  140.8534  154.7858 H   0  0  0  0  0  0  0  0  0  0  0  0
  149.0524  139.2096  155.1922 H   0  0  0  0  0  0  0  0  0  0  0  0
  150.6383  139.9765  155.1820 H   0  0  0  0  0  0  0  0  0  0  0  0
  149.1832  142.0280  156.2753 H   0  0  0  0  0  0  0  0  0  0  0  0
  148.1761  140.7045  156.7787 H   0  0  0  0  0  0  0  0  0  0  0  0
  148.8469  138.2850  157.4845 H   0  0  0  0  0  0  0  0  0  0  0  0
  150.3574  137.5002  157.8349 H   0  0  0  0  0  0  0  0  0  0  0  0
  148.2662  134.1084  161.5977 H   0  0  0  0  0  0  0  0  0  0  0  0
  146.5857  134.8869  163.6183 H   0  0  0  0  0  0  0  0  0  0  0  0
  146.3734  137.6152  163.2979 H   0  0  0  0  0  0  0  0  0  0  0  0
  153.2984  141.4656  160.5259 H   0  0  0  0  0  0  0  0  0  0  0  0
  153.6797  143.8153  159.7562 H   0  0  0  0  0  0  0  0  0  0  0  0
  152.3674  144.7676  157.8961 H   0  0  0  0  0  0  0  0  0  0  0  0
  150.6232  143.4243  156.7312 H   0  0  0  0  0  0  0  0  0  0  0  0
  151.6460  139.1761  159.9153 H   0  0  0  0  0  0  0  0  0  0  0  0
  1  2  1  0  0  0  0
  1 24  1  0  0  0  0
  1 25  1  0  0  0  0
  1 26  1  0  0  0  0
  2  3  1  0  0  0  0
  2 27  1  0  0  0  0
  2 28  1  0  0  0  0
  3  4  1  0  0  0  0
  4  5  1  0  0  0  0
  4 29  1  0  0  0  0
  4 30  1  0  0  0  0
  5  6  1  0  0  0  0
  5 31  1  0  0  0  0
  5 32  1  0  0  0  0
  6 23  1  0  0  0  0
  6  7  1  0  0  0  0
  7  8  1  0  0  0  0
  7 17  2  0  0  0  0
  8  9  1  0  0  0  0
  8 33  1  0  0  0  0
  8 34  1  0  0  0  0
  9 10  1  0  0  0  0
 10 11  2  0  0  0  0
 10 12  1  0  0  0  0
 12 16  1  0  0  0  0
 12 13  2  0  0  0  0
 13 14  1  0  0  0  0
 13 35  1  0  0  0  0
 14 15  2  0  0  0  0
 14 36  1  0  0  0  0
 15 16  1  0  0  0  0
 15 37  1  0  0  0  0
 17 18  1  0  0  0  0
 17 42  1  0  0  0  0
 18 23  2  0  0  0  0
 18 19  1  0  0  0  0
 19 20  2  0  0  0  0
 19 38  1  0  0  0  0
 20 21  1  0  0  0  0
 20 39  1  0  0  0  0
 21 22  2  0  0  0  0
 21 40  1  0  0  0  0
 22 23  1  0  0  0  0
 22 41  1  0  0  0  0
M  CHG  1   9  -1
M  CHG  1  17   1
M  END
> <s_m_source_file>
AV-unprocessed.smi

> <i_m_source_file_index>
498

> <i_lp_mmshare_version>
43012

> <i_f3d_flags>
0

> <s_epik_input>
W0NIM11bQ0gyXU9bQ0gyXVtDSDJdbihjKGMxMilbY0hdW2NIXVtjSF1bY0hdMiljKG4xKVtDSDJdW05IXUMoPU8pYzNbY0hdW2NIXVtjSF1vMw==

> <s_epik_cmdline>
J2VwaWtfcHl0aG9uJywgJy1waCcsICc3LjAnLCAnLXRuJywgJzgnLCAnLW1hJywgJzIwMCcsICctbWV0YWxfYmluZGluZycsICctaW1hZScsICc8aW5maWxlLm1hZT4nLCAnLW9tYWUnLCAnPG91dGZpbGUubWFlPic=

> <r_epik_Ionization_Penalty>
6.05973

> <r_epik_Ionization_Penalty_Charging>
6.05973

> <r_epik_Ionization_Penalty_Neutral>
2.61143e-12

> <r_epik_State_Penalty>
7.27867

> <r_epik_Charging_Adjusted_Penalty>
13.3384

> <i_epik_Tot_Q>
0

> <i_epik_Tot_abs_Q>
2

> <r_epik_Metal_State_Penalty>
3.28829

> <b_epik_Metal_Only>
1

> <s_lp_Force_Field>
OPLS_2005

> <r_lp_Energy>
13.3144

> <b_lp_Chiralities_Consistent>
1

> <s_lp_Variant>
AV-unprocessed.smi:498-4

> <Gold.Version>
5.8.1

> <Gold.Id.Protein>
6NUR|6NUR_protein|mol2

> <Gold.PLP.Fitness>
58.8756

> <Gold.PLP.PLP>
-50.8432

> <Gold.PLP.part.hbond>
-5.5948

> <Gold.PLP.part.metal>
0.0000

> <Gold.PLP.part.buried>
-6.0252

> <Gold.PLP.part.nonpolar>
-40.1361

> <Gold.PLP.part.repulsive>
0.3716

> <Gold.PLP.ligand.clash>
0.0000

> <Gold.PLP.ligand.torsion>
0.7713

> <Gold.PLP.Chemscore.Hbond>
3.1410

> <Gold.PLP.Chemscore.CHOScore>
0.0000

> <Gold.PLP.Chemscore.Metal>
0.0000

> <Gold.Chemscore.Hbonds>
donor molecule, donor type, donor heavy atom, donor atom, acceptor molecule, acceptor atom, score
      P1  H  6896  6908       L1    11  0.26
      P1  H  6931  6943       L1    16  0.84
      P1  H  6934  6947       L1    16  0.70
      P1  H  8011  8017       L1     3  0.14

> <Gold.PLP.Chemscore.Internal.Correction>
0.1519

> <Gold.Rescore>
     Score         DG    S(hbond)    S(metal)    S(lipo)     H(rot)  DE(clash)    DE(int)     intcor
     21.58     -22.52       2.43        0.00     119.20       1.96       0.12       0.81       ----

> <Gold.Chemscore.Fitness>
21.5829

> <Gold.Chemscore.DG>
-22.5180

> <Gold.Chemscore.ZeroCoef>
-5.4800

> <Gold.Chemscore.Hbond>
2.4306

> <Gold.Chemscore.Metal>
0.0000

> <Gold.Chemscore.Lipo>
119.2040

> <Gold.Chemscore.Internal_Hbond>
0.0000

> <Gold.Chemscore.DEClash>
0.1242

> <Gold.Chemscore.DEInternal>
0.8109

> <Gold.Chemscore.Rot>
1.9637

> <Gold.Chemscore.Internal.Correction>
   9.000000E+99

> <Gold.Chemscore.Hbonds>
donor molecule, donor type, donor heavy atom, donor atom, acceptor molecule, acceptor atom, score
      P1  H  6896  6908       L1    11  0.25
      P1  H  6931  6943       L1    16  0.16
      P1  H  6934  6947       L1    16  0.67
      P1  H  8011  8017       L1     3  0.03

> <Gold.Chemscore.Hbond.Weighted>
-8.1181

> <Gold.Chemscore.Metal.Weighted>
-0.0000

> <Gold.Chemscore.Lipo.Weighted>
-13.9469

> <Gold.Chemscore.Internal_Hbond.Weighted>
0.0000

> <Gold.Chemscore.DEClash.Weighted>
0.1242

> <Gold.Chemscore.DEInternal.Weighted>
0.8109

> <Gold.Chemscore.Rot.Weighted>
5.0270

> <Gold.Chemscore.Internal.Correction.Weighted>
   9.000000E+99

> <Gold.Protein.RotatedTorsions>
[ 6907 6896 6895 6894 ] final  178.68 input  -60.11 | X-H torsion
[ 7974 7965 7964 7962 ] final -143.00 input  175.53 | X-H torsion
[ 8008 7997 7996 7995 ] final   88.92 input   59.86 | X-H torsion
[ 10167 10162 10161 10158 ] final   90.76 input  -65.29 | X-H torsion
[ 10718 10713 10712 10709 ] final -126.85 input   66.30 | X-H torsion
[ 10763 10752 10751 10750 ] final -179.55 input  -60.55 | X-H torsion
[ 11005 11000 10999 10996 ] final  -81.17 input  -57.11 | X-H torsion

> <Gold.Protein.ActiveResidues>
 VAL166  LYS551  ARG553  GLY616  TRP617  ASP618  TYR619  PRO620  LYS621  CYS622 
 ASP623  PHE694  ASN695  SER759  ASP760  ASP761  ALA762  ILE779  LEU786  VAL792 
 PHE793  MET794  SER795  GLU796  ALA797  LYS798  CYS799  TRP800  GLU811  SER814 

> <Gold.Protein.RotatedAtoms>
  151.6839  133.3311  159.3225 H   0  0  0  0  0  0  0  0  0  0  0  0  # atno 6907 bound_to 6896
  150.7810  134.6757  159.6425 H   0  0  0  0  0  0  0  0  0  0  0  0  # atno 6908 bound_to 6896
  152.3867  134.6509  160.0175 H   0  0  0  0  0  0  0  0  0  0  0  0  # atno 6909 bound_to 6896
  144.8401  140.5888  143.5458 H   0  0  0  0  0  0  0  0  0  0  0  0  # atno 7974 bound_to 7965
  155.9937  140.3366  155.6777 H   0  0  0  0  0  0  0  0  0  0  0  0  # atno 8008 bound_to 7997
  155.6386  140.0693  157.2644 H   0  0  0  0  0  0  0  0  0  0  0  0  # atno 8009 bound_to 7997
  154.4227  140.1747  156.1536 H   0  0  0  0  0  0  0  0  0  0  0  0  # atno 8010 bound_to 7997
  139.8441  144.6626  150.9247 H   0  0  0  0  0  0  0  0  0  0  0  0  # atno 10167 bound_to 10162
  156.1803  130.6727  151.0296 H   0  0  0  0  0  0  0  0  0  0  0  0  # atno 10718 bound_to 10713
  154.5337  135.2801  155.1158 H   0  0  0  0  0  0  0  0  0  0  0  0  # atno 10763 bound_to 10752
  154.2668  135.6311  153.5299 H   0  0  0  0  0  0  0  0  0  0  0  0  # atno 10764 bound_to 10752
  152.9962  135.5618  154.5857 H   0  0  0  0  0  0  0  0  0  0  0  0  # atno 10765 bound_to 10752
  141.1667  133.7184  156.8382 H   0  0  0  0  0  0  0  0  0  0  0  0  # atno 11005 bound_to 11000
  145.4711  139.1503  143.3813 LP  0  0  0  0  0  0  0  0  0  0  0  0  # atno 17320 bound_to 7965
  146.2695  140.4844  142.8820 LP  0  0  0  0  0  0  0  0  0  0  0  0  # atno 17321 bound_to 7965
  140.7795  143.3886  151.1350 LP  0  0  0  0  0  0  0  0  0  0  0  0  # atno 17342 bound_to 10162
  139.7529  143.8751  152.3081 LP  0  0  0  0  0  0  0  0  0  0  0  0  # atno 17343 bound_to 10162
  157.6864  131.0823  150.7231 LP  0  0  0  0  0  0  0  0  0  0  0  0  # atno 17370 bound_to 10713
  156.7289  130.4703  149.5504 LP  0  0  0  0  0  0  0  0  0  0  0  0  # atno 17371 bound_to 10713
  140.2002  134.8902  157.3160 LP  0  0  0  0  0  0  0  0  0  0  0  0  # atno 17394 bound_to 11000
  140.2195  134.4040  155.7572 LP  0  0  0  0  0  0  0  0  0  0  0  0  # atno 17395 bound_to 11000

$$$$
