AV-unprocessed.smi:673|AV-procd|sdf|3298|dock9
  -GOLD-   22720 0263D 1   1.00000     0.00000
 Structure written by MMmdl.
 45 46  0  0  0  0  0  0  0  0  1 V2000
  146.0543  137.6481  151.7973 C   0  0  0  0  0  0  0  0  0  0  0  0
  145.4483  136.2434  151.9445 C   0  0  1  0  0  0  0  0  0  0  0  0
  144.9447  135.6541  150.6054 C   0  0  0  0  0  0  0  0  0  0  0  0
  145.1469  134.2198  150.4862 N   0  0  0  0  0  0  0  0  0  0  0  0
  144.2786  133.2373  150.2391 C   0  0  0  0  0  0  0  0  0  0  0  0
  144.8300  132.0324  150.2004 N   0  0  0  0  0  0  0  0  0  0  0  0
  146.1297  132.3680  150.4553 C   0  0  0  0  0  0  0  0  0  0  0  0
  146.3733  133.6658  150.6360 N   0  0  0  0  0  0  0  0  0  0  0  0
  146.4284  135.3631  152.5759 N   0  0  0  0  0  0  0  0  0  0  0  0
  146.3220  134.8084  153.7962 C   0  0  0  0  0  0  0  0  0  0  0  0
  145.3469  135.0106  154.5224 O   0  0  0  0  0  0  0  0  0  0  0  0
  147.3352  133.9639  154.1261 N   0  0  0  0  0  0  0  0  0  0  0  0
  148.2475  133.3489  153.1402 C   0  0  0  0  0  0  0  0  0  0  0  0
  149.6888  133.1214  153.6382 C   0  0  0  0  0  0  0  0  0  0  0  0
  150.3223  134.3332  154.3553 C   0  0  0  0  0  0  0  0  0  0  0  0
  150.0424  134.4643  155.8777 C   0  0  0  0  0  0  0  0  0  0  0  0
  150.6130  133.2561  156.6548 C   0  0  0  0  0  0  0  0  0  0  0  0
  150.7825  135.7198  156.3832 C   0  0  0  0  0  0  0  0  0  0  0  0
  148.5360  134.6469  156.1951 C   0  0  0  0  0  0  0  0  0  0  0  0
  147.5824  133.6309  155.5366 C   0  0  0  0  0  0  0  0  0  0  0  0
  145.3516  138.3282  151.3149 H   0  0  0  0  0  0  0  0  0  0  0  0
  146.9686  137.6352  151.2030 H   0  0  0  0  0  0  0  0  0  0  0  0
  146.3027  138.0696  152.7720 H   0  0  0  0  0  0  0  0  0  0  0  0
  144.5905  136.3300  152.6133 H   0  0  0  0  0  0  0  0  0  0  0  0
  143.8856  135.8717  150.4593 H   0  0  0  0  0  0  0  0  0  0  0  0
  145.4672  136.1349  149.7777 H   0  0  0  0  0  0  0  0  0  0  0  0
  143.2240  133.4074  150.0791 H   0  0  0  0  0  0  0  0  0  0  0  0
  146.9199  131.6340  150.5099 H   0  0  0  0  0  0  0  0  0  0  0  0
  147.2445  135.1306  152.0289 H   0  0  0  0  0  0  0  0  0  0  0  0
  147.8184  132.4044  152.8038 H   0  0  0  0  0  0  0  0  0  0  0  0
  148.3353  133.9777  152.2531 H   0  0  0  0  0  0  0  0  0  0  0  0
  149.7439  132.2241  154.2512 H   0  0  0  0  0  0  0  0  0  0  0  0
  150.2975  132.8892  152.7636 H   0  0  0  0  0  0  0  0  0  0  0  0
  151.4024  134.2684  154.2162 H   0  0  0  0  0  0  0  0  0  0  0  0
  150.0231  135.2474  153.8406 H   0  0  0  0  0  0  0  0  0  0  0  0
  150.5299  133.4066  157.7317 H   0  0  0  0  0  0  0  0  0  0  0  0
  151.6694  133.1044  156.4303 H   0  0  0  0  0  0  0  0  0  0  0  0
  150.0956  132.3252  156.4295 H   0  0  0  0  0  0  0  0  0  0  0  0
  150.6266  135.8721  157.4520 H   0  0  0  0  0  0  0  0  0  0  0  0
  150.4376  136.6200  155.8729 H   0  0  0  0  0  0  0  0  0  0  0  0
  151.8578  135.6442  156.2178 H   0  0  0  0  0  0  0  0  0  0  0  0
  148.3998  134.5954  157.2761 H   0  0  0  0  0  0  0  0  0  0  0  0
  148.2200  135.6542  155.9199 H   0  0  0  0  0  0  0  0  0  0  0  0
  146.6392  133.6253  156.0859 H   0  0  0  0  0  0  0  0  0  0  0  0
  147.9491  132.6103  155.6380 H   0  0  0  0  0  0  0  0  0  0  0  0
  1  2  1  0  0  0  0
  1 21  1  0  0  0  0
  1 22  1  0  0  0  0
  1 23  1  0  0  0  0
  2  3  1  0  0  0  0
  2  9  1  0  0  0  0
  2 24  1  0  0  0  0
  3  4  1  0  0  0  0
  3 25  1  0  0  0  0
  3 26  1  0  0  0  0
  4  8  1  0  0  0  0
  4  5  1  0  0  0  0
  5  6  2  0  0  0  0
  5 27  1  0  0  0  0
  6  7  1  0  0  0  0
  7  8  2  0  0  0  0
  7 28  1  0  0  0  0
  9 10  1  0  0  0  0
  9 29  1  0  0  0  0
 10 11  2  0  0  0  0
 10 12  1  0  0  0  0
 12 20  1  0  0  0  0
 12 13  1  0  0  0  0
 13 14  1  0  0  0  0
 13 30  1  0  0  0  0
 13 31  1  0  0  0  0
 14 15  1  0  0  0  0
 14 32  1  0  0  0  0
 14 33  1  0  0  0  0
 15 16  1  0  0  0  0
 15 34  1  0  0  0  0
 15 35  1  0  0  0  0
 16 17  1  0  0  0  0
 16 18  1  0  0  0  0
 16 19  1  0  0  0  0
 17 36  1  0  0  0  0
 17 37  1  0  0  0  0
 17 38  1  0  0  0  0
 18 39  1  0  0  0  0
 18 40  1  0  0  0  0
 18 41  1  0  0  0  0
 19 20  1  0  0  0  0
 19 42  1  0  0  0  0
 19 43  1  0  0  0  0
 20 44  1  0  0  0  0
 20 45  1  0  0  0  0
M  END
> <s_m_source_file>
AV-unprocessed.smi

> <i_m_source_file_index>
673

> <i_lp_mmshare_version>
43012

> <i_f3d_flags>
0

> <s_epik_input>
bjFbY0hdbltjSF1uMVtDSDJdW0NAQEhdKFtDSDNdKVtOSF1DKD1PKU4oW0NIMl1bQ0gyXTIpW0NIMl1bQ0gyXVtDSDJdQzIoW0NIM10pW0NIM10=

> <s_epik_cmdline>
J2VwaWtfcHl0aG9uJywgJy1waCcsICc3LjAnLCAnLXRuJywgJzgnLCAnLW1hJywgJzIwMCcsICctbWV0YWxfYmluZGluZycsICctaW1hZScsICc8aW5maWxlLm1hZT4nLCAnLW9tYWUnLCAnPG91dGZpbGUubWFlPic=

> <r_lp_tautomer_probability>
1

> <r_epik_Ionization_Penalty>
0.000118908

> <r_epik_Ionization_Penalty_Charging>
0

> <r_epik_Ionization_Penalty_Neutral>
0.000118908

> <r_epik_State_Penalty>
-0

> <r_epik_Charging_Adjusted_Penalty>
0

> <i_epik_Tot_Q>
0

> <i_epik_Tot_abs_Q>
0

> <r_epik_Metal_State_Penalty>
-0

> <b_epik_Metal_Only>
0

> <s_lp_Force_Field>
OPLS_2005

> <r_lp_Energy>
39.1702

> <b_lp_Chiralities_Consistent>
1

> <s_lp_Variant>
AV-unprocessed.smi:673-2

> <Gold.Version>
5.8.1

> <Gold.Id.Protein>
6NUR|6NUR_protein|mol2

> <Gold.PLP.Fitness>
34.6212

> <Gold.PLP.PLP>
-28.7186

> <Gold.PLP.part.hbond>
-1.0000

> <Gold.PLP.part.metal>
0.0000

> <Gold.PLP.part.buried>
-2.5115

> <Gold.PLP.part.nonpolar>
-24.8447

> <Gold.PLP.part.repulsive>
0.3958

> <Gold.PLP.ligand.clash>
0.0000

> <Gold.PLP.ligand.torsion>
0.7483

> <Gold.PLP.Chemscore.Hbond>
0.4376

> <Gold.PLP.Chemscore.CHOScore>
2.0000

> <Gold.PLP.Chemscore.Metal>
0.0000

> <Gold.Chemscore.Hbonds>
donor molecule, donor type, donor heavy atom, donor atom, acceptor molecule, acceptor atom, score
      L1  H     9    29       P1  7948  0.56
      L1  C     5    27       P1 10186  1.00
      L1  C     7    28       P1 10747  1.00

> <Gold.PLP.Chemscore.Internal.Correction>
0.0864

> <Gold.Rescore>
     Score         DG    S(hbond)    S(metal)    S(lipo)     H(rot)  DE(clash)    DE(int)     intcor
      8.68      -9.35       0.70        0.00      53.93       1.86       0.08       0.59       ----

> <Gold.Chemscore.Fitness>
8.6835

> <Gold.Chemscore.DG>
-9.3477

> <Gold.Chemscore.ZeroCoef>
-5.4800

> <Gold.Chemscore.Hbond>
0.6955

> <Gold.Chemscore.Metal>
0.0000

> <Gold.Chemscore.Lipo>
53.9321

> <Gold.Chemscore.Internal_Hbond>
0.0000

> <Gold.Chemscore.DEClash>
0.0756

> <Gold.Chemscore.DEInternal>
0.5885

> <Gold.Chemscore.Rot>
1.8614

> <Gold.Chemscore.Internal.Correction>
   9.000000E+99

> <Gold.Chemscore.Hbonds>
donor molecule, donor type, donor heavy atom, donor atom, acceptor molecule, acceptor atom, score
      L1  H     9    29       P1  7948  0.53

> <Gold.Chemscore.Hbond.Weighted>
-2.3230

> <Gold.Chemscore.Metal.Weighted>
-0.0000

> <Gold.Chemscore.Lipo.Weighted>
-6.3101

> <Gold.Chemscore.Internal_Hbond.Weighted>
0.0000

> <Gold.Chemscore.DEClash.Weighted>
0.0756

> <Gold.Chemscore.DEInternal.Weighted>
0.5885

> <Gold.Chemscore.Rot.Weighted>
4.7653

> <Gold.Chemscore.Internal.Correction.Weighted>
   9.000000E+99

> <Gold.Protein.RotatedTorsions>
[ 6907 6896 6895 6894 ] final   93.15 input  -60.11 | X-H torsion
[ 7974 7965 7964 7962 ] final   -7.57 input  175.53 | X-H torsion
[ 8008 7997 7996 7995 ] final  177.38 input   59.86 | X-H torsion
[ 10167 10162 10161 10158 ] final  151.95 input  -65.29 | X-H torsion
[ 10718 10713 10712 10709 ] final  -75.05 input   66.30 | X-H torsion
[ 10763 10752 10751 10750 ] final  -38.91 input  -60.55 | X-H torsion
[ 11005 11000 10999 10996 ] final -110.15 input  -57.11 | X-H torsion

> <Gold.Protein.ActiveResidues>
 VAL166  LYS551  ARG553  GLY616  TRP617  ASP618  TYR619  PRO620  LYS621  CYS622 
 ASP623  PHE694  ASN695  SER759  ASP760  ASP761  ALA762  ILE779  LEU786  VAL792 
 PHE793  MET794  SER795  GLU796  ALA797  LYS798  CYS799  TRP800  GLU811  SER814 

> <Gold.Protein.RotatedAtoms>
  152.5453  134.1392  159.8471 H   0  0  0  0  0  0  0  0  0  0  0  0  # atno 6907 bound_to 6896
  151.1429  133.4952  159.2604 H   0  0  0  0  0  0  0  0  0  0  0  0  # atno 6908 bound_to 6896
  151.1553  135.0257  159.8741 H   0  0  0  0  0  0  0  0  0  0  0  0  # atno 6909 bound_to 6896
  146.2303  140.2339  142.8341 H   0  0  0  0  0  0  0  0  0  0  0  0  # atno 7974 bound_to 7965
  156.0663  140.1360  156.9882 H   0  0  0  0  0  0  0  0  0  0  0  0  # atno 8008 bound_to 7997
  154.4508  140.0981  156.6663 H   0  0  0  0  0  0  0  0  0  0  0  0  # atno 8009 bound_to 7997
  155.5299  140.3458  155.4426 H   0  0  0  0  0  0  0  0  0  0  0  0  # atno 8010 bound_to 7997
  139.4836  144.5399  151.7582 H   0  0  0  0  0  0  0  0  0  0  0  0  # atno 10167 bound_to 10162
  156.0221  130.4431  150.2984 H   0  0  0  0  0  0  0  0  0  0  0  0  # atno 10718 bound_to 10713
  153.9207  135.6782  153.4748 H   0  0  0  0  0  0  0  0  0  0  0  0  # atno 10763 bound_to 10752
  153.1030  135.4819  154.8898 H   0  0  0  0  0  0  0  0  0  0  0  0  # atno 10764 bound_to 10752
  154.7479  135.3177  154.8567 H   0  0  0  0  0  0  0  0  0  0  0  0  # atno 10765 bound_to 10752
  141.0808  133.9224  157.2293 H   0  0  0  0  0  0  0  0  0  0  0  0  # atno 11005 bound_to 11000
  144.9537  140.8204  143.5556 LP  0  0  0  0  0  0  0  0  0  0  0  0  # atno 17320 bound_to 7965
  145.2302  139.2118  143.5047 LP  0  0  0  0  0  0  0  0  0  0  0  0  # atno 17321 bound_to 7965
  140.4937  144.1273  150.5955 LP  0  0  0  0  0  0  0  0  0  0  0  0  # atno 17342 bound_to 10162
  140.4142  143.2642  151.9795 LP  0  0  0  0  0  0  0  0  0  0  0  0  # atno 17343 bound_to 10162
  157.1087  131.0215  151.3057 LP  0  0  0  0  0  0  0  0  0  0  0  0  # atno 17370 bound_to 10713
  157.4722  130.7715  149.7334 LP  0  0  0  0  0  0  0  0  0  0  0  0  # atno 17371 bound_to 10713
  139.9621  135.0151  156.9290 LP  0  0  0  0  0  0  0  0  0  0  0  0  # atno 17394 bound_to 11000
  140.5473  134.0661  155.7359 LP  0  0  0  0  0  0  0  0  0  0  0  0  # atno 17395 bound_to 11000

$$$$
