AV-unprocessed.smi:2026|AV-procd|sdf|8207|dock4
  -GOLD-   2272010463D 1   1.00000     0.00000
 Structure written by MMmdl.
 46 48  0  0  0  0  0  0  0  0  3 V2000
  152.1816  144.1564  160.6266 C   0  0  0  0  0  0  0  0  0  0  0  0
  151.9836  143.1477  159.5081 C   0  0  0  0  0  0  0  0  0  0  0  0
  151.1160  143.4824  158.4431 C   0  0  0  0  0  0  0  0  0  0  0  0
  150.9551  142.5381  157.4355 C   0  0  0  0  0  0  0  0  0  0  0  0
  150.1865  142.5610  156.2688 N   0  3  0  0  0  0  0  0  0  0  0  0
  150.3565  141.3924  155.5888 C   0  0  0  0  0  0  0  0  0  0  0  0
  151.2217  140.6259  156.3052 N   0  0  0  0  0  0  0  0  0  0  0  0
  151.7542  139.2853  156.0370 C   0  0  0  0  0  0  0  0  0  0  0  0
  151.0183  138.1928  156.8403 C   0  0  2  0  0  0  0  0  0  0  0  0
  151.6141  136.9388  156.5757 O   0  0  0  0  0  0  0  0  0  0  0  0
  149.5110  138.0998  156.5285 C   0  0  0  0  0  0  0  0  0  0  0  0
  148.7273  137.6556  157.6889 N   0  0  0  0  0  0  0  0  0  0  0  0
  147.7802  138.3807  158.3150 C   0  0  0  0  0  0  0  0  0  0  0  0
  147.4743  139.5166  157.9538 O   0  0  0  0  0  0  0  0  0  0  0  0
  147.2562  137.6974  159.3596 N   0  5  0  0  0  0  0  0  0  0  0  0
  147.9042  136.4045  159.4466 C   0  0  0  0  0  0  0  0  0  0  0  0
  148.6375  136.2696  160.7947 C   0  0  0  0  0  0  0  0  0  0  0  0
  146.8732  135.2776  159.2485 C   0  0  0  0  0  0  0  0  0  0  0  0
  148.8805  136.4686  158.2860 C   0  0  0  0  0  0  0  0  0  0  0  0
  149.6695  135.5719  157.9854 O   0  0  0  0  0  0  0  0  0  0  0  0
  151.6215  141.2986  157.4635 C   0  0  0  0  0  0  0  0  0  0  0  0
  152.4813  140.9536  158.5026 C   0  0  0  0  0  0  0  0  0  0  0  0
  152.6590  141.8995  159.5365 C   0  0  0  0  0  0  0  0  0  0  0  0
  153.5924  141.5497  160.6830 C   0  0  0  0  0  0  0  0  0  0  0  0
  151.5696  145.0461  160.4749 H   0  0  0  0  0  0  0  0  0  0  0  0
  153.2237  144.4725  160.6752 H   0  0  0  0  0  0  0  0  0  0  0  0
  151.9052  143.7224  161.5878 H   0  0  0  0  0  0  0  0  0  0  0  0
  150.6012  144.4318  158.4137 H   0  0  0  0  0  0  0  0  0  0  0  0
  149.8928  141.1240  154.6506 H   0  0  0  0  0  0  0  0  0  0  0  0
  151.6818  139.1114  154.9632 H   0  0  0  0  0  0  0  0  0  0  0  0
  152.8184  139.2892  156.2768 H   0  0  0  0  0  0  0  0  0  0  0  0
  151.1443  138.3809  157.9068 H   0  0  0  0  0  0  0  0  0  0  0  0
  152.5482  137.0221  156.6911 H   0  0  0  0  0  0  0  0  0  0  0  0
  149.1480  139.0600  156.1586 H   0  0  0  0  0  0  0  0  0  0  0  0
  149.3476  137.3936  155.7125 H   0  0  0  0  0  0  0  0  0  0  0  0
  149.1692  135.3200  160.8637 H   0  0  0  0  0  0  0  0  0  0  0  0
  147.9364  136.3117  161.6288 H   0  0  0  0  0  0  0  0  0  0  0  0
  149.3658  137.0679  160.9419 H   0  0  0  0  0  0  0  0  0  0  0  0
  147.3450  134.2960  159.3066 H   0  0  0  0  0  0  0  0  0  0  0  0
  146.3775  135.3468  158.2789 H   0  0  0  0  0  0  0  0  0  0  0  0
  146.0990  135.3134  160.0157 H   0  0  0  0  0  0  0  0  0  0  0  0
  152.9963  140.0043  158.5189 H   0  0  0  0  0  0  0  0  0  0  0  0
  154.0713  140.5828  160.5266 H   0  0  0  0  0  0  0  0  0  0  0  0
  153.0421  141.5014  161.6227 H   0  0  0  0  0  0  0  0  0  0  0  0
  154.3807  142.2967  160.7795 H   0  0  0  0  0  0  0  0  0  0  0  0
  149.5910  143.3168  155.9560 H   0  0  0  0  0  0  0  0  0  0  0  0
  1  2  1  0  0  0  0
  1 25  1  0  0  0  0
  1 26  1  0  0  0  0
  1 27  1  0  0  0  0
  2 23  1  0  0  0  0
  2  3  2  0  0  0  0
  3  4  1  0  0  0  0
  3 28  1  0  0  0  0
  4 21  2  0  0  0  0
  4  5  1  0  0  0  0
  5  6  2  0  0  0  0
  5 46  1  0  0  0  0
  6  7  1  0  0  0  0
  6 29  1  0  0  0  0
  7  8  1  0  0  0  0
  7 21  1  0  0  0  0
  8  9  1  0  0  0  0
  8 30  1  0  0  0  0
  8 31  1  0  0  0  0
  9 10  1  0  0  0  0
  9 11  1  0  0  0  0
  9 32  1  0  0  0  0
 10 33  1  0  0  0  0
 11 12  1  0  0  0  0
 11 34  1  0  0  0  0
 11 35  1  0  0  0  0
 12 19  1  0  0  0  0
 12 13  1  0  0  0  0
 13 14  2  0  0  0  0
 13 15  1  0  0  0  0
 15 16  1  0  0  0  0
 16 17  1  0  0  0  0
 16 18  1  0  0  0  0
 16 19  1  0  0  0  0
 17 36  1  0  0  0  0
 17 37  1  0  0  0  0
 17 38  1  0  0  0  0
 18 39  1  0  0  0  0
 18 40  1  0  0  0  0
 18 41  1  0  0  0  0
 19 20  2  0  0  0  0
 21 22  1  0  0  0  0
 22 23  2  0  0  0  0
 22 42  1  0  0  0  0
 23 24  1  0  0  0  0
 24 43  1  0  0  0  0
 24 44  1  0  0  0  0
 24 45  1  0  0  0  0
M  CHG  1   5   1
M  CHG  1  15  -1
M  END
> <s_m_source_file>
AV-unprocessed.smi

> <i_m_source_file_index>
2026

> <i_lp_mmshare_version>
43012

> <i_f3d_flags>
0

> <s_epik_input>
W0NIM11jKFtjSF0xKWMoW0NIM10pW2NIXWMoYzEyKW4oW2NIXW4yKVtDSDJdW0NASF0oW09IXSlbQ0gyXU4oQzM9TylDKD1PKVtOSF1DMyhbQ0gzXSlbQ0gzXQ==

> <s_epik_cmdline>
J2VwaWtfcHl0aG9uJywgJy1waCcsICc3LjAnLCAnLXRuJywgJzgnLCAnLW1hJywgJzIwMCcsICctbWV0YWxfYmluZGluZycsICctaW1hZScsICc8aW5maWxlLm1hZT4nLCAnLW9tYWUnLCAnPG91dGZpbGUubWFlPic=

> <r_lp_tautomer_probability>
1

> <r_epik_Ionization_Penalty>
6.70784

> <r_epik_Ionization_Penalty_Charging>
6.70784

> <r_epik_Ionization_Penalty_Neutral>
1.13852e-06

> <r_epik_State_Penalty>
6.78089

> <r_epik_Charging_Adjusted_Penalty>
13.4887

> <i_epik_Tot_Q>
0

> <i_epik_Tot_abs_Q>
2

> <r_epik_Metal_State_Penalty>
2.84685

> <b_epik_Metal_Only>
1

> <s_lp_Force_Field>
OPLS_2005

> <r_lp_Energy>
17.8482

> <b_lp_Chiralities_Consistent>
1

> <s_lp_Variant>
AV-unprocessed.smi:2026-7

> <Gold.Version>
5.8.1

> <Gold.Id.Protein>
6NUR|6NUR_protein|mol2

> <Gold.PLP.Fitness>
50.7244

> <Gold.PLP.PLP>
-38.6970

> <Gold.PLP.part.hbond>
-3.8637

> <Gold.PLP.part.metal>
0.0000

> <Gold.PLP.part.buried>
-3.7333

> <Gold.PLP.part.nonpolar>
-30.9632

> <Gold.PLP.part.repulsive>
0.0987

> <Gold.PLP.ligand.clash>
0.0000

> <Gold.PLP.ligand.torsion>
0.6603

> <Gold.PLP.Chemscore.Hbond>
4.4400

> <Gold.PLP.Chemscore.CHOScore>
0.0000

> <Gold.PLP.Chemscore.Metal>
0.0000

> <Gold.Chemscore.Hbonds>
donor molecule, donor type, donor heavy atom, donor atom, acceptor molecule, acceptor atom, score
      L1  H     5    46       P1  8028  2.00
      P1  H  6896  6907       L1    20  0.81
      P1  H  6934  6947       L1    15  1.40

> <Gold.PLP.Chemscore.Internal.Correction>
0.0279

> <Gold.Rescore>
     Score         DG    S(hbond)    S(metal)    S(lipo)     H(rot)  DE(clash)    DE(int)     intcor
     16.78     -19.23       2.51        0.00      99.07       2.44       0.36       2.09       ----

> <Gold.Chemscore.Fitness>
16.7793

> <Gold.Chemscore.DG>
-19.2323

> <Gold.Chemscore.ZeroCoef>
-5.4800

> <Gold.Chemscore.Hbond>
2.5138

> <Gold.Chemscore.Metal>
0.0000

> <Gold.Chemscore.Lipo>
99.0724

> <Gold.Chemscore.Internal_Hbond>
0.0000

> <Gold.Chemscore.DEClash>
0.3602

> <Gold.Chemscore.DEInternal>
2.0929

> <Gold.Chemscore.Rot>
2.4357

> <Gold.Chemscore.Internal.Correction>
   9.000000E+99

> <Gold.Chemscore.Hbonds>
donor molecule, donor type, donor heavy atom, donor atom, acceptor molecule, acceptor atom, score
      L1  H     5    46       P1  8028  0.99
      P1  H  6896  6907       L1    20  0.75
      P1  H  6934  6947       L1    15  0.32

> <Gold.Chemscore.Hbond.Weighted>
-8.3962

> <Gold.Chemscore.Metal.Weighted>
-0.0000

> <Gold.Chemscore.Lipo.Weighted>
-11.5915

> <Gold.Chemscore.Internal_Hbond.Weighted>
0.0000

> <Gold.Chemscore.DEClash.Weighted>
0.3602

> <Gold.Chemscore.DEInternal.Weighted>
2.0929

> <Gold.Chemscore.Rot.Weighted>
6.2353

> <Gold.Chemscore.Internal.Correction.Weighted>
   9.000000E+99

> <Gold.Protein.RotatedTorsions>
[ 6907 6896 6895 6894 ] final  -79.15 input  -60.11 | X-H torsion
[ 7974 7965 7964 7962 ] final   95.76 input  175.53 | X-H torsion
[ 8008 7997 7996 7995 ] final   43.56 input   59.86 | X-H torsion
[ 10167 10162 10161 10158 ] final  116.84 input  -65.29 | X-H torsion
[ 10718 10713 10712 10709 ] final -159.96 input   66.30 | X-H torsion
[ 10763 10752 10751 10750 ] final   97.04 input  -60.55 | X-H torsion
[ 11005 11000 10999 10996 ] final   -3.13 input  -57.11 | X-H torsion

> <Gold.Protein.ActiveResidues>
 VAL166  LYS551  ARG553  GLY616  TRP617  ASP618  TYR619  PRO620  LYS621  CYS622 
 ASP623  PHE694  ASN695  SER759  ASP760  ASP761  ALA762  ILE779  LEU786  VAL792 
 PHE793  MET794  SER795  GLU796  ALA797  LYS798  CYS799  TRP800  GLU811  SER814 

> <Gold.Protein.RotatedAtoms>
  150.6956  134.4165  159.5185 H   0  0  0  0  0  0  0  0  0  0  0  0  # atno 6907 bound_to 6896
  152.1915  134.8665  160.0526 H   0  0  0  0  0  0  0  0  0  0  0  0  # atno 6908 bound_to 6896
  151.9619  133.3663  159.4075 H   0  0  0  0  0  0  0  0  0  0  0  0  # atno 6909 bound_to 6896
  145.4479  139.2295  143.3056 H   0  0  0  0  0  0  0  0  0  0  0  0  # atno 7974 bound_to 7965
  155.3048  140.3387  155.4246 H   0  0  0  0  0  0  0  0  0  0  0  0  # atno 8008 bound_to 7997
  156.1984  140.1723  156.7990 H   0  0  0  0  0  0  0  0  0  0  0  0  # atno 8009 bound_to 7997
  154.5527  140.0702  156.8678 H   0  0  0  0  0  0  0  0  0  0  0  0  # atno 8010 bound_to 7997
  139.6219  144.7102  151.2615 H   0  0  0  0  0  0  0  0  0  0  0  0  # atno 10167 bound_to 10162
  156.5754  130.8706  151.2849 H   0  0  0  0  0  0  0  0  0  0  0  0  # atno 10718 bound_to 10713
  153.2722  135.4197  155.0998 H   0  0  0  0  0  0  0  0  0  0  0  0  # atno 10763 bound_to 10752
  154.8460  135.3475  154.6229 H   0  0  0  0  0  0  0  0  0  0  0  0  # atno 10764 bound_to 10752
  153.6649  135.7046  153.5223 H   0  0  0  0  0  0  0  0  0  0  0  0  # atno 10765 bound_to 10752
  140.6660  133.9278  155.8465 H   0  0  0  0  0  0  0  0  0  0  0  0  # atno 11005 bound_to 11000
  146.2520  140.5235  142.8889 LP  0  0  0  0  0  0  0  0  0  0  0  0  # atno 17320 bound_to 7965
  144.8080  140.6334  143.6434 LP  0  0  0  0  0  0  0  0  0  0  0  0  # atno 17321 bound_to 7965
  140.7387  143.6639  150.8140 LP  0  0  0  0  0  0  0  0  0  0  0  0  # atno 17342 bound_to 10162
  140.0251  143.5502  152.2784 LP  0  0  0  0  0  0  0  0  0  0  0  0  # atno 17343 bound_to 10162
  157.7339  130.9737  150.2000 LP  0  0  0  0  0  0  0  0  0  0  0  0  # atno 17370 bound_to 10713
  156.2678  130.3718  149.8063 LP  0  0  0  0  0  0  0  0  0  0  0  0  # atno 17371 bound_to 10713
  141.0429  134.0596  157.3880 LP  0  0  0  0  0  0  0  0  0  0  0  0  # atno 17394 bound_to 11000
  139.8997  135.0159  156.7208 LP  0  0  0  0  0  0  0  0  0  0  0  0  # atno 17395 bound_to 11000

$$$$
