AV-unprocessed.smi:1199|AV-procd|sdf|5021|dock8
  -GOLD-   22720 4 43D 1   1.00000     0.00000
 Structure written by MMmdl.
 42 43  0  0  0  0  0  0  0  0  2 V2000
  149.4575  135.1033  156.6307 C   0  0  0  0  0  0  0  0  0  0  0  0
  149.1284  135.4167  155.1652 C   0  0  1  0  0  0  0  0  0  0  0  0
  147.6072  135.5886  154.9460 C   0  0  0  0  0  0  0  0  0  0  0  0
  147.1836  135.2661  153.5591 N   0  3  0  0  0  0  0  0  0  0  0  0
  147.0545  133.8128  153.2985 C   0  0  0  0  0  0  0  0  0  0  0  0
  146.7211  133.5732  151.8172 C   0  0  0  0  0  0  0  0  0  0  0  0
  145.5188  134.2584  151.4873 O   0  0  0  0  0  0  0  0  0  0  0  0
  145.6379  135.6647  151.6663 C   0  0  0  0  0  0  0  0  0  0  0  0
  145.9559  135.9799  153.1383 C   0  0  0  0  0  0  0  0  0  0  0  0
  149.8434  136.6244  154.7536 N   0  0  0  0  0  0  0  0  0  0  0  0
  151.1682  136.8226  154.8463 C   0  0  0  0  0  0  0  0  0  0  0  0
  151.9411  136.0312  155.3850 O   0  0  0  0  0  0  0  0  0  0  0  0
  151.7083  138.0908  154.1820 C   0  0  0  0  0  0  0  0  0  0  0  0
  151.3829  139.2799  154.9822 N   0  0  0  0  0  0  0  0  0  0  0  0
  150.3526  140.0453  154.4568 N   0  0  0  0  0  0  0  0  0  0  0  0
  149.9780  141.1244  155.0564 C   0  0  0  0  0  0  0  0  0  0  0  0
  148.9564  141.8523  154.4980 O   0  0  0  0  0  0  0  0  0  0  0  0
  150.6143  141.5592  156.2800 C   0  0  0  0  0  0  0  0  0  0  0  0
  151.6235  140.8131  156.7797 C   0  0  0  0  0  0  0  0  0  0  0  0
  152.0830  139.5915  156.1166 C   0  0  0  0  0  0  0  0  0  0  0  0
  153.0212  138.9131  156.5325 O   0  0  0  0  0  0  0  0  0  0  0  0
  148.9967  142.7022  154.9090 H   0  0  0  0  0  0  0  0  0  0  0  0
  148.9525  134.1944  156.9592 H   0  0  0  0  0  0  0  0  0  0  0  0
  149.1472  135.9133  157.2918 H   0  0  0  0  0  0  0  0  0  0  0  0
  150.5287  134.9524  156.7688 H   0  0  0  0  0  0  0  0  0  0  0  0
  149.4746  134.5677  154.5741 H   0  0  0  0  0  0  0  0  0  0  0  0
  147.0400  134.9890  155.6594 H   0  0  0  0  0  0  0  0  0  0  0  0
  147.3536  136.6293  155.1549 H   0  0  0  0  0  0  0  0  0  0  0  0
  147.9796  133.2959  153.5513 H   0  0  0  0  0  0  0  0  0  0  0  0
  146.2716  133.3922  153.9313 H   0  0  0  0  0  0  0  0  0  0  0  0
  147.5372  133.9091  151.1747 H   0  0  0  0  0  0  0  0  0  0  0  0
  146.5844  132.5081  151.6299 H   0  0  0  0  0  0  0  0  0  0  0  0
  146.4142  136.0584  151.0099 H   0  0  0  0  0  0  0  0  0  0  0  0
  144.7021  136.1401  151.3724 H   0  0  0  0  0  0  0  0  0  0  0  0
  145.1222  135.6845  153.7771 H   0  0  0  0  0  0  0  0  0  0  0  0
  146.0915  137.0552  153.2588 H   0  0  0  0  0  0  0  0  0  0  0  0
  149.2944  137.3430  154.3036 H   0  0  0  0  0  0  0  0  0  0  0  0
  152.7885  138.0001  154.0507 H   0  0  0  0  0  0  0  0  0  0  0  0
  151.2974  138.1777  153.1745 H   0  0  0  0  0  0  0  0  0  0  0  0
  150.2843  142.4600  156.7763 H   0  0  0  0  0  0  0  0  0  0  0  0
  152.1084  141.1265  157.6927 H   0  0  0  0  0  0  0  0  0  0  0  0
  147.9217  135.6035  152.9575 H   0  0  0  0  0  0  0  0  0  0  0  0
  1  2  1  0  0  0  0
  1 23  1  0  0  0  0
  1 24  1  0  0  0  0
  1 25  1  0  0  0  0
  2  3  1  0  0  0  0
  2 10  1  0  0  0  0
  2 26  1  0  0  0  0
  3  4  1  0  0  0  0
  3 27  1  0  0  0  0
  3 28  1  0  0  0  0
  4  9  1  0  0  0  0
  4  5  1  0  0  0  0
  4 42  1  0  0  0  0
  5  6  1  0  0  0  0
  5 29  1  0  0  0  0
  5 30  1  0  0  0  0
  6  7  1  0  0  0  0
  6 31  1  0  0  0  0
  6 32  1  0  0  0  0
  7  8  1  0  0  0  0
  8  9  1  0  0  0  0
  8 33  1  0  0  0  0
  8 34  1  0  0  0  0
  9 35  1  0  0  0  0
  9 36  1  0  0  0  0
 10 11  1  0  0  0  0
 10 37  1  0  0  0  0
 11 12  2  0  0  0  0
 11 13  1  0  0  0  0
 13 38  1  0  0  0  0
 13 39  1  0  0  0  0
 13 14  1  0  0  0  0
 14 15  1  0  0  0  0
 14 20  1  0  0  0  0
 15 16  2  0  0  0  0
 16 17  1  0  0  0  0
 16 18  1  0  0  0  0
 17 22  1  0  0  0  0
 18 40  1  0  0  0  0
 18 19  2  0  0  0  0
 19 41  1  0  0  0  0
 19 20  1  0  0  0  0
 20 21  2  0  0  0  0
M  CHG  1   4   1
M  END
> <s_m_source_file>
AV-unprocessed.smi

> <i_m_source_file_index>
1199

> <i_lp_mmshare_version>
43012

> <i_f3d_flags>
0

> <s_epik_input>
W0NIMl0xW0NIMl1PW0NIMl1bQ0gyXU4xW0NIMl1bQ0BASF0oW0NIM10pW05IXUMoPU8pW0NIMl1uMltuSF1jKD1PKVtjSF1bY0hdYzI9Tw==

> <s_epik_cmdline>
J2VwaWtfcHl0aG9uJywgJy1waCcsICc3LjAnLCAnLXRuJywgJzgnLCAnLW1hJywgJzIwMCcsICctbWV0YWxfYmluZGluZycsICctaW1hZScsICc8aW5maWxlLm1hZT4nLCAnLW9tYWUnLCAnPG91dGZpbGUubWFlPic=

> <r_lp_tautomer_probability>
0.9996

> <r_epik_Ionization_Penalty>
2.86815

> <r_epik_Ionization_Penalty_Charging>
0.656653

> <r_epik_Ionization_Penalty_Neutral>
2.21149

> <r_epik_State_Penalty>
2.43136

> <r_epik_Charging_Adjusted_Penalty>
3.08801

> <i_epik_Tot_Q>
1

> <i_epik_Tot_abs_Q>
1

> <r_epik_Metal_State_Penalty>
2.43136

> <b_epik_Metal_Only>
0

> <s_lp_Force_Field>
OPLS_2005

> <r_lp_Energy>
31.569

> <b_lp_Chiralities_Consistent>
1

> <s_lp_Variant>
AV-unprocessed.smi:1199-8

> <Gold.Version>
5.8.1

> <Gold.Id.Protein>
6NUR|6NUR_protein|mol2

> <Gold.PLP.Fitness>
49.8358

> <Gold.PLP.PLP>
-35.0237

> <Gold.PLP.part.hbond>
-7.0000

> <Gold.PLP.part.metal>
0.0000

> <Gold.PLP.part.buried>
-3.0890

> <Gold.PLP.part.nonpolar>
-24.0881

> <Gold.PLP.part.repulsive>
0.3743

> <Gold.PLP.ligand.clash>
0.0000

> <Gold.PLP.ligand.torsion>
0.9243

> <Gold.PLP.Chemscore.Hbond>
5.5202

> <Gold.PLP.Chemscore.CHOScore>
0.0000

> <Gold.PLP.Chemscore.Metal>
0.0000

> <Gold.Chemscore.Hbonds>
donor molecule, donor type, donor heavy atom, donor atom, acceptor molecule, acceptor atom, score
      L1  H     4    42       P1  7948  2.00
      L1  H    17    22       P1  8028  0.71
      P1  H  7989  7998       L1    15  0.21
      P1  H  7997  8010       L1    21  0.96
      P1  H  8011  8017       L1    17  0.05
      P1  H 10752 10764       L1    12  0.41

> <Gold.PLP.Chemscore.Internal.Correction>
0.1002

> <Gold.Rescore>
     Score         DG    S(hbond)    S(metal)    S(lipo)     H(rot)  DE(clash)    DE(int)     intcor
     14.37     -16.30       3.94        0.00      46.39       3.03       0.01       1.92       ----

> <Gold.Chemscore.Fitness>
14.3654

> <Gold.Chemscore.DG>
-16.2952

> <Gold.Chemscore.ZeroCoef>
-5.4800

> <Gold.Chemscore.Hbond>
3.9382

> <Gold.Chemscore.Metal>
0.0000

> <Gold.Chemscore.Lipo>
46.3904

> <Gold.Chemscore.Internal_Hbond>
0.0000

> <Gold.Chemscore.DEClash>
0.0086

> <Gold.Chemscore.DEInternal>
1.9212

> <Gold.Chemscore.Rot>
3.0336

> <Gold.Chemscore.Internal.Correction>
   9.000000E+99

> <Gold.Chemscore.Hbonds>
donor molecule, donor type, donor heavy atom, donor atom, acceptor molecule, acceptor atom, score
      L1  H     4    42       P1  7948  0.99
      L1  H    17    22       P1  8028  0.71
      P1  H  7997  8010       L1    21  0.60
      P1  H  8011  8017       L1    17  0.01
      P1  H 10752 10764       L1    12  0.41

> <Gold.Chemscore.Hbond.Weighted>
-13.1536

> <Gold.Chemscore.Metal.Weighted>
-0.0000

> <Gold.Chemscore.Lipo.Weighted>
-5.4277

> <Gold.Chemscore.Internal_Hbond.Weighted>
0.0000

> <Gold.Chemscore.DEClash.Weighted>
0.0086

> <Gold.Chemscore.DEInternal.Weighted>
1.9212

> <Gold.Chemscore.Rot.Weighted>
7.7661

> <Gold.Chemscore.Internal.Correction.Weighted>
   9.000000E+99

> <Gold.Protein.RotatedTorsions>
[ 6907 6896 6895 6894 ] final  107.42 input  -60.11 | X-H torsion
[ 7974 7965 7964 7962 ] final  -75.78 input  175.53 | X-H torsion
[ 8008 7997 7996 7995 ] final   47.96 input   59.86 | X-H torsion
[ 10167 10162 10161 10158 ] final -113.89 input  -65.29 | X-H torsion
[ 10718 10713 10712 10709 ] final  -34.93 input   66.30 | X-H torsion
[ 10763 10752 10751 10750 ] final  -47.12 input  -60.55 | X-H torsion
[ 11005 11000 10999 10996 ] final  -17.91 input  -57.11 | X-H torsion

> <Gold.Protein.ActiveResidues>
 VAL166  LYS551  ARG553  GLY616  TRP617  ASP618  TYR619  PRO620  LYS621  CYS622 
 ASP623  PHE694  ASN695  SER759  ASP760  ASP761  ALA762  ILE779  LEU786  VAL792 
 PHE793  MET794  SER795  GLU796  ALA797  LYS798  CYS799  TRP800  GLU811  SER814 

> <Gold.Protein.RotatedAtoms>
  152.5155  133.9237  159.7546 H   0  0  0  0  0  0  0  0  0  0  0  0  # atno 6907 bound_to 6896
  150.9603  133.6444  159.2762 H   0  0  0  0  0  0  0  0  0  0  0  0  # atno 6908 bound_to 6896
  151.3691  135.0924  159.9512 H   0  0  0  0  0  0  0  0  0  0  0  0  # atno 6909 bound_to 6896
  145.6215  140.9362  143.1136 H   0  0  0  0  0  0  0  0  0  0  0  0  # atno 7974 bound_to 7965
  155.3777  140.3427  155.4245 H   0  0  0  0  0  0  0  0  0  0  0  0  # atno 8008 bound_to 7997
  156.1627  140.1606  156.8617 H   0  0  0  0  0  0  0  0  0  0  0  0  # atno 8009 bound_to 7997
  154.5155  140.0779  156.8055 H   0  0  0  0  0  0  0  0  0  0  0  0  # atno 8010 bound_to 7997
  140.1069  143.4562  152.1777 H   0  0  0  0  0  0  0  0  0  0  0  0  # atno 10167 bound_to 10162
  156.3447  130.4299  149.7756 H   0  0  0  0  0  0  0  0  0  0  0  0  # atno 10718 bound_to 10713
  154.0562  135.6624  153.4806 H   0  0  0  0  0  0  0  0  0  0  0  0  # atno 10763 bound_to 10752
  153.0444  135.5124  154.7703 H   0  0  0  0  0  0  0  0  0  0  0  0  # atno 10764 bound_to 10752
  154.6725  135.3032  154.9689 H   0  0  0  0  0  0  0  0  0  0  0  0  # atno 10765 bound_to 10752
  140.8216  133.8064  155.9665 H   0  0  0  0  0  0  0  0  0  0  0  0  # atno 11005 bound_to 11000
  144.7229  139.7970  143.7375 LP  0  0  0  0  0  0  0  0  0  0  0  0  # atno 17320 bound_to 7965
  146.1427  139.4489  143.0098 LP  0  0  0  0  0  0  0  0  0  0  0  0  # atno 17321 bound_to 7965
  139.5640  144.7424  151.4074 LP  0  0  0  0  0  0  0  0  0  0  0  0  # atno 17342 bound_to 10162
  140.6947  143.7777  150.7308 LP  0  0  0  0  0  0  0  0  0  0  0  0  # atno 17343 bound_to 10162
  156.4979  130.8115  151.3121 LP  0  0  0  0  0  0  0  0  0  0  0  0  # atno 17370 bound_to 10713
  157.7452  130.9954  150.2742 LP  0  0  0  0  0  0  0  0  0  0  0  0  # atno 17371 bound_to 10713
  140.9093  134.2280  157.4995 LP  0  0  0  0  0  0  0  0  0  0  0  0  # atno 17394 bound_to 11000
  139.8708  134.9743  156.4840 LP  0  0  0  0  0  0  0  0  0  0  0  0  # atno 17395 bound_to 11000

$$$$
