AV-unprocessed.smi:3143|AV-procd|sdf|11975|dock8
  -GOLD-   2272017373D 1   1.00000     0.00000
 Structure written by MMmdl.
 38 39  0  0  0  0  0  0  0  0  2 V2000
  150.0320  139.9043  155.9980 C   0  0  0  0  0  0  0  0  0  0  0  0
  149.3199  141.2607  156.1217 C   0  0  1  0  0  0  0  0  0  0  0  0
  150.3013  142.3002  156.5093 N   0  3  0  0  0  0  0  0  0  0  0  0
  150.8583  142.1545  157.8709 C   0  0  0  0  0  0  0  0  0  0  0  0
  151.7805  143.3310  158.2184 C   0  0  0  0  0  0  0  0  0  0  0  0
  152.1023  143.3566  159.6318 N   0  0  0  0  0  0  0  0  0  0  0  0
  152.7673  142.4082  160.3805 C   0  0  0  0  0  0  0  0  0  0  0  0
  152.8314  142.8758  161.6620 C   0  0  0  0  0  0  0  0  0  0  0  0
  152.1707  144.1345  161.5969 C   0  0  0  0  0  0  0  0  0  0  0  0
  151.7356  144.4192  160.3799 N   0  0  0  0  0  0  0  0  0  0  0  0
  148.6211  141.6110  154.7924 C   0  0  0  0  0  0  0  0  0  0  0  0
  149.2266  141.4183  153.7368 O   0  0  0  0  0  0  0  0  0  0  0  0
  147.3650  142.1065  154.8140 N   0  0  0  0  0  0  0  0  0  0  0  0
  146.5641  142.4921  153.6518 C   0  0  0  0  0  0  0  0  0  0  0  0
  145.3350  143.2077  154.2129 C   0  0  0  0  0  0  0  0  0  0  0  0
  145.1805  142.6369  155.6151 C   0  0  0  0  0  0  0  0  0  0  0  0
  146.6127  142.3244  156.0488 C   0  0  0  0  0  0  0  0  0  0  0  0
  149.3347  139.1087  155.7330 H   0  0  0  0  0  0  0  0  0  0  0  0
  150.5022  139.6228  156.9408 H   0  0  0  0  0  0  0  0  0  0  0  0
  150.8110  139.9285  155.2346 H   0  0  0  0  0  0  0  0  0  0  0  0
  148.5931  141.1904  156.9310 H   0  0  0  0  0  0  0  0  0  0  0  0
  151.0719  142.2622  155.8579 H   0  0  0  0  0  0  0  0  0  0  0  0
  150.0440  142.0968  158.5944 H   0  0  0  0  0  0  0  0  0  0  0  0
  151.4118  141.2167  157.9343 H   0  0  0  0  0  0  0  0  0  0  0  0
  152.7101  143.2699  157.6508 H   0  0  0  0  0  0  0  0  0  0  0  0
  151.3082  144.2785  157.9542 H   0  0  0  0  0  0  0  0  0  0  0  0
  153.1352  141.4898  159.9465 H   0  0  0  0  0  0  0  0  0  0  0  0
  153.2828  142.3930  162.5162 H   0  0  0  0  0  0  0  0  0  0  0  0
  151.9960  144.8451  162.3915 H   0  0  0  0  0  0  0  0  0  0  0  0
  147.1103  143.1379  152.9632 H   0  0  0  0  0  0  0  0  0  0  0  0
  146.2630  141.5926  153.1128 H   0  0  0  0  0  0  0  0  0  0  0  0
  145.5311  144.2791  154.2754 H   0  0  0  0  0  0  0  0  0  0  0  0
  144.4454  143.0666  153.5984 H   0  0  0  0  0  0  0  0  0  0  0  0
  144.6715  143.3190  156.2968 H   0  0  0  0  0  0  0  0  0  0  0  0
  144.6007  141.7137  155.5719 H   0  0  0  0  0  0  0  0  0  0  0  0
  146.6443  141.4563  156.7092 H   0  0  0  0  0  0  0  0  0  0  0  0
  147.0449  143.1727  156.5819 H   0  0  0  0  0  0  0  0  0  0  0  0
  149.8554  143.2035  156.4300 H   0  0  0  0  0  0  0  0  0  0  0  0
  1  2  1  0  0  0  0
  1 18  1  0  0  0  0
  1 19  1  0  0  0  0
  1 20  1  0  0  0  0
  2  3  1  0  0  0  0
  2 11  1  0  0  0  0
  2 21  1  0  0  0  0
  3  4  1  0  0  0  0
  3 22  1  0  0  0  0
  3 38  1  0  0  0  0
  4  5  1  0  0  0  0
  4 23  1  0  0  0  0
  4 24  1  0  0  0  0
  5  6  1  0  0  0  0
  5 25  1  0  0  0  0
  5 26  1  0  0  0  0
  6 10  1  0  0  0  0
  6  7  1  0  0  0  0
  7  8  2  0  0  0  0
  7 27  1  0  0  0  0
  8  9  1  0  0  0  0
  8 28  1  0  0  0  0
  9 10  2  0  0  0  0
  9 29  1  0  0  0  0
 11 12  2  0  0  0  0
 11 13  1  0  0  0  0
 13 17  1  0  0  0  0
 13 14  1  0  0  0  0
 14 15  1  0  0  0  0
 14 30  1  0  0  0  0
 14 31  1  0  0  0  0
 15 16  1  0  0  0  0
 15 32  1  0  0  0  0
 15 33  1  0  0  0  0
 16 17  1  0  0  0  0
 16 34  1  0  0  0  0
 16 35  1  0  0  0  0
 17 36  1  0  0  0  0
 17 37  1  0  0  0  0
M  CHG  1   3   1
M  END
> <s_m_source_file>
AV-unprocessed.smi

> <i_m_source_file_index>
3143

> <i_lp_mmshare_version>
43012

> <i_f3d_flags>
0

> <s_epik_input>
W0NIMl0xW0NIMl1bQ0gyXVtDSDJdTjFDKD1PKVtDQEhdKFtDSDNdKVtOSF1bQ0gyXVtDSDJdbjJbY0hdW2NIXVtjSF1uMg==

> <s_epik_cmdline>
J2VwaWtfcHl0aG9uJywgJy1waCcsICc3LjAnLCAnLXRuJywgJzgnLCAnLW1hJywgJzIwMCcsICctbWV0YWxfYmluZGluZycsICctaW1hZScsICc8aW5maWxlLm1hZT4nLCAnLW9tYWUnLCAnPG91dGZpbGUubWFlPic=

> <r_lp_tautomer_probability>
1

> <r_epik_Ionization_Penalty>
0.203171

> <r_epik_Ionization_Penalty_Charging>
0.203168

> <r_epik_Ionization_Penalty_Neutral>
2.46932e-06

> <r_epik_State_Penalty>
0.193072

> <r_epik_Charging_Adjusted_Penalty>
0.39624

> <i_epik_Tot_Q>
1

> <i_epik_Tot_abs_Q>
1

> <r_epik_Metal_State_Penalty>
0.193323

> <b_epik_Metal_Only>
0

> <s_lp_Force_Field>
OPLS_2005

> <r_lp_Energy>
30.1321

> <b_lp_Chiralities_Consistent>
1

> <s_lp_Variant>
AV-unprocessed.smi:3143-2

> <Gold.Version>
5.8.1

> <Gold.Id.Protein>
6NUR|6NUR_protein|mol2

> <Gold.PLP.Fitness>
48.2033

> <Gold.PLP.PLP>
-40.8337

> <Gold.PLP.part.hbond>
-3.0000

> <Gold.PLP.part.metal>
0.0000

> <Gold.PLP.part.buried>
-5.3810

> <Gold.PLP.part.nonpolar>
-33.4491

> <Gold.PLP.part.repulsive>
1.4309

> <Gold.PLP.ligand.clash>
0.0000

> <Gold.PLP.ligand.torsion>
0.5350

> <Gold.PLP.Chemscore.Hbond>
2.8000

> <Gold.PLP.Chemscore.CHOScore>
0.0000

> <Gold.PLP.Chemscore.Metal>
0.0000

> <Gold.Chemscore.Hbonds>
donor molecule, donor type, donor heavy atom, donor atom, acceptor molecule, acceptor atom, score
      L1  H     3    38       P1  8028  2.00
      P1  H  8011  8017       L1    12  0.82

> <Gold.PLP.Chemscore.Internal.Correction>
0.0395

> <Gold.Rescore>
     Score         DG    S(hbond)    S(metal)    S(lipo)     H(rot)  DE(clash)    DE(int)     intcor
     15.70     -16.99       1.89        0.00      84.80       1.84       0.82       0.47       ----

> <Gold.Chemscore.Fitness>
15.7042

> <Gold.Chemscore.DG>
-16.9912

> <Gold.Chemscore.ZeroCoef>
-5.4800

> <Gold.Chemscore.Hbond>
1.8867

> <Gold.Chemscore.Metal>
0.0000

> <Gold.Chemscore.Lipo>
84.7992

> <Gold.Chemscore.Internal_Hbond>
0.0000

> <Gold.Chemscore.DEClash>
0.8164

> <Gold.Chemscore.DEInternal>
0.4707

> <Gold.Chemscore.Rot>
1.8405

> <Gold.Chemscore.Internal.Correction>
   9.000000E+99

> <Gold.Chemscore.Hbonds>
donor molecule, donor type, donor heavy atom, donor atom, acceptor molecule, acceptor atom, score
      L1  H     3    38       P1  8028  0.98
      P1  H  7989  7998       L1    12  0.01
      P1  H  8011  8017       L1    12  0.80

> <Gold.Chemscore.Hbond.Weighted>
-6.3014

> <Gold.Chemscore.Metal.Weighted>
-0.0000

> <Gold.Chemscore.Lipo.Weighted>
-9.9215

> <Gold.Chemscore.Internal_Hbond.Weighted>
0.0000

> <Gold.Chemscore.DEClash.Weighted>
0.8164

> <Gold.Chemscore.DEInternal.Weighted>
0.4707

> <Gold.Chemscore.Rot.Weighted>
4.7117

> <Gold.Chemscore.Internal.Correction.Weighted>
   9.000000E+99

> <Gold.Protein.RotatedTorsions>
[ 6907 6896 6895 6894 ] final   21.18 input  -60.11 | X-H torsion
[ 7974 7965 7964 7962 ] final    8.19 input  175.53 | X-H torsion
[ 8008 7997 7996 7995 ] final  122.24 input   59.86 | X-H torsion
[ 10167 10162 10161 10158 ] final  160.96 input  -65.29 | X-H torsion
[ 10718 10713 10712 10709 ] final   87.83 input   66.30 | X-H torsion
[ 10763 10752 10751 10750 ] final -124.10 input  -60.55 | X-H torsion
[ 11005 11000 10999 10996 ] final   46.82 input  -57.11 | X-H torsion

> <Gold.Protein.ActiveResidues>
 VAL166  LYS551  ARG553  GLY616  TRP617  ASP618  TYR619  PRO620  LYS621  CYS622 
 ASP623  PHE694  ASN695  SER759  ASP760  ASP761  ALA762  ILE779  LEU786  VAL792 
 PHE793  MET794  SER795  GLU796  ALA797  LYS798  CYS799  TRP800  GLU811  SER814 

> <Gold.Protein.RotatedAtoms>
  151.9078  135.0351  160.0511 H   0  0  0  0  0  0  0  0  0  0  0  0  # atno 6907 bound_to 6896
  152.2305  133.5050  159.5221 H   0  0  0  0  0  0  0  0  0  0  0  0  # atno 6908 bound_to 6896
  150.7024  134.1139  159.4053 H   0  0  0  0  0  0  0  0  0  0  0  0  # atno 6909 bound_to 6896
  146.2419  139.9970  142.8420 H   0  0  0  0  0  0  0  0  0  0  0  0  # atno 7974 bound_to 7965
  156.2720  140.2790  156.1437 H   0  0  0  0  0  0  0  0  0  0  0  0  # atno 8008 bound_to 7997
  155.0927  140.0389  157.2691 H   0  0  0  0  0  0  0  0  0  0  0  0  # atno 8009 bound_to 7997
  154.6877  140.2622  155.6850 H   0  0  0  0  0  0  0  0  0  0  0  0  # atno 8010 bound_to 7997
  139.4844  144.4583  151.8739 H   0  0  0  0  0  0  0  0  0  0  0  0  # atno 10167 bound_to 10162
  157.6944  131.0271  150.3183 H   0  0  0  0  0  0  0  0  0  0  0  0  # atno 10718 bound_to 10713
  154.8718  135.4075  154.3051 H   0  0  0  0  0  0  0  0  0  0  0  0  # atno 10763 bound_to 10752
  153.3904  135.7014  153.6505 H   0  0  0  0  0  0  0  0  0  0  0  0  # atno 10764 bound_to 10752
  153.5290  135.3671  155.2638 H   0  0  0  0  0  0  0  0  0  0  0  0  # atno 10765 bound_to 10752
  140.1334  134.4676  155.8504 H   0  0  0  0  0  0  0  0  0  0  0  0  # atno 11005 bound_to 11000
  145.1450  140.9592  143.4466 LP  0  0  0  0  0  0  0  0  0  0  0  0  # atno 17320 bound_to 7965
  145.0259  139.3383  143.6049 LP  0  0  0  0  0  0  0  0  0  0  0  0  # atno 17321 bound_to 7965
  140.4044  144.2451  150.5891 LP  0  0  0  0  0  0  0  0  0  0  0  0  # atno 17342 bound_to 10162
  140.5026  143.2313  151.8655 LP  0  0  0  0  0  0  0  0  0  0  0  0  # atno 17343 bound_to 10162
  156.3674  130.3857  149.7203 LP  0  0  0  0  0  0  0  0  0  0  0  0  # atno 17370 bound_to 10713
  156.4629  130.7960  151.2980 LP  0  0  0  0  0  0  0  0  0  0  0  0  # atno 17371 bound_to 10713
  141.2174  133.6805  156.7112 LP  0  0  0  0  0  0  0  0  0  0  0  0  # atno 17394 bound_to 11000
  140.2813  134.8314  157.3936 LP  0  0  0  0  0  0  0  0  0  0  0  0  # atno 17395 bound_to 11000

$$$$
