AV-unprocessed.smi:1735|AV-procd|sdf|6989|dock1
  -GOLD-   22720 8203D 1   1.00000     0.00000
 Structure written by MMmdl.
 32 33  0  0  0  0  0  0  0  0  1 V2000
  151.2011  140.7908  156.4765 O   0  0  0  0  0  0  0  0  0  0  0  0
  150.4872  141.7753  156.2840 C   0  0  0  0  0  0  0  0  0  0  0  0
  149.4746  141.8347  155.4035 N   0  0  0  0  0  0  0  0  0  0  0  0
  149.0164  140.8011  154.5480 C   0  0  0  0  0  0  0  0  0  0  0  0
  147.8177  140.8529  153.7859 C   0  0  0  0  0  0  0  0  0  0  0  0
  147.6446  139.7440  153.0809 N   0  0  0  0  0  0  0  0  0  0  0  0
  148.7215  138.9851  153.3855 N   0  0  0  0  0  0  0  0  0  0  0  0
  149.5837  139.5882  154.2745 C   0  0  0  0  0  0  0  0  0  0  0  0
  150.6281  142.9348  156.9422 N   0  0  0  0  0  0  0  0  0  0  0  0
  151.6228  143.2026  157.9767 C   0  0  2  0  0  0  0  0  0  0  0  0
  151.7629  141.9907  158.9201 C   0  0  0  0  0  0  0  0  0  0  0  0
  152.7515  142.2746  160.0645 C   0  0  0  0  0  0  0  0  0  0  0  0
  152.3898  143.5514  160.8465 C   0  0  2  0  0  0  0  0  0  0  0  0
  151.2105  143.3420  161.5983 O   0  0  0  0  0  0  0  0  0  0  0  0
  152.2081  144.7579  159.9063 C   0  0  0  0  0  0  0  0  0  0  0  0
  151.2202  144.4630  158.7639 C   0  0  0  0  0  0  0  0  0  0  0  0
  148.8525  138.0676  152.9837 H   0  0  0  0  0  0  0  0  0  0  0  0
  148.9718  142.7082  155.3459 H   0  0  0  0  0  0  0  0  0  0  0  0
  147.0826  141.6417  153.7230 H   0  0  0  0  0  0  0  0  0  0  0  0
  150.4895  139.1098  154.6167 H   0  0  0  0  0  0  0  0  0  0  0  0
  149.9946  143.6882  156.7177 H   0  0  0  0  0  0  0  0  0  0  0  0
  152.5872  143.3940  157.5018 H   0  0  0  0  0  0  0  0  0  0  0  0
  150.7881  141.7328  159.3366 H   0  0  0  0  0  0  0  0  0  0  0  0
  152.0981  141.1159  158.3620 H   0  0  0  0  0  0  0  0  0  0  0  0
  152.8011  141.4186  160.7385 H   0  0  0  0  0  0  0  0  0  0  0  0
  153.7518  142.3876  159.6446 H   0  0  0  0  0  0  0  0  0  0  0  0
  153.1857  143.7713  161.5587 H   0  0  0  0  0  0  0  0  0  0  0  0
  150.6267  144.0702  161.4505 H   0  0  0  0  0  0  0  0  0  0  0  0
  151.8791  145.6312  160.4708 H   0  0  0  0  0  0  0  0  0  0  0  0
  153.1753  145.0213  159.4763 H   0  0  0  0  0  0  0  0  0  0  0  0
  151.1727  145.3217  158.0932 H   0  0  0  0  0  0  0  0  0  0  0  0
  150.2172  144.3388  159.1746 H   0  0  0  0  0  0  0  0  0  0  0  0
  1  2  2  0  0  0  0
  2  3  1  0  0  0  0
  2  9  1  0  0  0  0
  3  4  1  0  0  0  0
  3 18  1  0  0  0  0
  4  8  2  0  0  0  0
  4  5  1  0  0  0  0
  5  6  2  0  0  0  0
  5 19  1  0  0  0  0
  6  7  1  0  0  0  0
  7 17  1  0  0  0  0
  7  8  1  0  0  0  0
  8 20  1  0  0  0  0
  9 10  1  0  0  0  0
  9 21  1  0  0  0  0
 10 16  1  0  0  0  0
 10 11  1  0  0  0  0
 10 22  1  0  0  0  0
 11 12  1  0  0  0  0
 11 23  1  0  0  0  0
 11 24  1  0  0  0  0
 12 13  1  0  0  0  0
 12 25  1  0  0  0  0
 12 26  1  0  0  0  0
 13 14  1  0  0  0  0
 13 15  1  0  0  0  0
 13 27  1  0  0  0  0
 14 28  1  0  0  0  0
 15 16  1  0  0  0  0
 15 29  1  0  0  0  0
 15 30  1  0  0  0  0
 16 31  1  0  0  0  0
 16 32  1  0  0  0  0
M  END
> <s_m_source_file>
AV-unprocessed.smi

> <i_m_source_file_index>
1735

> <i_lp_mmshare_version>
43012

> <i_f3d_flags>
0

> <s_epik_input>
W2NIXTFbbkhdbltjSF1jMVtOSF1DKD1PKVtOSF1bQ0BASF0yW0NIMl1bQ0gyXVtDQEBIXShbT0hdKVtDSDJdW0NIMl0y

> <s_epik_cmdline>
J2VwaWtfcHl0aG9uJywgJy1waCcsICc3LjAnLCAnLXRuJywgJzgnLCAnLW1hJywgJzIwMCcsICctbWV0YWxfYmluZGluZycsICctaW1hZScsICc8aW5maWxlLm1hZT4nLCAnLW9tYWUnLCAnPG91dGZpbGUubWFlPic=

> <r_lp_tautomer_probability>
1

> <r_epik_Ionization_Penalty>
5.59555e-05

> <r_epik_Ionization_Penalty_Charging>
0

> <r_epik_Ionization_Penalty_Neutral>
5.59555e-05

> <r_epik_State_Penalty>
-0

> <r_epik_Charging_Adjusted_Penalty>
0

> <i_epik_Tot_Q>
0

> <i_epik_Tot_abs_Q>
0

> <r_epik_Metal_State_Penalty>
-0

> <b_epik_Metal_Only>
0

> <s_lp_Force_Field>
OPLS_2005

> <r_lp_Energy>
12.246

> <b_lp_Chiralities_Consistent>
1

> <s_lp_Variant>
AV-unprocessed.smi:1735-2

> <Gold.Version>
5.8.1

> <Gold.Id.Protein>
6NUR|6NUR_protein|mol2

> <Gold.PLP.Fitness>
46.6250

> <Gold.PLP.PLP>
-37.7191

> <Gold.PLP.part.hbond>
-5.6524

> <Gold.PLP.part.metal>
0.0000

> <Gold.PLP.part.buried>
-7.1841

> <Gold.PLP.part.nonpolar>
-28.1749

> <Gold.PLP.part.repulsive>
2.5835

> <Gold.PLP.ligand.clash>
0.0000

> <Gold.PLP.ligand.torsion>
0.2569

> <Gold.PLP.Chemscore.Hbond>
3.1389

> <Gold.PLP.Chemscore.CHOScore>
0.0000

> <Gold.PLP.Chemscore.Metal>
0.0000

> <Gold.Chemscore.Hbonds>
donor molecule, donor type, donor heavy atom, donor atom, acceptor molecule, acceptor atom, score
      L1  H     3    18       P1  8028  1.00
      L1  H     7    17       P1  7948  0.76
      L1  H     9    21       P1  8028  1.00
      P1  H  6933  6945       L1    14  0.39

> <Gold.PLP.Chemscore.Internal.Correction>
0.0030

> <Gold.Rescore>
     Score         DG    S(hbond)    S(metal)    S(lipo)     H(rot)  DE(clash)    DE(int)     intcor
     17.23     -21.58       2.80        0.00      90.82       1.51       1.64       2.70       ----

> <Gold.Chemscore.Fitness>
17.2331

> <Gold.Chemscore.DG>
-21.5806

> <Gold.Chemscore.ZeroCoef>
-5.4800

> <Gold.Chemscore.Hbond>
2.7992

> <Gold.Chemscore.Metal>
0.0000

> <Gold.Chemscore.Lipo>
90.8201

> <Gold.Chemscore.Internal_Hbond>
0.0000

> <Gold.Chemscore.DEClash>
1.6435

> <Gold.Chemscore.DEInternal>
2.7040

> <Gold.Chemscore.Rot>
1.5135

> <Gold.Chemscore.Internal.Correction>
   9.000000E+99

> <Gold.Chemscore.Hbonds>
donor molecule, donor type, donor heavy atom, donor atom, acceptor molecule, acceptor atom, score
      L1  H     3    18       P1  8028  0.89
      L1  H     7    17       P1  7948  0.75
      L1  H     9    21       P1  8028  0.99
      P1  H  6933  6945       L1    14  0.21

> <Gold.Chemscore.Hbond.Weighted>
-9.3492

> <Gold.Chemscore.Metal.Weighted>
-0.0000

> <Gold.Chemscore.Lipo.Weighted>
-10.6260

> <Gold.Chemscore.Internal_Hbond.Weighted>
0.0000

> <Gold.Chemscore.DEClash.Weighted>
1.6435

> <Gold.Chemscore.DEInternal.Weighted>
2.7040

> <Gold.Chemscore.Rot.Weighted>
3.8745

> <Gold.Chemscore.Internal.Correction.Weighted>
   9.000000E+99

> <Gold.Protein.RotatedTorsions>
[ 6907 6896 6895 6894 ] final  -82.59 input  -60.11 | X-H torsion
[ 7974 7965 7964 7962 ] final    5.36 input  175.53 | X-H torsion
[ 8008 7997 7996 7995 ] final  107.38 input   59.86 | X-H torsion
[ 10167 10162 10161 10158 ] final -104.88 input  -65.29 | X-H torsion
[ 10718 10713 10712 10709 ] final -168.93 input   66.30 | X-H torsion
[ 10763 10752 10751 10750 ] final   39.06 input  -60.55 | X-H torsion
[ 11005 11000 10999 10996 ] final -127.98 input  -57.11 | X-H torsion

> <Gold.Protein.ActiveResidues>
 VAL166  LYS551  ARG553  GLY616  TRP617  ASP618  TYR619  PRO620  LYS621  CYS622 
 ASP623  PHE694  ASN695  SER759  ASP760  ASP761  ALA762  ILE779  LEU786  VAL792 
 PHE793  MET794  SER795  GLU796  ALA797  LYS798  CYS799  TRP800  GLU811  SER814 

> <Gold.Protein.RotatedAtoms>
  150.6895  134.3642  159.4963 H   0  0  0  0  0  0  0  0  0  0  0  0  # atno 6907 bound_to 6896
  152.1466  134.9018  160.0560 H   0  0  0  0  0  0  0  0  0  0  0  0  # atno 6908 bound_to 6896
  152.0131  133.3834  159.4265 H   0  0  0  0  0  0  0  0  0  0  0  0  # atno 6909 bound_to 6896
  146.2441  140.0396  142.8383 H   0  0  0  0  0  0  0  0  0  0  0  0  # atno 7974 bound_to 7965
  156.1820  140.3096  155.9166 H   0  0  0  0  0  0  0  0  0  0  0  0  # atno 8008 bound_to 7997
  155.3364  140.0463  157.3061 H   0  0  0  0  0  0  0  0  0  0  0  0  # atno 8009 bound_to 7997
  154.5353  140.2244  155.8744 H   0  0  0  0  0  0  0  0  0  0  0  0  # atno 8010 bound_to 7997
  140.2045  143.3793  152.1102 H   0  0  0  0  0  0  0  0  0  0  0  0  # atno 10167 bound_to 10162
  156.7041  130.9208  151.3083 H   0  0  0  0  0  0  0  0  0  0  0  0  # atno 10718 bound_to 10713
  152.9980  135.6231  154.2405 H   0  0  0  0  0  0  0  0  0  0  0  0  # atno 10763 bound_to 10752
  154.2145  135.2798  155.2948 H   0  0  0  0  0  0  0  0  0  0  0  0  # atno 10764 bound_to 10752
  154.5579  135.5714  153.7039 H   0  0  0  0  0  0  0  0  0  0  0  0  # atno 10765 bound_to 10752
  140.9554  134.1008  157.4021 H   0  0  0  0  0  0  0  0  0  0  0  0  # atno 11005 bound_to 11000
  145.1081  140.9388  143.4672 LP  0  0  0  0  0  0  0  0  0  0  0  0  # atno 17320 bound_to 7965
  145.0603  139.3110  143.5883 LP  0  0  0  0  0  0  0  0  0  0  0  0  # atno 17321 bound_to 7965
  139.5204  144.7032  151.5432 LP  0  0  0  0  0  0  0  0  0  0  0  0  # atno 17342 bound_to 10162
  140.6367  143.8970  150.6654 LP  0  0  0  0  0  0  0  0  0  0  0  0  # atno 17343 bound_to 10162
  157.6962  130.9284  150.0650 LP  0  0  0  0  0  0  0  0  0  0  0  0  # atno 17370 bound_to 10713
  156.1708  130.3646  149.9168 LP  0  0  0  0  0  0  0  0  0  0  0  0  # atno 17371 bound_to 10713
  139.8860  135.0078  156.6475 LP  0  0  0  0  0  0  0  0  0  0  0  0  # atno 17394 bound_to 11000
  140.7543  133.8871  155.8370 LP  0  0  0  0  0  0  0  0  0  0  0  0  # atno 17395 bound_to 11000

$$$$
