AV-unprocessed.smi:910|AV-procd|sdf|4134|dock8
  -GOLD-   22720 2 43D 1   1.00000     0.00000
 Structure written by MMmdl.
 45 46  0  0  0  0  0  0  0  0  2 V2000
  151.3962  144.4472  159.6486 C   0  0  0  0  0  0  0  0  0  0  0  0
  152.1643  143.1848  159.8816 C   0  0  0  0  0  0  0  0  0  0  0  0
  152.4393  142.2898  158.8595 N   0  0  0  0  0  0  0  0  0  0  0  0
  153.1378  141.3008  159.4206 C   0  0  0  0  0  0  0  0  0  0  0  0
  153.6233  140.2185  158.7920 N   0  5  0  0  0  0  0  0  0  0  0  0
  154.3487  139.3147  159.4880 C   0  0  0  0  0  0  0  0  0  0  0  0
  155.5406  139.4132  159.7897 O   0  0  0  0  0  0  0  0  0  0  0  0
  153.6578  138.2184  159.8335 N   0  0  0  0  0  0  0  0  0  0  0  0
  154.2125  137.0200  160.4556 C   0  0  0  0  0  0  0  0  0  0  0  0
  153.9284  137.0029  161.9655 C   0  0  0  0  0  0  0  0  0  0  0  0
  154.6421  135.9291  162.5590 O   0  0  0  0  0  0  0  0  0  0  0  0
  154.6221  135.8996  163.9803 C   0  0  2  0  0  0  0  0  0  0  0  0
  155.0608  137.2915  164.4716 C   0  0  0  0  0  0  0  0  0  0  0  0
  156.5241  137.5938  164.1043 C   0  0  0  0  0  0  0  0  0  0  0  0
  157.4688  136.5028  164.6299 C   0  0  0  0  0  0  0  0  0  0  0  0
  157.0425  135.1105  164.1385 C   0  0  0  0  0  0  0  0  0  0  0  0
  155.5781  134.8022  164.5110 C   0  0  2  0  0  0  0  0  0  0  0  0
  155.1717  133.3863  164.0755 C   0  0  0  0  0  0  0  0  0  0  0  0
  153.3203  141.4953  160.7576 O   0  0  0  0  0  0  0  0  0  0  0  0
  152.7058  142.6857  161.0357 C   0  0  0  0  0  0  0  0  0  0  0  0
  152.7421  143.1793  162.4418 C   0  0  0  0  0  0  0  0  0  0  0  0
  150.3225  144.2677  159.7041 H   0  0  0  0  0  0  0  0  0  0  0  0
  151.6130  144.8667  158.6659 H   0  0  0  0  0  0  0  0  0  0  0  0
  151.6448  145.2049  160.3919 H   0  0  0  0  0  0  0  0  0  0  0  0
  152.6831  138.1867  159.5737 H   0  0  0  0  0  0  0  0  0  0  0  0
  153.8341  136.1149  159.9781 H   0  0  0  0  0  0  0  0  0  0  0  0
  155.2896  137.0304  160.2891 H   0  0  0  0  0  0  0  0  0  0  0  0
  154.2516  137.9395  162.4211 H   0  0  0  0  0  0  0  0  0  0  0  0
  152.8557  136.9106  162.1403 H   0  0  0  0  0  0  0  0  0  0  0  0
  153.6108  135.7144  164.3480 H   0  0  0  0  0  0  0  0  0  0  0  0
  154.4073  138.0570  164.0523 H   0  0  0  0  0  0  0  0  0  0  0  0
  154.9425  137.3465  165.5544 H   0  0  0  0  0  0  0  0  0  0  0  0
  156.6226  137.6690  163.0205 H   0  0  0  0  0  0  0  0  0  0  0  0
  156.8153  138.5637  164.5076 H   0  0  0  0  0  0  0  0  0  0  0  0
  158.4906  136.7109  164.3114 H   0  0  0  0  0  0  0  0  0  0  0  0
  157.4750  136.5189  165.7203 H   0  0  0  0  0  0  0  0  0  0  0  0
  157.1720  135.0497  163.0575 H   0  0  0  0  0  0  0  0  0  0  0  0
  157.7037  134.3561  164.5660 H   0  0  0  0  0  0  0  0  0  0  0  0
  155.5115  134.8210  165.5998 H   0  0  0  0  0  0  0  0  0  0  0  0
  155.2614  133.2588  162.9968 H   0  0  0  0  0  0  0  0  0  0  0  0
  154.1414  133.1675  164.3562 H   0  0  0  0  0  0  0  0  0  0  0  0
  155.8078  132.6362  164.5457 H   0  0  0  0  0  0  0  0  0  0  0  0
  153.3910  144.0508  162.5264 H   0  0  0  0  0  0  0  0  0  0  0  0
  153.1177  142.4108  163.1176 H   0  0  0  0  0  0  0  0  0  0  0  0
  151.7448  143.4650  162.7760 H   0  0  0  0  0  0  0  0  0  0  0  0
  1 22  1  0  0  0  0
  1 23  1  0  0  0  0
  1 24  1  0  0  0  0
  1  2  1  0  0  0  0
  2  3  1  0  0  0  0
  2 20  2  0  0  0  0
  3  4  2  0  0  0  0
  4 19  1  0  0  0  0
  4  5  1  0  0  0  0
  5  6  1  0  0  0  0
  6  8  1  0  0  0  0
  6  7  2  0  0  0  0
  8  9  1  0  0  0  0
  8 25  1  0  0  0  0
  9 10  1  0  0  0  0
  9 26  1  0  0  0  0
  9 27  1  0  0  0  0
 10 11  1  0  0  0  0
 10 28  1  0  0  0  0
 10 29  1  0  0  0  0
 11 12  1  0  0  0  0
 12 17  1  0  0  0  0
 12 13  1  0  0  0  0
 12 30  1  0  0  0  0
 13 14  1  0  0  0  0
 13 31  1  0  0  0  0
 13 32  1  0  0  0  0
 14 15  1  0  0  0  0
 14 33  1  0  0  0  0
 14 34  1  0  0  0  0
 15 16  1  0  0  0  0
 15 35  1  0  0  0  0
 15 36  1  0  0  0  0
 16 17  1  0  0  0  0
 16 37  1  0  0  0  0
 16 38  1  0  0  0  0
 17 18  1  0  0  0  0
 17 39  1  0  0  0  0
 18 40  1  0  0  0  0
 18 41  1  0  0  0  0
 18 42  1  0  0  0  0
 19 20  1  0  0  0  0
 20 21  1  0  0  0  0
 21 43  1  0  0  0  0
 21 44  1  0  0  0  0
 21 45  1  0  0  0  0
M  CHG  1   5  -1
M  END
> <s_m_source_file>
AV-unprocessed.smi

> <i_m_source_file_index>
910

> <i_lp_mmshare_version>
43012

> <i_f3d_flags>
0

> <s_epik_input>
W0NIM11jMW5jKG9jMVtDSDNdKVtOSF1DKD1PKVtOSF1bQ0gyXVtDSDJdT1tDQEBIXTJbQ0gyXVtDSDJdW0NIMl1bQ0gyXVtDQEhdMltDSDNd

> <s_epik_cmdline>
J2VwaWtfcHl0aG9uJywgJy1waCcsICc3LjAnLCAnLXRuJywgJzgnLCAnLW1hJywgJzIwMCcsICctbWV0YWxfYmluZGluZycsICctaW1hZScsICc8aW5maWxlLm1hZT4nLCAnLW9tYWUnLCAnPG91dGZpbGUubWFlPic=

> <r_lp_tautomer_probability>
0.107061

> <r_epik_Ionization_Penalty>
10.1763

> <r_epik_Ionization_Penalty_Charging>
7.13067

> <r_epik_Ionization_Penalty_Neutral>
3.04564

> <r_epik_State_Penalty>
5.57927

> <r_epik_Charging_Adjusted_Penalty>
12.7099

> <i_epik_Tot_Q>
-1

> <i_epik_Tot_abs_Q>
1

> <r_epik_Metal_State_Penalty>
1.52303

> <b_epik_Metal_Only>
1

> <s_lp_Force_Field>
OPLS_2005

> <r_lp_Energy>
5.26856

> <b_lp_Chiralities_Consistent>
1

> <s_lp_Variant>
AV-unprocessed.smi:910-19

> <Gold.Version>
5.8.1

> <Gold.Id.Protein>
6NUR|6NUR_protein|mol2

> <Gold.PLP.Fitness>
44.0475

> <Gold.PLP.PLP>
-40.2505

> <Gold.PLP.part.hbond>
-1.0000

> <Gold.PLP.part.metal>
0.0000

> <Gold.PLP.part.buried>
-3.9335

> <Gold.PLP.part.nonpolar>
-35.5356

> <Gold.PLP.part.repulsive>
0.0555

> <Gold.PLP.ligand.clash>
0.0000

> <Gold.PLP.ligand.torsion>
0.9192

> <Gold.PLP.Chemscore.Hbond>
1.8560

> <Gold.PLP.Chemscore.CHOScore>
0.0000

> <Gold.PLP.Chemscore.Metal>
0.0000

> <Gold.Chemscore.Hbonds>
donor molecule, donor type, donor heavy atom, donor atom, acceptor molecule, acceptor atom, score
      P1  H  7997  8009       L1     5  1.02

> <Gold.PLP.Chemscore.Internal.Correction>
0.0674

> <Gold.Rescore>
     Score         DG    S(hbond)    S(metal)    S(lipo)     H(rot)  DE(clash)    DE(int)     intcor
     15.61     -16.69       0.77        0.00     109.03       1.62       0.12       0.95       ----

> <Gold.Chemscore.Fitness>
15.6131

> <Gold.Chemscore.DG>
-16.6851

> <Gold.Chemscore.ZeroCoef>
-5.4800

> <Gold.Chemscore.Hbond>
0.7746

> <Gold.Chemscore.Metal>
0.0000

> <Gold.Chemscore.Lipo>
109.0347

> <Gold.Chemscore.Internal_Hbond>
0.0000

> <Gold.Chemscore.DEClash>
0.1194

> <Gold.Chemscore.DEInternal>
0.9526

> <Gold.Chemscore.Rot>
1.6169

> <Gold.Chemscore.Internal.Correction>
   9.000000E+99

> <Gold.Chemscore.Hbonds>
donor molecule, donor type, donor heavy atom, donor atom, acceptor molecule, acceptor atom, score
      P1  H  7997  8009       L1     5  0.03

> <Gold.Chemscore.Hbond.Weighted>
-2.5873

> <Gold.Chemscore.Metal.Weighted>
-0.0000

> <Gold.Chemscore.Lipo.Weighted>
-12.7571

> <Gold.Chemscore.Internal_Hbond.Weighted>
0.0000

> <Gold.Chemscore.DEClash.Weighted>
0.1194

> <Gold.Chemscore.DEInternal.Weighted>
0.9526

> <Gold.Chemscore.Rot.Weighted>
4.1393

> <Gold.Chemscore.Internal.Correction.Weighted>
   9.000000E+99

> <Gold.Protein.RotatedTorsions>
[ 6907 6896 6895 6894 ] final   68.34 input  -60.11 | X-H torsion
[ 7974 7965 7964 7962 ] final   95.65 input  175.53 | X-H torsion
[ 8008 7997 7996 7995 ] final  137.40 input   59.86 | X-H torsion
[ 10167 10162 10161 10158 ] final  -61.31 input  -65.29 | X-H torsion
[ 10718 10713 10712 10709 ] final  -61.77 input   66.30 | X-H torsion
[ 10763 10752 10751 10750 ] final   -4.88 input  -60.55 | X-H torsion
[ 11005 11000 10999 10996 ] final    2.42 input  -57.11 | X-H torsion

> <Gold.Protein.ActiveResidues>
 VAL166  LYS551  ARG553  GLY616  TRP617  ASP618  TYR619  PRO620  LYS621  CYS622 
 ASP623  PHE694  ASN695  SER759  ASP760  ASP761  ALA762  ILE779  LEU786  VAL792 
 PHE793  MET794  SER795  GLU796  ALA797  LYS798  CYS799  TRP800  GLU811  SER814 

> <Gold.Protein.RotatedAtoms>
  152.4614  134.5176  159.9772 H   0  0  0  0  0  0  0  0  0  0  0  0  # atno 6907 bound_to 6896
  151.5224  133.3458  159.2911 H   0  0  0  0  0  0  0  0  0  0  0  0  # atno 6908 bound_to 6896
  150.8578  134.7951  159.7122 H   0  0  0  0  0  0  0  0  0  0  0  0  # atno 6909 bound_to 6896
  145.4494  139.2294  143.3048 H   0  0  0  0  0  0  0  0  0  0  0  0  # atno 7974 bound_to 7965
  156.3002  140.2420  156.3904 H   0  0  0  0  0  0  0  0  0  0  0  0  # atno 8008 bound_to 7997
  154.8619  140.0419  157.1690 H   0  0  0  0  0  0  0  0  0  0  0  0  # atno 8009 bound_to 7997
  154.8887  140.2960  155.5387 H   0  0  0  0  0  0  0  0  0  0  0  0  # atno 8010 bound_to 7997
  140.6014  143.2362  151.5920 H   0  0  0  0  0  0  0  0  0  0  0  0  # atno 10167 bound_to 10162
  156.0899  130.4202  150.1041 H   0  0  0  0  0  0  0  0  0  0  0  0  # atno 10718 bound_to 10713
  153.3908  135.7002  153.6496 H   0  0  0  0  0  0  0  0  0  0  0  0  # atno 10763 bound_to 10752
  153.5069  135.3640  155.2568 H   0  0  0  0  0  0  0  0  0  0  0  0  # atno 10764 bound_to 10752
  154.8702  135.4125  154.3225 H   0  0  0  0  0  0  0  0  0  0  0  0  # atno 10765 bound_to 10752
  140.6045  133.9805  155.8148 H   0  0  0  0  0  0  0  0  0  0  0  0  # atno 11005 bound_to 11000
  146.2513  140.5251  142.8892 LP  0  0  0  0  0  0  0  0  0  0  0  0  # atno 17320 bound_to 7965
  144.8071  140.6319  143.6440 LP  0  0  0  0  0  0  0  0  0  0  0  0  # atno 17321 bound_to 7965
  139.5294  144.2962  152.1111 LP  0  0  0  0  0  0  0  0  0  0  0  0  # atno 17342 bound_to 10162
  140.2143  144.4530  150.6371 LP  0  0  0  0  0  0  0  0  0  0  0  0  # atno 17343 bound_to 10162
  156.9053  130.9634  151.3570 LP  0  0  0  0  0  0  0  0  0  0  0  0  # atno 17370 bound_to 10713
  157.6046  130.8537  149.8854 LP  0  0  0  0  0  0  0  0  0  0  0  0  # atno 17371 bound_to 10713
  141.0850  134.0005  157.3328 LP  0  0  0  0  0  0  0  0  0  0  0  0  # atno 17394 bound_to 11000
  139.9218  135.0200  156.8092 LP  0  0  0  0  0  0  0  0  0  0  0  0  # atno 17395 bound_to 11000

$$$$
