AV-unprocessed.smi:252|AV-procd|sdf|1943|dock4
  -GOLD-   2262021 73D 1   1.00000     0.00000
 Structure written by MMmdl.
 56 59  0  0  0  0  0  0  0  0  1 V2000
  147.3242  140.3958  154.1725 C   0  0  0  0  0  0  0  0  0  0  0  0
  147.9361  141.6789  154.7568 C   0  0  0  0  0  0  0  0  0  0  0  0
  149.3458  141.4844  155.3243 C   0  0  0  0  0  0  0  0  0  0  0  0
  150.0277  140.5088  155.0079 O   0  0  0  0  0  0  0  0  0  0  0  0
  149.7702  142.4334  156.1729 N   0  0  0  0  0  0  0  0  0  0  0  0
  151.0673  142.4470  156.8414 C   0  0  1  0  0  0  0  0  0  0  0  0
  151.1393  143.6379  157.8138 C   0  0  0  0  0  0  0  0  0  0  0  0
  152.4639  143.6160  158.5915 C   0  0  0  0  0  0  0  0  0  0  0  0
  152.6622  142.2689  159.3040 C   0  0  0  0  0  0  0  0  0  0  0  0
  152.5482  141.1589  158.3587 N   0  0  0  0  0  0  0  0  0  0  0  0
  153.0455  139.9788  158.8086 C   0  0  0  0  0  0  0  0  0  0  0  0
  152.6526  138.8118  158.2306 N   0  0  0  0  0  0  0  0  0  0  0  0
  153.1295  137.6447  158.6728 C   0  0  0  0  0  0  0  0  0  0  0  0
  153.9928  137.4181  159.6641 N   0  0  0  0  0  0  0  0  0  0  0  0
  154.3951  138.5840  160.2461 C   0  0  0  0  0  0  0  0  0  0  0  0
  153.9789  139.8956  159.8804 C   0  0  0  0  0  0  0  0  0  0  0  0
  154.6189  140.8344  160.6813 N   0  0  0  0  0  0  0  0  0  0  0  0
  155.3636  140.1189  161.4788 C   0  0  0  0  0  0  0  0  0  0  0  0
  155.2790  138.7569  161.2971 N   0  0  0  0  0  0  0  0  0  0  0  0
  155.9935  137.7327  162.0431 C   0  0  0  0  0  0  0  0  0  0  0  0
  155.1029  136.5428  162.4978 C   0  0  2  0  0  0  0  0  0  0  0  0
  154.7496  135.7565  161.3756 O   0  0  0  0  0  0  0  0  0  0  0  0
  153.8313  136.9633  163.2253 C   0  0  0  0  0  0  0  0  0  0  0  0
  154.3249  137.1863  164.6515 C   0  0  0  0  0  0  0  0  0  0  0  0
  155.4106  136.2807  164.8280 O   0  0  0  0  0  0  0  0  0  0  0  0
  155.7427  135.6608  163.5878 C   0  0  2  0  0  0  0  0  0  0  0  0
  157.2568  135.4238  163.4860 C   0  0  0  0  0  0  0  0  0  0  0  0
  151.3011  141.1203  157.5927 C   0  0  0  0  0  0  0  0  0  0  0  0
  146.3149  140.5830  153.8053 H   0  0  0  0  0  0  0  0  0  0  0  0
  147.2606  139.6075  154.9236 H   0  0  0  0  0  0  0  0  0  0  0  0
  147.9130  140.0188  153.3355 H   0  0  0  0  0  0  0  0  0  0  0  0
  147.9747  142.4502  153.9868 H   0  0  0  0  0  0  0  0  0  0  0  0
  147.2896  142.0577  155.5495 H   0  0  0  0  0  0  0  0  0  0  0  0
  149.1458  143.2002  156.3762 H   0  0  0  0  0  0  0  0  0  0  0  0
  151.8524  142.5726  156.0932 H   0  0  0  0  0  0  0  0  0  0  0  0
  151.0430  144.5781  157.2694 H   0  0  0  0  0  0  0  0  0  0  0  0
  150.3055  143.5962  158.5163 H   0  0  0  0  0  0  0  0  0  0  0  0
  153.2937  143.7901  157.9052 H   0  0  0  0  0  0  0  0  0  0  0  0
  152.4858  144.4284  159.3182 H   0  0  0  0  0  0  0  0  0  0  0  0
  153.6280  142.2679  159.8082 H   0  0  0  0  0  0  0  0  0  0  0  0
  151.9061  142.1452  160.0802 H   0  0  0  0  0  0  0  0  0  0  0  0
  152.7662  136.7664  158.1597 H   0  0  0  0  0  0  0  0  0  0  0  0
  155.9946  140.5677  162.2321 H   0  0  0  0  0  0  0  0  0  0  0  0
  156.8127  137.3760  161.4177 H   0  0  0  0  0  0  0  0  0  0  0  0
  156.4588  138.2105  162.9061 H   0  0  0  0  0  0  0  0  0  0  0  0
  154.8191  134.8447  161.6134 H   0  0  0  0  0  0  0  0  0  0  0  0
  153.3262  137.8314  162.8040 H   0  0  0  0  0  0  0  0  0  0  0  0
  153.1100  136.1439  163.2284 H   0  0  0  0  0  0  0  0  0  0  0  0
  154.6951  138.2045  164.7748 H   0  0  0  0  0  0  0  0  0  0  0  0
  153.5421  137.0192  165.3917 H   0  0  0  0  0  0  0  0  0  0  0  0
  155.2415  134.6909  163.5929 H   0  0  0  0  0  0  0  0  0  0  0  0
  157.5209  134.9827  162.5245 H   0  0  0  0  0  0  0  0  0  0  0  0
  157.5923  134.7414  164.2672 H   0  0  0  0  0  0  0  0  0  0  0  0
  157.8197  136.3502  163.6003 H   0  0  0  0  0  0  0  0  0  0  0  0
  150.4707  140.9245  158.2730 H   0  0  0  0  0  0  0  0  0  0  0  0
  151.3330  140.2967  156.8778 H   0  0  0  0  0  0  0  0  0  0  0  0
  1  2  1  0  0  0  0
  1 29  1  0  0  0  0
  1 30  1  0  0  0  0
  1 31  1  0  0  0  0
  2  3  1  0  0  0  0
  2 32  1  0  0  0  0
  2 33  1  0  0  0  0
  3  4  2  0  0  0  0
  3  5  1  0  0  0  0
  5  6  1  0  0  0  0
  5 34  1  0  0  0  0
  6 28  1  0  0  0  0
  6  7  1  0  0  0  0
  6 35  1  0  0  0  0
  7  8  1  0  0  0  0
  7 36  1  0  0  0  0
  7 37  1  0  0  0  0
  8  9  1  0  0  0  0
  8 38  1  0  0  0  0
  8 39  1  0  0  0  0
  9 10  1  0  0  0  0
  9 40  1  0  0  0  0
  9 41  1  0  0  0  0
 10 11  1  0  0  0  0
 10 28  1  0  0  0  0
 11 16  1  0  0  0  0
 11 12  2  0  0  0  0
 12 13  1  0  0  0  0
 13 14  2  0  0  0  0
 13 42  1  0  0  0  0
 14 15  1  0  0  0  0
 15 19  1  0  0  0  0
 15 16  2  0  0  0  0
 16 17  1  0  0  0  0
 17 18  2  0  0  0  0
 18 19  1  0  0  0  0
 18 43  1  0  0  0  0
 19 20  1  0  0  0  0
 20 21  1  0  0  0  0
 20 44  1  0  0  0  0
 20 45  1  0  0  0  0
 21 26  1  0  0  0  0
 21 22  1  0  0  0  0
 21 23  1  0  0  0  0
 22 46  1  0  0  0  0
 23 24  1  0  0  0  0
 23 47  1  0  0  0  0
 23 48  1  0  0  0  0
 24 25  1  0  0  0  0
 24 49  1  0  0  0  0
 24 50  1  0  0  0  0
 25 26  1  0  0  0  0
 26 27  1  0  0  0  0
 26 51  1  0  0  0  0
 27 52  1  0  0  0  0
 27 53  1  0  0  0  0
 27 54  1  0  0  0  0
 28 55  1  0  0  0  0
 28 56  1  0  0  0  0
M  END
> <s_m_source_file>
AV-unprocessed.smi

> <i_m_source_file_index>
252

> <i_lp_mmshare_version>
43012

> <i_f3d_flags>
0

> <s_epik_input>
W0NIM11bQ0gyXUMoPU8pW05IXVtDQEBIXTFbQ0gyXVtDSDJdW0NIMl1OKFtDSDJdMSljKG5bY0hdbjIpYyhjMjMpbltjSF1uM1tDSDJdW0NAQF00KFtPSF0pW0NIMl1bQ0gyXU9bQ0BIXTRbQ0gzXQ==

> <s_epik_cmdline>
J2VwaWtfcHl0aG9uJywgJy1waCcsICc3LjAnLCAnLXRuJywgJzgnLCAnLW1hJywgJzIwMCcsICctbWV0YWxfYmluZGluZycsICctaW1hZScsICc8aW5maWxlLm1hZT4nLCAnLW9tYWUnLCAnPG91dGZpbGUubWFlPic=

> <r_lp_tautomer_probability>
1

> <r_epik_Ionization_Penalty>
0.00182575

> <r_epik_Ionization_Penalty_Charging>
0

> <r_epik_Ionization_Penalty_Neutral>
0.00182575

> <r_epik_State_Penalty>
0.00104524

> <r_epik_Charging_Adjusted_Penalty>
0.00104524

> <i_epik_Tot_Q>
0

> <i_epik_Tot_abs_Q>
0

> <r_epik_Metal_State_Penalty>
-0

> <b_epik_Metal_Only>
0

> <s_lp_Force_Field>
OPLS_2005

> <r_lp_Energy>
35.9235

> <b_lp_Chiralities_Consistent>
1

> <s_lp_Variant>
AV-unprocessed.smi:252-8

> <Gold.Version>
5.8.1

> <Gold.Id.Protein>
6NUR|6NUR_protein|mol2

> <Gold.PLP.Fitness>
46.5080

> <Gold.PLP.PLP>
-42.9944

> <Gold.PLP.part.hbond>
-1.9628

> <Gold.PLP.part.metal>
0.0000

> <Gold.PLP.part.buried>
-5.3695

> <Gold.PLP.part.nonpolar>
-37.3301

> <Gold.PLP.part.repulsive>
1.2136

> <Gold.PLP.ligand.clash>
0.0000

> <Gold.PLP.ligand.torsion>
1.1135

> <Gold.PLP.Chemscore.Hbond>
1.7760

> <Gold.PLP.Chemscore.CHOScore>
0.0000

> <Gold.PLP.Chemscore.Metal>
0.0000

> <Gold.Chemscore.Hbonds>
donor molecule, donor type, donor heavy atom, donor atom, acceptor molecule, acceptor atom, score
      L1  H     5    34       P1  8028  0.69
      P1  H  7989  7998       L1     4  0.47

> <Gold.PLP.Chemscore.Internal.Correction>
0.4127

> <Gold.Rescore>
     Score         DG    S(hbond)    S(metal)    S(lipo)     H(rot)  DE(clash)    DE(int)     intcor
     12.13     -16.21       1.59        0.00     105.39       2.70       0.29       3.79       ----

> <Gold.Chemscore.Fitness>
12.1282

> <Gold.Chemscore.DG>
-16.2075

> <Gold.Chemscore.ZeroCoef>
-5.4800

> <Gold.Chemscore.Hbond>
1.5927

> <Gold.Chemscore.Metal>
0.0000

> <Gold.Chemscore.Lipo>
105.3873

> <Gold.Chemscore.Internal_Hbond>
0.0000

> <Gold.Chemscore.DEClash>
0.2927

> <Gold.Chemscore.DEInternal>
3.7867

> <Gold.Chemscore.Rot>
2.7041

> <Gold.Chemscore.Internal.Correction>
   9.000000E+99

> <Gold.Chemscore.Hbonds>
donor molecule, donor type, donor heavy atom, donor atom, acceptor molecule, acceptor atom, score
      L1  H     5    34       P1  8028  0.68
      P1  H  7989  7998       L1     4  0.44

> <Gold.Chemscore.Hbond.Weighted>
-5.3197

> <Gold.Chemscore.Metal.Weighted>
-0.0000

> <Gold.Chemscore.Lipo.Weighted>
-12.3303

> <Gold.Chemscore.Internal_Hbond.Weighted>
0.0000

> <Gold.Chemscore.DEClash.Weighted>
0.2927

> <Gold.Chemscore.DEInternal.Weighted>
3.7867

> <Gold.Chemscore.Rot.Weighted>
6.9225

> <Gold.Chemscore.Internal.Correction.Weighted>
   9.000000E+99

> <Gold.Protein.RotatedTorsions>
[ 6907 6896 6895 6894 ] final   91.36 input  -60.11 | X-H torsion
[ 7974 7965 7964 7962 ] final -165.63 input  175.53 | X-H torsion
[ 8008 7997 7996 7995 ] final   91.90 input   59.86 | X-H torsion
[ 10167 10162 10161 10158 ] final  133.22 input  -65.29 | X-H torsion
[ 10718 10713 10712 10709 ] final -178.14 input   66.30 | X-H torsion
[ 10763 10752 10751 10750 ] final  109.52 input  -60.55 | X-H torsion
[ 11005 11000 10999 10996 ] final  160.28 input  -57.11 | X-H torsion

> <Gold.Protein.ActiveResidues>
 VAL166  LYS551  ARG553  GLY616  TRP617  ASP618  TYR619  PRO620  LYS621  CYS622 
 ASP623  PHE694  ASN695  SER759  ASP760  ASP761  ALA762  ILE779  LEU786  VAL792 
 PHE793  MET794  SER795  GLU796  ALA797  LYS798  CYS799  TRP800  GLU811  SER814 

> <Gold.Protein.RotatedAtoms>
  152.5449  134.1668  159.8580 H   0  0  0  0  0  0  0  0  0  0  0  0  # atno 6907 bound_to 6896
  151.1682  133.4794  159.2601 H   0  0  0  0  0  0  0  0  0  0  0  0  # atno 6908 bound_to 6896
  151.1303  135.0138  159.8634 H   0  0  0  0  0  0  0  0  0  0  0  0  # atno 6909 bound_to 6896
  144.7265  140.2786  143.6239 H   0  0  0  0  0  0  0  0  0  0  0  0  # atno 7974 bound_to 7965
  156.0291  140.3332  155.7120 H   0  0  0  0  0  0  0  0  0  0  0  0  # atno 8008 bound_to 7997
  155.5911  140.0646  157.2776 H   0  0  0  0  0  0  0  0  0  0  0  0  # atno 8009 bound_to 7997
  154.4346  140.1827  156.1064 H   0  0  0  0  0  0  0  0  0  0  0  0  # atno 8010 bound_to 7997
  139.5306  144.6626  151.4965 H   0  0  0  0  0  0  0  0  0  0  0  0  # atno 10167 bound_to 10162
  156.8399  130.9683  151.3100 H   0  0  0  0  0  0  0  0  0  0  0  0  # atno 10718 bound_to 10713
  153.4359  135.3777  155.2199 H   0  0  0  0  0  0  0  0  0  0  0  0  # atno 10763 bound_to 10752
  154.8752  135.3851  154.4211 H   0  0  0  0  0  0  0  0  0  0  0  0  # atno 10764 bound_to 10752
  153.4750  135.7087  153.6034 H   0  0  0  0  0  0  0  0  0  0  0  0  # atno 10765 bound_to 10752
  140.2044  134.8314  157.3053 H   0  0  0  0  0  0  0  0  0  0  0  0  # atno 11005 bound_to 11000
  145.7972  139.1950  143.2069 LP  0  0  0  0  0  0  0  0  0  0  0  0  # atno 17320 bound_to 7965
  146.0707  140.7872  142.9689 LP  0  0  0  0  0  0  0  0  0  0  0  0  # atno 17321 bound_to 7965
  140.6481  143.8753  150.6758 LP  0  0  0  0  0  0  0  0  0  0  0  0  # atno 17342 bound_to 10162
  140.2108  143.3884  152.1719 LP  0  0  0  0  0  0  0  0  0  0  0  0  # atno 17343 bound_to 10162
  157.6361  130.8768  149.9361 LP  0  0  0  0  0  0  0  0  0  0  0  0  # atno 17370 bound_to 10713
  156.0886  130.3665  150.0438 LP  0  0  0  0  0  0  0  0  0  0  0  0  # atno 17371 bound_to 10713
  140.2019  134.4244  155.7658 LP  0  0  0  0  0  0  0  0  0  0  0  0  # atno 17394 bound_to 11000
  141.2227  133.7076  156.8197 LP  0  0  0  0  0  0  0  0  0  0  0  0  # atno 17395 bound_to 11000

$$$$
