AV-unprocessed.smi:47|AV-procd|sdf|444|dock3
  -GOLD-   2262016313D 1   1.00000     0.00000
 Structure written by MMmdl.
 30 32  0  0  0  0  0  0  0  0  2 V2000
  145.6819  140.8221  154.6643 O   0  0  0  0  0  0  0  0  0  0  0  0
  146.9424  140.7190  154.0371 C   0  0  2  0  0  0  0  0  0  0  0  0
  147.4444  139.2794  153.9697 C   0  0  0  0  0  0  0  0  0  0  0  0
  148.8957  139.3734  153.8331 N   0  0  0  0  0  0  0  0  0  0  0  0
  149.3132  140.7069  154.2844 C   0  0  2  0  0  0  0  0  0  0  0  0
  150.4386  140.6861  155.3022 C   0  0  0  0  0  0  0  0  0  0  0  0
  151.5748  139.9685  155.1893 N   0  0  0  0  0  0  0  0  0  0  0  0
  152.2658  140.1982  156.2900 N   0  5  0  0  0  0  0  0  0  0  0  0
  151.5461  141.0322  157.0560 C   0  0  0  0  0  0  0  0  0  0  0  0
  152.0202  141.4984  158.3755 C   0  0  0  0  0  0  0  0  0  0  0  0
  152.9049  140.7031  159.1405 C   0  0  0  0  0  0  0  0  0  0  0  0
  153.3659  141.1345  160.3996 C   0  0  0  0  0  0  0  0  0  0  0  0
  152.9464  142.3737  160.9161 C   0  0  0  0  0  0  0  0  0  0  0  0
  152.0660  143.1775  160.1698 C   0  0  0  0  0  0  0  0  0  0  0  0
  151.6083  142.7419  158.9109 C   0  0  0  0  0  0  0  0  0  0  0  0
  150.3998  141.3473  156.4696 N   0  0  0  0  0  0  0  0  0  0  0  0
  148.0549  141.4044  154.8166 C   0  0  0  0  0  0  0  0  0  0  0  0
  146.8813  141.1385  153.0318 H   0  0  0  0  0  0  0  0  0  0  0  0
  149.6667  141.2626  153.4151 H   0  0  0  0  0  0  0  0  0  0  0  0
  145.0134  140.8107  153.9966 H   0  0  0  0  0  0  0  0  0  0  0  0
  147.2057  138.7638  154.9008 H   0  0  0  0  0  0  0  0  0  0  0  0
  146.9930  138.7139  153.1544 H   0  0  0  0  0  0  0  0  0  0  0  0
  149.1360  139.2808  152.8519 H   0  0  0  0  0  0  0  0  0  0  0  0
  153.2384  139.7485  158.7608 H   0  0  0  0  0  0  0  0  0  0  0  0
  154.0418  140.5131  160.9682 H   0  0  0  0  0  0  0  0  0  0  0  0
  153.2986  142.7062  161.8814 H   0  0  0  0  0  0  0  0  0  0  0  0
  151.7404  144.1298  160.5619 H   0  0  0  0  0  0  0  0  0  0  0  0
  150.9324  143.3755  158.3558 H   0  0  0  0  0  0  0  0  0  0  0  0
  148.0795  142.4868  154.6876 H   0  0  0  0  0  0  0  0  0  0  0  0
  147.9353  141.1961  155.8818 H   0  0  0  0  0  0  0  0  0  0  0  0
  1  2  1  0  0  0  0
  1 20  1  0  0  0  0
  2 18  1  0  0  0  0
  2 17  1  0  0  0  0
  2  3  1  0  0  0  0
  3  4  1  0  0  0  0
  3 21  1  0  0  0  0
  3 22  1  0  0  0  0
  4  5  1  0  0  0  0
  4 23  1  0  0  0  0
  5 19  1  0  0  0  0
  5  6  1  0  0  0  0
  5 17  1  0  0  0  0
  6 16  1  0  0  0  0
  6  7  2  0  0  0  0
  7  8  1  0  0  0  0
  8  9  1  0  0  0  0
  9 10  1  0  0  0  0
  9 16  2  0  0  0  0
 10 15  1  0  0  0  0
 10 11  2  0  0  0  0
 11 12  1  0  0  0  0
 11 24  1  0  0  0  0
 12 13  2  0  0  0  0
 12 25  1  0  0  0  0
 13 14  1  0  0  0  0
 13 26  1  0  0  0  0
 14 15  2  0  0  0  0
 14 27  1  0  0  0  0
 15 28  1  0  0  0  0
 17 29  1  0  0  0  0
 17 30  1  0  0  0  0
M  CHG  1   8  -1
M  END
> <s_m_source_file>
AV-unprocessed.smi

> <i_m_source_file_index>
47

> <i_lp_mmshare_version>
43012

> <i_f3d_flags>
0

> <s_epik_input>
W09IXVtDQEhdMVtDSDJdW05IXVtDQEBIXShbQ0gyXTEpYzJuW25IXWMobjIpLWMzW2NIXVtjSF1bY0hdW2NIXVtjSF0z

> <s_epik_cmdline>
J2VwaWtfcHl0aG9uJywgJy1waCcsICc3LjAnLCAnLXRuJywgJzgnLCAnLW1hJywgJzIwMCcsICctbWV0YWxfYmluZGluZycsICctaW1hZScsICc8aW5maWxlLm1hZT4nLCAnLW9tYWUnLCAnPG91dGZpbGUubWFlPic=

> <r_epik_Ionization_Penalty>
16.1968

> <r_epik_Ionization_Penalty_Charging>
13.1522

> <r_epik_Ionization_Penalty_Neutral>
3.04463

> <r_epik_State_Penalty>
6.32428

> <r_epik_Charging_Adjusted_Penalty>
19.4764

> <i_epik_Tot_Q>
-1

> <i_epik_Tot_abs_Q>
1

> <r_epik_Metal_State_Penalty>
2.82187

> <b_epik_Metal_Only>
1

> <s_lp_Force_Field>
OPLS_2005

> <r_lp_Energy>
30.45

> <b_lp_Chiralities_Consistent>
1

> <s_lp_Variant>
AV-unprocessed.smi:47-22

> <Gold.Version>
5.8.1

> <Gold.Id.Protein>
6NUR|6NUR_protein|mol2

> <Gold.PLP.Fitness>
44.3089

> <Gold.PLP.PLP>
-33.2489

> <Gold.PLP.part.hbond>
-4.0000

> <Gold.PLP.part.metal>
0.0000

> <Gold.PLP.part.buried>
-2.1580

> <Gold.PLP.part.nonpolar>
-26.5888

> <Gold.PLP.part.repulsive>
0.0903

> <Gold.PLP.ligand.clash>
0.0000

> <Gold.PLP.ligand.torsion>
0.5148

> <Gold.PLP.Chemscore.Hbond>
4.0263

> <Gold.PLP.Chemscore.CHOScore>
0.0000

> <Gold.PLP.Chemscore.Metal>
0.0000

> <Gold.Chemscore.Hbonds>
donor molecule, donor type, donor heavy atom, donor atom, acceptor molecule, acceptor atom, score
      L1  H     1    20       P1 10175  0.98
      L1  H     4    23       P1  7957  1.00
      P1  H  7989  7998       L1     7  0.10
      P1  H  7997  8010       L1     8  1.82

> <Gold.PLP.Chemscore.Internal.Correction>
0.0108

> <Gold.Rescore>
     Score         DG    S(hbond)    S(metal)    S(lipo)     H(rot)  DE(clash)    DE(int)     intcor
     20.10     -20.74       2.80        0.00      82.44       1.46       0.07       0.58       ----

> <Gold.Chemscore.Fitness>
20.0961

> <Gold.Chemscore.DG>
-20.7444

> <Gold.Chemscore.ZeroCoef>
-5.4800

> <Gold.Chemscore.Hbond>
2.8030

> <Gold.Chemscore.Metal>
0.0000

> <Gold.Chemscore.Lipo>
82.4371

> <Gold.Chemscore.Internal_Hbond>
0.0000

> <Gold.Chemscore.DEClash>
0.0726

> <Gold.Chemscore.DEInternal>
0.5757

> <Gold.Chemscore.Rot>
1.4621

> <Gold.Chemscore.Internal.Correction>
   9.000000E+99

> <Gold.Chemscore.Hbonds>
donor molecule, donor type, donor heavy atom, donor atom, acceptor molecule, acceptor atom, score
      L1  H     1    20       P1 10175  0.88
      L1  H     4    23       P1  7957  0.96
      P1  H  7997  8010       L1     8  0.84

> <Gold.Chemscore.Hbond.Weighted>
-9.3621

> <Gold.Chemscore.Metal.Weighted>
-0.0000

> <Gold.Chemscore.Lipo.Weighted>
-9.6451

> <Gold.Chemscore.Internal_Hbond.Weighted>
0.0000

> <Gold.Chemscore.DEClash.Weighted>
0.0726

> <Gold.Chemscore.DEInternal.Weighted>
0.5757

> <Gold.Chemscore.Rot.Weighted>
3.7429

> <Gold.Chemscore.Internal.Correction.Weighted>
   9.000000E+99

> <Gold.Protein.RotatedTorsions>
[ 6907 6896 6895 6894 ] final   23.93 input  -60.11 | X-H torsion
[ 7974 7965 7964 7962 ] final  107.16 input  175.53 | X-H torsion
[ 8008 7997 7996 7995 ] final   78.46 input   59.86 | X-H torsion
[ 10167 10162 10161 10158 ] final -152.33 input  -65.29 | X-H torsion
[ 10718 10713 10712 10709 ] final  178.59 input   66.30 | X-H torsion
[ 10763 10752 10751 10750 ] final  -70.16 input  -60.55 | X-H torsion
[ 11005 11000 10999 10996 ] final  -42.38 input  -57.11 | X-H torsion

> <Gold.Protein.ActiveResidues>
 VAL166  LYS551  ARG553  GLY616  TRP617  ASP618  TYR619  PRO620  LYS621  CYS622 
 ASP623  PHE694  ASN695  SER759  ASP760  ASP761  ALA762  ILE779  LEU786  VAL792 
 PHE793  MET794  SER795  GLU796  ALA797  LYS798  CYS799  TRP800  GLU811  SER814 

> <Gold.Protein.RotatedAtoms>
  151.9499  135.0174  160.0541 H   0  0  0  0  0  0  0  0  0  0  0  0  # atno 6907 bound_to 6896
  152.1962  133.4804  159.5043 H   0  0  0  0  0  0  0  0  0  0  0  0  # atno 6908 bound_to 6896
  150.6945  134.1566  159.4203 H   0  0  0  0  0  0  0  0  0  0  0  0  # atno 6909 bound_to 6896
  145.2972  139.2581  143.3833 H   0  0  0  0  0  0  0  0  0  0  0  0  # atno 7974 bound_to 7965
  155.8560  140.3456  155.5725 H   0  0  0  0  0  0  0  0  0  0  0  0  # atno 8008 bound_to 7997
  155.7985  140.0882  157.1989 H   0  0  0  0  0  0  0  0  0  0  0  0  # atno 8009 bound_to 7997
  154.4009  140.1470  156.3234 H   0  0  0  0  0  0  0  0  0  0  0  0  # atno 8010 bound_to 7997
  139.7190  143.8987  152.2496 H   0  0  0  0  0  0  0  0  0  0  0  0  # atno 10167 bound_to 10162
  156.8883  130.9839  151.3053 H   0  0  0  0  0  0  0  0  0  0  0  0  # atno 10718 bound_to 10713
  154.4137  135.6003  153.5968 H   0  0  0  0  0  0  0  0  0  0  0  0  # atno 10763 bound_to 10752
  152.9791  135.5935  154.4039 H   0  0  0  0  0  0  0  0  0  0  0  0  # atno 10764 bound_to 10752
  154.3855  135.2841  155.2164 H   0  0  0  0  0  0  0  0  0  0  0  0  # atno 10765 bound_to 10752
  141.0312  133.6819  156.2587 H   0  0  0  0  0  0  0  0  0  0  0  0  # atno 11005 bound_to 11000
  146.3164  140.3478  142.8653 LP  0  0  0  0  0  0  0  0  0  0  0  0  # atno 17320 bound_to 7965
  144.9123  140.7772  143.5800 LP  0  0  0  0  0  0  0  0  0  0  0  0  # atno 17321 bound_to 7965
  139.8878  144.6982  150.8805 LP  0  0  0  0  0  0  0  0  0  0  0  0  # atno 17342 bound_to 10162
  140.7750  143.3610  151.1828 LP  0  0  0  0  0  0  0  0  0  0  0  0  # atno 17343 bound_to 10162
  157.6099  130.8575  149.8935 LP  0  0  0  0  0  0  0  0  0  0  0  0  # atno 17370 bound_to 10713
  156.0642  130.3695  150.0915 LP  0  0  0  0  0  0  0  0  0  0  0  0  # atno 17371 bound_to 10713
  140.6403  134.5172  157.5569 LP  0  0  0  0  0  0  0  0  0  0  0  0  # atno 17394 bound_to 11000
  139.9209  134.8151  156.1215 LP  0  0  0  0  0  0  0  0  0  0  0  0  # atno 17395 bound_to 11000

$$$$
