#       Name:                AV-unprocessed.smi:1422
#       Creating user name   scv26
#       Creation time:       Fri Mar 27 05:44:11 2020


#       File generated by GOLD software.
#

@<TRIPOS>MOLECULE
AV-unprocessed.smi:1422
    38    39     1
SMALL
NO_CHARGES


@<TRIPOS>ATOM
      1 ****        -5.9273  -2.2532   0.7504 C.3            1 S1                 0.0000
      2 ****        -4.6181  -1.5422   0.7145 C.2            1 S1                 0.0000
      3 ****        -3.3349  -1.9434   0.9591 C.2            1 S1                 0.0000
      4 ****        -2.5830  -0.7577   0.7448 C.2            1 S1                 0.0000
      5 ****        -1.1739  -0.7518   0.9043 N.am           1 S1                 0.0000
      6 ****        -0.3354   0.2864   0.7454 C.2            1 S1                 0.0000
      7 ****        -0.6711   1.4253   0.4192 O.2            1 S1                 0.0000
      8 ****         0.9342  -0.0731   0.9848 N.am           1 S1                 0.0000
      9 ****         2.0954   0.8070   0.8963 C.3            1 S1                 0.0000
     10 ****         2.8112   0.6742  -0.4608 C.3            1 S1                 0.0000
     11 ****         4.0617   1.5207  -0.5796 C.3            1 S1                 0.0000
     12 ****         4.2790   1.5493  -2.0895 C.3            1 S1                 0.0000
     13 ****         2.9796   1.4815  -2.6698 O.3            1 S1                 0.0000
     14 ****         2.0140   1.1676  -1.6705 C.3            1 S1                 0.0000
     15 ****        -3.3385   0.2733   0.3989 N.2            1 S1                 0.0000
     16 ****        -4.6469  -0.2240   0.3785 O.3            1 S1                 0.0000
     17 ****        -5.7831  -3.3332   0.7836 H              1 S1                 0.0000
     18 ****        -6.5206  -2.0190  -0.1336 H              1 S1                 0.0000
     19 ****        -6.5005  -1.9610   1.6304 H              1 S1                 0.0000
     20 ****        -2.9931  -2.9267   1.2460 H              1 S1                 0.0000
     21 ****        -0.7603  -1.6328   1.1711 H              1 S1                 0.0000
     22 ****         1.1135  -1.0314   1.2470 H              1 S1                 0.0000
     23 ****         1.8153   1.8448   1.0858 H              1 S1                 0.0000
     24 ****         2.7813   0.5276   1.6964 H              1 S1                 0.0000
     25 ****         3.0867  -0.3692  -0.6245 H              1 S1                 0.0000
     26 ****         3.8757   2.5304  -0.2099 H              1 S1                 0.0000
     27 ****         4.9128   1.1094  -0.0360 H              1 S1                 0.0000
     28 ****         4.8169   2.4391  -2.4169 H              1 S1                 0.0000
     29 ****         4.8459   0.6739  -2.4086 H              1 S1                 0.0000
     30 ****         1.2976   0.4282  -2.0292 H              1 S1                 0.0000
     31 ****         1.4658   2.0786  -1.4269 H              1 S1                 0.0000
     32 ****        -1.6345   1.6336   0.2504 LP             1 S1                 0.0000
     33 ****         0.0197   2.1420   0.3230 LP             1 S1                 0.0000
     34 ****         2.9686   0.7725  -3.3749 LP             1 S1                 0.0000
     35 ****         2.7546   2.3646  -3.0816 LP             1 S1                 0.0000
     36 ****        -3.0391   1.2057   0.1961 LP             1 S1                 0.0000
     37 ****        -5.2082   0.2787   1.0360 LP             1 S1                 0.0000
     38 ****        -5.0326  -0.1187  -0.5381 LP             1 S1                 0.0000
@<TRIPOS>BOND
    1    1    2 1     
    2    1   17 1     
    3    1   18 1     
    4    1   19 1     
    5    2   16 1     
    6    2    3 2     
    7    3    4 1     
    8    3   20 1     
    9    4    5 1     
   10    4   15 2     
   11    5    6 am    
   12    5   21 1     
   13    6    7 2     
   14    6    8 am    
   15    8    9 1     
   16    8   22 1     
   17    9   10 1     
   18    9   23 1     
   19    9   24 1     
   20   10   14 1     
   21   10   11 1     
   22   10   25 1     
   23   11   12 1     
   24   11   26 1     
   25   11   27 1     
   26   12   13 1     
   27   12   28 1     
   28   12   29 1     
   29   13   14 1     
   30   14   30 1     
   31   14   31 1     
   32   15   16 1     
   33    7   32 1     
   34    7   33 1     
   35   13   34 1     
   36   13   35 1     
   37   15   36 1     
   38   16   37 1     
   39   16   38 1     
@<TRIPOS>SUBSTRUCTURE
      1 S1             1
@<TRIPOS>SET
LONE_PAIRS      STATIC     ATOMS    <user>   **** ""
7 32 33 34 35 36 37 38
DONOR_HYDROGENS      STATIC     ATOMS    <user>   **** ""
2 21 22
ATOM$BLUE        STATIC     ATOMS    COLORGROUP SYSTEM
7 32 33 34 35 36 37 38
ATOM$RED        STATIC     ATOMS    COLORGROUP SYSTEM
2 21 22
