#       Name:                AV-unprocessed.smi:37
#       Creating user name   scv26
#       Creation time:       Thu Mar 26 16:13:57 2020


#       File generated by GOLD software.
#

@<TRIPOS>MOLECULE
AV-unprocessed.smi:37
    54    55     1
SMALL
NO_CHARGES


@<TRIPOS>ATOM
      1 ****        -5.2281   2.5995  -1.1209 C.3            1 S1                 0.0000
      2 ****        -3.7985   2.0534  -1.2516 C.3            1 S1                 0.0000
      3 ****        -3.6513   0.6034  -0.7859 C.2            1 S1                 0.0000
      4 ****        -4.6126  -0.0733  -0.4160 O.2            1 S1                 0.0000
      5 ****        -2.3761   0.1906  -0.8329 O.3            1 S1                 0.0000
      6 ****        -2.0417  -1.1231  -0.4110 C.3            1 S1                 0.0000
      7 ****        -0.5271  -1.2412  -0.1968 C.3            1 S1                 0.0000
      8 ****         0.1788  -1.1019  -1.4293 O.3            1 S1                 0.0000
      9 ****         1.2000  -0.1628  -1.2773 C.3            1 S1                 0.0000
     10 ****         2.4127  -0.5779  -2.0767 N.am           1 S1                 0.0000
     11 ****         2.5738  -1.8704  -2.5619 C.2            1 S1                 0.0000
     12 ****         3.6580  -2.2573  -3.2748 C.2            1 S1                 0.0000
     13 ****         3.7486  -3.5261  -3.7078 F              1 S1                 0.0000
     14 ****         4.7307  -1.3122  -3.5719 C.2            1 S1                 0.0000
     15 ****         5.7485  -1.5676  -4.2124 O.2            1 S1                 0.0000
     16 ****         4.5279  -0.0278  -3.0580 N.am           1 S1                 0.0000
     17 ****         3.4167   0.3832  -2.3202 C.2            1 S1                 0.0000
     18 ****         3.3413   1.5402  -1.9087 O.2            1 S1                 0.0000
     19 ****         1.4844  -0.0637   0.2252 C.3            1 S1                 0.0000
     20 ****         2.6357  -1.5696   0.8671 Br             1 S1                 0.0000
     21 ****         0.0721  -0.2086   0.7670 C.3            1 S1                 0.0000
     22 ****         0.0295  -0.6506   2.1177 O.3            1 S1                 0.0000
     23 ****         0.1486   0.2355   3.1216 C.2            1 S1                 0.0000
     24 ****         0.3152   1.4494   2.9903 O.2            1 S1                 0.0000
     25 ****         0.0575  -0.4379   4.4924 C.3            1 S1                 0.0000
     26 ****         0.2718   0.5281   5.6670 C.3            1 S1                 0.0000
     27 ****         5.2466   0.6589  -3.2343 H              1 S1                 0.0000
     28 ****        -5.2751   3.6349  -1.4585 H              1 S1                 0.0000
     29 ****        -5.5699   2.5752  -0.0854 H              1 S1                 0.0000
     30 ****        -5.9318   2.0242  -1.7235 H              1 S1                 0.0000
     31 ****        -3.4747   2.1171  -2.2906 H              1 S1                 0.0000
     32 ****        -3.1154   2.6730  -0.6702 H              1 S1                 0.0000
     33 ****        -2.5528  -1.3540   0.5250 H              1 S1                 0.0000
     34 ****        -2.3798  -1.8460  -1.1545 H              1 S1                 0.0000
     35 ****        -0.3008  -2.2447   0.1666 H              1 S1                 0.0000
     36 ****         0.8536   0.7786  -1.7098 H              1 S1                 0.0000
     37 ****         1.8194  -2.6177  -2.3642 H              1 S1                 0.0000
     38 ****         1.9628   0.8811   0.4846 H              1 S1                 0.0000
     39 ****        -0.4519   0.7413   0.6510 H              1 S1                 0.0000
     40 ****        -0.9214  -0.9097   4.5800 H              1 S1                 0.0000
     41 ****         0.7980  -1.2368   4.5352 H              1 S1                 0.0000
     42 ****         0.2028  -0.0022   6.6168 H              1 S1                 0.0000
     43 ****        -0.4800   1.3179   5.6755 H              1 S1                 0.0000
     44 ****         1.2556   0.9966   5.6227 H              1 S1                 0.0000
     45 ****        -5.5310   0.3224  -0.4130 LP             1 S1                 0.0000
     46 ****        -4.4743  -1.0180  -0.1189 LP             1 S1                 0.0000
     47 ****        -0.4523  -0.7956  -2.1420 LP             1 S1                 0.0000
     48 ****         0.5727  -1.9835  -1.6893 LP             1 S1                 0.0000
     49 ****         5.8917  -2.4874  -4.5777 LP             1 S1                 0.0000
     50 ****         6.4331  -0.8555  -4.3681 LP             1 S1                 0.0000
     51 ****         2.5449   1.8315  -1.3786 LP             1 S1                 0.0000
     52 ****         4.0763   2.1894  -2.1044 LP             1 S1                 0.0000
     53 ****         0.3722   1.8503   2.0759 LP             1 S1                 0.0000
     54 ****         0.3934   2.0336   3.7981 LP             1 S1                 0.0000
@<TRIPOS>BOND
    1    1    2 1     
    2    1   28 1     
    3    1   29 1     
    4    1   30 1     
    5    2    3 1     
    6    2   31 1     
    7    2   32 1     
    8    3    4 2     
    9    3    5 1     
   10    5    6 1     
   11    6    7 1     
   12    6   33 1     
   13    6   34 1     
   14    7   21 1     
   15    7    8 1     
   16    7   35 1     
   17    8    9 1     
   18    9   10 1     
   19    9   19 1     
   20    9   36 1     
   21   10   17 1     
   22   10   11 1     
   23   11   12 2     
   24   11   37 1     
   25   12   13 1     
   26   12   14 1     
   27   14   15 2     
   28   14   16 1     
   29   16   27 1     
   30   16   17 1     
   31   17   18 2     
   32   19   20 1     
   33   19   21 1     
   34   19   38 1     
   35   21   22 1     
   36   21   39 1     
   37   22   23 1     
   38   23   24 2     
   39   23   25 1     
   40   25   26 1     
   41   25   40 1     
   42   25   41 1     
   43   26   42 1     
   44   26   43 1     
   45   26   44 1     
   46    4   45 1     
   47    4   46 1     
   48    8   47 1     
   49    8   48 1     
   50   15   49 1     
   51   15   50 1     
   52   18   51 1     
   53   18   52 1     
   54   24   53 1     
   55   24   54 1     
@<TRIPOS>SUBSTRUCTURE
      1 S1             1
@<TRIPOS>SET
LONE_PAIRS      STATIC     ATOMS    <user>   **** ""
10 45 46 47 48 49 50 51 52 53 54
DONOR_HYDROGENS      STATIC     ATOMS    <user>   **** ""
1 27
ATOM$BLUE        STATIC     ATOMS    COLORGROUP SYSTEM
10 45 46 47 48 49 50 51 52 53 54
ATOM$RED        STATIC     ATOMS    COLORGROUP SYSTEM
1 27
