#       Name:                AV-unprocessed.smi:3163
#       Creating user name   scv26
#       Creation time:       Fri Mar 27 17:50:31 2020


#       File generated by GOLD software.
#

@<TRIPOS>MOLECULE
AV-unprocessed.smi:3163
    39    40     1
SMALL
NO_CHARGES


@<TRIPOS>ATOM
      1 ****        -3.5224  -2.2333  -0.4902 C.3            1 S1                 0.0000
      2 ****        -2.4810  -1.8998  -1.4844 N.4            1 S1                 1.0000
      3 ****        -2.9968  -1.2457  -2.7062 C.3            1 S1                 0.0000
      4 ****        -1.8756  -0.3222  -3.1755 C.3            1 S1                 0.0000
      5 ****        -1.2761   0.1698  -1.8607 C.3            1 S1                 0.0000
      6 ****         0.1351   0.7708  -2.0083 C.3            1 S1                 0.0000
      7 ****         0.6287   1.3410  -0.7579 N.am           1 S1                 0.0000
      8 ****         1.3899   0.7028   0.1433 C.2            1 S1                 0.0000
      9 ****         1.7261  -0.4752   0.0283 O.2            1 S1                 0.0000
     10 ****         1.7083   1.5127   1.1686 N.am           1 S1                 0.0000
     11 ****         2.5122   1.2485   2.3127 C.ar           1 S1                 0.0000
     12 ****         2.5013   2.2069   3.3477 C.ar           1 S1                 0.0000
     13 ****         3.2948   1.9847   4.4908 C.ar           1 S1                 0.0000
     14 ****         4.0767   0.8969   4.6506 N.ar           1 S1                 0.0000
     15 ****         4.0943  -0.0155   3.6564 C.ar           1 S1                 0.0000
     16 ****         3.3395   0.1098   2.4727 C.ar           1 S1                 0.0000
     17 ****        -1.3725  -1.0701  -0.9569 C.3            1 S1                 0.0000
     18 ****        -4.0115  -1.3328  -0.1159 H              1 S1                 0.0000
     19 ****        -3.0851  -2.7635   0.3565 H              1 S1                 0.0000
     20 ****        -4.2815  -2.8773  -0.9354 H              1 S1                 0.0000
     21 ****        -3.2823  -1.9776  -3.4624 H              1 S1                 0.0000
     22 ****        -3.8791  -0.6495  -2.4666 H              1 S1                 0.0000
     23 ****        -1.1361  -0.8912  -3.7415 H              1 S1                 0.0000
     24 ****        -2.2348   0.4893  -3.8090 H              1 S1                 0.0000
     25 ****        -1.9439   0.9346  -1.4601 H              1 S1                 0.0000
     26 ****         0.8333   0.0268  -2.3964 H              1 S1                 0.0000
     27 ****         0.1100   1.5743  -2.7450 H              1 S1                 0.0000
     28 ****         0.3963   2.3075  -0.5797 H              1 S1                 0.0000
     29 ****         1.3085   2.4390   1.1358 H              1 S1                 0.0000
     30 ****         1.8963   3.0988   3.2728 H              1 S1                 0.0000
     31 ****         3.3030   2.7027   5.2977 H              1 S1                 0.0000
     32 ****         4.7350  -0.8719   3.8052 H              1 S1                 0.0000
     33 ****         3.4244  -0.6597   1.7224 H              1 S1                 0.0000
     34 ****        -1.5117  -0.7923   0.0892 H              1 S1                 0.0000
     35 ****        -0.4625  -1.6673  -1.0192 H              1 S1                 0.0000
     36 ****        -2.0613  -2.7705  -1.7780 H              1 S1                 0.0000
     37 ****         1.4302  -1.0043  -0.7670 LP             1 S1                 0.0000
     38 ****         2.2953  -0.9036   0.7301 LP             1 S1                 0.0000
     39 ****         4.6246   0.7709   5.4776 LP             1 S1                 0.0000
@<TRIPOS>BOND
    1    1    2 1     
    2    1   18 1     
    3    1   19 1     
    4    1   20 1     
    5    2   17 1     
    6    2    3 1     
    7    2   36 1     
    8    3    4 1     
    9    3   21 1     
   10    3   22 1     
   11    4    5 1     
   12    4   23 1     
   13    4   24 1     
   14    5    6 1     
   15    5   17 1     
   16    5   25 1     
   17    6    7 1     
   18    6   26 1     
   19    6   27 1     
   20    7    8 am    
   21    7   28 1     
   22    8    9 2     
   23    8   10 am    
   24   10   11 1     
   25   10   29 1     
   26   11   16 ar    
   27   11   12 ar    
   28   12   13 ar    
   29   12   30 1     
   30   13   14 ar    
   31   13   31 1     
   32   14   15 ar    
   33   15   16 ar    
   34   15   32 1     
   35   16   33 1     
   36   17   34 1     
   37   17   35 1     
   38    9   37 1     
   39    9   38 1     
   40   14   39 1     
@<TRIPOS>SUBSTRUCTURE
      1 S1             1
@<TRIPOS>SET
LONE_PAIRS      STATIC     ATOMS    <user>   **** ""
3 37 38 39
DONOR_HYDROGENS      STATIC     ATOMS    <user>   **** ""
3 36 28 29
ATOM$BLUE        STATIC     ATOMS    COLORGROUP SYSTEM
3 37 38 39
ATOM$RED        STATIC     ATOMS    COLORGROUP SYSTEM
3 36 28 29
