AV-unprocessed.smi:2100|AV-procd|sdf|8573|dock10
  -GOLD-   2272011303D 1   1.00000     0.00000
 Structure written by MMmdl.
 41 42  0  0  0  0  0  0  0  0  1 V2000
  152.4940  134.3374  156.2996 C   0  0  0  0  0  0  0  0  0  0  0  0
  151.9470  135.6691  156.8247 C   0  0  2  0  0  0  0  0  0  0  0  0
  152.5135  136.8690  156.0467 C   0  0  0  0  0  0  0  0  0  0  0  0
  152.0790  138.1383  156.6514 N   0  0  0  0  0  0  0  0  0  0  0  0
  152.3158  139.5848  155.7313 S   0  0  0  0  0  0  0  0  0  0  0  0
  153.7585  139.7927  155.5336 O   0  0  0  0  0  0  0  0  0  0  0  0
  151.3908  139.5705  154.5878 O   0  0  0  0  0  0  0  0  0  0  0  0
  151.7639  140.7463  156.8835 N   0  0  0  0  0  0  0  0  0  0  0  0
  150.6531  141.6382  156.5461 C   0  0  0  0  0  0  0  0  0  0  0  0
  149.8727  142.0674  157.7989 C   0  0  0  0  0  0  0  0  0  0  0  0
  150.7035  142.9469  158.7140 C   0  0  0  0  0  0  0  0  0  0  0  0
  150.3399  144.2901  158.9493 C   0  0  0  0  0  0  0  0  0  0  0  0
  151.1411  145.0600  159.8148 C   0  0  0  0  0  0  0  0  0  0  0  0
  152.2677  144.4600  160.4096 C   0  0  0  0  0  0  0  0  0  0  0  0
  152.5445  143.1109  160.1110 C   0  0  0  0  0  0  0  0  0  0  0  0
  151.7832  142.3641  159.2826 N   0  0  0  0  0  0  0  0  0  0  0  0
  152.3601  138.2129  158.0934 C   0  0  0  0  0  0  0  0  0  0  0  0
  151.8439  136.9660  158.8374 C   0  0  1  0  0  0  0  0  0  0  0  0
  150.3185  136.9683  159.0447 C   0  0  0  0  0  0  0  0  0  0  0  0
  152.2984  135.7749  158.1995 O   0  0  0  0  0  0  0  0  0  0  0  0
  152.2440  134.1972  155.2476 H   0  0  0  0  0  0  0  0  0  0  0  0
  152.0744  133.4983  156.8551 H   0  0  0  0  0  0  0  0  0  0  0  0
  153.5793  134.2906  156.3952 H   0  0  0  0  0  0  0  0  0  0  0  0
  150.8620  135.6480  156.7214 H   0  0  0  0  0  0  0  0  0  0  0  0
  153.6041  136.8387  156.0412 H   0  0  0  0  0  0  0  0  0  0  0  0
  152.1902  136.8193  155.0073 H   0  0  0  0  0  0  0  0  0  0  0  0
  152.5339  141.2218  157.3535 H   0  0  0  0  0  0  0  0  0  0  0  0
  151.0601  142.5183  156.0475 H   0  0  0  0  0  0  0  0  0  0  0  0
  149.9972  141.1420  155.8298 H   0  0  0  0  0  0  0  0  0  0  0  0
  148.9736  142.6178  157.5199 H   0  0  0  0  0  0  0  0  0  0  0  0
  149.5366  141.1879  158.3502 H   0  0  0  0  0  0  0  0  0  0  0  0
  149.4678  144.7216  158.4802 H   0  0  0  0  0  0  0  0  0  0  0  0
  150.8953  146.0917  160.0193 H   0  0  0  0  0  0  0  0  0  0  0  0
  152.9043  145.0196  161.0788 H   0  0  0  0  0  0  0  0  0  0  0  0
  153.4000  142.6185  160.5492 H   0  0  0  0  0  0  0  0  0  0  0  0
  153.4386  138.3050  158.2291 H   0  0  0  0  0  0  0  0  0  0  0  0
  151.9126  139.1129  158.5156 H   0  0  0  0  0  0  0  0  0  0  0  0
  152.2942  136.9644  159.8305 H   0  0  0  0  0  0  0  0  0  0  0  0
  150.0151  137.8107  159.6668 H   0  0  0  0  0  0  0  0  0  0  0  0
  149.9921  136.0559  159.5441 H   0  0  0  0  0  0  0  0  0  0  0  0
  149.7735  137.0506  158.1047 H   0  0  0  0  0  0  0  0  0  0  0  0
  1  2  1  0  0  0  0
  1 21  1  0  0  0  0
  1 22  1  0  0  0  0
  1 23  1  0  0  0  0
  2 20  1  0  0  0  0
  2  3  1  0  0  0  0
  2 24  1  0  0  0  0
  3  4  1  0  0  0  0
  3 25  1  0  0  0  0
  3 26  1  0  0  0  0
  4  5  1  0  0  0  0
  4 17  1  0  0  0  0
  5  6  2  0  0  0  0
  5  7  2  0  0  0  0
  5  8  1  0  0  0  0
  8  9  1  0  0  0  0
  8 27  1  0  0  0  0
  9 10  1  0  0  0  0
  9 28  1  0  0  0  0
  9 29  1  0  0  0  0
 10 11  1  0  0  0  0
 10 30  1  0  0  0  0
 10 31  1  0  0  0  0
 11 16  1  0  0  0  0
 11 12  2  0  0  0  0
 12 13  1  0  0  0  0
 12 32  1  0  0  0  0
 13 14  2  0  0  0  0
 13 33  1  0  0  0  0
 14 15  1  0  0  0  0
 14 34  1  0  0  0  0
 15 16  2  0  0  0  0
 15 35  1  0  0  0  0
 17 18  1  0  0  0  0
 17 36  1  0  0  0  0
 17 37  1  0  0  0  0
 18 19  1  0  0  0  0
 18 20  1  0  0  0  0
 18 38  1  0  0  0  0
 19 39  1  0  0  0  0
 19 40  1  0  0  0  0
 19 41  1  0  0  0  0
M  END
> <s_m_source_file>
AV-unprocessed.smi

> <i_m_source_file_index>
2100

> <i_lp_mmshare_version>
43012

> <i_f3d_flags>
0

> <s_epik_input>
W0NIM11bQ0BASF0xW0NIMl1OKFtDSDJdW0NASF0oTzEpW0NIM10pUyg9TykoPU8pW05IXVtDSDJdW0NIMl1jMltjSF1bY0hdW2NIXVtjSF1uMg==

> <s_epik_cmdline>
J2VwaWtfcHl0aG9uJywgJy1waCcsICc3LjAnLCAnLXRuJywgJzgnLCAnLW1hJywgJzIwMCcsICctbWV0YWxfYmluZGluZycsICctaW1hZScsICc8aW5maWxlLm1hZT4nLCAnLW9tYWUnLCAnPG91dGZpbGUubWFlPic=

> <r_epik_Ionization_Penalty>
0.085378

> <r_epik_Ionization_Penalty_Charging>
0

> <r_epik_Ionization_Penalty_Neutral>
0.085378

> <r_epik_State_Penalty>
0.0441186

> <r_epik_Charging_Adjusted_Penalty>
0.0441186

> <i_epik_Tot_Q>
0

> <i_epik_Tot_abs_Q>
0

> <r_epik_Metal_State_Penalty>
0.24397

> <b_epik_Metal_Only>
0

> <s_lp_Force_Field>
OPLS_2005

> <r_lp_Energy>
7.96462

> <b_lp_Chiralities_Consistent>
1

> <s_lp_Variant>
AV-unprocessed.smi:2100-1

> <Gold.Version>
5.8.1

> <Gold.Id.Protein>
6NUR|6NUR_protein|mol2

> <Gold.PLP.Fitness>
43.0540

> <Gold.PLP.PLP>
-34.9988

> <Gold.PLP.part.hbond>
-2.9044

> <Gold.PLP.part.metal>
0.0000

> <Gold.PLP.part.buried>
-7.1434

> <Gold.PLP.part.nonpolar>
-25.3487

> <Gold.PLP.part.repulsive>
0.0693

> <Gold.PLP.ligand.clash>
0.0000

> <Gold.PLP.ligand.torsion>
0.7573

> <Gold.PLP.Chemscore.Hbond>
2.9440

> <Gold.PLP.Chemscore.CHOScore>
0.0000

> <Gold.PLP.Chemscore.Metal>
0.0000

> <Gold.Chemscore.Hbonds>
donor molecule, donor type, donor heavy atom, donor atom, acceptor molecule, acceptor atom, score
      P1  H  6896  6908       L1    20  0.03
      P1  H  7989  7998       L1     7  1.00

> <Gold.PLP.Chemscore.Internal.Correction>
0.7379

> <Gold.Rescore>
     Score         DG    S(hbond)    S(metal)    S(lipo)     H(rot)  DE(clash)    DE(int)     intcor
     18.39     -20.84       2.83        0.00      87.79       1.71       0.14       2.31       ----

> <Gold.Chemscore.Fitness>
18.3911

> <Gold.Chemscore.DG>
-20.8419

> <Gold.Chemscore.ZeroCoef>
-5.4800

> <Gold.Chemscore.Hbond>
2.8318

> <Gold.Chemscore.Metal>
0.0000

> <Gold.Chemscore.Lipo>
87.7854

> <Gold.Chemscore.Internal_Hbond>
0.0000

> <Gold.Chemscore.DEClash>
0.1420

> <Gold.Chemscore.DEInternal>
2.3088

> <Gold.Chemscore.Rot>
1.7060

> <Gold.Chemscore.Internal.Correction>
   9.000000E+99

> <Gold.Chemscore.Hbonds>
donor molecule, donor type, donor heavy atom, donor atom, acceptor molecule, acceptor atom, score
      P1  H  7989  7998       L1     7  0.85

> <Gold.Chemscore.Hbond.Weighted>
-9.4584

> <Gold.Chemscore.Metal.Weighted>
-0.0000

> <Gold.Chemscore.Lipo.Weighted>
-10.2709

> <Gold.Chemscore.Internal_Hbond.Weighted>
0.0000

> <Gold.Chemscore.DEClash.Weighted>
0.1420

> <Gold.Chemscore.DEInternal.Weighted>
2.3088

> <Gold.Chemscore.Rot.Weighted>
4.3674

> <Gold.Chemscore.Internal.Correction.Weighted>
   9.000000E+99

> <Gold.Protein.RotatedTorsions>
[ 6907 6896 6895 6894 ] final  -61.37 input  -60.11 | X-H torsion
[ 7974 7965 7964 7962 ] final  -51.79 input  175.53 | X-H torsion
[ 8008 7997 7996 7995 ] final   78.30 input   59.86 | X-H torsion
[ 10167 10162 10161 10158 ] final  157.88 input  -65.29 | X-H torsion
[ 10718 10713 10712 10709 ] final  -37.46 input   66.30 | X-H torsion
[ 10763 10752 10751 10750 ] final  170.00 input  -60.55 | X-H torsion
[ 11005 11000 10999 10996 ] final   94.05 input  -57.11 | X-H torsion

> <Gold.Protein.ActiveResidues>
 VAL166  LYS551  ARG553  GLY616  TRP617  ASP618  TYR619  PRO620  LYS621  CYS622 
 ASP623  PHE694  ASN695  SER759  ASP760  ASP761  ALA762  ILE779  LEU786  VAL792 
 PHE793  MET794  SER795  GLU796  ALA797  LYS798  CYS799  TRP800  GLU811  SER814 

> <Gold.Protein.RotatedAtoms>
  150.7789  134.6713  159.6392 H   0  0  0  0  0  0  0  0  0  0  0  0  # atno 6907 bound_to 6896
  152.3868  134.6502  160.0131 H   0  0  0  0  0  0  0  0  0  0  0  0  # atno 6908 bound_to 6896
  151.6815  133.3275  159.3257 H   0  0  0  0  0  0  0  0  0  0  0  0  # atno 6909 bound_to 6896
  145.9151  140.7882  142.9676 H   0  0  0  0  0  0  0  0  0  0  0  0  # atno 7974 bound_to 7965
  155.8537  140.3457  155.5710 H   0  0  0  0  0  0  0  0  0  0  0  0  # atno 8008 bound_to 7997
  155.8009  140.0885  157.1977 H   0  0  0  0  0  0  0  0  0  0  0  0  # atno 8009 bound_to 7997
  154.4008  140.1465  156.3261 H   0  0  0  0  0  0  0  0  0  0  0  0  # atno 8010 bound_to 7997
  139.4824  144.4877  151.8354 H   0  0  0  0  0  0  0  0  0  0  0  0  # atno 10167 bound_to 10162
  156.3150  130.4257  149.8014 H   0  0  0  0  0  0  0  0  0  0  0  0  # atno 10718 bound_to 10713
  154.3913  135.2754  155.2153 H   0  0  0  0  0  0  0  0  0  0  0  0  # atno 10763 bound_to 10752
  154.4218  135.5998  153.6018 H   0  0  0  0  0  0  0  0  0  0  0  0  # atno 10764 bound_to 10752
  152.9832  135.5974  154.4168 H   0  0  0  0  0  0  0  0  0  0  0  0  # atno 10765 bound_to 10752
  139.8803  134.8824  156.3807 H   0  0  0  0  0  0  0  0  0  0  0  0  # atno 11005 bound_to 11000
  144.6747  140.1887  143.7399 LP  0  0  0  0  0  0  0  0  0  0  0  0  # atno 17320 bound_to 7965
  145.8622  139.2229  143.1710 LP  0  0  0  0  0  0  0  0  0  0  0  0  # atno 17321 bound_to 7965
  140.4358  144.2054  150.5889 LP  0  0  0  0  0  0  0  0  0  0  0  0  # atno 17342 bound_to 10162
  140.4733  143.2405  151.9058 LP  0  0  0  0  0  0  0  0  0  0  0  0  # atno 17343 bound_to 10162
  156.5344  130.8272  151.3248 LP  0  0  0  0  0  0  0  0  0  0  0  0  # atno 17370 bound_to 10713
  157.7399  130.9841  150.2345 LP  0  0  0  0  0  0  0  0  0  0  0  0  # atno 17371 bound_to 10713
  140.9400  133.7521  156.0135 LP  0  0  0  0  0  0  0  0  0  0  0  0  # atno 17394 bound_to 11000
  140.8230  134.3267  157.5375 LP  0  0  0  0  0  0  0  0  0  0  0  0  # atno 17395 bound_to 11000

$$$$
