AV-unprocessed.smi:2083|AV-procd|sdf|8507|dock8
  -GOLD-   2272011223D 1   1.00000     0.00000
 Structure written by MMmdl.
 44 45  0  0  0  0  0  0  0  0  3 V2000
  151.4823  140.8927  156.1804 C   0  0  0  0  0  0  0  0  0  0  0  0
  151.6639  139.5411  155.5796 C   0  0  0  0  0  0  0  0  0  0  0  0
  150.7903  138.5395  155.2633 C   0  0  0  0  0  0  0  0  0  0  0  0
  151.6362  137.5324  154.7269 C   0  0  0  0  0  0  0  0  0  0  0  0
  151.0955  136.3013  154.2712 N   0  0  0  0  0  0  0  0  0  0  0  0
  150.2475  135.4676  154.9011 C   0  0  0  0  0  0  0  0  0  0  0  0
  149.8316  135.7378  156.0341 O   0  0  0  0  0  0  0  0  0  0  0  0
  149.9513  134.3727  154.1487 N   0  5  0  0  0  0  0  0  0  0  0  0
  149.2304  133.1998  154.6407 C   0  0  0  0  0  0  0  0  0  0  0  0
  149.2487  132.0607  153.5709 C   0  0  1  0  0  0  0  0  0  0  0  0
  149.6625  130.6850  154.1462 C   0  0  0  0  0  0  0  0  0  0  0  0
  147.9959  131.9179  152.7518 N   0  3  1  0  0  0  0  0  0  0  0  0
  147.0152  130.8735  153.1739 C   0  0  0  0  0  0  0  0  0  0  0  0
  145.9890  130.6157  152.0598 C   0  0  0  0  0  0  0  0  0  0  0  0
  145.2761  131.9139  151.6579 C   0  0  0  0  0  0  0  0  0  0  0  0
  146.3016  132.9881  151.2551 C   0  0  1  0  0  0  0  0  0  0  0  0
  145.6121  134.3036  150.8663 C   0  0  0  0  0  0  0  0  0  0  0  0
  147.3268  133.2000  152.3873 C   0  0  0  0  0  0  0  0  0  0  0  0
  152.9123  137.8887  154.7178 N   0  0  0  0  0  0  0  0  0  0  0  0
  152.9364  139.1774  155.2643 O   0  0  0  0  0  0  0  0  0  0  0  0
  150.4339  141.1903  156.1594 H   0  0  0  0  0  0  0  0  0  0  0  0
  152.0566  141.6408  155.6336 H   0  0  0  0  0  0  0  0  0  0  0  0
  151.8159  140.9008  157.2181 H   0  0  0  0  0  0  0  0  0  0  0  0
  149.7185  138.5300  155.3951 H   0  0  0  0  0  0  0  0  0  0  0  0
  151.3910  136.0104  153.3513 H   0  0  0  0  0  0  0  0  0  0  0  0
  149.6513  132.8176  155.5716 H   0  0  0  0  0  0  0  0  0  0  0  0
  148.1946  133.4517  154.8689 H   0  0  0  0  0  0  0  0  0  0  0  0
  150.0291  132.3166  152.8522 H   0  0  0  0  0  0  0  0  0  0  0  0
  150.6734  130.7001  154.5579 H   0  0  0  0  0  0  0  0  0  0  0  0
  149.6596  129.9255  153.3641 H   0  0  0  0  0  0  0  0  0  0  0  0
  148.9962  130.3373  154.9373 H   0  0  0  0  0  0  0  0  0  0  0  0
  147.5254  129.9394  153.4064 H   0  0  0  0  0  0  0  0  0  0  0  0
  146.4937  131.1849  154.0803 H   0  0  0  0  0  0  0  0  0  0  0  0
  146.4909  130.1878  151.1912 H   0  0  0  0  0  0  0  0  0  0  0  0
  145.2588  129.8767  152.3907 H   0  0  0  0  0  0  0  0  0  0  0  0
  144.5888  131.7185  150.8340 H   0  0  0  0  0  0  0  0  0  0  0  0
  144.6699  132.2719  152.4914 H   0  0  0  0  0  0  0  0  0  0  0  0
  146.8396  132.6278  150.3766 H   0  0  0  0  0  0  0  0  0  0  0  0
  145.0570  134.7237  151.7058 H   0  0  0  0  0  0  0  0  0  0  0  0
  144.9097  134.1514  150.0461 H   0  0  0  0  0  0  0  0  0  0  0  0
  146.3396  135.0481  150.5419 H   0  0  0  0  0  0  0  0  0  0  0  0
  146.8318  133.6261  153.2611 H   0  0  0  0  0  0  0  0  0  0  0  0
  148.0740  133.9252  152.0620 H   0  0  0  0  0  0  0  0  0  0  0  0
  148.3478  131.5786  151.8686 H   0  0  0  0  0  0  0  0  0  0  0  0
  1  2  1  0  0  0  0
  1 21  1  0  0  0  0
  1 22  1  0  0  0  0
  1 23  1  0  0  0  0
  2 20  1  0  0  0  0
  2  3  2  0  0  0  0
  3  4  1  0  0  0  0
  3 24  1  0  0  0  0
  4  5  1  0  0  0  0
  4 19  2  0  0  0  0
  5  6  1  0  0  0  0
  5 25  1  0  0  0  0
  6  7  2  0  0  0  0
  6  8  1  0  0  0  0
  8  9  1  0  0  0  0
  9 10  1  0  0  0  0
  9 26  1  0  0  0  0
  9 27  1  0  0  0  0
 10 11  1  0  0  0  0
 10 12  1  0  0  0  0
 10 28  1  0  0  0  0
 11 29  1  0  0  0  0
 11 30  1  0  0  0  0
 11 31  1  0  0  0  0
 12 18  1  0  0  0  0
 12 13  1  0  0  0  0
 12 44  1  0  0  0  0
 13 14  1  0  0  0  0
 13 32  1  0  0  0  0
 13 33  1  0  0  0  0
 14 15  1  0  0  0  0
 14 34  1  0  0  0  0
 14 35  1  0  0  0  0
 15 16  1  0  0  0  0
 15 36  1  0  0  0  0
 15 37  1  0  0  0  0
 16 17  1  0  0  0  0
 16 18  1  0  0  0  0
 16 38  1  0  0  0  0
 17 39  1  0  0  0  0
 17 40  1  0  0  0  0
 17 41  1  0  0  0  0
 18 42  1  0  0  0  0
 18 43  1  0  0  0  0
 19 20  1  0  0  0  0
M  CHG  1   8  -1
M  CHG  1  12   1
M  END
> <s_m_source_file>
AV-unprocessed.smi

> <i_m_source_file_index>
2083

> <i_lp_mmshare_version>
43012

> <i_f3d_flags>
0

> <s_epik_input>
W0NIM11jMVtjSF1jKG5vMSlbTkhdQyg9TylbTkhdW0NIMl1bQ0BIXShbQ0gzXSlOMltDSDJdW0NIMl1bQ0gyXVtDQEBIXShbQ0gzXSlbQ0gyXTI=

> <s_epik_cmdline>
J2VwaWtfcHl0aG9uJywgJy1waCcsICc3LjAnLCAnLXRuJywgJzgnLCAnLW1hJywgJzIwMCcsICctbWV0YWxfYmluZGluZycsICctaW1hZScsICc8aW5maWxlLm1hZT4nLCAnLW9tYWUnLCAnPG91dGZpbGUubWFlPic=

> <r_epik_Ionization_Penalty>
6.76934

> <r_epik_Ionization_Penalty_Charging>
6.76934

> <r_epik_Ionization_Penalty_Neutral>
5.77849e-06

> <r_epik_State_Penalty>
6.79457

> <r_epik_Charging_Adjusted_Penalty>
13.5639

> <i_epik_Tot_Q>
0

> <i_epik_Tot_abs_Q>
2

> <r_epik_Metal_State_Penalty>
2.72837

> <b_epik_Metal_Only>
1

> <s_lp_Force_Field>
OPLS_2005

> <r_lp_Energy>
21.1768

> <b_lp_Chiralities_Consistent>
1

> <s_lp_Variant>
AV-unprocessed.smi:2083-18

> <Gold.Version>
5.8.1

> <Gold.Id.Protein>
6NUR|6NUR_protein|mol2

> <Gold.PLP.Fitness>
43.7160

> <Gold.PLP.PLP>
-37.8959

> <Gold.PLP.part.hbond>
-4.7884

> <Gold.PLP.part.metal>
0.0000

> <Gold.PLP.part.buried>
-5.5951

> <Gold.PLP.part.nonpolar>
-28.6429

> <Gold.PLP.part.repulsive>
1.5472

> <Gold.PLP.ligand.clash>
0.0000

> <Gold.PLP.ligand.torsion>
1.7075

> <Gold.PLP.Chemscore.Hbond>
3.0000

> <Gold.PLP.Chemscore.CHOScore>
0.0000

> <Gold.PLP.Chemscore.Metal>
0.0000

> <Gold.Chemscore.Hbonds>
donor molecule, donor type, donor heavy atom, donor atom, acceptor molecule, acceptor atom, score
      L1  H     5    25       P1  7949  1.00
      L1  H    12    44       P1 10747  1.00
      P1  H  7997  8008       L1    20  1.00

> <Gold.PLP.Chemscore.Internal.Correction>
0.2352

> <Gold.Rescore>
     Score         DG    S(hbond)    S(metal)    S(lipo)     H(rot)  DE(clash)    DE(int)     intcor
     17.28     -19.95       2.64        0.00      81.63       1.52       0.82       1.86       ----

> <Gold.Chemscore.Fitness>
17.2761

> <Gold.Chemscore.DG>
-19.9503

> <Gold.Chemscore.ZeroCoef>
-5.4800

> <Gold.Chemscore.Hbond>
2.6371

> <Gold.Chemscore.Metal>
0.0000

> <Gold.Chemscore.Lipo>
81.6317

> <Gold.Chemscore.Internal_Hbond>
0.0000

> <Gold.Chemscore.DEClash>
0.8159

> <Gold.Chemscore.DEInternal>
1.8583

> <Gold.Chemscore.Rot>
1.5190

> <Gold.Chemscore.Internal.Correction>
   9.000000E+99

> <Gold.Chemscore.Hbonds>
donor molecule, donor type, donor heavy atom, donor atom, acceptor molecule, acceptor atom, score
      L1  H     5    25       P1  7949  0.67
      L1  H    12    44       P1 10747  1.00
      P1  H  7997  8008       L1    20  0.95

> <Gold.Chemscore.Hbond.Weighted>
-8.8080

> <Gold.Chemscore.Metal.Weighted>
-0.0000

> <Gold.Chemscore.Lipo.Weighted>
-9.5509

> <Gold.Chemscore.Internal_Hbond.Weighted>
0.0000

> <Gold.Chemscore.DEClash.Weighted>
0.8159

> <Gold.Chemscore.DEInternal.Weighted>
1.8583

> <Gold.Chemscore.Rot.Weighted>
3.8886

> <Gold.Chemscore.Internal.Correction.Weighted>
   9.000000E+99

> <Gold.Protein.RotatedTorsions>
[ 6907 6896 6895 6894 ] final  -77.29 input  -60.11 | X-H torsion
[ 7974 7965 7964 7962 ] final  -30.55 input  175.53 | X-H torsion
[ 8008 7997 7996 7995 ] final  -28.04 input   59.86 | X-H torsion
[ 10167 10162 10161 10158 ] final  -72.00 input  -65.29 | X-H torsion
[ 10718 10713 10712 10709 ] final  106.74 input   66.30 | X-H torsion
[ 10763 10752 10751 10750 ] final  -80.86 input  -60.55 | X-H torsion
[ 11005 11000 10999 10996 ] final -119.42 input  -57.11 | X-H torsion

> <Gold.Protein.ActiveResidues>
 VAL166  LYS551  ARG553  GLY616  TRP617  ASP618  TYR619  PRO620  LYS621  CYS622 
 ASP623  PHE694  ASN695  SER759  ASP760  ASP761  ALA762  ILE779  LEU786  VAL792 
 PHE793  MET794  SER795  GLU796  ALA797  LYS798  CYS799  TRP800  GLU811  SER814 

> <Gold.Protein.RotatedAtoms>
  150.7003  134.4445  159.5307 H   0  0  0  0  0  0  0  0  0  0  0  0  # atno 6907 bound_to 6896
  152.2149  134.8465  160.0502 H   0  0  0  0  0  0  0  0  0  0  0  0  # atno 6908 bound_to 6896
  151.9336  133.3583  159.3977 H   0  0  0  0  0  0  0  0  0  0  0  0  # atno 6909 bound_to 6896
  146.1134  140.5555  142.8767 H   0  0  0  0  0  0  0  0  0  0  0  0  # atno 7974 bound_to 7965
  154.4350  140.1856  156.1026 H   0  0  0  0  0  0  0  0  0  0  0  0  # atno 8008 bound_to 7997
  156.0280  140.3333  155.7083 H   0  0  0  0  0  0  0  0  0  0  0  0  # atno 8009 bound_to 7997
  155.5880  140.0628  157.2757 H   0  0  0  0  0  0  0  0  0  0  0  0  # atno 8010 bound_to 7997
  140.5228  143.2330  151.7401 H   0  0  0  0  0  0  0  0  0  0  0  0  # atno 10167 bound_to 10162
  157.6656  131.0857  150.6052 H   0  0  0  0  0  0  0  0  0  0  0  0  # atno 10718 bound_to 10713
  154.5565  135.5646  153.6968 H   0  0  0  0  0  0  0  0  0  0  0  0  # atno 10763 bound_to 10752
  153.0005  135.6263  154.2303 H   0  0  0  0  0  0  0  0  0  0  0  0  # atno 10764 bound_to 10752
  154.2240  135.2868  155.2894 H   0  0  0  0  0  0  0  0  0  0  0  0  # atno 10765 bound_to 10752
  141.0217  134.0114  157.3273 H   0  0  0  0  0  0  0  0  0  0  0  0  # atno 11005 bound_to 11000
  144.7532  140.5242  143.6787 LP  0  0  0  0  0  0  0  0  0  0  0  0  # atno 17320 bound_to 7965
  145.5616  139.1479  143.3338 LP  0  0  0  0  0  0  0  0  0  0  0  0  # atno 17321 bound_to 7965
  139.4928  144.4230  151.9956 LP  0  0  0  0  0  0  0  0  0  0  0  0  # atno 17342 bound_to 10162
  140.3328  144.3296  150.5983 LP  0  0  0  0  0  0  0  0  0  0  0  0  # atno 17343 bound_to 10162
  156.6353  130.4443  149.5772 LP  0  0  0  0  0  0  0  0  0  0  0  0  # atno 17370 bound_to 10713
  156.2250  130.6760  151.1407 LP  0  0  0  0  0  0  0  0  0  0  0  0  # atno 17371 bound_to 10713
  139.9150  135.0195  156.7845 LP  0  0  0  0  0  0  0  0  0  0  0  0  # atno 17394 bound_to 11000
  140.6562  133.9687  155.7780 LP  0  0  0  0  0  0  0  0  0  0  0  0  # atno 17395 bound_to 11000

$$$$
