AV-unprocessed.smi:2153|AV-procd|sdf|8768|dock4
  -GOLD-   2272011543D 1   1.00000     0.00000
 Structure written by MMmdl.
 48 49  0  0  0  0  0  0  0  0  1 V2000
  145.3296  135.9234  151.3680 C   0  0  0  0  0  0  0  0  0  0  0  0
  145.3374  134.5090  150.7679 C   0  0  2  0  0  0  0  0  0  0  0  0
  143.9226  133.8935  150.7352 C   0  0  0  0  0  0  0  0  0  0  0  0
  143.9293  132.4945  150.1000 C   0  0  0  0  0  0  0  0  0  0  0  0
  144.9277  131.5669  150.8070 C   0  0  0  0  0  0  0  0  0  0  0  0
  146.3369  132.1787  150.8344 C   0  0  0  0  0  0  0  0  0  0  0  0
  146.3338  133.5756  151.4928 C   0  0  2  0  0  0  0  0  0  0  0  0
  145.9376  133.4939  152.8563 O   0  0  0  0  0  0  0  0  0  0  0  0
  146.8839  133.9624  153.8049 C   0  0  0  0  0  0  0  0  0  0  0  0
  146.2050  134.0514  155.1810 C   0  0  0  0  0  0  0  0  0  0  0  0
  147.1766  133.9722  156.2681 N   0  0  0  0  0  0  0  0  0  0  0  0
  147.2295  132.9943  157.1859 C   0  0  0  0  0  0  0  0  0  0  0  0
  146.4138  132.0741  157.2385 O   0  0  0  0  0  0  0  0  0  0  0  0
  148.3646  133.0767  158.2139 C   0  0  0  0  0  0  0  0  0  0  0  0
  148.1405  134.1522  159.1886 N   0  0  0  0  0  0  0  0  0  0  0  0
  148.1708  135.4670  158.7596 C   0  0  0  0  0  0  0  0  0  0  0  0
  148.0033  136.5250  159.5825 C   0  0  0  0  0  0  0  0  0  0  0  0
  147.7857  136.3336  161.0106 C   0  0  0  0  0  0  0  0  0  0  0  0
  147.6205  137.2657  161.7983 O   0  0  0  0  0  0  0  0  0  0  0  0
  147.7693  134.9818  161.4265 N   0  0  0  0  0  0  0  0  0  0  0  0
  147.5528  134.7189  162.8342 C   0  0  0  0  0  0  0  0  0  0  0  0
  147.9121  133.8773  160.5555 C   0  0  0  0  0  0  0  0  0  0  0  0
  147.8400  132.7137  160.9568 O   0  0  0  0  0  0  0  0  0  0  0  0
  144.9772  135.9178  152.4001 H   0  0  0  0  0  0  0  0  0  0  0  0
  144.6763  136.5858  150.7997 H   0  0  0  0  0  0  0  0  0  0  0  0
  146.3289  136.3590  151.3590 H   0  0  0  0  0  0  0  0  0  0  0  0
  145.6747  134.6064  149.7350 H   0  0  0  0  0  0  0  0  0  0  0  0
  143.5197  133.8305  151.7470 H   0  0  0  0  0  0  0  0  0  0  0  0
  143.2466  134.5419  150.1771 H   0  0  0  0  0  0  0  0  0  0  0  0
  142.9286  132.0641  150.1397 H   0  0  0  0  0  0  0  0  0  0  0  0
  144.1899  132.5739  149.0440 H   0  0  0  0  0  0  0  0  0  0  0  0
  144.5938  131.3867  151.8283 H   0  0  0  0  0  0  0  0  0  0  0  0
  144.9498  130.5964  150.3109 H   0  0  0  0  0  0  0  0  0  0  0  0
  147.0255  131.5047  151.3424 H   0  0  0  0  0  0  0  0  0  0  0  0
  146.7084  132.2656  149.8126 H   0  0  0  0  0  0  0  0  0  0  0  0
  147.3325  134.0117  151.4302 H   0  0  0  0  0  0  0  0  0  0  0  0
  147.7538  133.3086  153.8616 H   0  0  0  0  0  0  0  0  0  0  0  0
  147.2366  134.9498  153.5040 H   0  0  0  0  0  0  0  0  0  0  0  0
  145.6905  135.0082  155.2687 H   0  0  0  0  0  0  0  0  0  0  0  0
  145.4407  133.2791  155.2848 H   0  0  0  0  0  0  0  0  0  0  0  0
  147.8772  134.6980  156.3070 H   0  0  0  0  0  0  0  0  0  0  0  0
  148.4706  132.1208  158.7298 H   0  0  0  0  0  0  0  0  0  0  0  0
  149.3085  133.2284  157.6874 H   0  0  0  0  0  0  0  0  0  0  0  0
  148.3411  135.6622  157.7108 H   0  0  0  0  0  0  0  0  0  0  0  0
  148.0384  137.5268  159.1803 H   0  0  0  0  0  0  0  0  0  0  0  0
  147.9982  133.7619  163.1080 H   0  0  0  0  0  0  0  0  0  0  0  0
  146.4738  134.7166  162.9939 H   0  0  0  0  0  0  0  0  0  0  0  0
  148.0435  135.4958  163.4228 H   0  0  0  0  0  0  0  0  0  0  0  0
  1  2  1  0  0  0  0
  1 24  1  0  0  0  0
  1 25  1  0  0  0  0
  1 26  1  0  0  0  0
  2  7  1  0  0  0  0
  2  3  1  0  0  0  0
  2 27  1  0  0  0  0
  3  4  1  0  0  0  0
  3 28  1  0  0  0  0
  3 29  1  0  0  0  0
  4  5  1  0  0  0  0
  4 30  1  0  0  0  0
  4 31  1  0  0  0  0
  5  6  1  0  0  0  0
  5 32  1  0  0  0  0
  5 33  1  0  0  0  0
  6  7  1  0  0  0  0
  6 34  1  0  0  0  0
  6 35  1  0  0  0  0
  7  8  1  0  0  0  0
  7 36  1  0  0  0  0
  8  9  1  0  0  0  0
  9 10  1  0  0  0  0
  9 37  1  0  0  0  0
  9 38  1  0  0  0  0
 10 11  1  0  0  0  0
 10 39  1  0  0  0  0
 10 40  1  0  0  0  0
 11 12  1  0  0  0  0
 11 41  1  0  0  0  0
 12 13  2  0  0  0  0
 12 14  1  0  0  0  0
 14 15  1  0  0  0  0
 14 42  1  0  0  0  0
 14 43  1  0  0  0  0
 15 22  1  0  0  0  0
 15 16  1  0  0  0  0
 16 17  2  0  0  0  0
 16 44  1  0  0  0  0
 17 18  1  0  0  0  0
 17 45  1  0  0  0  0
 18 19  2  0  0  0  0
 18 20  1  0  0  0  0
 20 21  1  0  0  0  0
 20 22  1  0  0  0  0
 21 46  1  0  0  0  0
 21 47  1  0  0  0  0
 21 48  1  0  0  0  0
 22 23  2  0  0  0  0
M  END
> <s_m_source_file>
AV-unprocessed.smi

> <i_m_source_file_index>
2153

> <i_lp_mmshare_version>
43012

> <i_f3d_flags>
0

> <s_epik_input>
W0NIM11bQ0BASF0xW0NIMl1bQ0gyXVtDSDJdW0NIMl1bQ0BIXTFPW0NIMl1bQ0gyXVtOSF1DKD1PKVtDSDJdbjJbY0hdW2NIXWMoPU8pbihbQ0gzXSljMj1P

> <s_epik_cmdline>
J2VwaWtfcHl0aG9uJywgJy1waCcsICc3LjAnLCAnLXRuJywgJzgnLCAnLW1hJywgJzIwMCcsICctbWV0YWxfYmluZGluZycsICctaW1hZScsICc8aW5maWxlLm1hZT4nLCAnLW9tYWUnLCAnPG91dGZpbGUubWFlPic=

> <r_lp_tautomer_probability>
1

> <r_epik_Ionization_Penalty>
4.02205e-08

> <r_epik_Ionization_Penalty_Charging>
1.23606e-08

> <r_epik_Ionization_Penalty_Neutral>
2.78599e-08

> <r_epik_State_Penalty>
-0

> <r_epik_Charging_Adjusted_Penalty>
1.23606e-08

> <i_epik_Tot_Q>
0

> <i_epik_Tot_abs_Q>
0

> <r_epik_Metal_State_Penalty>
-0

> <b_epik_Metal_Only>
0

> <s_lp_Force_Field>
OPLS_2005

> <r_lp_Energy>
17.534

> <b_lp_Chiralities_Consistent>
1

> <s_lp_Variant>
AV-unprocessed.smi:2153-3

> <Gold.Version>
5.8.1

> <Gold.Id.Protein>
6NUR|6NUR_protein|mol2

> <Gold.PLP.Fitness>
39.6208

> <Gold.PLP.PLP>
-36.7856

> <Gold.PLP.part.hbond>
-2.0000

> <Gold.PLP.part.metal>
0.0000

> <Gold.PLP.part.buried>
-3.3065

> <Gold.PLP.part.nonpolar>
-31.2723

> <Gold.PLP.part.repulsive>
0.1566

> <Gold.PLP.ligand.clash>
0.0000

> <Gold.PLP.ligand.torsion>
1.0931

> <Gold.PLP.Chemscore.Hbond>
1.6472

> <Gold.PLP.Chemscore.CHOScore>
0.0000

> <Gold.PLP.Chemscore.Metal>
0.0000

> <Gold.Chemscore.Hbonds>
donor molecule, donor type, donor heavy atom, donor atom, acceptor molecule, acceptor atom, score
      P1  H  6931  6943       L1    19  0.96
      P1  H  6934  6947       L1    19  0.69

> <Gold.PLP.Chemscore.Internal.Correction>
0.0798

> <Gold.Rescore>
     Score         DG    S(hbond)    S(metal)    S(lipo)     H(rot)  DE(clash)    DE(int)     intcor
     12.22     -14.07       1.58        0.00      76.36       2.20       0.77       1.08       ----

> <Gold.Chemscore.Fitness>
12.2196

> <Gold.Chemscore.DG>
-14.0702

> <Gold.Chemscore.ZeroCoef>
-5.4800

> <Gold.Chemscore.Hbond>
1.5808

> <Gold.Chemscore.Metal>
0.0000

> <Gold.Chemscore.Lipo>
76.3589

> <Gold.Chemscore.Internal_Hbond>
0.0000

> <Gold.Chemscore.DEClash>
0.7657

> <Gold.Chemscore.DEInternal>
1.0849

> <Gold.Chemscore.Rot>
2.1968

> <Gold.Chemscore.Internal.Correction>
   9.000000E+99

> <Gold.Chemscore.Hbonds>
donor molecule, donor type, donor heavy atom, donor atom, acceptor molecule, acceptor atom, score
      P1  H  6931  6943       L1    19  0.76
      P1  H  6934  6947       L1    19  0.61

> <Gold.Chemscore.Hbond.Weighted>
-5.2800

> <Gold.Chemscore.Metal.Weighted>
-0.0000

> <Gold.Chemscore.Lipo.Weighted>
-8.9340

> <Gold.Chemscore.Internal_Hbond.Weighted>
0.0000

> <Gold.Chemscore.DEClash.Weighted>
0.7657

> <Gold.Chemscore.DEInternal.Weighted>
1.0849

> <Gold.Chemscore.Rot.Weighted>
5.6238

> <Gold.Chemscore.Internal.Correction.Weighted>
   9.000000E+99

> <Gold.Protein.RotatedTorsions>
[ 6907 6896 6895 6894 ] final  -47.54 input  -60.11 | X-H torsion
[ 7974 7965 7964 7962 ] final   80.32 input  175.53 | X-H torsion
[ 8008 7997 7996 7995 ] final   86.82 input   59.86 | X-H torsion
[ 10167 10162 10161 10158 ] final  -26.29 input  -65.29 | X-H torsion
[ 10718 10713 10712 10709 ] final -138.63 input   66.30 | X-H torsion
[ 10763 10752 10751 10750 ] final  159.20 input  -60.55 | X-H torsion
[ 11005 11000 10999 10996 ] final -142.60 input  -57.11 | X-H torsion

> <Gold.Protein.ActiveResidues>
 VAL166  LYS551  ARG553  GLY616  TRP617  ASP618  TYR619  PRO620  LYS621  CYS622 
 ASP623  PHE694  ASN695  SER759  ASP760  ASP761  ALA762  ILE779  LEU786  VAL792 
 PHE793  MET794  SER795  GLU796  ALA797  LYS798  CYS799  TRP800  GLU811  SER814 

> <Gold.Protein.RotatedAtoms>
  150.8998  134.8409  159.7351 H   0  0  0  0  0  0  0  0  0  0  0  0  # atno 6907 bound_to 6896
  152.4886  134.4520  159.9587 H   0  0  0  0  0  0  0  0  0  0  0  0  # atno 6908 bound_to 6896
  151.4573  133.3562  159.2839 H   0  0  0  0  0  0  0  0  0  0  0  0  # atno 6909 bound_to 6896
  145.6527  139.2451  143.1967 H   0  0  0  0  0  0  0  0  0  0  0  0  # atno 7974 bound_to 7965
  155.9676  140.3388  155.6547 H   0  0  0  0  0  0  0  0  0  0  0  0  # atno 8008 bound_to 7997
  155.6716  140.0727  157.2536 H   0  0  0  0  0  0  0  0  0  0  0  0  # atno 8009 bound_to 7997
  154.4158  140.1690  156.1873 H   0  0  0  0  0  0  0  0  0  0  0  0  # atno 8010 bound_to 7997
  140.7283  143.4191  151.0980 H   0  0  0  0  0  0  0  0  0  0  0  0  # atno 10167 bound_to 10162
  156.3015  130.7431  151.1484 H   0  0  0  0  0  0  0  0  0  0  0  0  # atno 10718 bound_to 10713
  154.2280  135.2779  155.2900 H   0  0  0  0  0  0  0  0  0  0  0  0  # atno 10763 bound_to 10752
  154.5647  135.5636  153.7043 H   0  0  0  0  0  0  0  0  0  0  0  0  # atno 10764 bound_to 10752
  153.0026  135.6306  154.2421 H   0  0  0  0  0  0  0  0  0  0  0  0  # atno 10765 bound_to 10752
  140.8209  134.2632  157.4901 H   0  0  0  0  0  0  0  0  0  0  0  0  # atno 11005 bound_to 11000
  146.1190  140.7332  142.9466 LP  0  0  0  0  0  0  0  0  0  0  0  0  # atno 17320 bound_to 7965
  144.7117  140.4062  143.7075 LP  0  0  0  0  0  0  0  0  0  0  0  0  # atno 17321 bound_to 7965
  139.7835  143.8322  152.3141 LP  0  0  0  0  0  0  0  0  0  0  0  0  # atno 17342 bound_to 10162
  139.8281  144.7266  150.9486 LP  0  0  0  0  0  0  0  0  0  0  0  0  # atno 17343 bound_to 10162
  157.7369  131.0557  150.5386 LP  0  0  0  0  0  0  0  0  0  0  0  0  # atno 17370 bound_to 10713
  156.5514  130.4232  149.6106 LP  0  0  0  0  0  0  0  0  0  0  0  0  # atno 17371 bound_to 10713
  139.8708  134.9534  156.4146 LP  0  0  0  0  0  0  0  0  0  0  0  0  # atno 17394 bound_to 11000
  140.9100  133.7718  155.9780 LP  0  0  0  0  0  0  0  0  0  0  0  0  # atno 17395 bound_to 11000

$$$$
