AV-unprocessed.smi:3032|AV-procd|sdf|11565|dock1
  -GOLD-   2272016533D 1   1.00000     0.00000
 Structure written by MMmdl.
 37 38  0  0  0  0  0  0  0  0  1 V2000
  150.6603  142.2710  158.4624 C   0  0  0  0  0  0  0  0  0  0  0  0
  150.5485  141.0647  157.5198 C   0  0  2  0  0  0  0  0  0  0  0  0
  151.7061  140.0725  157.7355 C   0  0  0  0  0  0  0  0  0  0  0  0
  151.5860  138.8530  156.8090 C   0  0  0  0  0  0  0  0  0  0  0  0
  151.4763  139.2690  155.3282 C   0  0  0  0  0  0  0  0  0  0  0  0
  150.3764  140.3250  155.0573 C   0  0  1  0  0  0  0  0  0  0  0  0
  148.9478  139.7505  155.0412 C   0  0  0  0  0  0  0  0  0  0  0  0
  148.4110  139.3399  156.0698 O   0  0  0  0  0  0  0  0  0  0  0  0
  148.3359  139.7374  153.8471 N   0  0  0  0  0  0  0  0  0  0  0  0
  146.9597  139.3127  153.6072 C   0  0  0  0  0  0  0  0  0  0  0  0
  146.6375  139.1040  152.1123 C   0  0  0  0  0  0  0  0  0  0  0  0
  146.1542  137.7269  151.7799 C   0  0  0  0  0  0  0  0  0  0  0  0
  145.8690  136.7783  152.6799 N   0  0  0  0  0  0  0  0  0  0  0  0
  145.4823  135.6700  151.9423 N   0  0  0  0  0  0  0  0  0  0  0  0
  145.5695  136.0591  150.6693 C   0  0  0  0  0  0  0  0  0  0  0  0
  145.9791  137.3227  150.5121 N   0  0  0  0  0  0  0  0  0  0  0  0
  150.5035  141.5086  156.0434 C   0  0  0  0  0  0  0  0  0  0  0  0
  146.1264  137.8390  149.6569 H   0  0  0  0  0  0  0  0  0  0  0  0
  151.5794  142.8300  158.2843 H   0  0  0  0  0  0  0  0  0  0  0  0
  150.6595  141.9546  159.5058 H   0  0  0  0  0  0  0  0  0  0  0  0
  149.8226  142.9551  158.3258 H   0  0  0  0  0  0  0  0  0  0  0  0
  149.6144  140.5546  157.7581 H   0  0  0  0  0  0  0  0  0  0  0  0
  152.6585  140.5728  157.5545 H   0  0  0  0  0  0  0  0  0  0  0  0
  151.7252  139.7399  158.7738 H   0  0  0  0  0  0  0  0  0  0  0  0
  152.4520  138.2044  156.9423 H   0  0  0  0  0  0  0  0  0  0  0  0
  150.7225  138.2579  157.1037 H   0  0  0  0  0  0  0  0  0  0  0  0
  152.4358  139.6795  155.0107 H   0  0  0  0  0  0  0  0  0  0  0  0
  151.3148  138.3853  154.7092 H   0  0  0  0  0  0  0  0  0  0  0  0
  150.5536  140.7134  154.0530 H   0  0  0  0  0  0  0  0  0  0  0  0
  148.8483  140.0863  153.0499 H   0  0  0  0  0  0  0  0  0  0  0  0
  146.8222  138.3696  154.1365 H   0  0  0  0  0  0  0  0  0  0  0  0
  146.2617  140.0217  154.0541 H   0  0  0  0  0  0  0  0  0  0  0  0
  145.8824  139.8243  151.7962 H   0  0  0  0  0  0  0  0  0  0  0  0
  147.5237  139.3150  151.5120 H   0  0  0  0  0  0  0  0  0  0  0  0
  145.3318  135.4108  149.8388 H   0  0  0  0  0  0  0  0  0  0  0  0
  149.6813  142.2103  155.8937 H   0  0  0  0  0  0  0  0  0  0  0  0
  151.4108  142.0666  155.8084 H   0  0  0  0  0  0  0  0  0  0  0  0
  1  2  1  0  0  0  0
  1 19  1  0  0  0  0
  1 20  1  0  0  0  0
  1 21  1  0  0  0  0
  2 17  1  0  0  0  0
  2  3  1  0  0  0  0
  2 22  1  0  0  0  0
  3  4  1  0  0  0  0
  3 23  1  0  0  0  0
  3 24  1  0  0  0  0
  4  5  1  0  0  0  0
  4 25  1  0  0  0  0
  4 26  1  0  0  0  0
  5  6  1  0  0  0  0
  5 27  1  0  0  0  0
  5 28  1  0  0  0  0
  6  7  1  0  0  0  0
  6 17  1  0  0  0  0
  6 29  1  0  0  0  0
  7  8  2  0  0  0  0
  7  9  1  0  0  0  0
  9 10  1  0  0  0  0
  9 30  1  0  0  0  0
 10 11  1  0  0  0  0
 10 31  1  0  0  0  0
 10 32  1  0  0  0  0
 11 12  1  0  0  0  0
 11 33  1  0  0  0  0
 11 34  1  0  0  0  0
 12 16  1  0  0  0  0
 12 13  2  0  0  0  0
 13 14  1  0  0  0  0
 14 15  2  0  0  0  0
 15 16  1  0  0  0  0
 15 35  1  0  0  0  0
 16 18  1  0  0  0  0
 17 36  1  0  0  0  0
 17 37  1  0  0  0  0
M  END
> <s_m_source_file>
AV-unprocessed.smi

> <i_m_source_file_index>
3032

> <i_lp_mmshare_version>
43012

> <i_f3d_flags>
0

> <s_epik_input>
W0NIM11bQ0BASF0xW0NIMl1bQ0gyXVtDSDJdW0NASF0oW0NIMl0xKUMoPU8pW05IXVtDSDJdW0NIMl1jMm5uW2NIXVtuSF0y

> <s_epik_cmdline>
J2VwaWtfcHl0aG9uJywgJy1waCcsICc3LjAnLCAnLXRuJywgJzgnLCAnLW1hJywgJzIwMCcsICctbWV0YWxfYmluZGluZycsICctaW1hZScsICc8aW5maWxlLm1hZT4nLCAnLW9tYWUnLCAnPG91dGZpbGUubWFlPic=

> <r_lp_tautomer_probability>
0.0517155

> <r_epik_Ionization_Penalty>
0.00149837

> <r_epik_Ionization_Penalty_Charging>
0

> <r_epik_Ionization_Penalty_Neutral>
0.00149837

> <r_epik_State_Penalty>
2.1109

> <r_epik_Charging_Adjusted_Penalty>
2.1109

> <i_epik_Tot_Q>
0

> <i_epik_Tot_abs_Q>
0

> <r_epik_Metal_State_Penalty>
2.23635

> <b_epik_Metal_Only>
0

> <s_lp_Force_Field>
OPLS_2005

> <r_lp_Energy>
9.22736

> <b_lp_Chiralities_Consistent>
1

> <s_lp_Variant>
AV-unprocessed.smi:3032-9

> <Gold.Version>
5.8.1

> <Gold.Id.Protein>
6NUR|6NUR_protein|mol2

> <Gold.PLP.Fitness>
34.0384

> <Gold.PLP.PLP>
-29.1598

> <Gold.PLP.part.hbond>
-2.3679

> <Gold.PLP.part.metal>
0.0000

> <Gold.PLP.part.buried>
0.1572

> <Gold.PLP.part.nonpolar>
-27.0609

> <Gold.PLP.part.repulsive>
0.8202

> <Gold.PLP.ligand.clash>
0.0000

> <Gold.PLP.ligand.torsion>
0.5927

> <Gold.PLP.Chemscore.Hbond>
1.0000

> <Gold.PLP.Chemscore.CHOScore>
1.0000

> <Gold.PLP.Chemscore.Metal>
0.0000

> <Gold.Chemscore.Hbonds>
donor molecule, donor type, donor heavy atom, donor atom, acceptor molecule, acceptor atom, score
      L1  H     9    30       P1  7957  0.99
      L1  C    15    35       P1  7921  1.00

> <Gold.PLP.Chemscore.Internal.Correction>
0.0640

> <Gold.Rescore>
     Score         DG    S(hbond)    S(metal)    S(lipo)     H(rot)  DE(clash)    DE(int)     intcor
      9.39     -10.06       1.00        0.00      59.70       2.25       0.14       0.53       ----

> <Gold.Chemscore.Fitness>
9.3893

> <Gold.Chemscore.DG>
-10.0564

> <Gold.Chemscore.ZeroCoef>
-5.4800

> <Gold.Chemscore.Hbond>
1.0034

> <Gold.Chemscore.Metal>
0.0000

> <Gold.Chemscore.Lipo>
59.7033

> <Gold.Chemscore.Internal_Hbond>
0.0000

> <Gold.Chemscore.DEClash>
0.1372

> <Gold.Chemscore.DEInternal>
0.5299

> <Gold.Chemscore.Rot>
2.2501

> <Gold.Chemscore.Internal.Correction>
   9.000000E+99

> <Gold.Chemscore.Hbonds>
donor molecule, donor type, donor heavy atom, donor atom, acceptor molecule, acceptor atom, score
      L1  H     9    30       P1  7957  0.91

> <Gold.Chemscore.Hbond.Weighted>
-3.3514

> <Gold.Chemscore.Metal.Weighted>
-0.0000

> <Gold.Chemscore.Lipo.Weighted>
-6.9853

> <Gold.Chemscore.Internal_Hbond.Weighted>
0.0000

> <Gold.Chemscore.DEClash.Weighted>
0.1372

> <Gold.Chemscore.DEInternal.Weighted>
0.5299

> <Gold.Chemscore.Rot.Weighted>
5.7603

> <Gold.Chemscore.Internal.Correction.Weighted>
   9.000000E+99

> <Gold.Protein.RotatedTorsions>
[ 6907 6896 6895 6894 ] final   13.68 input  -60.11 | X-H torsion
[ 7974 7965 7964 7962 ] final  121.06 input  175.53 | X-H torsion
[ 8008 7997 7996 7995 ] final  143.02 input   59.86 | X-H torsion
[ 10167 10162 10161 10158 ] final  -73.93 input  -65.29 | X-H torsion
[ 10718 10713 10712 10709 ] final  171.41 input   66.30 | X-H torsion
[ 10763 10752 10751 10750 ] final  142.74 input  -60.55 | X-H torsion
[ 11005 11000 10999 10996 ] final -135.79 input  -57.11 | X-H torsion

> <Gold.Protein.ActiveResidues>
 VAL166  LYS551  ARG553  GLY616  TRP617  ASP618  TYR619  PRO620  LYS621  CYS622 
 ASP623  PHE694  ASN695  SER759  ASP760  ASP761  ALA762  ILE779  LEU786  VAL792 
 PHE793  MET794  SER795  GLU796  ALA797  LYS798  CYS799  TRP800  GLU811  SER814 

> <Gold.Protein.RotatedAtoms>
  151.7901  135.0738  160.0385 H   0  0  0  0  0  0  0  0  0  0  0  0  # atno 6907 bound_to 6896
  152.3162  133.5801  159.5722 H   0  0  0  0  0  0  0  0  0  0  0  0  # atno 6908 bound_to 6896
  150.7345  133.9994  159.3675 H   0  0  0  0  0  0  0  0  0  0  0  0  # atno 6909 bound_to 6896
  145.1238  139.3372  143.4701 H   0  0  0  0  0  0  0  0  0  0  0  0  # atno 7974 bound_to 7965
  156.2938  140.2273  156.4822 H   0  0  0  0  0  0  0  0  0  0  0  0  # atno 8008 bound_to 7997
  154.7843  140.0458  157.1172 H   0  0  0  0  0  0  0  0  0  0  0  0  # atno 8009 bound_to 7997
  154.9721  140.3068  155.4986 H   0  0  0  0  0  0  0  0  0  0  0  0  # atno 8010 bound_to 7997
  140.5069  143.2351  151.7659 H   0  0  0  0  0  0  0  0  0  0  0  0  # atno 10167 bound_to 10162
  156.9940  131.0156  151.2849 H   0  0  0  0  0  0  0  0  0  0  0  0  # atno 10718 bound_to 10713
  153.9608  135.2960  155.3433 H   0  0  0  0  0  0  0  0  0  0  0  0  # atno 10763 bound_to 10752
  154.7376  135.5039  153.9070 H   0  0  0  0  0  0  0  0  0  0  0  0  # atno 10764 bound_to 10752
  153.0947  135.6718  153.9896 H   0  0  0  0  0  0  0  0  0  0  0  0  # atno 10765 bound_to 10752
  140.8865  134.1865  157.4556 H   0  0  0  0  0  0  0  0  0  0  0  0  # atno 11005 bound_to 11000
  146.3519  140.1208  142.8600 LP  0  0  0  0  0  0  0  0  0  0  0  0  # atno 17320 bound_to 7965
  145.0711  140.9156  143.4881 LP  0  0  0  0  0  0  0  0  0  0  0  0  # atno 17321 bound_to 7965
  139.4886  144.4445  151.9726 LP  0  0  0  0  0  0  0  0  0  0  0  0  # atno 17342 bound_to 10162
  140.3536  144.3059  150.5945 LP  0  0  0  0  0  0  0  0  0  0  0  0  # atno 17343 bound_to 10162
  157.5438  130.8137  149.8061 LP  0  0  0  0  0  0  0  0  0  0  0  0  # atno 17370 bound_to 10713
  156.0196  130.3800  150.2002 LP  0  0  0  0  0  0  0  0  0  0  0  0  # atno 17371 bound_to 10713
  139.8725  134.9840  156.5222 LP  0  0  0  0  0  0  0  0  0  0  0  0  # atno 17394 bound_to 11000
  140.8398  133.8214  155.9064 LP  0  0  0  0  0  0  0  0  0  0  0  0  # atno 17395 bound_to 11000

$$$$
