AV-unprocessed.smi:387|AV-procd|sdf|2474|dock6
  -GOLD-   2262022413D 1   1.00000     0.00000
 Structure written by MMmdl.
 39 40  0  0  0  0  0  0  0  0  1 V2000
  146.9395  140.4019  154.3550 C   0  0  0  0  0  0  0  0  0  0  0  0
  147.0289  141.7918  155.0101 C   0  0  0  0  0  0  0  0  0  0  0  0
  146.5084  142.8497  154.0144 C   0  0  0  0  0  0  0  0  0  0  0  0
  146.1795  141.7938  156.2988 C   0  0  0  0  0  0  0  0  0  0  0  0
  148.4444  142.0256  155.3203 N   0  0  0  0  0  0  0  0  0  0  0  0
  149.2099  141.4194  156.2446 C   0  0  0  0  0  0  0  0  0  0  0  0
  148.8024  140.5328  156.9966 O   0  0  0  0  0  0  0  0  0  0  0  0
  150.6647  141.9083  156.3178 C   0  0  0  0  0  0  0  0  0  0  0  0
  151.3962  141.4167  157.5060 N   0  0  0  0  0  0  0  0  0  0  0  0
  151.4542  140.0186  157.7375 C   0  0  0  0  0  0  0  0  0  0  0  0
  150.9332  139.2230  156.9537 O   0  0  0  0  0  0  0  0  0  0  0  0
  152.1490  139.6112  158.9564 C   0  0  0  0  0  0  0  0  0  0  0  0
  152.1995  138.2154  159.2412 C   0  0  0  0  0  0  0  0  0  0  0  0
  152.2284  137.0864  159.4939 N   0  0  0  0  0  0  0  0  0  0  0  0
  152.7098  140.5248  159.7751 C   0  0  0  0  0  0  0  0  0  0  0  0
  152.6761  141.8767  159.5114 N   0  0  0  0  0  0  0  0  0  0  0  0
  153.1383  142.8383  160.4721 C   0  0  0  0  0  0  0  0  0  0  0  0
  152.7443  142.7139  161.9311 C   0  0  0  0  0  0  0  0  0  0  0  0
  152.1450  143.8056  161.0784 C   0  0  0  0  0  0  0  0  0  0  0  0
  151.9684  142.3632  158.3906 C   0  0  0  0  0  0  0  0  0  0  0  0
  151.8407  143.5741  158.1923 O   0  0  0  0  0  0  0  0  0  0  0  0
  145.9112  140.1527  154.0908 H   0  0  0  0  0  0  0  0  0  0  0  0
  147.3033  139.6221  155.0252 H   0  0  0  0  0  0  0  0  0  0  0  0
  147.5332  140.3530  153.4411 H   0  0  0  0  0  0  0  0  0  0  0  0
  147.1201  142.8809  153.1120 H   0  0  0  0  0  0  0  0  0  0  0  0
  146.5037  143.8514  154.4439 H   0  0  0  0  0  0  0  0  0  0  0  0
  145.4853  142.6298  153.7080 H   0  0  0  0  0  0  0  0  0  0  0  0
  145.1438  141.5264  156.0861 H   0  0  0  0  0  0  0  0  0  0  0  0
  146.1628  142.7721  156.7791 H   0  0  0  0  0  0  0  0  0  0  0  0
  146.5598  141.0757  157.0262 H   0  0  0  0  0  0  0  0  0  0  0  0
  148.8951  142.7375  154.7640 H   0  0  0  0  0  0  0  0  0  0  0  0
  151.1745  141.6171  155.3979 H   0  0  0  0  0  0  0  0  0  0  0  0
  150.6643  142.9991  156.2844 H   0  0  0  0  0  0  0  0  0  0  0  0
  153.2098  140.1859  160.6712 H   0  0  0  0  0  0  0  0  0  0  0  0
  154.1332  143.2385  160.2841 H   0  0  0  0  0  0  0  0  0  0  0  0
  152.0889  141.8944  162.2204 H   0  0  0  0  0  0  0  0  0  0  0  0
  153.4828  143.0041  162.6754 H   0  0  0  0  0  0  0  0  0  0  0  0
  152.4824  144.8246  161.2564 H   0  0  0  0  0  0  0  0  0  0  0  0
  151.0964  143.7036  160.8048 H   0  0  0  0  0  0  0  0  0  0  0  0
  1  2  1  0  0  0  0
  1 22  1  0  0  0  0
  1 23  1  0  0  0  0
  1 24  1  0  0  0  0
  2  3  1  0  0  0  0
  2  4  1  0  0  0  0
  2  5  1  0  0  0  0
  3 25  1  0  0  0  0
  3 26  1  0  0  0  0
  3 27  1  0  0  0  0
  4 28  1  0  0  0  0
  4 29  1  0  0  0  0
  4 30  1  0  0  0  0
  5  6  1  0  0  0  0
  5 31  1  0  0  0  0
  6  7  2  0  0  0  0
  6  8  1  0  0  0  0
  8  9  1  0  0  0  0
  8 32  1  0  0  0  0
  8 33  1  0  0  0  0
  9 20  1  0  0  0  0
  9 10  1  0  0  0  0
 10 11  2  0  0  0  0
 10 12  1  0  0  0  0
 12 13  1  0  0  0  0
 12 15  2  0  0  0  0
 13 14  3  0  0  0  0
 15 16  1  0  0  0  0
 15 34  1  0  0  0  0
 16 17  1  0  0  0  0
 16 20  1  0  0  0  0
 17 19  1  0  0  0  0
 17 18  1  0  0  0  0
 17 35  1  0  0  0  0
 18 19  1  0  0  0  0
 18 36  1  0  0  0  0
 18 37  1  0  0  0  0
 19 38  1  0  0  0  0
 19 39  1  0  0  0  0
 20 21  2  0  0  0  0
M  END
> <s_m_source_file>
AV-unprocessed.smi

> <i_m_source_file_index>
387

> <i_lp_mmshare_version>
43012

> <i_f3d_flags>
0

> <s_epik_input>
W0NIM11DKFtDSDNdKShbQ0gzXSlbTkhdQyg9TylbQ0gyXW4xYyg9TyljKEMjTilbY0hdbihjMT1PKVtDSF0yW0NIMl1bQ0gyXTI=

> <s_epik_cmdline>
J2VwaWtfcHl0aG9uJywgJy1waCcsICc3LjAnLCAnLXRuJywgJzgnLCAnLW1hJywgJzIwMCcsICctbWV0YWxfYmluZGluZycsICctaW1hZScsICc8aW5maWxlLm1hZT4nLCAnLW9tYWUnLCAnPG91dGZpbGUubWFlPic=

> <r_lp_tautomer_probability>
1

> <r_epik_Ionization_Penalty>
2.47136e-08

> <r_epik_Ionization_Penalty_Charging>
8.30431e-11

> <r_epik_Ionization_Penalty_Neutral>
2.46306e-08

> <r_epik_State_Penalty>
-0

> <r_epik_Charging_Adjusted_Penalty>
8.30431e-11

> <i_epik_Tot_Q>
0

> <i_epik_Tot_abs_Q>
0

> <r_epik_Metal_State_Penalty>
-0

> <b_epik_Metal_Only>
0

> <s_lp_Force_Field>
OPLS_2005

> <r_lp_Energy>
29.2267

> <b_lp_Chiralities_Consistent>
1

> <s_lp_Variant>
AV-unprocessed.smi:387-1

> <Gold.Version>
5.8.1

> <Gold.Id.Protein>
6NUR|6NUR_protein|mol2

> <Gold.PLP.Fitness>
45.3799

> <Gold.PLP.PLP>
-42.2472

> <Gold.PLP.part.hbond>
-2.0000

> <Gold.PLP.part.metal>
0.0000

> <Gold.PLP.part.buried>
-7.8183

> <Gold.PLP.part.nonpolar>
-33.9256

> <Gold.PLP.part.repulsive>
0.2258

> <Gold.PLP.ligand.clash>
0.0000

> <Gold.PLP.ligand.torsion>
0.3893

> <Gold.PLP.Chemscore.Hbond>
1.2322

> <Gold.PLP.Chemscore.CHOScore>
0.0000

> <Gold.PLP.Chemscore.Metal>
0.0000

> <Gold.Chemscore.Hbonds>
donor molecule, donor type, donor heavy atom, donor atom, acceptor molecule, acceptor atom, score
      L1  H     5    31       P1  8028  0.21
      P1  H  6896  6907       L1    14  0.93

> <Gold.PLP.Chemscore.Internal.Correction>
0.2148

> <Gold.Rescore>
     Score         DG    S(hbond)    S(metal)    S(lipo)     H(rot)  DE(clash)    DE(int)     intcor
      9.51     -14.38       1.62        0.00      68.80       1.78       0.13       4.75       ----

> <Gold.Chemscore.Fitness>
9.5103

> <Gold.Chemscore.DG>
-14.3840

> <Gold.Chemscore.ZeroCoef>
-5.4800

> <Gold.Chemscore.Hbond>
1.6168

> <Gold.Chemscore.Metal>
0.0000

> <Gold.Chemscore.Lipo>
68.8016

> <Gold.Chemscore.Internal_Hbond>
0.0000

> <Gold.Chemscore.DEClash>
0.1252

> <Gold.Chemscore.DEInternal>
4.7484

> <Gold.Chemscore.Rot>
1.7757

> <Gold.Chemscore.Internal.Correction>
   9.000000E+99

> <Gold.Chemscore.Hbonds>
donor molecule, donor type, donor heavy atom, donor atom, acceptor molecule, acceptor atom, score
      L1  H     5    31       P1  8028  0.21
      P1  H  6896  6907       L1    14  0.88

> <Gold.Chemscore.Hbond.Weighted>
-5.4001

> <Gold.Chemscore.Metal.Weighted>
-0.0000

> <Gold.Chemscore.Lipo.Weighted>
-8.0498

> <Gold.Chemscore.Internal_Hbond.Weighted>
0.0000

> <Gold.Chemscore.DEClash.Weighted>
0.1252

> <Gold.Chemscore.DEInternal.Weighted>
4.7484

> <Gold.Chemscore.Rot.Weighted>
4.5459

> <Gold.Chemscore.Internal.Correction.Weighted>
   9.000000E+99

> <Gold.Protein.RotatedTorsions>
[ 6907 6896 6895 6894 ] final    8.18 input  -60.11 | X-H torsion
[ 7974 7965 7964 7962 ] final -110.32 input  175.53 | X-H torsion
[ 8008 7997 7996 7995 ] final   20.30 input   59.86 | X-H torsion
[ 10167 10162 10161 10158 ] final  -45.85 input  -65.29 | X-H torsion
[ 10718 10713 10712 10709 ] final  175.03 input   66.30 | X-H torsion
[ 10763 10752 10751 10750 ] final  -81.31 input  -60.55 | X-H torsion
[ 11005 11000 10999 10996 ] final  -40.12 input  -57.11 | X-H torsion

> <Gold.Protein.ActiveResidues>
 VAL166  LYS551  ARG553  GLY616  TRP617  ASP618  TYR619  PRO620  LYS621  CYS622 
 ASP623  PHE694  ASN695  SER759  ASP760  ASP761  ALA762  ILE779  LEU786  VAL792 
 PHE793  MET794  SER795  GLU796  ALA797  LYS798  CYS799  TRP800  GLU811  SER814 

> <Gold.Protein.RotatedAtoms>
  151.7019  135.0928  160.0252 H   0  0  0  0  0  0  0  0  0  0  0  0  # atno 6907 bound_to 6896
  152.3715  133.6421  159.6099 H   0  0  0  0  0  0  0  0  0  0  0  0  # atno 6908 bound_to 6896
  150.7677  133.9178  159.3430 H   0  0  0  0  0  0  0  0  0  0  0  0  # atno 6909 bound_to 6896
  145.1697  140.8919  143.3542 H   0  0  0  0  0  0  0  0  0  0  0  0  # atno 7974 bound_to 7965
  154.9335  140.3043  155.5156 H   0  0  0  0  0  0  0  0  0  0  0  0  # atno 8008 bound_to 7997
  156.3001  140.2349  156.4334 H   0  0  0  0  0  0  0  0  0  0  0  0  # atno 8009 bound_to 7997
  154.8214  140.0423  157.1402 H   0  0  0  0  0  0  0  0  0  0  0  0  # atno 8010 bound_to 7997
  140.6841  143.2859  151.3698 H   0  0  0  0  0  0  0  0  0  0  0  0  # atno 10167 bound_to 10162
  156.9409  131.0001  151.2968 H   0  0  0  0  0  0  0  0  0  0  0  0  # atno 10718 bound_to 10713
  154.5619  135.5631  153.7015 H   0  0  0  0  0  0  0  0  0  0  0  0  # atno 10763 bound_to 10752
  153.0021  135.6276  154.2232 H   0  0  0  0  0  0  0  0  0  0  0  0  # atno 10764 bound_to 10752
  154.2170  135.2871  155.2918 H   0  0  0  0  0  0  0  0  0  0  0  0  # atno 10765 bound_to 10752
  141.0151  133.6889  156.2278 H   0  0  0  0  0  0  0  0  0  0  0  0  # atno 11005 bound_to 11000
  145.0246  139.3394  143.6055 LP  0  0  0  0  0  0  0  0  0  0  0  0  # atno 17320 bound_to 7965
  146.3470  139.9559  142.8723 LP  0  0  0  0  0  0  0  0  0  0  0  0  # atno 17321 bound_to 7965
  139.6186  144.0952  152.2369 LP  0  0  0  0  0  0  0  0  0  0  0  0  # atno 17342 bound_to 10162
  140.0389  144.6022  150.7427 LP  0  0  0  0  0  0  0  0  0  0  0  0  # atno 17343 bound_to 10162
  157.5786  130.8360  149.8490 LP  0  0  0  0  0  0  0  0  0  0  0  0  # atno 17370 bound_to 10713
  156.0405  130.3740  150.1448 LP  0  0  0  0  0  0  0  0  0  0  0  0  # atno 17371 bound_to 10713
  140.6667  134.4910  157.5586 LP  0  0  0  0  0  0  0  0  0  0  0  0  # atno 17394 bound_to 11000
  139.9112  134.8340  156.1521 LP  0  0  0  0  0  0  0  0  0  0  0  0  # atno 17395 bound_to 11000

$$$$
