#       Name:                AV-unprocessed.smi:1707
#       Creating user name   scv26
#       Creation time:       Fri Mar 27 08:09:25 2020


#       File generated by GOLD software.
#

@<TRIPOS>MOLECULE
AV-unprocessed.smi:1707
    45    46     1
SMALL
NO_CHARGES


@<TRIPOS>ATOM
      1 ****        -0.6827   1.2053   0.1797 O.2            1 S1                 0.0000
      2 ****        -1.1839   0.2190   0.7187 C.2            1 S1                 0.0000
      3 ****        -0.4662  -0.8379   1.1258 N.am           1 S1                 0.0000
      4 ****         0.9798  -0.9692   0.9907 C.3            1 S1                 0.0000
      5 ****         1.3756  -1.4064  -0.4305 C.3            1 S1                 0.0000
      6 ****         2.8724  -1.6153  -0.5871 C.2            1 S1                 0.0000
      7 ****         3.4014  -2.8286  -0.8388 C.2            1 S1                 0.0000
      8 ****         4.8885  -3.0955  -0.9933 C.3            1 S1                 0.0000
      9 ****         5.7494  -1.9222  -0.4963 C.3            1 S1                 0.0000
     10 ****         5.1763  -0.5788  -0.9640 C.3            1 S1                 0.0000
     11 ****         3.7419  -0.3708  -0.4457 C.3            1 S1                 0.0000
     12 ****        -2.4932   0.0332   0.9690 N.am           1 S1                 0.0000
     13 ****        -3.5856   0.8819   0.7182 C.2            1 S1                 0.0000
     14 ****        -3.4955   2.1853   0.3432 C.2            1 S1                 0.0000
     15 ****        -4.6730   3.0051   0.1111 C.2            1 S1                 0.0000
     16 ****        -4.5566   4.4389  -0.3823 C.3            1 S1                 0.0000
     17 ****        -5.6395   4.8064  -1.0688 F              1 S1                 0.0000
     18 ****        -4.4213   5.2647   0.6543 F              1 S1                 0.0000
     19 ****        -3.4916   4.5860  -1.1707 F              1 S1                 0.0000
     20 ****        -5.8655   2.4039   0.2768 C.2            1 S1                 0.0000
     21 ****        -5.9673   1.0708   0.6796 N.am           1 S1                 0.0000
     22 ****        -4.9080   0.2643   0.9137 C.2            1 S1                 0.0000
     23 ****        -5.0822  -0.9021   1.2652 O.2            1 S1                 0.0000
     24 ****        -6.8978   0.6962   0.7965 H              1 S1                 0.0000
     25 ****        -0.9546  -1.6087   1.5579 H              1 S1                 0.0000
     26 ****         1.4613  -0.0280   1.2600 H              1 S1                 0.0000
     27 ****         1.3204  -1.7107   1.7139 H              1 S1                 0.0000
     28 ****         0.8528  -2.3298  -0.6842 H              1 S1                 0.0000
     29 ****         1.0545  -0.6627  -1.1609 H              1 S1                 0.0000
     30 ****         2.7525  -3.6847  -0.9530 H              1 S1                 0.0000
     31 ****         5.1497  -4.0038  -0.4501 H              1 S1                 0.0000
     32 ****         5.0878  -3.2880  -2.0479 H              1 S1                 0.0000
     33 ****         5.7878  -1.9338   0.5938 H              1 S1                 0.0000
     34 ****         6.7763  -2.0398  -0.8431 H              1 S1                 0.0000
     35 ****         5.8134   0.2418  -0.6329 H              1 S1                 0.0000
     36 ****         5.1772  -0.5498  -2.0542 H              1 S1                 0.0000
     37 ****         3.2797   0.4602  -0.9792 H              1 S1                 0.0000
     38 ****         3.7707  -0.0929   0.6080 H              1 S1                 0.0000
     39 ****        -2.7447  -0.8559   1.3765 H              1 S1                 0.0000
     40 ****        -2.5404   2.6676   0.2200 H              1 S1                 0.0000
     41 ****        -6.8185   2.8848   0.1117 H              1 S1                 0.0000
     42 ****         0.3048   1.2439   0.0270 LP             1 S1                 0.0000
     43 ****        -1.2630   1.9681  -0.1057 LP             1 S1                 0.0000
     44 ****        -4.2957  -1.4952   1.4372 LP             1 S1                 0.0000
     45 ****        -6.0103  -1.2568   1.3787 LP             1 S1                 0.0000
@<TRIPOS>BOND
    1    1    2 2     
    2    2    3 am    
    3    2   12 am    
    4    3    4 1     
    5    3   25 1     
    6    4    5 1     
    7    4   26 1     
    8    4   27 1     
    9    5    6 1     
   10    5   28 1     
   11    5   29 1     
   12    6   11 1     
   13    6    7 2     
   14    7    8 1     
   15    7   30 1     
   16    8    9 1     
   17    8   31 1     
   18    8   32 1     
   19    9   10 1     
   20    9   33 1     
   21    9   34 1     
   22   10   11 1     
   23   10   35 1     
   24   10   36 1     
   25   11   37 1     
   26   11   38 1     
   27   12   13 1     
   28   12   39 1     
   29   13   22 1     
   30   13   14 2     
   31   14   15 1     
   32   14   40 1     
   33   15   16 1     
   34   15   20 2     
   35   16   17 1     
   36   16   18 1     
   37   16   19 1     
   38   20   21 1     
   39   20   41 1     
   40   21   24 1     
   41   21   22 am    
   42   22   23 2     
   43    1   42 1     
   44    1   43 1     
   45   23   44 1     
   46   23   45 1     
@<TRIPOS>SUBSTRUCTURE
      1 S1             1
@<TRIPOS>SET
LONE_PAIRS      STATIC     ATOMS    <user>   **** ""
4 42 43 44 45
DONOR_HYDROGENS      STATIC     ATOMS    <user>   **** ""
3 25 39 24
ATOM$BLUE        STATIC     ATOMS    COLORGROUP SYSTEM
4 42 43 44 45
ATOM$RED        STATIC     ATOMS    COLORGROUP SYSTEM
3 25 39 24
