AV-unprocessed.smi:3230|AV-procd|sdf|12330|dock6
  -GOLD-   2272018183D 1   1.00000     0.00000
 Structure written by MMmdl.
 40 40  0  0  0  0  0  0  0  0  1 V2000
  153.1103  142.2290  161.5984 C   0  0  0  0  0  0  0  0  0  0  0  0
  152.1730  142.6876  160.4713 C   0  0  0  0  0  0  0  0  0  0  0  0
  152.8030  142.6601  159.0552 C   0  0  0  0  0  0  0  0  0  0  0  0
  152.1405  143.7039  158.1190 C   0  0  0  0  0  0  0  0  0  0  0  0
  152.2915  145.1597  158.5858 C   0  0  0  0  0  0  0  0  0  0  0  0
  152.8111  141.2321  158.4395 C   0  0  1  0  0  0  0  0  0  0  0  0
  153.5524  140.3717  159.2838 O   0  0  0  0  0  0  0  0  0  0  0  0
  151.3969  140.6398  158.2386 C   0  0  0  0  0  0  0  0  0  0  0  0
  151.2143  140.1015  156.8949 N   0  0  0  0  0  0  0  0  0  0  0  0
  151.9905  139.1677  156.3232 C   0  0  0  0  0  0  0  0  0  0  0  0
  152.9622  138.6584  156.8811 O   0  0  0  0  0  0  0  0  0  0  0  0
  151.6185  138.7466  154.9011 C   0  0  0  0  0  0  0  0  0  0  0  0
  150.3405  139.4182  154.4769 C   0  0  0  0  0  0  0  0  0  0  0  0
  149.1102  138.8151  154.0943 C   0  0  0  0  0  0  0  0  0  0  0  0
  148.3027  139.8792  153.8097 C   0  0  0  0  0  0  0  0  0  0  0  0
  146.8889  139.9886  153.3513 C   0  0  0  0  0  0  0  0  0  0  0  0
  148.9768  141.0427  153.9977 O   0  0  0  0  0  0  0  0  0  0  0  0
  150.2754  140.7394  154.4215 N   0  0  0  0  0  0  0  0  0  0  0  0
  152.6486  142.3974  162.5713 H   0  0  0  0  0  0  0  0  0  0  0  0
  154.0505  142.7806  161.5799 H   0  0  0  0  0  0  0  0  0  0  0  0
  153.3383  141.1658  161.5325 H   0  0  0  0  0  0  0  0  0  0  0  0
  151.2613  142.0896  160.4899 H   0  0  0  0  0  0  0  0  0  0  0  0
  151.8622  143.7030  160.7121 H   0  0  0  0  0  0  0  0  0  0  0  0
  153.8471  142.9553  159.1702 H   0  0  0  0  0  0  0  0  0  0  0  0
  152.5810  143.6433  157.1245 H   0  0  0  0  0  0  0  0  0  0  0  0
  151.0828  143.4717  157.9892 H   0  0  0  0  0  0  0  0  0  0  0  0
  151.8896  145.8440  157.8384 H   0  0  0  0  0  0  0  0  0  0  0  0
  153.3395  145.4182  158.7388 H   0  0  0  0  0  0  0  0  0  0  0  0
  151.7572  145.3500  159.5158 H   0  0  0  0  0  0  0  0  0  0  0  0
  153.3063  141.2666  157.4698 H   0  0  0  0  0  0  0  0  0  0  0  0
  153.3665  140.6013  160.1819 H   0  0  0  0  0  0  0  0  0  0  0  0
  151.1542  139.8934  158.9974 H   0  0  0  0  0  0  0  0  0  0  0  0
  150.6523  141.4293  158.3441 H   0  0  0  0  0  0  0  0  0  0  0  0
  150.4352  140.4611  156.3621 H   0  0  0  0  0  0  0  0  0  0  0  0
  152.4361  138.9920  154.2216 H   0  0  0  0  0  0  0  0  0  0  0  0
  151.5039  137.6627  154.8656 H   0  0  0  0  0  0  0  0  0  0  0  0
  148.8604  137.7660  154.0396 H   0  0  0  0  0  0  0  0  0  0  0  0
  146.4020  139.0133  153.3535 H   0  0  0  0  0  0  0  0  0  0  0  0
  146.8415  140.3877  152.3382 H   0  0  0  0  0  0  0  0  0  0  0  0
  146.3205  140.6513  154.0042 H   0  0  0  0  0  0  0  0  0  0  0  0
  1  2  1  0  0  0  0
  1 19  1  0  0  0  0
  1 20  1  0  0  0  0
  1 21  1  0  0  0  0
  2  3  1  0  0  0  0
  2 22  1  0  0  0  0
  2 23  1  0  0  0  0
  3  4  1  0  0  0  0
  3  6  1  0  0  0  0
  3 24  1  0  0  0  0
  4  5  1  0  0  0  0
  4 25  1  0  0  0  0
  4 26  1  0  0  0  0
  5 27  1  0  0  0  0
  5 28  1  0  0  0  0
  5 29  1  0  0  0  0
  6  7  1  0  0  0  0
  6  8  1  0  0  0  0
  6 30  1  0  0  0  0
  7 31  1  0  0  0  0
  8  9  1  0  0  0  0
  8 32  1  0  0  0  0
  8 33  1  0  0  0  0
  9 10  1  0  0  0  0
  9 34  1  0  0  0  0
 10 11  2  0  0  0  0
 10 12  1  0  0  0  0
 12 13  1  0  0  0  0
 12 35  1  0  0  0  0
 12 36  1  0  0  0  0
 13 18  2  0  0  0  0
 13 14  1  0  0  0  0
 14 15  2  0  0  0  0
 14 37  1  0  0  0  0
 15 16  1  0  0  0  0
 15 17  1  0  0  0  0
 16 38  1  0  0  0  0
 16 39  1  0  0  0  0
 16 40  1  0  0  0  0
 17 18  1  0  0  0  0
M  END
> <s_m_source_file>
AV-unprocessed.smi

> <i_m_source_file_index>
3230

> <i_lp_mmshare_version>
43012

> <i_f3d_flags>
0

> <s_epik_input>
W0NIM11bQ0gyXVtDSF0oW0NIMl1bQ0gzXSlbQ0BIXShbT0hdKVtDSDJdW05IXUMoPU8pW0NIMl1jMVtjSF1jKFtDSDNdKW9uMQ==

> <s_epik_cmdline>
J2VwaWtfcHl0aG9uJywgJy1waCcsICc3LjAnLCAnLXRuJywgJzgnLCAnLW1hJywgJzIwMCcsICctbWV0YWxfYmluZGluZycsICctaW1hZScsICc8aW5maWxlLm1hZT4nLCAnLW9tYWUnLCAnPG91dGZpbGUubWFlPic=

> <r_lp_tautomer_probability>
1

> <r_epik_Ionization_Penalty>
2.40054e-07

> <r_epik_Ionization_Penalty_Charging>
0

> <r_epik_Ionization_Penalty_Neutral>
2.40054e-07

> <r_epik_State_Penalty>
-0

> <r_epik_Charging_Adjusted_Penalty>
0

> <i_epik_Tot_Q>
0

> <i_epik_Tot_abs_Q>
0

> <r_epik_Metal_State_Penalty>
-0

> <b_epik_Metal_Only>
0

> <s_lp_Force_Field>
OPLS_2005

> <r_lp_Energy>
9.12341

> <b_lp_Chiralities_Consistent>
1

> <s_lp_Variant>
AV-unprocessed.smi:3230-2

> <Gold.Version>
5.8.1

> <Gold.Id.Protein>
6NUR|6NUR_protein|mol2

> <Gold.PLP.Fitness>
41.6462

> <Gold.PLP.PLP>
-40.6121

> <Gold.PLP.part.hbond>
-2.8657

> <Gold.PLP.part.metal>
0.0000

> <Gold.PLP.part.buried>
-1.5082

> <Gold.PLP.part.nonpolar>
-34.7145

> <Gold.PLP.part.repulsive>
0.3058

> <Gold.PLP.ligand.clash>
3.2096

> <Gold.PLP.ligand.torsion>
1.0072

> <Gold.PLP.Chemscore.Hbond>
1.9920

> <Gold.PLP.Chemscore.CHOScore>
0.0000

> <Gold.PLP.Chemscore.Metal>
0.0000

> <Gold.Chemscore.Hbonds>
donor molecule, donor type, donor heavy atom, donor atom, acceptor molecule, acceptor atom, score
      P1  H  7989  7998       L1    18  0.59
      P1  H  7997  8008       L1    11  0.66
      P1  H  8011  8017       L1    17  0.15

> <Gold.PLP.Chemscore.Internal.Correction>
0.2821

> <Gold.Rescore>
     Score         DG    S(hbond)    S(metal)    S(lipo)     H(rot)  DE(clash)    DE(int)     intcor
     11.91     -15.72       1.40        0.00     103.76       2.57       0.06       3.76       ----

> <Gold.Chemscore.Fitness>
11.9088

> <Gold.Chemscore.DG>
-15.7214

> <Gold.Chemscore.ZeroCoef>
-5.4800

> <Gold.Chemscore.Hbond>
1.4027

> <Gold.Chemscore.Metal>
0.0000

> <Gold.Chemscore.Lipo>
103.7570

> <Gold.Chemscore.Internal_Hbond>
0.0000

> <Gold.Chemscore.DEClash>
0.0562

> <Gold.Chemscore.DEInternal>
3.7563

> <Gold.Chemscore.Rot>
2.5715

> <Gold.Chemscore.Internal.Correction>
   9.000000E+99

> <Gold.Chemscore.Hbonds>
donor molecule, donor type, donor heavy atom, donor atom, acceptor molecule, acceptor atom, score
      P1  H  7989  7998       L1    18  0.07
      P1  H  7997  8008       L1    11  0.50
      P1  H  8011  8017       L1    17  0.01

> <Gold.Chemscore.Hbond.Weighted>
-4.6849

> <Gold.Chemscore.Metal.Weighted>
-0.0000

> <Gold.Chemscore.Lipo.Weighted>
-12.1396

> <Gold.Chemscore.Internal_Hbond.Weighted>
0.0000

> <Gold.Chemscore.DEClash.Weighted>
0.0562

> <Gold.Chemscore.DEInternal.Weighted>
3.7563

> <Gold.Chemscore.Rot.Weighted>
6.5831

> <Gold.Chemscore.Internal.Correction.Weighted>
   9.000000E+99

> <Gold.Protein.RotatedTorsions>
[ 6907 6896 6895 6894 ] final -118.10 input  -60.11 | X-H torsion
[ 7974 7965 7964 7962 ] final    2.22 input  175.53 | X-H torsion
[ 8008 7997 7996 7995 ] final  -85.73 input   59.86 | X-H torsion
[ 10167 10162 10161 10158 ] final  -55.93 input  -65.29 | X-H torsion
[ 10718 10713 10712 10709 ] final  -82.99 input   66.30 | X-H torsion
[ 10763 10752 10751 10750 ] final  142.08 input  -60.55 | X-H torsion
[ 11005 11000 10999 10996 ] final   67.75 input  -57.11 | X-H torsion

> <Gold.Protein.ActiveResidues>
 VAL166  LYS551  ARG553  GLY616  TRP617  ASP618  TYR619  PRO620  LYS621  CYS622 
 ASP623  PHE694  ASN695  SER759  ASP760  ASP761  ALA762  ILE779  LEU786  VAL792 
 PHE793  MET794  SER795  GLU796  ALA797  LYS798  CYS799  TRP800  GLU811  SER814 

> <Gold.Protein.RotatedAtoms>
  150.8191  133.8284  159.3146 H   0  0  0  0  0  0  0  0  0  0  0  0  # atno 6907 bound_to 6896
  151.6048  135.1043  160.0077 H   0  0  0  0  0  0  0  0  0  0  0  0  # atno 6908 bound_to 6896
  152.4281  133.7189  159.6578 H   0  0  0  0  0  0  0  0  0  0  0  0  # atno 6909 bound_to 6896
  146.2443  140.0869  142.8354 H   0  0  0  0  0  0  0  0  0  0  0  0  # atno 7974 bound_to 7965
  154.6440  140.0587  156.9878 H   0  0  0  0  0  0  0  0  0  0  0  0  # atno 8008 bound_to 7997
  155.1473  140.3271  155.4420 H   0  0  0  0  0  0  0  0  0  0  0  0  # atno 8009 bound_to 7997
  156.2544  140.1953  156.6586 H   0  0  0  0  0  0  0  0  0  0  0  0  # atno 8010 bound_to 7997
  140.6347  143.2476  151.5150 H   0  0  0  0  0  0  0  0  0  0  0  0  # atno 10167 bound_to 10162
  156.0025  130.4651  150.4189 H   0  0  0  0  0  0  0  0  0  0  0  0  # atno 10718 bound_to 10713
  153.9499  135.2971  155.3439 H   0  0  0  0  0  0  0  0  0  0  0  0  # atno 10763 bound_to 10752
  154.7432  135.5015  153.9162 H   0  0  0  0  0  0  0  0  0  0  0  0  # atno 10764 bound_to 10752
  153.0999  135.6731  153.9800 H   0  0  0  0  0  0  0  0  0  0  0  0  # atno 10765 bound_to 10752
  139.9752  134.6834  156.0368 H   0  0  0  0  0  0  0  0  0  0  0  0  # atno 11005 bound_to 11000
  145.0684  140.9138  143.4896 LP  0  0  0  0  0  0  0  0  0  0  0  0  # atno 17320 bound_to 7965
  145.0998  139.2830  143.5692 LP  0  0  0  0  0  0  0  0  0  0  0  0  # atno 17321 bound_to 7965
  139.5558  144.2280  152.1609 LP  0  0  0  0  0  0  0  0  0  0  0  0  # atno 17342 bound_to 10162
  140.1533  144.5094  150.6675 LP  0  0  0  0  0  0  0  0  0  0  0  0  # atno 17343 bound_to 10162
  157.2247  131.0490  151.2526 LP  0  0  0  0  0  0  0  0  0  0  0  0  # atno 17370 bound_to 10713
  157.3768  130.7210  149.6602 LP  0  0  0  0  0  0  0  0  0  0  0  0  # atno 17371 bound_to 10713
  141.1429  133.6561  156.3784 LP  0  0  0  0  0  0  0  0  0  0  0  0  # atno 17394 bound_to 11000
  140.5209  134.6305  157.5318 LP  0  0  0  0  0  0  0  0  0  0  0  0  # atno 17395 bound_to 11000

$$$$
