AV-unprocessed.smi:2163|AV-procd|sdf|8806|dock6
  -GOLD-   2272011593D 1   1.00000     0.00000
 Structure written by MMmdl.
 44 46  0  0  0  0  0  0  0  0  2 V2000
  149.4996  140.2644  155.0525 C   0  0  0  0  0  0  0  0  0  0  0  0
  150.2144  140.9310  156.1794 C   0  0  0  0  0  0  0  0  0  0  0  0
  150.1368  142.2509  156.5088 N   0  3  0  0  0  0  0  0  0  0  0  0
  150.9404  142.5082  157.6202 C   0  0  0  0  0  0  0  0  0  0  0  0
  151.1815  143.6893  158.3149 C   0  0  0  0  0  0  0  0  0  0  0  0
  152.0584  143.6080  159.4162 C   0  0  0  0  0  0  0  0  0  0  0  0
  152.6581  142.3874  159.7884 C   0  0  0  0  0  0  0  0  0  0  0  0
  152.4076  141.1966  159.0750 C   0  0  0  0  0  0  0  0  0  0  0  0
  151.5389  141.2849  157.9871 C   0  0  0  0  0  0  0  0  0  0  0  0
  151.0618  140.3406  157.0697 N   0  0  0  0  0  0  0  0  0  0  0  0
  151.4932  138.9378  157.1721 C   0  0  0  0  0  0  0  0  0  0  0  0
  151.2670  138.3489  158.5795 C   0  0  2  0  0  0  0  0  0  0  0  0
  152.3148  137.4802  158.9609 O   0  0  0  0  0  0  0  0  0  0  0  0
  149.9227  137.6199  158.7350 C   0  0  0  0  0  0  0  0  0  0  0  0
  149.5237  137.6239  160.1004 O   0  0  0  0  0  0  0  0  0  0  0  0
  148.9913  136.4674  160.6290 C   0  0  0  0  0  0  0  0  0  0  0  0
  148.8052  135.2675  159.8968 C   0  0  0  0  0  0  0  0  0  0  0  0
  148.2529  134.1306  160.5184 C   0  0  0  0  0  0  0  0  0  0  0  0
  147.8794  134.1741  161.8759 C   0  0  0  0  0  0  0  0  0  0  0  0
  147.2874  132.9498  162.5432 C   0  0  0  0  0  0  0  0  0  0  0  0
  145.9464  133.2114  163.0877 C   0  0  0  0  0  0  0  0  0  0  0  0
  144.8915  133.4175  163.5159 N   0  0  0  0  0  0  0  0  0  0  0  0
  148.0620  135.3625  162.6096 C   0  0  0  0  0  0  0  0  0  0  0  0
  148.6137  136.4989  161.9872 C   0  0  0  0  0  0  0  0  0  0  0  0
  148.8818  140.9821  154.5122 H   0  0  0  0  0  0  0  0  0  0  0  0
  148.8566  139.4700  155.4313 H   0  0  0  0  0  0  0  0  0  0  0  0
  150.2171  139.8307  154.3557 H   0  0  0  0  0  0  0  0  0  0  0  0
  150.7221  144.6252  158.0323 H   0  0  0  0  0  0  0  0  0  0  0  0
  152.2743  144.4992  159.9876 H   0  0  0  0  0  0  0  0  0  0  0  0
  153.3234  142.3634  160.6393 H   0  0  0  0  0  0  0  0  0  0  0  0
  152.8705  140.2675  159.3725 H   0  0  0  0  0  0  0  0  0  0  0  0
  150.9204  138.3698  156.4384 H   0  0  0  0  0  0  0  0  0  0  0  0
  152.5362  138.8600  156.8651 H   0  0  0  0  0  0  0  0  0  0  0  0
  151.2819  139.1669  159.3006 H   0  0  0  0  0  0  0  0  0  0  0  0
  151.9539  136.6172  159.0953 H   0  0  0  0  0  0  0  0  0  0  0  0
  149.1642  138.0834  158.1015 H   0  0  0  0  0  0  0  0  0  0  0  0
  150.0457  136.5873  158.4041 H   0  0  0  0  0  0  0  0  0  0  0  0
  149.0778  135.1921  158.8551 H   0  0  0  0  0  0  0  0  0  0  0  0
  148.1178  133.2229  159.9486 H   0  0  0  0  0  0  0  0  0  0  0  0
  147.2156  132.1312  161.8267 H   0  0  0  0  0  0  0  0  0  0  0  0
  147.9311  132.6168  163.3576 H   0  0  0  0  0  0  0  0  0  0  0  0
  147.7806  135.4052  163.6515 H   0  0  0  0  0  0  0  0  0  0  0  0
  148.7500  137.4049  162.5593 H   0  0  0  0  0  0  0  0  0  0  0  0
  149.5719  142.9250  156.0084 H   0  0  0  0  0  0  0  0  0  0  0  0
  1  2  1  0  0  0  0
  1 25  1  0  0  0  0
  1 26  1  0  0  0  0
  1 27  1  0  0  0  0
  2 10  1  0  0  0  0
  2  3  2  0  0  0  0
  3  4  1  0  0  0  0
  3 44  1  0  0  0  0
  4  9  2  0  0  0  0
  4  5  1  0  0  0  0
  5  6  2  0  0  0  0
  5 28  1  0  0  0  0
  6  7  1  0  0  0  0
  6 29  1  0  0  0  0
  7  8  2  0  0  0  0
  7 30  1  0  0  0  0
  8  9  1  0  0  0  0
  8 31  1  0  0  0  0
  9 10  1  0  0  0  0
 10 11  1  0  0  0  0
 11 12  1  0  0  0  0
 11 32  1  0  0  0  0
 11 33  1  0  0  0  0
 12 13  1  0  0  0  0
 12 14  1  0  0  0  0
 12 34  1  0  0  0  0
 13 35  1  0  0  0  0
 14 15  1  0  0  0  0
 14 36  1  0  0  0  0
 14 37  1  0  0  0  0
 15 16  1  0  0  0  0
 16 24  1  0  0  0  0
 16 17  2  0  0  0  0
 17 18  1  0  0  0  0
 17 38  1  0  0  0  0
 18 19  2  0  0  0  0
 18 39  1  0  0  0  0
 19 20  1  0  0  0  0
 19 23  1  0  0  0  0
 20 21  1  0  0  0  0
 20 40  1  0  0  0  0
 20 41  1  0  0  0  0
 21 22  3  0  0  0  0
 23 24  2  0  0  0  0
 23 42  1  0  0  0  0
 24 43  1  0  0  0  0
M  CHG  1   3   1
M  END
> <s_m_source_file>
AV-unprocessed.smi

> <i_m_source_file_index>
2163

> <i_lp_mmshare_version>
43012

> <i_f3d_flags>
0

> <s_epik_input>
W2NIXTFbY0hdW2NIXVtjSF1jKGMxMiluKGMobjIpW0NIM10pW0NIMl1bQ0BIXShbT0hdKVtDSDJdT2MzW2NIXVtjSF1jKFtDSDJdQyNOKVtjSF1bY0hdMw==

> <s_epik_cmdline>
J2VwaWtfcHl0aG9uJywgJy1waCcsICc3LjAnLCAnLXRuJywgJzgnLCAnLW1hJywgJzIwMCcsICctbWV0YWxfYmluZGluZycsICctaW1hZScsICc8aW5maWxlLm1hZT4nLCAnLW9tYWUnLCAnPG91dGZpbGUubWFlPic=

> <r_lp_tautomer_probability>
1

> <r_epik_Ionization_Penalty>
1.03158

> <r_epik_Ionization_Penalty_Charging>
1.03158

> <r_epik_Ionization_Penalty_Neutral>
2.3994e-06

> <r_epik_State_Penalty>
1.08278

> <r_epik_Charging_Adjusted_Penalty>
2.11436

> <i_epik_Tot_Q>
1

> <i_epik_Tot_abs_Q>
1

> <r_epik_Metal_State_Penalty>
5.07177

> <b_epik_Metal_Only>
0

> <s_lp_Force_Field>
OPLS_2005

> <r_lp_Energy>
21.0912

> <b_lp_Chiralities_Consistent>
1

> <s_lp_Variant>
AV-unprocessed.smi:2163-3

> <Gold.Version>
5.8.1

> <Gold.Id.Protein>
6NUR|6NUR_protein|mol2

> <Gold.PLP.Fitness>
52.4597

> <Gold.PLP.PLP>
-48.3418

> <Gold.PLP.part.hbond>
-2.9610

> <Gold.PLP.part.metal>
0.0000

> <Gold.PLP.part.buried>
-2.4370

> <Gold.PLP.part.nonpolar>
-42.5553

> <Gold.PLP.part.repulsive>
0.1587

> <Gold.PLP.ligand.clash>
0.0000

> <Gold.PLP.ligand.torsion>
1.0566

> <Gold.PLP.Chemscore.Hbond>
2.0349

> <Gold.PLP.Chemscore.CHOScore>
0.0000

> <Gold.PLP.Chemscore.Metal>
0.0000

> <Gold.Chemscore.Hbonds>
donor molecule, donor type, donor heavy atom, donor atom, acceptor molecule, acceptor atom, score
      L1  H     3    44       P1  8028  2.00
      P1  H  6931  6943       L1    15  0.01

> <Gold.PLP.Chemscore.Internal.Correction>
0.1264

> <Gold.Rescore>
     Score         DG    S(hbond)    S(metal)    S(lipo)     H(rot)  DE(clash)    DE(int)     intcor
     15.53     -16.51       0.99        0.00     123.01       2.60       0.06       0.93       ----

> <Gold.Chemscore.Fitness>
15.5315

> <Gold.Chemscore.DG>
-16.5137

> <Gold.Chemscore.ZeroCoef>
-5.4800

> <Gold.Chemscore.Hbond>
0.9903

> <Gold.Chemscore.Metal>
0.0000

> <Gold.Chemscore.Lipo>
123.0134

> <Gold.Chemscore.Internal_Hbond>
0.0000

> <Gold.Chemscore.DEClash>
0.0553

> <Gold.Chemscore.DEInternal>
0.9269

> <Gold.Chemscore.Rot>
2.6041

> <Gold.Chemscore.Internal.Correction>
   9.000000E+99

> <Gold.Chemscore.Hbonds>
donor molecule, donor type, donor heavy atom, donor atom, acceptor molecule, acceptor atom, score
      L1  H     3    44       P1  8028  0.97

> <Gold.Chemscore.Hbond.Weighted>
-3.3077

> <Gold.Chemscore.Metal.Weighted>
-0.0000

> <Gold.Chemscore.Lipo.Weighted>
-14.3926

> <Gold.Chemscore.Internal_Hbond.Weighted>
0.0000

> <Gold.Chemscore.DEClash.Weighted>
0.0553

> <Gold.Chemscore.DEInternal.Weighted>
0.9269

> <Gold.Chemscore.Rot.Weighted>
6.6665

> <Gold.Chemscore.Internal.Correction.Weighted>
   9.000000E+99

> <Gold.Protein.RotatedTorsions>
[ 6907 6896 6895 6894 ] final  179.38 input  -60.11 | X-H torsion
[ 7974 7965 7964 7962 ] final  -46.17 input  175.53 | X-H torsion
[ 8008 7997 7996 7995 ] final   76.75 input   59.86 | X-H torsion
[ 10167 10162 10161 10158 ] final -160.20 input  -65.29 | X-H torsion
[ 10718 10713 10712 10709 ] final -147.72 input   66.30 | X-H torsion
[ 10763 10752 10751 10750 ] final -153.31 input  -60.55 | X-H torsion
[ 11005 11000 10999 10996 ] final -116.35 input  -57.11 | X-H torsion

> <Gold.Protein.ActiveResidues>
 VAL166  LYS551  ARG553  GLY616  TRP617  ASP618  TYR619  PRO620  LYS621  CYS622 
 ASP623  PHE694  ASN695  SER759  ASP760  ASP761  ALA762  ILE779  LEU786  VAL792 
 PHE793  MET794  SER795  GLU796  ALA797  LYS798  CYS799  TRP800  GLU811  SER814 

> <Gold.Protein.RotatedAtoms>
  151.6725  133.3313  159.3199 H   0  0  0  0  0  0  0  0  0  0  0  0  # atno 6907 bound_to 6896
  150.7861  134.6850  159.6474 H   0  0  0  0  0  0  0  0  0  0  0  0  # atno 6908 bound_to 6896
  152.3930  134.6413  160.0152 H   0  0  0  0  0  0  0  0  0  0  0  0  # atno 6909 bound_to 6896
  145.9747  140.7347  142.9393 H   0  0  0  0  0  0  0  0  0  0  0  0  # atno 7974 bound_to 7965
  155.8318  140.3466  155.5577 H   0  0  0  0  0  0  0  0  0  0  0  0  # atno 8008 bound_to 7997
  155.8233  140.0916  157.1856 H   0  0  0  0  0  0  0  0  0  0  0  0  # atno 8009 bound_to 7997
  154.4004  140.1426  156.3514 H   0  0  0  0  0  0  0  0  0  0  0  0  # atno 8010 bound_to 7997
  139.6557  144.0003  152.2192 H   0  0  0  0  0  0  0  0  0  0  0  0  # atno 10167 bound_to 10162
  156.4111  130.7982  151.2199 H   0  0  0  0  0  0  0  0  0  0  0  0  # atno 10718 bound_to 10713
  154.7936  135.3216  154.7719 H   0  0  0  0  0  0  0  0  0  0  0  0  # atno 10763 bound_to 10752
  153.8402  135.6871  153.4808 H   0  0  0  0  0  0  0  0  0  0  0  0  # atno 10764 bound_to 10752
  153.1618  135.4658  154.9723 H   0  0  0  0  0  0  0  0  0  0  0  0  # atno 10765 bound_to 10752
  141.0428  133.9809  157.2967 H   0  0  0  0  0  0  0  0  0  0  0  0  # atno 11005 bound_to 11000
  144.6845  140.2807  143.7292 LP  0  0  0  0  0  0  0  0  0  0  0  0  # atno 17320 bound_to 7965
  145.7856  139.1908  143.2132 LP  0  0  0  0  0  0  0  0  0  0  0  0  # atno 17321 bound_to 7965
  139.9728  144.6482  150.7973 LP  0  0  0  0  0  0  0  0  0  0  0  0  # atno 17342 bound_to 10162
  140.7558  143.3053  151.2977 LP  0  0  0  0  0  0  0  0  0  0  0  0  # atno 17343 bound_to 10162
  157.7507  131.0257  150.3932 LP  0  0  0  0  0  0  0  0  0  0  0  0  # atno 17370 bound_to 10713
  156.4230  130.3956  149.6812 LP  0  0  0  0  0  0  0  0  0  0  0  0  # atno 17371 bound_to 10713
  139.9289  135.0201  156.8330 LP  0  0  0  0  0  0  0  0  0  0  0  0  # atno 17394 bound_to 11000
  140.6203  134.0000  155.7615 LP  0  0  0  0  0  0  0  0  0  0  0  0  # atno 17395 bound_to 11000

$$$$
