#       Name:                AV-unprocessed.smi:2060
#       Creating user name   scv26
#       Creation time:       Fri Mar 27 11:02:55 2020


#       File generated by GOLD software.
#

@<TRIPOS>MOLECULE
AV-unprocessed.smi:2060
    53    54     1
SMALL
NO_CHARGES


@<TRIPOS>ATOM
      1 ****        -1.8386   2.0052   2.6988 C.3            1 S1                 0.0000
      2 ****        -2.0481   1.2426   1.3678 C.3            1 S1                 0.0000
      3 ****        -1.3745   1.7894   0.0469 C.3            1 S1                 0.0000
      4 ****        -1.9181   3.2321  -0.1766 C.3            1 S1                 0.0000
      5 ****         0.1917   1.8177   0.1977 C.3            1 S1                 0.0000
      6 ****         0.7319   0.4583   0.3059 N.pl3          1 S1                -1.0000
      7 ****         1.9891   0.1589   0.7313 C.2            1 S1                 0.0000
      8 ****         2.8771   0.9493   1.0712 O.2            1 S1                 0.0000
      9 ****         2.2129  -1.1678   0.7549 N.am           1 S1                 0.0000
     10 ****         3.3854  -1.8651   1.1483 C.2            1 S1                 0.0000
     11 ****         3.4299  -3.2844   1.1112 C.2            1 S1                 0.0000
     12 ****         4.6906  -3.5658   1.5571 C.2            1 S1                 0.0000
     13 ****         5.4274  -4.8420   1.7783 C.3            1 S1                 0.0000
     14 ****         5.3608  -2.4161   1.8403 O.3            1 S1                 0.0000
     15 ****         4.5190  -1.3294   1.5762 N.2            1 S1                 0.0000
     16 ****        -1.6987   0.9128  -1.1538 N.4            1 S1                 1.0000
     17 ****        -2.9450   0.0948  -1.0999 C.3            1 S1                 0.0000
     18 ****        -2.9973  -0.9000  -2.2735 C.3            1 S1                 0.0000
     19 ****        -2.8864  -0.2136  -3.5115 O.3            1 S1                 0.0000
     20 ****        -1.6563   0.4883  -3.6086 C.3            1 S1                 0.0000
     21 ****        -1.5987   1.5520  -2.5032 C.3            1 S1                 0.0000
     22 ****        -2.3959   1.5165   3.4981 H              1 S1                 0.0000
     23 ****        -2.1981   3.0319   2.6490 H              1 S1                 0.0000
     24 ****        -0.7955   2.0233   3.0141 H              1 S1                 0.0000
     25 ****        -1.7605   0.2036   1.5417 H              1 S1                 0.0000
     26 ****        -3.1293   1.2261   1.2295 H              1 S1                 0.0000
     27 ****        -1.7127   3.8957   0.6641 H              1 S1                 0.0000
     28 ****        -3.0006   3.2197  -0.3089 H              1 S1                 0.0000
     29 ****        -1.4955   3.7308  -1.0502 H              1 S1                 0.0000
     30 ****         0.6213   2.3333  -0.6615 H              1 S1                 0.0000
     31 ****         0.4597   2.4348   1.0554 H              1 S1                 0.0000
     32 ****         1.4410  -1.7473   0.4614 H              1 S1                 0.0000
     33 ****         2.6640  -3.9830   0.8089 H              1 S1                 0.0000
     34 ****         4.7814  -5.7013   1.5972 H              1 S1                 0.0000
     35 ****         5.7935  -4.9044   2.8030 H              1 S1                 0.0000
     36 ****         6.2834  -4.9146   1.1073 H              1 S1                 0.0000
     37 ****        -2.9994  -0.5048  -0.1932 H              1 S1                 0.0000
     38 ****        -3.8167   0.7505  -1.1160 H              1 S1                 0.0000
     39 ****        -2.2016  -1.6418  -2.1861 H              1 S1                 0.0000
     40 ****        -3.9406  -1.4462  -2.2587 H              1 S1                 0.0000
     41 ****        -0.8132  -0.2009  -3.5347 H              1 S1                 0.0000
     42 ****        -1.5977   0.9616  -4.5887 H              1 S1                 0.0000
     43 ****        -2.4180   2.2582  -2.6454 H              1 S1                 0.0000
     44 ****        -0.6713   2.1126  -2.6154 H              1 S1                 0.0000
     45 ****        -0.9529   0.2300  -1.1281 H              1 S1                 0.0000
     46 ****         0.1345  -0.3014   0.0491 LP             1 S1                 0.0000
     47 ****         2.7048   1.9341   1.0500 LP             1 S1                 0.0000
     48 ****         3.7676   0.6037   1.3672 LP             1 S1                 0.0000
     49 ****         6.1794  -2.3543   1.2691 LP             1 S1                 0.0000
     50 ****         5.6259  -2.4099   2.8045 LP             1 S1                 0.0000
     51 ****         4.7283  -0.3578   1.6867 LP             1 S1                 0.0000
     52 ****        -3.6400   0.4390  -3.5899 LP             1 S1                 0.0000
     53 ****        -2.9415  -0.8776  -4.2573 LP             1 S1                 0.0000
@<TRIPOS>BOND
    1    1    2 1     
    2    1   22 1     
    3    1   23 1     
    4    1   24 1     
    5    2    3 1     
    6    2   25 1     
    7    2   26 1     
    8    3    4 1     
    9    3    5 1     
   10    3   16 1     
   11    4   27 1     
   12    4   28 1     
   13    4   29 1     
   14    5    6 1     
   15    5   30 1     
   16    5   31 1     
   17    6    7 1     
   18    7    8 2     
   19    7    9 am    
   20    9   10 1     
   21    9   32 1     
   22   10   15 2     
   23   10   11 1     
   24   11   12 2     
   25   11   33 1     
   26   12   13 1     
   27   12   14 1     
   28   13   34 1     
   29   13   35 1     
   30   13   36 1     
   31   14   15 1     
   32   16   21 1     
   33   16   17 1     
   34   16   45 1     
   35   17   18 1     
   36   17   37 1     
   37   17   38 1     
   38   18   19 1     
   39   18   39 1     
   40   18   40 1     
   41   19   20 1     
   42   20   21 1     
   43   20   41 1     
   44   20   42 1     
   45   21   43 1     
   46   21   44 1     
   47    6   46 1     
   48    8   47 1     
   49    8   48 1     
   50   14   49 1     
   51   14   50 1     
   52   15   51 1     
   53   19   52 1     
   54   19   53 1     
@<TRIPOS>SUBSTRUCTURE
      1 S1             1
@<TRIPOS>SET
LONE_PAIRS      STATIC     ATOMS    <user>   **** ""
8 46 47 48 49 50 51 52 53
DONOR_HYDROGENS      STATIC     ATOMS    <user>   **** ""
2 32 45
ATOM$BLUE        STATIC     ATOMS    COLORGROUP SYSTEM
8 46 47 48 49 50 51 52 53
ATOM$RED        STATIC     ATOMS    COLORGROUP SYSTEM
2 32 45
