AV-unprocessed.smi:1|AV-procd|sdf|22|dock7
  -GOLD-   2262015133D 1   1.00000     0.00000
 Structure written by MMmdl.
 56 61  0  0  0  0  0  0  0  0  2 V2000
  152.9180  142.3071  163.1733 O   0  0  0  0  0  0  0  0  0  0  0  0
  153.3476  142.3791  162.0199 C   0  0  0  0  0  0  0  0  0  0  0  0
  154.4683  141.8078  161.5106 N   0  5  0  0  0  0  0  0  0  0  0  0
  154.4412  140.5373  161.0802 C   0  0  0  0  0  0  0  0  0  0  0  0
  155.4365  139.6784  161.4178 N   0  0  0  0  0  0  0  0  0  0  0  0
  155.4227  138.4179  160.9694 C   0  0  0  0  0  0  0  0  0  0  0  0
  154.5291  137.8175  160.1777 N   0  0  0  0  0  0  0  0  0  0  0  0
  153.5219  138.6710  159.8296 C   0  0  0  0  0  0  0  0  0  0  0  0
  153.4131  140.0327  160.2371 C   0  0  0  0  0  0  0  0  0  0  0  0
  152.2745  140.6178  159.7027 N   0  0  0  0  0  0  0  0  0  0  0  0
  151.7511  139.6067  159.0138 C   0  0  0  0  0  0  0  0  0  0  0  0
  152.4137  138.4333  159.0306 N   0  0  0  0  0  0  0  0  0  0  0  0
  152.0228  137.1671  158.3385 C   0  0  1  0  0  0  0  0  0  0  0  0
  150.7700  136.7725  158.8018 O   0  0  0  0  0  0  0  0  0  0  0  0
  150.1103  136.0595  157.7686 C   0  0  1  0  0  0  0  0  0  0  0  0
  148.6016  135.9769  158.0348 C   0  0  0  0  0  0  0  0  0  0  0  0
  148.3717  135.0856  159.1177 O   0  0  0  0  0  0  0  0  0  0  0  0
  148.1434  135.5472  160.3655 C   0  0  0  0  0  0  0  0  0  0  0  0
  148.4254  136.6871  160.7399 O   0  0  0  0  0  0  0  0  0  0  0  0
  147.5132  134.5260  161.2516 C   0  0  0  0  0  0  0  0  0  0  0  0
  147.6907  133.1528  160.9619 C   0  0  0  0  0  0  0  0  0  0  0  0
  147.1101  132.1654  161.7815 C   0  0  0  0  0  0  0  0  0  0  0  0
  146.3463  132.5390  162.9025 C   0  0  0  0  0  0  0  0  0  0  0  0
  146.1629  133.9014  163.2022 C   0  0  0  0  0  0  0  0  0  0  0  0
  146.7415  134.8904  162.3827 C   0  0  0  0  0  0  0  0  0  0  0  0
  150.5115  136.8101  156.4966 C   0  0  1  0  0  0  0  0  0  0  0  0
  149.6613  137.9172  156.2540 O   0  0  0  0  0  0  0  0  0  0  0  0
  150.6049  139.1971  155.7518 S   0  0  0  0  0  0  0  0  0  0  0  0
  150.6998  139.1434  154.2848 O   0  0  0  0  0  0  0  0  0  0  0  0
  150.1813  140.4076  156.4708 O   0  0  0  0  0  0  0  0  0  0  0  0
  152.0623  138.6790  156.3814 O   0  0  0  0  0  0  0  0  0  0  0  0
  151.9253  137.3301  156.8086 C   0  0  1  0  0  0  0  0  0  0  0  0
  152.6165  143.2412  161.0249 C   0  0  0  0  0  0  0  0  0  0  0  0
  153.0359  143.2634  159.6750 C   0  0  0  0  0  0  0  0  0  0  0  0
  152.3808  144.0820  158.7342 C   0  0  0  0  0  0  0  0  0  0  0  0
  151.3040  144.8947  159.1350 C   0  0  0  0  0  0  0  0  0  0  0  0
  150.8862  144.8922  160.4788 C   0  0  0  0  0  0  0  0  0  0  0  0
  151.5409  144.0741  161.4201 C   0  0  0  0  0  0  0  0  0  0  0  0
  156.2506  137.8020  161.2876 H   0  0  0  0  0  0  0  0  0  0  0  0
  150.8292  139.7255  158.4638 H   0  0  0  0  0  0  0  0  0  0  0  0
  152.7767  136.4377  158.6380 H   0  0  0  0  0  0  0  0  0  0  0  0
  150.5353  135.0544  157.7421 H   0  0  0  0  0  0  0  0  0  0  0  0
  148.2161  136.9594  158.3076 H   0  0  0  0  0  0  0  0  0  0  0  0
  148.0823  135.6762  157.1239 H   0  0  0  0  0  0  0  0  0  0  0  0
  148.2732  132.8413  160.1068 H   0  0  0  0  0  0  0  0  0  0  0  0
  147.2514  131.1200  161.5493 H   0  0  0  0  0  0  0  0  0  0  0  0
  145.9019  131.7818  163.5314 H   0  0  0  0  0  0  0  0  0  0  0  0
  145.5771  134.1895  164.0627 H   0  0  0  0  0  0  0  0  0  0  0  0
  146.5825  135.9265  162.6430 H   0  0  0  0  0  0  0  0  0  0  0  0
  150.4955  136.1614  155.6202 H   0  0  0  0  0  0  0  0  0  0  0  0
  152.6902  136.7086  156.3421 H   0  0  0  0  0  0  0  0  0  0  0  0
  153.8617  142.6465  159.3509 H   0  0  0  0  0  0  0  0  0  0  0  0
  152.7057  144.0861  157.7043 H   0  0  0  0  0  0  0  0  0  0  0  0
  150.8017  145.5222  158.4138 H   0  0  0  0  0  0  0  0  0  0  0  0
  150.0645  145.5201  160.7900 H   0  0  0  0  0  0  0  0  0  0  0  0
  151.2107  144.0950  162.4488 H   0  0  0  0  0  0  0  0  0  0  0  0
  1  2  2  0  0  0  0
  2  3  1  0  0  0  0
  2 33  1  0  0  0  0
  3  4  1  0  0  0  0
  4  9  1  0  0  0  0
  4  5  2  0  0  0  0
  5  6  1  0  0  0  0
  6  7  2  0  0  0  0
  6 39  1  0  0  0  0
  7  8  1  0  0  0  0
  8 12  1  0  0  0  0
  8  9  2  0  0  0  0
  9 10  1  0  0  0  0
 10 11  2  0  0  0  0
 11 12  1  0  0  0  0
 11 40  1  0  0  0  0
 12 13  1  0  0  0  0
 13 32  1  0  0  0  0
 13 14  1  0  0  0  0
 13 41  1  0  0  0  0
 14 15  1  0  0  0  0
 15 16  1  0  0  0  0
 15 26  1  0  0  0  0
 15 42  1  0  0  0  0
 16 17  1  0  0  0  0
 16 43  1  0  0  0  0
 16 44  1  0  0  0  0
 17 18  1  0  0  0  0
 18 19  2  0  0  0  0
 18 20  1  0  0  0  0
 20 25  1  0  0  0  0
 20 21  2  0  0  0  0
 21 22  1  0  0  0  0
 21 45  1  0  0  0  0
 22 23  2  0  0  0  0
 22 46  1  0  0  0  0
 23 24  1  0  0  0  0
 23 47  1  0  0  0  0
 24 25  2  0  0  0  0
 24 48  1  0  0  0  0
 25 49  1  0  0  0  0
 26 32  1  0  0  0  0
 26 27  1  0  0  0  0
 26 50  1  0  0  0  0
 27 28  1  0  0  0  0
 28 29  2  0  0  0  0
 28 30  2  0  0  0  0
 28 31  1  0  0  0  0
 31 32  1  0  0  0  0
 32 51  1  0  0  0  0
 33 38  1  0  0  0  0
 33 34  2  0  0  0  0
 34 35  1  0  0  0  0
 34 52  1  0  0  0  0
 35 36  2  0  0  0  0
 35 53  1  0  0  0  0
 36 37  1  0  0  0  0
 36 54  1  0  0  0  0
 37 38  2  0  0  0  0
 37 55  1  0  0  0  0
 38 56  1  0  0  0  0
M  CHG  1   3  -1
M  END
> <s_m_source_file>
AV-unprocessed.smi

> <i_m_source_file_index>
1

> <i_lp_mmshare_version>
43012

> <i_f3d_flags>
0

> <s_epik_input>
W2NIXTFbY0hdW2NIXVtjSF1bY0hdYzFDKD1PKVtOSF1jKG5bY0hdbjIpYyhjMjMpbltjSF1uM1tDQEBIXShbQ0BIXShbQ0BIXTQ1KU9TKE81KSg9Tyk9TylPW0NASF00W0NIMl1PQyg9TyljNltjSF1bY0hdW2NIXVtjSF1bY0hdNg==

> <s_epik_cmdline>
J2VwaWtfcHl0aG9uJywgJy1waCcsICc3LjAnLCAnLXRuJywgJzgnLCAnLW1hJywgJzIwMCcsICctbWV0YWxfYmluZGluZycsICctaW1hZScsICc8aW5maWxlLm1hZT4nLCAnLW9tYWUnLCAnPG91dGZpbGUubWFlPic=

> <r_lp_tautomer_probability>
1

> <r_epik_Ionization_Penalty>
4.39121

> <r_epik_Ionization_Penalty_Charging>
3.39398

> <r_epik_Ionization_Penalty_Neutral>
0.997232

> <r_epik_State_Penalty>
3.39839

> <r_epik_Charging_Adjusted_Penalty>
6.79237

> <i_epik_Tot_Q>
-1

> <i_epik_Tot_abs_Q>
1

> <r_epik_Metal_State_Penalty>
0.497663

> <b_epik_Metal_Only>
1

> <s_epik_Chemistry_Notes>
This compound has an ester and may undergo hydrolysis at high or low pH. This compound contains an acetal/aminal-like group ( X-CH(R)-Y where X, Y are N, S, or O) that may be acid/base labile, releasing an aldehyde.

> <s_lp_Force_Field>
OPLS_2005

> <r_lp_Energy>
46.5931

> <b_lp_Chiralities_Consistent>
1

> <s_lp_Variant>
AV-unprocessed.smi:1-22

> <Gold.Version>
5.8.1

> <Gold.Id.Protein>
6NUR|6NUR_protein|mol2

> <Gold.PLP.Fitness>
63.6250

> <Gold.PLP.PLP>
-60.0696

> <Gold.PLP.part.hbond>
-4.4458

> <Gold.PLP.part.metal>
0.0000

> <Gold.PLP.part.buried>
-7.2801

> <Gold.PLP.part.nonpolar>
-47.7201

> <Gold.PLP.part.repulsive>
0.3593

> <Gold.PLP.ligand.clash>
0.1483

> <Gold.PLP.ligand.torsion>
1.9905

> <Gold.PLP.Chemscore.Hbond>
2.4597

> <Gold.PLP.Chemscore.CHOScore>
0.0000

> <Gold.PLP.Chemscore.Metal>
0.0000

> <Gold.Chemscore.Hbonds>
donor molecule, donor type, donor heavy atom, donor atom, acceptor molecule, acceptor atom, score
      P1  H  6896  6908       L1    14  0.60
      P1  H  6931  6943       L1    19  0.99
      P1  H  7989  7998       L1    29  0.81

> <Gold.PLP.Chemscore.Internal.Correction>
0.3055

> <Gold.Rescore>
     Score         DG    S(hbond)    S(metal)    S(lipo)     H(rot)  DE(clash)    DE(int)     intcor
     15.17     -21.61       1.75        0.00     134.25       2.11       1.35       5.09       ----

> <Gold.Chemscore.Fitness>
15.1734

> <Gold.Chemscore.DG>
-21.6119

> <Gold.Chemscore.ZeroCoef>
-5.4800

> <Gold.Chemscore.Hbond>
1.7473

> <Gold.Chemscore.Metal>
0.0000

> <Gold.Chemscore.Lipo>
134.2461

> <Gold.Chemscore.Internal_Hbond>
0.0000

> <Gold.Chemscore.DEClash>
1.3503

> <Gold.Chemscore.DEInternal>
5.0882

> <Gold.Chemscore.Rot>
2.1136

> <Gold.Chemscore.Internal.Correction>
   9.000000E+99

> <Gold.Chemscore.Hbonds>
donor molecule, donor type, donor heavy atom, donor atom, acceptor molecule, acceptor atom, score
      P1  H  6896  6908       L1    14  0.02
      P1  H  6931  6943       L1    19  0.88
      P1  H  7989  7998       L1    29  0.69

> <Gold.Chemscore.Hbond.Weighted>
-5.8358

> <Gold.Chemscore.Metal.Weighted>
-0.0000

> <Gold.Chemscore.Lipo.Weighted>
-15.7068

> <Gold.Chemscore.Internal_Hbond.Weighted>
0.0000

> <Gold.Chemscore.DEClash.Weighted>
1.3503

> <Gold.Chemscore.DEInternal.Weighted>
5.0882

> <Gold.Chemscore.Rot.Weighted>
5.4107

> <Gold.Chemscore.Internal.Correction.Weighted>
   9.000000E+99

> <Gold.Protein.RotatedTorsions>
[ 6907 6896 6895 6894 ] final -148.39 input  -60.11 | X-H torsion
[ 7974 7965 7964 7962 ] final   32.84 input  175.53 | X-H torsion
[ 8008 7997 7996 7995 ] final   63.29 input   59.86 | X-H torsion
[ 10167 10162 10161 10158 ] final -130.51 input  -65.29 | X-H torsion
[ 10718 10713 10712 10709 ] final -128.53 input   66.30 | X-H torsion
[ 10763 10752 10751 10750 ] final   40.78 input  -60.55 | X-H torsion
[ 11005 11000 10999 10996 ] final  -88.53 input  -57.11 | X-H torsion

> <Gold.Protein.ActiveResidues>
 VAL166  LYS551  ARG553  GLY616  TRP617  ASP618  TYR619  PRO620  LYS621  CYS622 
 ASP623  PHE694  ASN695  SER759  ASP760  ASP761  ALA762  ILE779  LEU786  VAL792 
 PHE793  MET794  SER795  GLU796  ALA797  LYS798  CYS799  TRP800  GLU811  SER814 

> <Gold.Protein.RotatedAtoms>
  151.1692  133.4795  159.2593 H   0  0  0  0  0  0  0  0  0  0  0  0  # atno 6907 bound_to 6896
  151.1373  135.0161  159.8620 H   0  0  0  0  0  0  0  0  0  0  0  0  # atno 6908 bound_to 6896
  152.5461  134.1589  159.8602 H   0  0  0  0  0  0  0  0  0  0  0  0  # atno 6909 bound_to 6896
  146.1460  139.6474  142.9131 H   0  0  0  0  0  0  0  0  0  0  0  0  # atno 7974 bound_to 7965
  155.6279  140.3496  155.4673 H   0  0  0  0  0  0  0  0  0  0  0  0  # atno 8008 bound_to 7997
  156.0027  140.1216  157.0555 H   0  0  0  0  0  0  0  0  0  0  0  0  # atno 8009 bound_to 7997
  154.4254  140.1097  156.5705 H   0  0  0  0  0  0  0  0  0  0  0  0  # atno 8010 bound_to 7997
  139.9286  143.6299  152.2535 H   0  0  0  0  0  0  0  0  0  0  0  0  # atno 10167 bound_to 10162
  156.1960  130.6826  151.0482 H   0  0  0  0  0  0  0  0  0  0  0  0  # atno 10718 bound_to 10713
  152.9926  135.6181  154.2682 H   0  0  0  0  0  0  0  0  0  0  0  0  # atno 10763 bound_to 10752
  154.2416  135.2788  155.2853 H   0  0  0  0  0  0  0  0  0  0  0  0  # atno 10764 bound_to 10752
  154.5365  135.5773  153.6860 H   0  0  0  0  0  0  0  0  0  0  0  0  # atno 10765 bound_to 10752
  141.1600  133.7575  156.9464 H   0  0  0  0  0  0  0  0  0  0  0  0  # atno 11005 bound_to 11000
  145.4936  141.0438  143.2579 LP  0  0  0  0  0  0  0  0  0  0  0  0  # atno 17320 bound_to 7965
  144.7847  139.6451  143.7139 LP  0  0  0  0  0  0  0  0  0  0  0  0  # atno 17321 bound_to 7965
  139.6801  144.7656  151.1623 LP  0  0  0  0  0  0  0  0  0  0  0  0  # atno 17342 bound_to 10162
  140.7643  143.5737  150.8968 LP  0  0  0  0  0  0  0  0  0  0  0  0  # atno 17343 bound_to 10162
  157.6958  131.0794  150.6974 LP  0  0  0  0  0  0  0  0  0  0  0  0  # atno 17370 bound_to 10713
  156.7031  130.4629  149.5567 LP  0  0  0  0  0  0  0  0  0  0  0  0  # atno 17371 bound_to 10713
  140.1287  134.9370  157.2306 LP  0  0  0  0  0  0  0  0  0  0  0  0  # atno 17394 bound_to 11000
  140.2981  134.3163  155.7297 LP  0  0  0  0  0  0  0  0  0  0  0  0  # atno 17395 bound_to 11000

$$$$
