AV-unprocessed.smi:3265|AV-procd|sdf|12498|dock9
  -GOLD-   2272018403D 1   1.00000     0.00000
 Structure written by MMmdl.
 41 42  0  0  0  0  0  0  0  0  2 V2000
  147.6061  133.2975  152.6302 C   0  0  0  0  0  0  0  0  0  0  0  0
  146.1586  133.6890  152.9694 C   0  0  2  0  0  0  0  0  0  0  0  0
  145.2247  133.6438  151.7449 C   0  0  0  0  0  0  0  0  0  0  0  0
  145.4739  134.8329  150.8058 C   0  0  0  0  0  0  0  0  0  0  0  0
  145.3924  136.1641  151.5686 C   0  0  0  0  0  0  0  0  0  0  0  0
  146.3405  136.1775  152.7106 N   0  3  1  0  0  0  0  0  0  0  0  0
  146.4203  137.5010  153.3796 C   0  0  0  0  0  0  0  0  0  0  0  0
  146.6348  138.6545  152.3773 C   0  0  0  0  0  0  0  0  0  0  0  0
  147.7128  139.5519  152.7836 N   0  0  0  0  0  0  0  0  0  0  0  0
  147.7857  140.1781  153.9685 C   0  0  0  0  0  0  0  0  0  0  0  0
  146.9623  140.0218  154.8693 O   0  0  0  0  0  0  0  0  0  0  0  0
  148.9492  141.1504  154.1569 C   0  0  0  0  0  0  0  0  0  0  0  0
  149.8008  140.7265  155.2545 N   0  0  0  0  0  0  0  0  0  0  0  0
  149.5360  140.7606  156.6082 C   0  0  0  0  0  0  0  0  0  0  0  0
  150.6336  140.2630  157.2502 C   0  0  0  0  0  0  0  0  0  0  0  0
  151.5279  139.9423  156.1913 C   0  0  0  0  0  0  0  0  0  0  0  0
  151.0298  140.2273  154.9987 N   0  0  0  0  0  0  0  0  0  0  0  0
  146.0786  135.0649  153.6617 C   0  0  0  0  0  0  0  0  0  0  0  0
  148.0645  134.0099  151.9467 H   0  0  0  0  0  0  0  0  0  0  0  0
  147.6489  132.3130  152.1637 H   0  0  0  0  0  0  0  0  0  0  0  0
  148.2233  133.2619  153.5283 H   0  0  0  0  0  0  0  0  0  0  0  0
  145.7983  132.9435  153.6798 H   0  0  0  0  0  0  0  0  0  0  0  0
  145.3436  132.7034  151.2056 H   0  0  0  0  0  0  0  0  0  0  0  0
  144.1881  133.6714  152.0841 H   0  0  0  0  0  0  0  0  0  0  0  0
  146.4531  134.7383  150.3356 H   0  0  0  0  0  0  0  0  0  0  0  0
  144.7446  134.8246  149.9955 H   0  0  0  0  0  0  0  0  0  0  0  0
  145.6276  136.9794  150.8835 H   0  0  0  0  0  0  0  0  0  0  0  0
  144.3774  136.3333  151.9321 H   0  0  0  0  0  0  0  0  0  0  0  0
  145.4897  137.6909  153.9157 H   0  0  0  0  0  0  0  0  0  0  0  0
  147.2037  137.4962  154.1389 H   0  0  0  0  0  0  0  0  0  0  0  0
  146.8374  138.2564  151.3819 H   0  0  0  0  0  0  0  0  0  0  0  0
  145.7249  139.2475  152.2865 H   0  0  0  0  0  0  0  0  0  0  0  0
  148.4423  139.7311  152.1078 H   0  0  0  0  0  0  0  0  0  0  0  0
  149.5486  141.1973  153.2467 H   0  0  0  0  0  0  0  0  0  0  0  0
  148.5733  142.1573  154.3470 H   0  0  0  0  0  0  0  0  0  0  0  0
  148.5993  141.1330  156.9964 H   0  0  0  0  0  0  0  0  0  0  0  0
  150.7752  140.1429  158.3139 H   0  0  0  0  0  0  0  0  0  0  0  0
  152.5202  139.5203  156.2531 H   0  0  0  0  0  0  0  0  0  0  0  0
  145.0880  135.1989  154.0995 H   0  0  0  0  0  0  0  0  0  0  0  0
  146.7894  135.1002  154.4877 H   0  0  0  0  0  0  0  0  0  0  0  0
  147.2533  136.0130  152.3100 H   0  0  0  0  0  0  0  0  0  0  0  0
  1  2  1  0  0  0  0
  1 19  1  0  0  0  0
  1 20  1  0  0  0  0
  1 21  1  0  0  0  0
  2 18  1  0  0  0  0
  2  3  1  0  0  0  0
  2 22  1  0  0  0  0
  3  4  1  0  0  0  0
  3 23  1  0  0  0  0
  3 24  1  0  0  0  0
  4  5  1  0  0  0  0
  4 25  1  0  0  0  0
  4 26  1  0  0  0  0
  5  6  1  0  0  0  0
  5 27  1  0  0  0  0
  5 28  1  0  0  0  0
  6  7  1  0  0  0  0
  6 18  1  0  0  0  0
  6 41  1  0  0  0  0
  7  8  1  0  0  0  0
  7 29  1  0  0  0  0
  7 30  1  0  0  0  0
  8  9  1  0  0  0  0
  8 31  1  0  0  0  0
  8 32  1  0  0  0  0
  9 10  1  0  0  0  0
  9 33  1  0  0  0  0
 10 11  2  0  0  0  0
 10 12  1  0  0  0  0
 12 13  1  0  0  0  0
 12 34  1  0  0  0  0
 12 35  1  0  0  0  0
 13 17  1  0  0  0  0
 13 14  1  0  0  0  0
 14 15  2  0  0  0  0
 14 36  1  0  0  0  0
 15 16  1  0  0  0  0
 15 37  1  0  0  0  0
 16 17  2  0  0  0  0
 16 38  1  0  0  0  0
 18 39  1  0  0  0  0
 18 40  1  0  0  0  0
M  CHG  1   6   1
M  END
> <s_m_source_file>
AV-unprocessed.smi

> <i_m_source_file_index>
3265

> <i_lp_mmshare_version>
43012

> <i_f3d_flags>
0

> <s_epik_input>
W0NIM11bQ0BASF0xW0NIMl1bQ0gyXVtDSDJdTihbQ0gyXTEpW0NIMl1bQ0gyXVtOSF1DKD1PKVtDSDJdbjJbY0hdW2NIXVtjSF1uMg==

> <s_epik_cmdline>
J2VwaWtfcHl0aG9uJywgJy1waCcsICc3LjAnLCAnLXRuJywgJzgnLCAnLW1hJywgJzIwMCcsICctbWV0YWxfYmluZGluZycsICctaW1hZScsICc8aW5maWxlLm1hZT4nLCAnLW9tYWUnLCAnPG91dGZpbGUubWFlPic=

> <r_lp_tautomer_probability>
1

> <r_epik_Ionization_Penalty>
0.00231455

> <r_epik_Ionization_Penalty_Charging>
0.00230623

> <r_epik_Ionization_Penalty_Neutral>
8.31727e-06

> <r_epik_State_Penalty>
0.00159065

> <r_epik_Charging_Adjusted_Penalty>
0.00389688

> <i_epik_Tot_Q>
1

> <i_epik_Tot_abs_Q>
1

> <r_epik_Metal_State_Penalty>
-0

> <b_epik_Metal_Only>
0

> <s_lp_Force_Field>
OPLS_2005

> <r_lp_Energy>
23.6627

> <b_lp_Chiralities_Consistent>
1

> <s_lp_Variant>
AV-unprocessed.smi:3265-3

> <Gold.Version>
5.8.1

> <Gold.Id.Protein>
6NUR|6NUR_protein|mol2

> <Gold.PLP.Fitness>
42.3854

> <Gold.PLP.PLP>
-31.3678

> <Gold.PLP.part.hbond>
-2.9533

> <Gold.PLP.part.metal>
0.0000

> <Gold.PLP.part.buried>
-1.5106

> <Gold.PLP.part.nonpolar>
-26.6111

> <Gold.PLP.part.repulsive>
0.2194

> <Gold.PLP.ligand.clash>
0.0000

> <Gold.PLP.ligand.torsion>
0.5086

> <Gold.PLP.Chemscore.Hbond>
4.0000

> <Gold.PLP.Chemscore.CHOScore>
0.0000

> <Gold.PLP.Chemscore.Metal>
0.0000

> <Gold.Chemscore.Hbonds>
donor molecule, donor type, donor heavy atom, donor atom, acceptor molecule, acceptor atom, score
      L1  H     6    41       P1  7948  2.00
      L1  H     9    33       P1  7957  0.98
      P1  H  7989  7998       L1    17  1.00

> <Gold.PLP.Chemscore.Internal.Correction>
0.0348

> <Gold.Rescore>
     Score         DG    S(hbond)    S(metal)    S(lipo)     H(rot)  DE(clash)    DE(int)     intcor
     17.57     -18.02       2.93        0.00      63.72       1.84       0.01       0.44       ----

> <Gold.Chemscore.Fitness>
17.5717

> <Gold.Chemscore.DG>
-18.0230

> <Gold.Chemscore.ZeroCoef>
-5.4800

> <Gold.Chemscore.Hbond>
2.9325

> <Gold.Chemscore.Metal>
0.0000

> <Gold.Chemscore.Lipo>
63.7211

> <Gold.Chemscore.Internal_Hbond>
0.0000

> <Gold.Chemscore.DEClash>
0.0075

> <Gold.Chemscore.DEInternal>
0.4439

> <Gold.Chemscore.Rot>
1.8386

> <Gold.Chemscore.Internal.Correction>
   9.000000E+99

> <Gold.Chemscore.Hbonds>
donor molecule, donor type, donor heavy atom, donor atom, acceptor molecule, acceptor atom, score
      L1  H     6    41       P1  7948  1.00
      L1  H     9    33       P1  7957  0.91
      P1  H  7989  7998       L1    17  0.74

> <Gold.Chemscore.Hbond.Weighted>
-9.7945

> <Gold.Chemscore.Metal.Weighted>
-0.0000

> <Gold.Chemscore.Lipo.Weighted>
-7.4554

> <Gold.Chemscore.Internal_Hbond.Weighted>
0.0000

> <Gold.Chemscore.DEClash.Weighted>
0.0075

> <Gold.Chemscore.DEInternal.Weighted>
0.4439

> <Gold.Chemscore.Rot.Weighted>
4.7069

> <Gold.Chemscore.Internal.Correction.Weighted>
   9.000000E+99

> <Gold.Protein.RotatedTorsions>
[ 6907 6896 6895 6894 ] final  136.30 input  -60.11 | X-H torsion
[ 7974 7965 7964 7962 ] final  -86.35 input  175.53 | X-H torsion
[ 8008 7997 7996 7995 ] final -116.44 input   59.86 | X-H torsion
[ 10167 10162 10161 10158 ] final   12.85 input  -65.29 | X-H torsion
[ 10718 10713 10712 10709 ] final   45.06 input   66.30 | X-H torsion
[ 10763 10752 10751 10750 ] final   -8.98 input  -60.55 | X-H torsion
[ 11005 11000 10999 10996 ] final  144.00 input  -57.11 | X-H torsion

> <Gold.Protein.ActiveResidues>
 VAL166  LYS551  ARG553  GLY616  TRP617  ASP618  TYR619  PRO620  LYS621  CYS622 
 ASP623  PHE694  ASN695  SER759  ASP760  ASP761  ALA762  ILE779  LEU786  VAL792 
 PHE793  MET794  SER795  GLU796  ALA797  LYS798  CYS799  TRP800  GLU811  SER814 

> <Gold.Protein.RotatedAtoms>
  152.2909  133.5560  159.5556 H   0  0  0  0  0  0  0  0  0  0  0  0  # atno 6907 bound_to 6896
  150.7235  134.0430  159.3781 H   0  0  0  0  0  0  0  0  0  0  0  0  # atno 6908 bound_to 6896
  151.8336  135.0613  160.0490 H   0  0  0  0  0  0  0  0  0  0  0  0  # atno 6909 bound_to 6896
  145.4810  140.9557  143.1864 H   0  0  0  0  0  0  0  0  0  0  0  0  # atno 7974 bound_to 7965
  155.0678  140.0393  157.2598 H   0  0  0  0  0  0  0  0  0  0  0  0  # atno 8008 bound_to 7997
  154.7007  140.2672  155.6698 H   0  0  0  0  0  0  0  0  0  0  0  0  # atno 8009 bound_to 7997
  156.2759  140.2741  156.1616 H   0  0  0  0  0  0  0  0  0  0  0  0  # atno 8010 bound_to 7997
  140.6041  143.8544  150.6996 H   0  0  0  0  0  0  0  0  0  0  0  0  # atno 10167 bound_to 10162
  157.4335  130.8039  149.7626 H   0  0  0  0  0  0  0  0  0  0  0  0  # atno 10718 bound_to 10713
  153.4483  135.7014  153.6125 H   0  0  0  0  0  0  0  0  0  0  0  0  # atno 10763 bound_to 10752
  153.4471  135.3767  155.2262 H   0  0  0  0  0  0  0  0  0  0  0  0  # atno 10764 bound_to 10752
  154.8728  135.3988  154.3891 H   0  0  0  0  0  0  0  0  0  0  0  0  # atno 10765 bound_to 10752
  140.0598  134.9211  157.1164 H   0  0  0  0  0  0  0  0  0  0  0  0  # atno 11005 bound_to 11000
  144.7889  139.6370  143.7122 LP  0  0  0  0  0  0  0  0  0  0  0  0  # atno 17320 bound_to 7965
  146.2341  139.5870  142.9536 LP  0  0  0  0  0  0  0  0  0  0  0  0  # atno 17321 bound_to 7965
  140.2096  143.3894  152.1728 LP  0  0  0  0  0  0  0  0  0  0  0  0  # atno 17342 bound_to 10162
  139.5312  144.7161  151.5049 LP  0  0  0  0  0  0  0  0  0  0  0  0  # atno 17343 bound_to 10162
  155.9922  130.3932  150.2953 LP  0  0  0  0  0  0  0  0  0  0  0  0  # atno 17370 bound_to 10713
  157.1111  131.0221  151.3047 LP  0  0  0  0  0  0  0  0  0  0  0  0  # atno 17371 bound_to 10713
  140.3788  134.2310  155.7172 LP  0  0  0  0  0  0  0  0  0  0  0  0  # atno 17394 bound_to 11000
  141.1968  133.8074  157.0656 LP  0  0  0  0  0  0  0  0  0  0  0  0  # atno 17395 bound_to 11000

$$$$
