AV-unprocessed.smi:546|AV-procd|sdf|2888|dock3
  -GOLD-   2262023383D 1   1.00000     0.00000
 Structure written by MMmdl.
 51 53  0  0  0  0  0  0  0  0  2 V2000
  150.3780  134.9521  154.9861 C   0  0  0  0  0  0  0  0  0  0  0  0
  150.9696  135.3064  156.3520 C   0  0  0  0  0  0  0  0  0  0  0  0
  151.8898  136.3684  156.1806 O   0  0  0  0  0  0  0  0  0  0  0  0
  151.7380  137.4000  157.1410 C   0  0  0  0  0  0  0  0  0  0  0  0
  152.7572  138.5153  156.8656 C   0  0  0  0  0  0  0  0  0  0  0  0
  152.5537  139.6574  157.7519 N   0  0  0  0  0  0  0  0  0  0  0  0
  151.6056  140.6281  157.6550 C   0  0  0  0  0  0  0  0  0  0  0  0
  150.6915  140.6832  156.5995 N   0  0  0  0  0  0  0  0  0  0  0  0
  151.0237  140.3411  155.2127 C   0  0  0  0  0  0  0  0  0  0  0  0
  149.8481  139.7291  154.4151 C   0  0  1  0  0  0  0  0  0  0  0  0
  149.5474  138.2694  154.7913 C   0  0  0  0  0  0  0  0  0  0  0  0
  148.6046  140.6287  154.5085 C   0  0  0  0  0  0  0  0  0  0  0  0
  148.2948  140.9923  155.9689 C   0  0  2  0  0  0  0  0  0  0  0  0
  147.0982  141.9475  156.0689 C   0  0  0  0  0  0  0  0  0  0  0  0
  149.5483  141.5952  156.6266 C   0  0  0  0  0  0  0  0  0  0  0  0
  151.6024  141.5027  158.6630 N   0  0  0  0  0  0  0  0  0  0  0  0
  152.6492  141.0668  159.4596 C   0  0  0  0  0  0  0  0  0  0  0  0
  153.2396  139.9594  158.9350 C   0  0  0  0  0  0  0  0  0  0  0  0
  154.3702  139.2508  159.5787 C   0  0  0  0  0  0  0  0  0  0  0  0
  154.8634  138.2437  159.0755 O   0  0  0  0  0  0  0  0  0  0  0  0
  154.7592  139.8510  160.7479 N   0  5  0  0  0  0  0  0  0  0  0  0
  154.1917  140.9734  161.3109 C   0  0  0  0  0  0  0  0  0  0  0  0
  154.6058  141.4503  162.3684 O   0  0  0  0  0  0  0  0  0  0  0  0
  153.1373  141.5877  160.6888 N   0  0  0  0  0  0  0  0  0  0  0  0
  152.5073  142.7769  161.2695 C   0  0  0  0  0  0  0  0  0  0  0  0
  149.6615  134.1351  155.0705 H   0  0  0  0  0  0  0  0  0  0  0  0
  151.1594  134.6433  154.2911 H   0  0  0  0  0  0  0  0  0  0  0  0
  149.8622  135.8078  154.5497 H   0  0  0  0  0  0  0  0  0  0  0  0
  150.1766  135.6020  157.0401 H   0  0  0  0  0  0  0  0  0  0  0  0
  151.4726  134.4365  156.7768 H   0  0  0  0  0  0  0  0  0  0  0  0
  150.7246  137.8021  157.1046 H   0  0  0  0  0  0  0  0  0  0  0  0
  151.8948  136.9951  158.1418 H   0  0  0  0  0  0  0  0  0  0  0  0
  153.7733  138.1415  156.9690 H   0  0  0  0  0  0  0  0  0  0  0  0
  152.6887  138.8379  155.8320 H   0  0  0  0  0  0  0  0  0  0  0  0
  151.3458  141.2589  154.7193 H   0  0  0  0  0  0  0  0  0  0  0  0
  151.8886  139.6793  155.1818 H   0  0  0  0  0  0  0  0  0  0  0  0
  150.1512  139.7088  153.3675 H   0  0  0  0  0  0  0  0  0  0  0  0
  149.2389  138.1727  155.8309 H   0  0  0  0  0  0  0  0  0  0  0  0
  150.4226  137.6375  154.6405 H   0  0  0  0  0  0  0  0  0  0  0  0
  148.7460  137.8649  154.1727 H   0  0  0  0  0  0  0  0  0  0  0  0
  148.7850  141.5436  153.9421 H   0  0  0  0  0  0  0  0  0  0  0  0
  147.7460  140.1447  154.0415 H   0  0  0  0  0  0  0  0  0  0  0  0
  148.0306  140.0822  156.5090 H   0  0  0  0  0  0  0  0  0  0  0  0
  147.2996  142.8916  155.5616 H   0  0  0  0  0  0  0  0  0  0  0  0
  146.8629  142.1728  157.1096 H   0  0  0  0  0  0  0  0  0  0  0  0
  146.2080  141.5092  155.6173 H   0  0  0  0  0  0  0  0  0  0  0  0
  149.3235  141.8489  157.6635 H   0  0  0  0  0  0  0  0  0  0  0  0
  149.8257  142.5280  156.1336 H   0  0  0  0  0  0  0  0  0  0  0  0
  153.2187  143.6024  161.3091 H   0  0  0  0  0  0  0  0  0  0  0  0
  152.1638  142.5734  162.2847 H   0  0  0  0  0  0  0  0  0  0  0  0
  151.6432  143.1164  160.6994 H   0  0  0  0  0  0  0  0  0  0  0  0
  1  2  1  0  0  0  0
  1 26  1  0  0  0  0
  1 27  1  0  0  0  0
  1 28  1  0  0  0  0
  2  3  1  0  0  0  0
  2 29  1  0  0  0  0
  2 30  1  0  0  0  0
  3  4  1  0  0  0  0
  4  5  1  0  0  0  0
  4 31  1  0  0  0  0
  4 32  1  0  0  0  0
  5  6  1  0  0  0  0
  5 33  1  0  0  0  0
  5 34  1  0  0  0  0
  6 18  1  0  0  0  0
  6  7  1  0  0  0  0
  7  8  1  0  0  0  0
  7 16  2  0  0  0  0
  8 15  1  0  0  0  0
  8  9  1  0  0  0  0
  9 10  1  0  0  0  0
  9 35  1  0  0  0  0
  9 36  1  0  0  0  0
 10 11  1  0  0  0  0
 10 12  1  0  0  0  0
 10 37  1  0  0  0  0
 11 38  1  0  0  0  0
 11 39  1  0  0  0  0
 11 40  1  0  0  0  0
 12 13  1  0  0  0  0
 12 41  1  0  0  0  0
 12 42  1  0  0  0  0
 13 14  1  0  0  0  0
 13 15  1  0  0  0  0
 13 43  1  0  0  0  0
 14 44  1  0  0  0  0
 14 45  1  0  0  0  0
 14 46  1  0  0  0  0
 15 47  1  0  0  0  0
 15 48  1  0  0  0  0
 16 17  1  0  0  0  0
 17 24  1  0  0  0  0
 17 18  2  0  0  0  0
 18 19  1  0  0  0  0
 19 20  2  0  0  0  0
 19 21  1  0  0  0  0
 21 22  1  0  0  0  0
 22 23  2  0  0  0  0
 22 24  1  0  0  0  0
 24 25  1  0  0  0  0
 25 49  1  0  0  0  0
 25 50  1  0  0  0  0
 25 51  1  0  0  0  0
M  CHG  1  21  -1
M  END
> <s_m_source_file>
AV-unprocessed.smi

> <i_m_source_file_index>
546

> <i_lp_mmshare_version>
43012

> <i_f3d_flags>
0

> <s_epik_input>
W0NIM11uMWMoPU8pW25IXWMoPU8pYyhjMTIpbihbQ0gyXVtDSDJdT1tDSDJdW0NIM10pYyhuMilOM1tDSDJdW0NAQEhdKFtDSDNdKVtDSDJdW0NAQEhdKFtDSDNdKVtDSDJdMw==

> <s_epik_cmdline>
J2VwaWtfcHl0aG9uJywgJy1waCcsICc3LjAnLCAnLXRuJywgJzgnLCAnLW1hJywgJzIwMCcsICctbWV0YWxfYmluZGluZycsICctaW1hZScsICc8aW5maWxlLm1hZT4nLCAnLW9tYWUnLCAnPG91dGZpbGUubWFlPic=

> <r_lp_tautomer_probability>
1

> <r_epik_Ionization_Penalty>
5.12825

> <r_epik_Ionization_Penalty_Charging>
0.0743105

> <r_epik_Ionization_Penalty_Neutral>
5.05394

> <r_epik_State_Penalty>
5.04406

> <r_epik_Charging_Adjusted_Penalty>
5.11837

> <i_epik_Tot_Q>
-1

> <i_epik_Tot_abs_Q>
1

> <r_epik_Metal_State_Penalty>
1.15122

> <b_epik_Metal_Only>
1

> <s_lp_Force_Field>
OPLS_2005

> <r_lp_Energy>
44.0722

> <b_lp_Chiralities_Consistent>
1

> <s_lp_Variant>
AV-unprocessed.smi:546-6

> <Gold.Version>
5.8.1

> <Gold.Id.Protein>
6NUR|6NUR_protein|mol2

> <Gold.PLP.Fitness>
41.4028

> <Gold.PLP.PLP>
-39.5331

> <Gold.PLP.part.hbond>
-2.0000

> <Gold.PLP.part.metal>
0.0000

> <Gold.PLP.part.buried>
-1.4472

> <Gold.PLP.part.nonpolar>
-34.8672

> <Gold.PLP.part.repulsive>
0.0104

> <Gold.PLP.ligand.clash>
0.0000

> <Gold.PLP.ligand.torsion>
0.8956

> <Gold.PLP.Chemscore.Hbond>
1.0000

> <Gold.PLP.Chemscore.CHOScore>
0.0000

> <Gold.PLP.Chemscore.Metal>
0.0000

> <Gold.Chemscore.Hbonds>
donor molecule, donor type, donor heavy atom, donor atom, acceptor molecule, acceptor atom, score
      P1  H 10752 10763       L1     3  0.90

> <Gold.PLP.Chemscore.Internal.Correction>
0.6610

> <Gold.Rescore>
     Score         DG    S(hbond)    S(metal)    S(lipo)     H(rot)  DE(clash)    DE(int)     intcor
     10.85     -12.92       0.93        0.00      70.38       1.52       0.02       2.04       ----

> <Gold.Chemscore.Fitness>
10.8536

> <Gold.Chemscore.DG>
-12.9169

> <Gold.Chemscore.ZeroCoef>
-5.4800

> <Gold.Chemscore.Hbond>
0.9268

> <Gold.Chemscore.Metal>
0.0000

> <Gold.Chemscore.Lipo>
70.3769

> <Gold.Chemscore.Internal_Hbond>
0.0000

> <Gold.Chemscore.DEClash>
0.0234

> <Gold.Chemscore.DEInternal>
2.0398

> <Gold.Chemscore.Rot>
1.5206

> <Gold.Chemscore.Internal.Correction>
   9.000000E+99

> <Gold.Chemscore.Hbonds>
donor molecule, donor type, donor heavy atom, donor atom, acceptor molecule, acceptor atom, score
      P1  H 10752 10763       L1     3  0.18

> <Gold.Chemscore.Hbond.Weighted>
-3.0954

> <Gold.Chemscore.Metal.Weighted>
-0.0000

> <Gold.Chemscore.Lipo.Weighted>
-8.2341

> <Gold.Chemscore.Internal_Hbond.Weighted>
0.0000

> <Gold.Chemscore.DEClash.Weighted>
0.0234

> <Gold.Chemscore.DEInternal.Weighted>
2.0398

> <Gold.Chemscore.Rot.Weighted>
3.8926

> <Gold.Chemscore.Internal.Correction.Weighted>
   9.000000E+99

> <Gold.Protein.RotatedTorsions>
[ 6907 6896 6895 6894 ] final   29.13 input  -60.11 | X-H torsion
[ 7974 7965 7964 7962 ] final  -73.71 input  175.53 | X-H torsion
[ 8008 7997 7996 7995 ] final  130.84 input   59.86 | X-H torsion
[ 10167 10162 10161 10158 ] final -169.82 input  -65.29 | X-H torsion
[ 10718 10713 10712 10709 ] final -152.65 input   66.30 | X-H torsion
[ 10763 10752 10751 10750 ] final   85.26 input  -60.55 | X-H torsion
[ 11005 11000 10999 10996 ] final -143.57 input  -57.11 | X-H torsion

> <Gold.Protein.ActiveResidues>
 VAL166  LYS551  ARG553  GLY616  TRP617  ASP618  TYR619  PRO620  LYS621  CYS622 
 ASP623  PHE694  ASN695  SER759  ASP760  ASP761  ALA762  ILE779  LEU786  VAL792 
 PHE793  MET794  SER795  GLU796  ALA797  LYS798  CYS799  TRP800  GLU811  SER814 

> <Gold.Protein.RotatedAtoms>
  152.0271  134.9789  160.0571 H   0  0  0  0  0  0  0  0  0  0  0  0  # atno 6907 bound_to 6896
  152.1281  133.4387  159.4716 H   0  0  0  0  0  0  0  0  0  0  0  0  # atno 6908 bound_to 6896
  150.6854  134.2373  159.4501 H   0  0  0  0  0  0  0  0  0  0  0  0  # atno 6909 bound_to 6896
  145.6487  140.9289  143.0997 H   0  0  0  0  0  0  0  0  0  0  0  0  # atno 7974 bound_to 7965
  156.2961  140.2586  156.2828 H   0  0  0  0  0  0  0  0  0  0  0  0  # atno 8008 bound_to 7997
  154.9585  140.0393  157.2197 H   0  0  0  0  0  0  0  0  0  0  0  0  # atno 8009 bound_to 7997
  154.7969  140.2821  155.5955 H   0  0  0  0  0  0  0  0  0  0  0  0  # atno 8010 bound_to 7997
  139.5899  144.1236  152.1621 H   0  0  0  0  0  0  0  0  0  0  0  0  # atno 10167 bound_to 10162
  156.4753  130.8278  151.2506 H   0  0  0  0  0  0  0  0  0  0  0  0  # atno 10718 bound_to 10713
  153.1458  135.4624  154.9563 H   0  0  0  0  0  0  0  0  0  0  0  0  # atno 10763 bound_to 10752
  154.7785  135.3180  154.8044 H   0  0  0  0  0  0  0  0  0  0  0  0  # atno 10764 bound_to 10752
  153.8558  135.6917  153.4842 H   0  0  0  0  0  0  0  0  0  0  0  0  # atno 10765 bound_to 10752
  140.8111  134.2743  157.4940 H   0  0  0  0  0  0  0  0  0  0  0  0  # atno 11005 bound_to 11000
  144.7131  139.8298  143.7408 LP  0  0  0  0  0  0  0  0  0  0  0  0  # atno 17320 bound_to 7965
  146.1222  139.4242  143.0221 LP  0  0  0  0  0  0  0  0  0  0  0  0  # atno 17321 bound_to 7965
  140.0808  144.5702  150.7124 LP  0  0  0  0  0  0  0  0  0  0  0  0  # atno 17342 bound_to 10162
  140.7164  143.2548  151.4420 LP  0  0  0  0  0  0  0  0  0  0  0  0  # atno 17343 bound_to 10162
  157.7488  131.0063  150.3145 LP  0  0  0  0  0  0  0  0  0  0  0  0  # atno 17370 bound_to 10713
  156.3576  130.3841  149.7277 LP  0  0  0  0  0  0  0  0  0  0  0  0  # atno 17371 bound_to 10713
  139.8714  134.9484  156.3994 LP  0  0  0  0  0  0  0  0  0  0  0  0  # atno 17394 bound_to 11000
  140.9196  133.7654  155.9890 LP  0  0  0  0  0  0  0  0  0  0  0  0  # atno 17395 bound_to 11000

$$$$
