#       Name:                AV-unprocessed.smi:1254
#       Creating user name   scv26
#       Creation time:       Fri Mar 27 04:39:34 2020


#       File generated by GOLD software.
#

@<TRIPOS>MOLECULE
AV-unprocessed.smi:1254
    53    54     1
SMALL
NO_CHARGES


@<TRIPOS>ATOM
      1 ****        -7.8563   4.2304   0.5347 C.3            1 S1                 0.0000
      2 ****        -6.5357   3.7197   0.0700 C.2            1 S1                 0.0000
      3 ****        -5.3952   3.3575   0.7290 C.2            1 S1                 0.0000
      4 ****        -4.5267   2.9551  -0.3222 C.2            1 S1                 0.0000
      5 ****        -3.2652   2.5196  -0.1805 N.pl3          1 S1                -1.0000
      6 ****        -3.0213   1.2173   0.0913 C.2            1 S1                 0.0000
      7 ****        -3.8627   0.3286   0.2427 O.2            1 S1                 0.0000
      8 ****        -1.7189   0.9253   0.1936 N.am           1 S1                 0.0000
      9 ****        -1.1758  -0.3971   0.4719 C.3            1 S1                 0.0000
     10 ****         0.3554  -0.3822   0.3760 C.3            1 S1                 0.0000
     11 ****         0.9554  -1.7932   0.5474 C.3            1 S1                 0.0000
     12 ****         2.4382  -1.7561   0.5195 N.4            1 S1                 1.0000
     13 ****         3.0058  -1.6110  -0.8486 C.3            1 S1                 0.0000
     14 ****         4.4359  -2.1801  -0.9696 C.3            1 S1                 0.0000
     15 ****         5.0309  -1.8550  -2.3479 C.3            1 S1                 0.0000
     16 ****         4.4736  -3.6962  -0.7135 C.3            1 S1                 0.0000
     17 ****         2.9516  -0.7779   1.5124 C.3            1 S1                 0.0000
     18 ****         2.2766   0.5980   1.3519 C.3            1 S1                 0.0000
     19 ****         0.8641   0.4501   1.4144 O.3            1 S1                 0.0000
     20 ****        -5.0849   3.0792  -1.5147 N.2            1 S1                 0.0000
     21 ****        -6.3764   3.5618  -1.2713 O.3            1 S1                 0.0000
     22 ****        -7.7602   4.7359   1.4957 H              1 S1                 0.0000
     23 ****        -8.5658   3.4110   0.6521 H              1 S1                 0.0000
     24 ****        -8.2732   4.9404  -0.1802 H              1 S1                 0.0000
     25 ****        -5.2115   3.3725   1.7927 H              1 S1                 0.0000
     26 ****        -1.0597   1.6796   0.0684 H              1 S1                 0.0000
     27 ****        -1.4946  -0.7231   1.4632 H              1 S1                 0.0000
     28 ****        -1.5839  -1.1076  -0.2490 H              1 S1                 0.0000
     29 ****         0.6413   0.0262  -0.5953 H              1 S1                 0.0000
     30 ****         0.6420  -2.2069   1.5071 H              1 S1                 0.0000
     31 ****         0.5765  -2.4746  -0.2154 H              1 S1                 0.0000
     32 ****         2.3712  -2.1372  -1.5633 H              1 S1                 0.0000
     33 ****         2.9867  -0.5635  -1.1494 H              1 S1                 0.0000
     34 ****         5.0769  -1.7002  -0.2308 H              1 S1                 0.0000
     35 ****         4.4467  -2.3074  -3.1500 H              1 S1                 0.0000
     36 ****         6.0533  -2.2246  -2.4325 H              1 S1                 0.0000
     37 ****         5.0576  -0.7788  -2.5219 H              1 S1                 0.0000
     38 ****         3.8473  -4.2350  -1.4253 H              1 S1                 0.0000
     39 ****         4.1250  -3.9416   0.2898 H              1 S1                 0.0000
     40 ****         5.4884  -4.0839  -0.8066 H              1 S1                 0.0000
     41 ****         2.7360  -1.1650   2.5091 H              1 S1                 0.0000
     42 ****         4.0350  -0.6824   1.4528 H              1 S1                 0.0000
     43 ****         2.5939   1.2636   2.1548 H              1 S1                 0.0000
     44 ****         2.5632   1.0795   0.4162 H              1 S1                 0.0000
     45 ****         2.7394  -2.6689   0.8301 H              1 S1                 0.0000
     46 ****        -2.5031   3.1600  -0.2761 LP             1 S1                 0.0000
     47 ****        -4.8363   0.5435   0.1663 LP             1 S1                 0.0000
     48 ****        -3.5714  -0.6071   0.4419 LP             1 S1                 0.0000
     49 ****         0.6229   0.0456   2.2966 LP             1 S1                 0.0000
     50 ****         0.4434   1.3538   1.3359 LP             1 S1                 0.0000
     51 ****        -4.6722   2.8723  -2.4017 LP             1 S1                 0.0000
     52 ****        -6.4994   4.4413  -1.7309 LP             1 S1                 0.0000
     53 ****        -7.0505   2.9085  -1.6159 LP             1 S1                 0.0000
@<TRIPOS>BOND
    1    1    2 1     
    2    1   22 1     
    3    1   23 1     
    4    1   24 1     
    5    2   21 1     
    6    2    3 2     
    7    3    4 1     
    8    3   25 1     
    9    4    5 1     
   10    4   20 2     
   11    5    6 1     
   12    6    7 2     
   13    6    8 am    
   14    8    9 1     
   15    8   26 1     
   16    9   10 1     
   17    9   27 1     
   18    9   28 1     
   19   10   19 1     
   20   10   11 1     
   21   10   29 1     
   22   11   12 1     
   23   11   30 1     
   24   11   31 1     
   25   12   13 1     
   26   12   17 1     
   27   12   45 1     
   28   13   14 1     
   29   13   32 1     
   30   13   33 1     
   31   14   15 1     
   32   14   16 1     
   33   14   34 1     
   34   15   35 1     
   35   15   36 1     
   36   15   37 1     
   37   16   38 1     
   38   16   39 1     
   39   16   40 1     
   40   17   18 1     
   41   17   41 1     
   42   17   42 1     
   43   18   19 1     
   44   18   43 1     
   45   18   44 1     
   46   20   21 1     
   47    5   46 1     
   48    7   47 1     
   49    7   48 1     
   50   19   49 1     
   51   19   50 1     
   52   20   51 1     
   53   21   52 1     
   54   21   53 1     
@<TRIPOS>SUBSTRUCTURE
      1 S1             1
@<TRIPOS>SET
LONE_PAIRS      STATIC     ATOMS    <user>   **** ""
8 46 47 48 49 50 51 52 53
DONOR_HYDROGENS      STATIC     ATOMS    <user>   **** ""
2 26 45
ATOM$BLUE        STATIC     ATOMS    COLORGROUP SYSTEM
8 46 47 48 49 50 51 52 53
ATOM$RED        STATIC     ATOMS    COLORGROUP SYSTEM
2 26 45
