AV-unprocessed.smi:2148|AV-procd|sdf|8749|dock1
  -GOLD-   2272011523D 1   1.00000     0.00000
 Structure written by MMmdl.
 44 45  0  0  0  0  0  0  0  0  1 V2000
  145.5418  136.2735  151.3880 C   0  0  0  0  0  0  0  0  0  0  0  0
  145.4289  137.5021  152.7163 S   0  0  0  0  0  0  0  0  0  0  0  0
  146.9011  138.5113  152.3701 C   0  0  1  0  0  0  0  0  0  0  0  0
  146.6176  139.5476  151.2666 C   0  0  0  0  0  0  0  0  0  0  0  0
  147.4448  139.1525  153.6551 C   0  0  0  0  0  0  0  0  0  0  0  0
  146.6999  139.3481  154.6156 O   0  0  0  0  0  0  0  0  0  0  0  0
  148.7488  139.4868  153.6227 N   0  0  0  0  0  0  0  0  0  0  0  0
  149.5428  140.0900  154.6355 C   0  0  0  0  0  0  0  0  0  0  0  0
  150.9010  139.7776  154.8822 C   0  0  0  0  0  0  0  0  0  0  0  0
  151.5807  140.4594  155.9095 C   0  0  0  0  0  0  0  0  0  0  0  0
  150.8841  141.4380  156.6548 C   0  0  0  0  0  0  0  0  0  0  0  0
  151.5015  142.1494  157.6918 N   0  0  0  0  0  0  0  0  0  0  0  0
  152.1844  141.2946  158.6515 C   0  0  0  0  0  0  0  0  0  0  0  0
  152.9863  142.1551  159.6450 C   0  0  2  0  0  0  0  0  0  0  0  0
  153.6282  141.3068  160.7479 C   0  0  0  0  0  0  0  0  0  0  0  0
  152.1163  143.1035  160.2651 O   0  0  0  0  0  0  0  0  0  0  0  0
  151.4208  143.9651  159.3590 C   0  0  1  0  0  0  0  0  0  0  0  0
  152.3547  145.0047  158.7137 C   0  0  0  0  0  0  0  0  0  0  0  0
  150.6322  143.1266  158.3338 C   0  0  0  0  0  0  0  0  0  0  0  0
  149.5939  141.7528  156.4123 N   0  0  0  0  0  0  0  0  0  0  0  0
  148.9486  141.0957  155.4257 C   0  0  0  0  0  0  0  0  0  0  0  0
  144.7261  135.5558  151.4743 H   0  0  0  0  0  0  0  0  0  0  0  0
  146.4851  135.7306  151.4491 H   0  0  0  0  0  0  0  0  0  0  0  0
  145.4759  136.7509  150.4108 H   0  0  0  0  0  0  0  0  0  0  0  0
  147.6781  137.8377  152.0059 H   0  0  0  0  0  0  0  0  0  0  0  0
  147.4848  140.1839  151.0854 H   0  0  0  0  0  0  0  0  0  0  0  0
  145.7786  140.1925  151.5311 H   0  0  0  0  0  0  0  0  0  0  0  0
  146.3744  139.0622  150.3219 H   0  0  0  0  0  0  0  0  0  0  0  0
  149.2185  139.3321  152.7424 H   0  0  0  0  0  0  0  0  0  0  0  0
  151.4384  139.0445  154.3016 H   0  0  0  0  0  0  0  0  0  0  0  0
  152.6174  140.2349  156.1128 H   0  0  0  0  0  0  0  0  0  0  0  0
  151.4531  140.6874  159.1868 H   0  0  0  0  0  0  0  0  0  0  0  0
  152.8506  140.6091  158.1258 H   0  0  0  0  0  0  0  0  0  0  0  0
  153.7824  142.6793  159.1158 H   0  0  0  0  0  0  0  0  0  0  0  0
  154.3161  140.5730  160.3274 H   0  0  0  0  0  0  0  0  0  0  0  0
  152.8735  140.7684  161.3219 H   0  0  0  0  0  0  0  0  0  0  0  0
  154.1919  141.9313  161.4414 H   0  0  0  0  0  0  0  0  0  0  0  0
  150.6990  144.5195  159.9595 H   0  0  0  0  0  0  0  0  0  0  0  0
  151.7835  145.7218  158.1238 H   0  0  0  0  0  0  0  0  0  0  0  0
  153.0853  144.5482  158.0464 H   0  0  0  0  0  0  0  0  0  0  0  0
  152.8994  145.5636  159.4747 H   0  0  0  0  0  0  0  0  0  0  0  0
  150.1754  143.7731  157.5831 H   0  0  0  0  0  0  0  0  0  0  0  0
  149.8197  142.6068  158.8433 H   0  0  0  0  0  0  0  0  0  0  0  0
  147.9188  141.3807  155.2658 H   0  0  0  0  0  0  0  0  0  0  0  0
  1  2  1  0  0  0  0
  1 22  1  0  0  0  0
  1 23  1  0  0  0  0
  1 24  1  0  0  0  0
  2  3  1  0  0  0  0
  3  4  1  0  0  0  0
  3  5  1  0  0  0  0
  3 25  1  0  0  0  0
  4 26  1  0  0  0  0
  4 27  1  0  0  0  0
  4 28  1  0  0  0  0
  5  6  2  0  0  0  0
  5  7  1  0  0  0  0
  7  8  1  0  0  0  0
  7 29  1  0  0  0  0
  8 21  1  0  0  0  0
  8  9  2  0  0  0  0
  9 10  1  0  0  0  0
  9 30  1  0  0  0  0
 10 11  2  0  0  0  0
 10 31  1  0  0  0  0
 11 12  1  0  0  0  0
 11 20  1  0  0  0  0
 12 19  1  0  0  0  0
 12 13  1  0  0  0  0
 13 14  1  0  0  0  0
 13 32  1  0  0  0  0
 13 33  1  0  0  0  0
 14 15  1  0  0  0  0
 14 16  1  0  0  0  0
 14 34  1  0  0  0  0
 15 35  1  0  0  0  0
 15 36  1  0  0  0  0
 15 37  1  0  0  0  0
 16 17  1  0  0  0  0
 17 18  1  0  0  0  0
 17 19  1  0  0  0  0
 17 38  1  0  0  0  0
 18 39  1  0  0  0  0
 18 40  1  0  0  0  0
 18 41  1  0  0  0  0
 19 42  1  0  0  0  0
 19 43  1  0  0  0  0
 20 21  2  0  0  0  0
 21 44  1  0  0  0  0
M  END
> <s_m_source_file>
AV-unprocessed.smi

> <i_m_source_file_index>
2148

> <i_lp_mmshare_version>
43012

> <i_f3d_flags>
0

> <s_epik_input>
W0NIM11TW0NASF0oW0NIM10pQyg9TylbTkhdYzFbY0hdW2NIXWMobltjSF0xKU4yW0NIMl1bQ0BASF0oW0NIM10pT1tDQEBIXShbQ0gzXSlbQ0gyXTI=

> <s_epik_cmdline>
J2VwaWtfcHl0aG9uJywgJy1waCcsICc3LjAnLCAnLXRuJywgJzgnLCAnLW1hJywgJzIwMCcsICctbWV0YWxfYmluZGluZycsICctaW1hZScsICc8aW5maWxlLm1hZT4nLCAnLW9tYWUnLCAnPG91dGZpbGUubWFlPic=

> <r_lp_tautomer_probability>
1

> <r_epik_Ionization_Penalty>
0.000646494

> <r_epik_Ionization_Penalty_Charging>
0

> <r_epik_Ionization_Penalty_Neutral>
0.000646494

> <r_epik_State_Penalty>
0.000408447

> <r_epik_Charging_Adjusted_Penalty>
0.000408447

> <i_epik_Tot_Q>
0

> <i_epik_Tot_abs_Q>
0

> <r_epik_Metal_State_Penalty>
-0

> <b_epik_Metal_Only>
0

> <s_lp_Force_Field>
OPLS_2005

> <r_lp_Energy>
27.0114

> <b_lp_Chiralities_Consistent>
1

> <s_lp_Variant>
AV-unprocessed.smi:2148-4

> <Gold.Version>
5.8.1

> <Gold.Id.Protein>
6NUR|6NUR_protein|mol2

> <Gold.PLP.Fitness>
43.2714

> <Gold.PLP.PLP>
-42.8297

> <Gold.PLP.part.hbond>
-1.0000

> <Gold.PLP.part.metal>
0.0000

> <Gold.PLP.part.buried>
-0.0328

> <Gold.PLP.part.nonpolar>
-42.7595

> <Gold.PLP.part.repulsive>
0.3704

> <Gold.PLP.ligand.clash>
0.0000

> <Gold.PLP.ligand.torsion>
1.2551

> <Gold.PLP.Chemscore.Hbond>
0.9280

> <Gold.PLP.Chemscore.CHOScore>
0.0000

> <Gold.PLP.Chemscore.Metal>
0.0000

> <Gold.Chemscore.Hbonds>
donor molecule, donor type, donor heavy atom, donor atom, acceptor molecule, acceptor atom, score
      L1  H     7    29       P1  7957  0.91

> <Gold.PLP.Chemscore.Internal.Correction>
0.1678

> <Gold.Rescore>
     Score         DG    S(hbond)    S(metal)    S(lipo)     H(rot)  DE(clash)    DE(int)     intcor
     16.25     -19.23       0.88        0.00     120.06       1.27       0.64       2.33       ----

> <Gold.Chemscore.Fitness>
16.2483

> <Gold.Chemscore.DG>
-19.2265

> <Gold.Chemscore.ZeroCoef>
-5.4800

> <Gold.Chemscore.Hbond>
0.8802

> <Gold.Chemscore.Metal>
0.0000

> <Gold.Chemscore.Lipo>
120.0617

> <Gold.Chemscore.Internal_Hbond>
0.0000

> <Gold.Chemscore.DEClash>
0.6442

> <Gold.Chemscore.DEInternal>
2.3339

> <Gold.Chemscore.Rot>
1.2659

> <Gold.Chemscore.Internal.Correction>
   9.000000E+99

> <Gold.Chemscore.Hbonds>
donor molecule, donor type, donor heavy atom, donor atom, acceptor molecule, acceptor atom, score
      L1  H     7    29       P1  7957  0.90

> <Gold.Chemscore.Hbond.Weighted>
-2.9398

> <Gold.Chemscore.Metal.Weighted>
-0.0000

> <Gold.Chemscore.Lipo.Weighted>
-14.0472

> <Gold.Chemscore.Internal_Hbond.Weighted>
0.0000

> <Gold.Chemscore.DEClash.Weighted>
0.6442

> <Gold.Chemscore.DEInternal.Weighted>
2.3339

> <Gold.Chemscore.Rot.Weighted>
3.2406

> <Gold.Chemscore.Internal.Correction.Weighted>
   9.000000E+99

> <Gold.Protein.RotatedTorsions>
[ 6907 6896 6895 6894 ] final   25.61 input  -60.11 | X-H torsion
[ 7974 7965 7964 7962 ] final  172.21 input  175.53 | X-H torsion
[ 8008 7997 7996 7995 ] final  -19.22 input   59.86 | X-H torsion
[ 10167 10162 10161 10158 ] final  -67.06 input  -65.29 | X-H torsion
[ 10718 10713 10712 10709 ] final  108.59 input   66.30 | X-H torsion
[ 10763 10752 10751 10750 ] final  134.34 input  -60.55 | X-H torsion
[ 11005 11000 10999 10996 ] final  -42.65 input  -57.11 | X-H torsion

> <Gold.Protein.ActiveResidues>
 VAL166  LYS551  ARG553  GLY616  TRP617  ASP618  TYR619  PRO620  LYS621  CYS622 
 ASP623  PHE694  ASN695  SER759  ASP760  ASP761  ALA762  ILE779  LEU786  VAL792 
 PHE793  MET794  SER795  GLU796  ALA797  LYS798  CYS799  TRP800  GLU811  SER814 

> <Gold.Protein.RotatedAtoms>
  151.9751  135.0057  160.0554 H   0  0  0  0  0  0  0  0  0  0  0  0  # atno 6907 bound_to 6896
  152.1748  133.4662  159.4936 H   0  0  0  0  0  0  0  0  0  0  0  0  # atno 6908 bound_to 6896
  150.6907  134.1826  159.4297 H   0  0  0  0  0  0  0  0  0  0  0  0  # atno 6909 bound_to 6896
  144.7274  139.9465  143.6430 H   0  0  0  0  0  0  0  0  0  0  0  0  # atno 7974 bound_to 7965
  154.4852  140.2095  155.9672 H   0  0  0  0  0  0  0  0  0  0  0  0  # atno 8008 bound_to 7997
  156.1225  140.3211  155.8198 H   0  0  0  0  0  0  0  0  0  0  0  0  # atno 8009 bound_to 7997
  155.4443  140.0512  157.2998 H   0  0  0  0  0  0  0  0  0  0  0  0  # atno 8010 bound_to 7997
  140.5611  143.2313  151.6726 H   0  0  0  0  0  0  0  0  0  0  0  0  # atno 10167 bound_to 10162
  157.6579  131.0897  150.6329 H   0  0  0  0  0  0  0  0  0  0  0  0  # atno 10718 bound_to 10713
  153.8219  135.3115  155.3411 H   0  0  0  0  0  0  0  0  0  0  0  0  # atno 10763 bound_to 10752
  154.8009  135.4727  154.0277 H   0  0  0  0  0  0  0  0  0  0  0  0  # atno 10764 bound_to 10752
  153.1688  135.6874  153.8727 H   0  0  0  0  0  0  0  0  0  0  0  0  # atno 10765 bound_to 10752
  141.0330  133.6812  156.2625 H   0  0  0  0  0  0  0  0  0  0  0  0  # atno 11005 bound_to 11000
  146.0744  139.3732  143.0503 LP  0  0  0  0  0  0  0  0  0  0  0  0  # atno 17320 bound_to 7965
  145.7925  140.9808  143.1041 LP  0  0  0  0  0  0  0  0  0  0  0  0  # atno 17321 bound_to 7965
  139.5070  144.3660  152.0516 LP  0  0  0  0  0  0  0  0  0  0  0  0  # atno 17342 bound_to 10162
  140.2787  144.3884  150.6126 LP  0  0  0  0  0  0  0  0  0  0  0  0  # atno 17343 bound_to 10162
  156.6634  130.4518  149.5680 LP  0  0  0  0  0  0  0  0  0  0  0  0  # atno 17370 bound_to 10713
  156.2051  130.6644  151.1209 LP  0  0  0  0  0  0  0  0  0  0  0  0  # atno 17371 bound_to 10713
  140.6372  134.5203  157.5566 LP  0  0  0  0  0  0  0  0  0  0  0  0  # atno 17394 bound_to 11000
  139.9221  134.8128  156.1179 LP  0  0  0  0  0  0  0  0  0  0  0  0  # atno 17395 bound_to 11000

$$$$
