#       Name:                AV-unprocessed.smi:3270
#       Creating user name   scv26
#       Creation time:       Fri Mar 27 18:42:17 2020


#       File generated by GOLD software.
#

@<TRIPOS>MOLECULE
AV-unprocessed.smi:3270
    44    45     1
SMALL
NO_CHARGES


@<TRIPOS>ATOM
      1 ****        -3.3716  -1.8919   3.0962 C.3            1 S1                 0.0000
      2 ****        -2.8682  -1.0622   1.8975 C.3            1 S1                 0.0000
      3 ****        -1.3839  -0.6633   2.0221 C.2            1 S1                 0.0000
      4 ****        -0.7599  -0.8815   3.0613 O.2            1 S1                 0.0000
      5 ****        -0.8297  -0.0590   0.9589 N.am           1 S1                 0.0000
      6 ****         0.5563   0.3800   0.8842 C.3            1 S1                 0.0000
      7 ****         0.9479   0.6610  -0.5754 C.3            1 S1                 0.0000
      8 ****         2.3516   1.0144  -0.7788 N.3            1 S1                 0.0000
      9 ****         2.6959   2.3103  -0.1969 C.3            1 S1                 0.0000
     10 ****         4.1694   2.6784  -0.4455 C.3            1 S1                 0.0000
     11 ****         4.4402   2.6588  -1.8432 O.3            1 S1                 0.0000
     12 ****         4.1623   1.3951  -2.4375 C.3            1 S1                 0.0000
     13 ****         2.6872   1.0289  -2.1988 C.3            1 S1                 0.0000
     14 ****        -3.1373  -1.7419   0.6336 N.pl3          1 S1                 0.0000
     15 ****        -3.8339  -1.2620  -0.4572 C.2            1 S1                 0.0000
     16 ****        -3.8145  -2.2335  -1.4165 C.2            1 S1                 0.0000
     17 ****        -3.0682  -3.2856  -0.8169 C.2            1 S1                 0.0000
     18 ****        -2.6621  -2.9889   0.4065 N.2            1 S1                 0.0000
     19 ****        -3.2733  -1.3390   4.0311 H              1 S1                 0.0000
     20 ****        -2.8191  -2.8264   3.2033 H              1 S1                 0.0000
     21 ****        -4.4259  -2.1439   2.9785 H              1 S1                 0.0000
     22 ****        -3.4355  -0.1304   1.8862 H              1 S1                 0.0000
     23 ****        -1.4035   0.0890   0.1414 H              1 S1                 0.0000
     24 ****         0.6655   1.2721   1.5009 H              1 S1                 0.0000
     25 ****         1.2126  -0.3867   1.2997 H              1 S1                 0.0000
     26 ****         0.7271  -0.2372  -1.1543 H              1 S1                 0.0000
     27 ****         0.3078   1.4450  -0.9830 H              1 S1                 0.0000
     28 ****         2.0547   3.0871  -0.6168 H              1 S1                 0.0000
     29 ****         2.5172   2.3035   0.8777 H              1 S1                 0.0000
     30 ****         4.3830   3.6735  -0.0548 H              1 S1                 0.0000
     31 ****         4.8332   1.9823   0.0697 H              1 S1                 0.0000
     32 ****         4.3722   1.4494  -3.5057 H              1 S1                 0.0000
     33 ****         4.8228   0.6344  -2.0187 H              1 S1                 0.0000
     34 ****         2.4849   0.0511  -2.6372 H              1 S1                 0.0000
     35 ****         2.0498   1.7434  -2.7224 H              1 S1                 0.0000
     36 ****        -4.2816  -0.2788  -0.4599 H              1 S1                 0.0000
     37 ****        -4.2641  -2.1977  -2.3976 H              1 S1                 0.0000
     38 ****        -2.8100  -4.2487  -1.2322 H              1 S1                 0.0000
     39 ****        -1.2155  -1.3215   3.8351 LP             1 S1                 0.0000
     40 ****         0.2024  -0.6186   3.1313 LP             1 S1                 0.0000
     41 ****         2.8841   0.3098  -0.3097 LP             1 S1                 0.0000
     42 ****         5.4064   2.8739  -1.9852 LP             1 S1                 0.0000
     43 ****         3.8752   3.3533  -2.2886 LP             1 S1                 0.0000
     44 ****        -2.1233  -3.5594   1.0264 LP             1 S1                 0.0000
@<TRIPOS>BOND
    1    1    2 1     
    2    1   19 1     
    3    1   20 1     
    4    1   21 1     
    5    2    3 1     
    6    2   14 1     
    7    2   22 1     
    8    3    4 2     
    9    3    5 am    
   10    5    6 1     
   11    5   23 1     
   12    6    7 1     
   13    6   24 1     
   14    6   25 1     
   15    7    8 1     
   16    7   26 1     
   17    7   27 1     
   18    8   13 1     
   19    8    9 1     
   20    9   10 1     
   21    9   28 1     
   22    9   29 1     
   23   10   11 1     
   24   10   30 1     
   25   10   31 1     
   26   11   12 1     
   27   12   13 1     
   28   12   32 1     
   29   12   33 1     
   30   13   34 1     
   31   13   35 1     
   32   14   18 1     
   33   14   15 1     
   34   15   16 2     
   35   15   36 1     
   36   16   17 1     
   37   16   37 1     
   38   17   18 2     
   39   17   38 1     
   40    4   39 1     
   41    4   40 1     
   42    8   41 1     
   43   11   42 1     
   44   11   43 1     
   45   18   44 1     
@<TRIPOS>SUBSTRUCTURE
      1 S1             1
@<TRIPOS>SET
LONE_PAIRS      STATIC     ATOMS    <user>   **** ""
6 39 40 41 42 43 44
DONOR_HYDROGENS      STATIC     ATOMS    <user>   **** ""
1 23
ATOM$BLUE        STATIC     ATOMS    COLORGROUP SYSTEM
6 39 40 41 42 43 44
ATOM$RED        STATIC     ATOMS    COLORGROUP SYSTEM
1 23
