AV-unprocessed.smi:1770|AV-procd|sdf|7156|dock2
  -GOLD-   22720 8393D 1   1.00000     0.00000
 Structure written by MMmdl.
 38 39  0  0  0  0  0  0  0  0  2 V2000
  153.1205  137.3464  160.6895 C   0  0  0  0  0  0  0  0  0  0  0  0
  152.0407  137.1848  159.7872 O   0  0  0  0  0  0  0  0  0  0  0  0
  152.3670  137.5991  158.4680 C   0  0  0  0  0  0  0  0  0  0  0  0
  152.7183  139.0864  158.4831 C   0  0  0  0  0  0  0  0  0  0  0  0
  153.8930  139.4335  158.5986 O   0  0  0  0  0  0  0  0  0  0  0  0
  151.6811  139.9338  158.3636 N   0  0  0  0  0  0  0  0  0  0  0  0
  151.6931  141.3544  158.4340 C   0  0  0  0  0  0  0  0  0  0  0  0
  152.6043  142.0603  159.2593 C   0  0  0  0  0  0  0  0  0  0  0  0
  152.6058  143.4689  159.2519 C   0  0  0  0  0  0  0  0  0  0  0  0
  151.7058  144.1492  158.4114 C   0  0  0  0  0  0  0  0  0  0  0  0
  150.8598  143.4475  157.6280 N   0  3  0  0  0  0  0  0  0  0  0  0
  150.8114  142.0927  157.5991 C   0  0  0  0  0  0  0  0  0  0  0  0
  149.8739  141.4676  156.7527 N   0  0  0  0  0  0  0  0  0  0  0  0
  150.0829  141.5991  155.3112 C   0  0  0  0  0  0  0  0  0  0  0  0
  149.2185  140.5839  154.5433 C   0  0  0  0  0  0  0  0  0  0  0  0
  147.7383  140.7055  154.9412 C   0  0  0  0  0  0  0  0  0  0  0  0
  147.5830  140.5946  156.4668 C   0  0  0  0  0  0  0  0  0  0  0  0
  148.4848  141.6115  157.1865 C   0  0  0  0  0  0  0  0  0  0  0  0
  152.8195  137.0137  161.6830 H   0  0  0  0  0  0  0  0  0  0  0  0
  153.4215  138.3925  160.7607 H   0  0  0  0  0  0  0  0  0  0  0  0
  153.9831  136.7535  160.3822 H   0  0  0  0  0  0  0  0  0  0  0  0
  153.2138  137.0241  158.0887 H   0  0  0  0  0  0  0  0  0  0  0  0
  151.5232  137.4384  157.7951 H   0  0  0  0  0  0  0  0  0  0  0  0
  150.7670  139.5042  158.3565 H   0  0  0  0  0  0  0  0  0  0  0  0
  153.3154  141.5424  159.8848 H   0  0  0  0  0  0  0  0  0  0  0  0
  153.2946  144.0187  159.8764 H   0  0  0  0  0  0  0  0  0  0  0  0
  151.6394  145.2251  158.3393 H   0  0  0  0  0  0  0  0  0  0  0  0
  149.8279  142.6132  154.9997 H   0  0  0  0  0  0  0  0  0  0  0  0
  151.1352  141.4417  155.0713 H   0  0  0  0  0  0  0  0  0  0  0  0
  149.3317  140.7330  153.4691 H   0  0  0  0  0  0  0  0  0  0  0  0
  149.5700  139.5731  154.7547 H   0  0  0  0  0  0  0  0  0  0  0  0
  147.3454  141.6648  154.6014 H   0  0  0  0  0  0  0  0  0  0  0  0
  147.1497  139.9335  154.4447 H   0  0  0  0  0  0  0  0  0  0  0  0
  146.5421  140.7528  156.7503 H   0  0  0  0  0  0  0  0  0  0  0  0
  147.8419  139.5853  156.7904 H   0  0  0  0  0  0  0  0  0  0  0  0
  148.3914  141.4844  158.2648 H   0  0  0  0  0  0  0  0  0  0  0  0
  148.1518  142.6260  156.9633 H   0  0  0  0  0  0  0  0  0  0  0  0
  150.2176  143.9665  157.0287 H   0  0  0  0  0  0  0  0  0  0  0  0
  1  2  1  0  0  0  0
  1 19  1  0  0  0  0
  1 20  1  0  0  0  0
  1 21  1  0  0  0  0
  2  3  1  0  0  0  0
  3  4  1  0  0  0  0
  3 22  1  0  0  0  0
  3 23  1  0  0  0  0
  4  5  2  0  0  0  0
  4  6  1  0  0  0  0
  6  7  1  0  0  0  0
  6 24  1  0  0  0  0
  7 12  1  0  0  0  0
  7  8  2  0  0  0  0
  8  9  1  0  0  0  0
  8 25  1  0  0  0  0
  9 10  2  0  0  0  0
  9 26  1  0  0  0  0
 10 11  1  0  0  0  0
 10 27  1  0  0  0  0
 11 12  2  0  0  0  0
 11 38  1  0  0  0  0
 12 13  1  0  0  0  0
 13 18  1  0  0  0  0
 13 14  1  0  0  0  0
 14 15  1  0  0  0  0
 14 28  1  0  0  0  0
 14 29  1  0  0  0  0
 15 16  1  0  0  0  0
 15 30  1  0  0  0  0
 15 31  1  0  0  0  0
 16 17  1  0  0  0  0
 16 32  1  0  0  0  0
 16 33  1  0  0  0  0
 17 18  1  0  0  0  0
 17 34  1  0  0  0  0
 17 35  1  0  0  0  0
 18 36  1  0  0  0  0
 18 37  1  0  0  0  0
M  CHG  1  11   1
M  END
> <s_m_source_file>
AV-unprocessed.smi

> <i_m_source_file_index>
1770

> <i_lp_mmshare_version>
43012

> <i_f3d_flags>
0

> <s_epik_input>
W0NIM11PW0NIMl1DKD1PKVtOSF1jMVtjSF1bY0hdW2NIXW5jMU4yW0NIMl1bQ0gyXVtDSDJdW0NIMl1bQ0gyXTI=

> <s_epik_cmdline>
J2VwaWtfcHl0aG9uJywgJy1waCcsICc3LjAnLCAnLXRuJywgJzgnLCAnLW1hJywgJzIwMCcsICctbWV0YWxfYmluZGluZycsICctaW1hZScsICc8aW5maWxlLm1hZT4nLCAnLW9tYWUnLCAnPG91dGZpbGUubWFlPic=

> <r_lp_tautomer_probability>
0.999994

> <r_epik_Ionization_Penalty>
1.86196

> <r_epik_Ionization_Penalty_Charging>
1.86195

> <r_epik_Ionization_Penalty_Neutral>
2.94331e-06

> <r_epik_State_Penalty>
1.98028

> <r_epik_Charging_Adjusted_Penalty>
3.84223

> <i_epik_Tot_Q>
1

> <i_epik_Tot_abs_Q>
1

> <r_epik_Metal_State_Penalty>
2.00833

> <b_epik_Metal_Only>
0

> <s_lp_Force_Field>
OPLS_2005

> <r_lp_Energy>
28.9806

> <b_lp_Chiralities_Consistent>
1

> <s_lp_Variant>
AV-unprocessed.smi:1770-2

> <Gold.Version>
5.8.1

> <Gold.Id.Protein>
6NUR|6NUR_protein|mol2

> <Gold.PLP.Fitness>
42.2081

> <Gold.PLP.PLP>
-31.6762

> <Gold.PLP.part.hbond>
-2.8353

> <Gold.PLP.part.metal>
0.0000

> <Gold.PLP.part.buried>
-4.8642

> <Gold.PLP.part.nonpolar>
-24.6417

> <Gold.PLP.part.repulsive>
0.1897

> <Gold.PLP.ligand.clash>
0.0000

> <Gold.PLP.ligand.torsion>
0.7610

> <Gold.PLP.Chemscore.Hbond>
3.9088

> <Gold.PLP.Chemscore.CHOScore>
0.0000

> <Gold.PLP.Chemscore.Metal>
0.0000

> <Gold.Chemscore.Hbonds>
donor molecule, donor type, donor heavy atom, donor atom, acceptor molecule, acceptor atom, score
      L1  H    11    38       P1  8028  1.98
      P1  H  6896  6907       L1     2  0.93
      P1  H  7997  8010       L1     5  1.00

> <Gold.PLP.Chemscore.Internal.Correction>
0.3276

> <Gold.Rescore>
     Score         DG    S(hbond)    S(metal)    S(lipo)     H(rot)  DE(clash)    DE(int)     intcor
     16.31     -19.25       2.58        0.00      74.99       1.42       0.00       2.94       ----

> <Gold.Chemscore.Fitness>
16.3052

> <Gold.Chemscore.DG>
-19.2497

> <Gold.Chemscore.ZeroCoef>
-5.4800

> <Gold.Chemscore.Hbond>
2.5841

> <Gold.Chemscore.Metal>
0.0000

> <Gold.Chemscore.Lipo>
74.9935

> <Gold.Chemscore.Internal_Hbond>
0.0000

> <Gold.Chemscore.DEClash>
0.0000

> <Gold.Chemscore.DEInternal>
2.9444

> <Gold.Chemscore.Rot>
1.4201

> <Gold.Chemscore.Internal.Correction>
   9.000000E+99

> <Gold.Chemscore.Hbonds>
donor molecule, donor type, donor heavy atom, donor atom, acceptor molecule, acceptor atom, score
      L1  H    11    38       P1  8028  0.89
      P1  H  6896  6907       L1     2  0.21
      P1  H  7997  8010       L1     5  0.99

> <Gold.Chemscore.Hbond.Weighted>
-8.6308

> <Gold.Chemscore.Metal.Weighted>
-0.0000

> <Gold.Chemscore.Lipo.Weighted>
-8.7742

> <Gold.Chemscore.Internal_Hbond.Weighted>
0.0000

> <Gold.Chemscore.DEClash.Weighted>
0.0000

> <Gold.Chemscore.DEInternal.Weighted>
2.9444

> <Gold.Chemscore.Rot.Weighted>
3.6354

> <Gold.Chemscore.Internal.Correction.Weighted>
   9.000000E+99

> <Gold.Protein.RotatedTorsions>
[ 6907 6896 6895 6894 ] final    7.08 input  -60.11 | X-H torsion
[ 7974 7965 7964 7962 ] final   -0.71 input  175.53 | X-H torsion
[ 8008 7997 7996 7995 ] final   16.96 input   59.86 | X-H torsion
[ 10167 10162 10161 10158 ] final -168.43 input  -65.29 | X-H torsion
[ 10718 10713 10712 10709 ] final  -99.22 input   66.30 | X-H torsion
[ 10763 10752 10751 10750 ] final   31.81 input  -60.55 | X-H torsion
[ 11005 11000 10999 10996 ] final  -67.22 input  -57.11 | X-H torsion

> <Gold.Protein.ActiveResidues>
 VAL166  LYS551  ARG553  GLY616  TRP617  ASP618  TYR619  PRO620  LYS621  CYS622 
 ASP623  PHE694  ASN695  SER759  ASP760  ASP761  ALA762  ILE779  LEU786  VAL792 
 PHE793  MET794  SER795  GLU796  ALA797  LYS798  CYS799  TRP800  GLU811  SER814 

> <Gold.Protein.RotatedAtoms>
  151.6840  135.0957  160.0221 H   0  0  0  0  0  0  0  0  0  0  0  0  # atno 6907 bound_to 6896
  152.3818  133.6552  159.6176 H   0  0  0  0  0  0  0  0  0  0  0  0  # atno 6908 bound_to 6896
  150.7753  133.9017  159.3384 H   0  0  0  0  0  0  0  0  0  0  0  0  # atno 6909 bound_to 6896
  146.2424  140.1310  142.8338 H   0  0  0  0  0  0  0  0  0  0  0  0  # atno 7974 bound_to 7965
  154.8844  140.2978  155.5406 H   0  0  0  0  0  0  0  0  0  0  0  0  # atno 8008 bound_to 7997
  156.3021  140.2436  156.3785 H   0  0  0  0  0  0  0  0  0  0  0  0  # atno 8009 bound_to 7997
  154.8683  140.0402  157.1697 H   0  0  0  0  0  0  0  0  0  0  0  0  # atno 8010 bound_to 7997
  139.5986  144.1059  152.1717 H   0  0  0  0  0  0  0  0  0  0  0  0  # atno 10167 bound_to 10162
  156.0128  130.5273  150.6639 H   0  0  0  0  0  0  0  0  0  0  0  0  # atno 10718 bound_to 10713
  153.0295  135.6429  154.1257 H   0  0  0  0  0  0  0  0  0  0  0  0  # atno 10763 bound_to 10752
  154.0981  135.2861  155.3259 H   0  0  0  0  0  0  0  0  0  0  0  0  # atno 10764 bound_to 10752
  154.6417  135.5457  153.7861 H   0  0  0  0  0  0  0  0  0  0  0  0  # atno 10765 bound_to 10752
  141.1502  133.6715  156.6260 H   0  0  0  0  0  0  0  0  0  0  0  0  # atno 11005 bound_to 11000
  145.0326  140.8883  143.5100 LP  0  0  0  0  0  0  0  0  0  0  0  0  # atno 17320 bound_to 7965
  145.1377  139.2592  143.5506 LP  0  0  0  0  0  0  0  0  0  0  0  0  # atno 17321 bound_to 7965
  140.0650  144.5825  150.7234 LP  0  0  0  0  0  0  0  0  0  0  0  0  # atno 17342 bound_to 10162
  140.7231  143.2609  151.4210 LP  0  0  0  0  0  0  0  0  0  0  0  0  # atno 17343 bound_to 10162
  157.4375  131.0857  151.0977 LP  0  0  0  0  0  0  0  0  0  0  0  0  # atno 17370 bound_to 10713
  157.1531  130.6193  149.5588 LP  0  0  0  0  0  0  0  0  0  0  0  0  # atno 17371 bound_to 10713
  140.3504  134.7773  157.4462 LP  0  0  0  0  0  0  0  0  0  0  0  0  # atno 17394 bound_to 11000
  140.0865  134.5659  155.8487 LP  0  0  0  0  0  0  0  0  0  0  0  0  # atno 17395 bound_to 11000

$$$$
