AV-unprocessed.smi:2184|AV-procd|sdf|8874|dock8
  -GOLD-   2272012 73D 1   1.00000     0.00000
 Structure written by MMmdl.
 47 48  0  0  0  0  0  0  0  0  1 V2000
  149.4472  136.5253  158.1065 C   0  0  0  0  0  0  0  0  0  0  0  0
  148.7169  135.4920  156.8077 S   0  0  0  0  0  0  0  0  0  0  0  0
  150.1674  135.1744  155.7578 C   0  0  1  0  0  0  0  0  0  0  0  0
  149.7557  134.3632  154.5195 C   0  0  0  0  0  0  0  0  0  0  0  0
  150.8789  136.4703  155.3500 C   0  0  0  0  0  0  0  0  0  0  0  0
  152.0421  136.6763  155.6980 O   0  0  0  0  0  0  0  0  0  0  0  0
  150.1729  137.3326  154.6016 N   0  0  0  0  0  0  0  0  0  0  0  0
  150.6749  138.6087  154.1030 C   0  0  0  0  0  0  0  0  0  0  0  0
  150.8775  139.6484  155.1935 C   0  0  0  0  0  0  0  0  0  0  0  0
  150.0432  140.7800  155.2728 C   0  0  0  0  0  0  0  0  0  0  0  0
  150.2592  141.7185  156.3001 C   0  0  0  0  0  0  0  0  0  0  0  0
  151.3091  141.4990  157.2277 C   0  0  0  0  0  0  0  0  0  0  0  0
  151.5820  142.3971  158.2825 N   0  0  0  0  0  0  0  0  0  0  0  0
  152.3281  141.9130  159.4385 C   0  0  0  0  0  0  0  0  0  0  0  0
  152.1929  142.8954  160.6151 C   0  0  1  0  0  0  0  0  0  0  0  0
  153.0732  142.4905  161.8021 C   0  0  0  0  0  0  0  0  0  0  0  0
  152.5876  144.2011  160.1973 O   0  0  0  0  0  0  0  0  0  0  0  0
  151.8466  144.7241  159.0929 C   0  0  2  0  0  0  0  0  0  0  0  0
  150.4051  145.0973  159.4825 C   0  0  0  0  0  0  0  0  0  0  0  0
  151.9264  143.7624  157.8910 C   0  0  0  0  0  0  0  0  0  0  0  0
  152.1134  140.4121  157.1396 N   0  0  0  0  0  0  0  0  0  0  0  0
  151.9039  139.5187  156.1509 C   0  0  0  0  0  0  0  0  0  0  0  0
  148.7024  136.7462  158.8710 H   0  0  0  0  0  0  0  0  0  0  0  0
  149.8002  137.4690  157.6927 H   0  0  0  0  0  0  0  0  0  0  0  0
  150.2855  136.0129  158.5786 H   0  0  0  0  0  0  0  0  0  0  0  0
  150.8575  134.5620  156.3402 H   0  0  0  0  0  0  0  0  0  0  0  0
  150.6112  134.1628  153.8731 H   0  0  0  0  0  0  0  0  0  0  0  0
  149.0050  134.8877  153.9267 H   0  0  0  0  0  0  0  0  0  0  0  0
  149.3329  133.4010  154.8091 H   0  0  0  0  0  0  0  0  0  0  0  0
  149.2240  137.0869  154.3591 H   0  0  0  0  0  0  0  0  0  0  0  0
  151.6343  138.4316  153.6166 H   0  0  0  0  0  0  0  0  0  0  0  0
  150.0053  138.9948  153.3323 H   0  0  0  0  0  0  0  0  0  0  0  0
  149.2430  140.9276  154.5625 H   0  0  0  0  0  0  0  0  0  0  0  0
  149.6076  142.5769  156.3621 H   0  0  0  0  0  0  0  0  0  0  0  0
  151.9530  140.9367  159.7478 H   0  0  0  0  0  0  0  0  0  0  0  0
  153.3768  141.7926  159.1637 H   0  0  0  0  0  0  0  0  0  0  0  0
  151.1579  142.9154  160.9569 H   0  0  0  0  0  0  0  0  0  0  0  0
  152.8087  141.4975  162.1661 H   0  0  0  0  0  0  0  0  0  0  0  0
  152.9558  143.1899  162.6300 H   0  0  0  0  0  0  0  0  0  0  0  0
  154.1277  142.4761  161.5250 H   0  0  0  0  0  0  0  0  0  0  0  0
  152.3442  145.6512  158.8069 H   0  0  0  0  0  0  0  0  0  0  0  0
  149.9086  145.6197  158.6647 H   0  0  0  0  0  0  0  0  0  0  0  0
  150.3946  145.7580  160.3496 H   0  0  0  0  0  0  0  0  0  0  0  0
  149.8003  144.2224  159.7192 H   0  0  0  0  0  0  0  0  0  0  0  0
  152.9432  143.7536  157.4961 H   0  0  0  0  0  0  0  0  0  0  0  0
  151.2844  144.1330  157.0917 H   0  0  0  0  0  0  0  0  0  0  0  0
  152.5775  138.6749  156.1264 H   0  0  0  0  0  0  0  0  0  0  0  0
  1  2  1  0  0  0  0
  1 23  1  0  0  0  0
  1 24  1  0  0  0  0
  1 25  1  0  0  0  0
  2  3  1  0  0  0  0
  3  4  1  0  0  0  0
  3  5  1  0  0  0  0
  3 26  1  0  0  0  0
  4 27  1  0  0  0  0
  4 28  1  0  0  0  0
  4 29  1  0  0  0  0
  5  6  2  0  0  0  0
  5  7  1  0  0  0  0
  7  8  1  0  0  0  0
  7 30  1  0  0  0  0
  8  9  1  0  0  0  0
  8 31  1  0  0  0  0
  8 32  1  0  0  0  0
  9 22  1  0  0  0  0
  9 10  2  0  0  0  0
 10 11  1  0  0  0  0
 10 33  1  0  0  0  0
 11 12  2  0  0  0  0
 11 34  1  0  0  0  0
 12 13  1  0  0  0  0
 12 21  1  0  0  0  0
 13 20  1  0  0  0  0
 13 14  1  0  0  0  0
 14 15  1  0  0  0  0
 14 35  1  0  0  0  0
 14 36  1  0  0  0  0
 15 16  1  0  0  0  0
 15 17  1  0  0  0  0
 15 37  1  0  0  0  0
 16 38  1  0  0  0  0
 16 39  1  0  0  0  0
 16 40  1  0  0  0  0
 17 18  1  0  0  0  0
 18 19  1  0  0  0  0
 18 20  1  0  0  0  0
 18 41  1  0  0  0  0
 19 42  1  0  0  0  0
 19 43  1  0  0  0  0
 19 44  1  0  0  0  0
 20 45  1  0  0  0  0
 20 46  1  0  0  0  0
 21 22  2  0  0  0  0
 22 47  1  0  0  0  0
M  END
> <s_m_source_file>
AV-unprocessed.smi

> <i_m_source_file_index>
2184

> <i_lp_mmshare_version>
43012

> <i_f3d_flags>
0

> <s_epik_input>
W0NIM11TW0NASF0oW0NIM10pQyg9TylbTkhdW0NIMl1jMVtjSF1bY0hdYyhuW2NIXTEpTjJbQ0gyXVtDQEBIXShbQ0gzXSlPW0NAQEhdKFtDSDNdKVtDSDJdMg==

> <s_epik_cmdline>
J2VwaWtfcHl0aG9uJywgJy1waCcsICc3LjAnLCAnLXRuJywgJzgnLCAnLW1hJywgJzIwMCcsICctbWV0YWxfYmluZGluZycsICctaW1hZScsICc8aW5maWxlLm1hZT4nLCAnLW9tYWUnLCAnPG91dGZpbGUubWFlPic=

> <r_lp_tautomer_probability>
1

> <r_epik_Ionization_Penalty>
0.00551702

> <r_epik_Ionization_Penalty_Charging>
0

> <r_epik_Ionization_Penalty_Neutral>
0.00551702

> <r_epik_State_Penalty>
0.00403758

> <r_epik_Charging_Adjusted_Penalty>
0.00403758

> <i_epik_Tot_Q>
0

> <i_epik_Tot_abs_Q>
0

> <r_epik_Metal_State_Penalty>
-0

> <b_epik_Metal_Only>
0

> <s_lp_Force_Field>
OPLS_2005

> <r_lp_Energy>
17.8704

> <b_lp_Chiralities_Consistent>
1

> <s_lp_Variant>
AV-unprocessed.smi:2184-6

> <Gold.Version>
5.8.1

> <Gold.Id.Protein>
6NUR|6NUR_protein|mol2

> <Gold.PLP.Fitness>
48.7820

> <Gold.PLP.PLP>
-46.0368

> <Gold.PLP.part.hbond>
-1.9387

> <Gold.PLP.part.metal>
0.0000

> <Gold.PLP.part.buried>
-4.9461

> <Gold.PLP.part.nonpolar>
-39.1779

> <Gold.PLP.part.repulsive>
0.1381

> <Gold.PLP.ligand.clash>
0.0000

> <Gold.PLP.ligand.torsion>
0.4611

> <Gold.PLP.Chemscore.Hbond>
1.0724

> <Gold.PLP.Chemscore.CHOScore>
0.0000

> <Gold.PLP.Chemscore.Metal>
0.0000

> <Gold.Chemscore.Hbonds>
donor molecule, donor type, donor heavy atom, donor atom, acceptor molecule, acceptor atom, score
      P1  H  7997  8009       L1    21  0.06
      P1  H 10752 10765       L1     6  1.00

> <Gold.PLP.Chemscore.Internal.Correction>
0.4503

> <Gold.Rescore>
     Score         DG    S(hbond)    S(metal)    S(lipo)     H(rot)  DE(clash)    DE(int)     intcor
     17.95     -18.60       0.98        0.00     119.07       1.59       0.13       0.53       ----

> <Gold.Chemscore.Fitness>
17.9499

> <Gold.Chemscore.DG>
-18.6026

> <Gold.Chemscore.ZeroCoef>
-5.4800

> <Gold.Chemscore.Hbond>
0.9802

> <Gold.Chemscore.Metal>
0.0000

> <Gold.Chemscore.Lipo>
119.0700

> <Gold.Chemscore.Internal_Hbond>
0.0000

> <Gold.Chemscore.DEClash>
0.1273

> <Gold.Chemscore.DEInternal>
0.5253

> <Gold.Chemscore.Rot>
1.5947

> <Gold.Chemscore.Internal.Correction>
   9.000000E+99

> <Gold.Chemscore.Hbonds>
donor molecule, donor type, donor heavy atom, donor atom, acceptor molecule, acceptor atom, score
      P1  H 10752 10765       L1     6  0.65

> <Gold.Chemscore.Hbond.Weighted>
-3.2738

> <Gold.Chemscore.Metal.Weighted>
-0.0000

> <Gold.Chemscore.Lipo.Weighted>
-13.9312

> <Gold.Chemscore.Internal_Hbond.Weighted>
0.0000

> <Gold.Chemscore.DEClash.Weighted>
0.1273

> <Gold.Chemscore.DEInternal.Weighted>
0.5253

> <Gold.Chemscore.Rot.Weighted>
4.0824

> <Gold.Chemscore.Internal.Correction.Weighted>
   9.000000E+99

> <Gold.Protein.RotatedTorsions>
[ 6907 6896 6895 6894 ] final -145.01 input  -60.11 | X-H torsion
[ 7974 7965 7964 7962 ] final   83.53 input  175.53 | X-H torsion
[ 8008 7997 7996 7995 ] final  176.02 input   59.86 | X-H torsion
[ 10167 10162 10161 10158 ] final  -24.06 input  -65.29 | X-H torsion
[ 10718 10713 10712 10709 ] final -137.09 input   66.30 | X-H torsion
[ 10763 10752 10751 10750 ] final -163.26 input  -60.55 | X-H torsion
[ 11005 11000 10999 10996 ] final  136.76 input  -57.11 | X-H torsion

> <Gold.Protein.ActiveResidues>
 VAL166  LYS551  ARG553  GLY616  TRP617  ASP618  TYR619  PRO620  LYS621  CYS622 
 ASP623  PHE694  ASN695  SER759  ASP760  ASP761  ALA762  ILE779  LEU786  VAL792 
 PHE793  MET794  SER795  GLU796  ALA797  LYS798  CYS799  TRP800  GLU811  SER814 

> <Gold.Protein.RotatedAtoms>
  151.1219  133.5098  159.2601 H   0  0  0  0  0  0  0  0  0  0  0  0  # atno 6907 bound_to 6896
  151.1852  135.0378  159.8819 H   0  0  0  0  0  0  0  0  0  0  0  0  # atno 6908 bound_to 6896
  152.5456  134.1066  159.8394 H   0  0  0  0  0  0  0  0  0  0  0  0  # atno 6909 bound_to 6896
  145.6107  139.2368  143.2194 H   0  0  0  0  0  0  0  0  0  0  0  0  # atno 7974 bound_to 7965
  156.0809  140.1394  156.9714 H   0  0  0  0  0  0  0  0  0  0  0  0  # atno 8008 bound_to 7997
  154.4584  140.0952  156.6873 H   0  0  0  0  0  0  0  0  0  0  0  0  # atno 8009 bound_to 7997
  155.5077  140.3453  155.4385 H   0  0  0  0  0  0  0  0  0  0  0  0  # atno 8010 bound_to 7997
  140.7288  143.4387  151.0690 H   0  0  0  0  0  0  0  0  0  0  0  0  # atno 10167 bound_to 10162
  156.2843  130.7338  151.1345 H   0  0  0  0  0  0  0  0  0  0  0  0  # atno 10718 bound_to 10713
  154.7139  135.3012  154.9154 H   0  0  0  0  0  0  0  0  0  0  0  0  # atno 10763 bound_to 10752
  154.0047  135.6702  153.4765 H   0  0  0  0  0  0  0  0  0  0  0  0  # atno 10764 bound_to 10752
  153.0777  135.5025  154.8354 H   0  0  0  0  0  0  0  0  0  0  0  0  # atno 10765 bound_to 10752
  140.0068  134.9456  157.0191 H   0  0  0  0  0  0  0  0  0  0  0  0  # atno 11005 bound_to 11000
  146.1506  140.6930  142.9324 LP  0  0  0  0  0  0  0  0  0  0  0  0  # atno 17320 bound_to 7965
  144.7271  140.4558  143.6965 LP  0  0  0  0  0  0  0  0  0  0  0  0  # atno 17321 bound_to 7965
  139.8051  143.8029  152.3166 LP  0  0  0  0  0  0  0  0  0  0  0  0  # atno 17342 bound_to 10162
  139.8059  144.7355  150.9762 LP  0  0  0  0  0  0  0  0  0  0  0  0  # atno 17343 bound_to 10162
  157.7324  131.0600  150.5631 LP  0  0  0  0  0  0  0  0  0  0  0  0  # atno 17370 bound_to 10713
  156.5740  130.4287  149.6006 LP  0  0  0  0  0  0  0  0  0  0  0  0  # atno 17371 bound_to 10713
  140.4627  134.1467  155.7193 LP  0  0  0  0  0  0  0  0  0  0  0  0  # atno 17394 bound_to 11000
  141.1682  133.8661  157.1650 LP  0  0  0  0  0  0  0  0  0  0  0  0  # atno 17395 bound_to 11000

$$$$
