AV-unprocessed.smi:1207|AV-procd|sdf|5050|dock4
  -GOLD-   22720 4 73D 1   1.00000     0.00000
 Structure written by MMmdl.
 51 53  0  0  0  0  0  0  0  0  1 V2000
  151.3705  144.3583  158.0786 C   0  0  0  0  0  0  0  0  0  0  0  0
  151.6254  142.9082  157.7073 C   0  0  0  0  0  0  0  0  0  0  0  0
  151.0707  142.3968  156.5125 C   0  0  0  0  0  0  0  0  0  0  0  0
  151.2854  141.0542  156.1307 C   0  0  0  0  0  0  0  0  0  0  0  0
  150.8461  140.3552  155.0193 N   0  0  0  0  0  0  0  0  0  0  0  0
  151.3744  139.1537  155.2332 C   0  0  0  0  0  0  0  0  0  0  0  0
  152.1043  138.9908  156.3533 N   0  0  0  0  0  0  0  0  0  0  0  0
  152.7711  137.7764  156.7894 C   0  0  0  0  0  0  0  0  0  0  0  0
  151.7954  136.7549  157.4063 C   0  0  1  0  0  0  0  0  0  0  0  0
  152.5466  135.7766  158.1002 O   0  0  0  0  0  0  0  0  0  0  0  0
  150.8065  137.4203  158.3889 C   0  0  0  0  0  0  0  0  0  0  0  0
  149.6901  136.5769  158.8209 N   0  0  0  0  0  0  0  0  0  0  0  0
  148.5499  136.7615  157.9270 C   0  0  0  0  0  0  0  0  0  0  0  0
  149.3136  136.8264  160.2149 C   0  0  0  0  0  0  0  0  0  0  0  0
  148.4627  135.7292  160.8018 C   0  0  0  0  0  0  0  0  0  0  0  0
  147.8624  135.6784  162.0924 C   0  0  0  0  0  0  0  0  0  0  0  0
  147.9194  136.7041  163.1880 C   0  0  0  0  0  0  0  0  0  0  0  0
  147.1780  134.5615  162.2756 N   0  0  0  0  0  0  0  0  0  0  0  0
  147.3128  133.8312  161.0908 O   0  0  0  0  0  0  0  0  0  0  0  0
  148.0804  134.5469  160.2298 C   0  0  0  0  0  0  0  0  0  0  0  0
  148.3429  133.9298  158.8978 C   0  0  0  0  0  0  0  0  0  0  0  0
  152.0749  140.2298  156.9849 C   0  0  0  0  0  0  0  0  0  0  0  0
  152.6324  140.7273  158.1759 C   0  0  0  0  0  0  0  0  0  0  0  0
  152.4094  142.0714  158.5417 C   0  0  0  0  0  0  0  0  0  0  0  0
  153.0177  142.5993  159.8289 C   0  0  0  0  0  0  0  0  0  0  0  0
  150.7437  144.8550  157.3373 H   0  0  0  0  0  0  0  0  0  0  0  0
  152.3106  144.9067  158.1433 H   0  0  0  0  0  0  0  0  0  0  0  0
  150.8640  144.4230  159.0418 H   0  0  0  0  0  0  0  0  0  0  0  0
  150.4741  143.0339  155.8762 H   0  0  0  0  0  0  0  0  0  0  0  0
  151.2237  138.3433  154.5350 H   0  0  0  0  0  0  0  0  0  0  0  0
  153.2992  137.3403  155.9401 H   0  0  0  0  0  0  0  0  0  0  0  0
  153.5329  138.0555  157.5186 H   0  0  0  0  0  0  0  0  0  0  0  0
  151.2459  136.2679  156.5990 H   0  0  0  0  0  0  0  0  0  0  0  0
  152.5060  134.9671  157.6147 H   0  0  0  0  0  0  0  0  0  0  0  0
  151.3357  137.8270  159.2525 H   0  0  0  0  0  0  0  0  0  0  0  0
  150.3836  138.2882  157.8809 H   0  0  0  0  0  0  0  0  0  0  0  0
  147.7335  136.0845  158.1791 H   0  0  0  0  0  0  0  0  0  0  0  0
  148.8295  136.5543  156.8936 H   0  0  0  0  0  0  0  0  0  0  0  0
  148.1717  137.7835  157.9769 H   0  0  0  0  0  0  0  0  0  0  0  0
  150.2118  136.9216  160.8232 H   0  0  0  0  0  0  0  0  0  0  0  0
  148.8123  137.7923  160.2885 H   0  0  0  0  0  0  0  0  0  0  0  0
  148.9500  136.9878  163.4033 H   0  0  0  0  0  0  0  0  0  0  0  0
  147.4794  136.3329  164.1145 H   0  0  0  0  0  0  0  0  0  0  0  0
  147.3795  137.6070  162.9021 H   0  0  0  0  0  0  0  0  0  0  0  0
  148.6100  134.6877  158.1612 H   0  0  0  0  0  0  0  0  0  0  0  0
  147.4611  133.4030  158.5326 H   0  0  0  0  0  0  0  0  0  0  0  0
  149.1637  133.2152  158.9597 H   0  0  0  0  0  0  0  0  0  0  0  0
  153.2298  140.0797  158.8003 H   0  0  0  0  0  0  0  0  0  0  0  0
  153.5949  141.8290  160.3412 H   0  0  0  0  0  0  0  0  0  0  0  0
  152.2368  142.9401  160.5089 H   0  0  0  0  0  0  0  0  0  0  0  0
  153.6862  143.4351  159.6209 H   0  0  0  0  0  0  0  0  0  0  0  0
  1  2  1  0  0  0  0
  1 26  1  0  0  0  0
  1 27  1  0  0  0  0
  1 28  1  0  0  0  0
  2 24  1  0  0  0  0
  2  3  2  0  0  0  0
  3  4  1  0  0  0  0
  3 29  1  0  0  0  0
  4 22  2  0  0  0  0
  4  5  1  0  0  0  0
  5  6  2  0  0  0  0
  6  7  1  0  0  0  0
  6 30  1  0  0  0  0
  7  8  1  0  0  0  0
  7 22  1  0  0  0  0
  8  9  1  0  0  0  0
  8 31  1  0  0  0  0
  8 32  1  0  0  0  0
  9 10  1  0  0  0  0
  9 11  1  0  0  0  0
  9 33  1  0  0  0  0
 10 34  1  0  0  0  0
 11 12  1  0  0  0  0
 11 35  1  0  0  0  0
 11 36  1  0  0  0  0
 12 13  1  0  0  0  0
 12 14  1  0  0  0  0
 13 37  1  0  0  0  0
 13 38  1  0  0  0  0
 13 39  1  0  0  0  0
 14 15  1  0  0  0  0
 14 40  1  0  0  0  0
 14 41  1  0  0  0  0
 15 20  2  0  0  0  0
 15 16  1  0  0  0  0
 16 17  1  0  0  0  0
 16 18  2  0  0  0  0
 17 42  1  0  0  0  0
 17 43  1  0  0  0  0
 17 44  1  0  0  0  0
 18 19  1  0  0  0  0
 19 20  1  0  0  0  0
 20 21  1  0  0  0  0
 21 45  1  0  0  0  0
 21 46  1  0  0  0  0
 21 47  1  0  0  0  0
 22 23  1  0  0  0  0
 23 24  2  0  0  0  0
 23 48  1  0  0  0  0
 24 25  1  0  0  0  0
 25 49  1  0  0  0  0
 25 50  1  0  0  0  0
 25 51  1  0  0  0  0
M  END
> <s_m_source_file>
AV-unprocessed.smi

> <i_m_source_file_index>
1207

> <i_lp_mmshare_version>
43012

> <i_f3d_flags>
0

> <s_epik_input>
W0NIM11jKFtjSF0xKWMoW0NIM10pW2NIXWMoYzEyKW4oW2NIXW4yKVtDSDJdW0NASF0oW09IXSlbQ0gyXU4oW0NIM10pW0NIMl1jM2MoW0NIM10pbm9jM1tDSDNd

> <s_epik_cmdline>
J2VwaWtfcHl0aG9uJywgJy1waCcsICc3LjAnLCAnLXRuJywgJzgnLCAnLW1hJywgJzIwMCcsICctbWV0YWxfYmluZGluZycsICctaW1hZScsICc8aW5maWxlLm1hZT4nLCAnLW9tYWUnLCAnPG91dGZpbGUubWFlPic=

> <r_epik_Ionization_Penalty>
0.374039

> <r_epik_Ionization_Penalty_Charging>
0

> <r_epik_Ionization_Penalty_Neutral>
0.374039

> <r_epik_State_Penalty>
0.350767

> <r_epik_Charging_Adjusted_Penalty>
0.350767

> <i_epik_Tot_Q>
0

> <i_epik_Tot_abs_Q>
0

> <r_epik_Metal_State_Penalty>
0.343187

> <b_epik_Metal_Only>
0

> <s_lp_Force_Field>
OPLS_2005

> <r_lp_Energy>
17.6596

> <b_lp_Chiralities_Consistent>
1

> <s_lp_Variant>
AV-unprocessed.smi:1207-2

> <Gold.Version>
5.8.1

> <Gold.Id.Protein>
6NUR|6NUR_protein|mol2

> <Gold.PLP.Fitness>
47.1265

> <Gold.PLP.PLP>
-45.6566

> <Gold.PLP.part.hbond>
-2.2214

> <Gold.PLP.part.metal>
0.0000

> <Gold.PLP.part.buried>
-6.8076

> <Gold.PLP.part.nonpolar>
-36.5528

> <Gold.PLP.part.repulsive>
0.0555

> <Gold.PLP.ligand.clash>
0.0000

> <Gold.PLP.ligand.torsion>
0.9689

> <Gold.PLP.Chemscore.Hbond>
1.1014

> <Gold.PLP.Chemscore.CHOScore>
0.0000

> <Gold.PLP.Chemscore.Metal>
0.0000

> <Gold.Chemscore.Hbonds>
donor molecule, donor type, donor heavy atom, donor atom, acceptor molecule, acceptor atom, score
      P1  H  6896  6907       L1    10  0.15
      P1  H  7989  7998       L1     5  1.00

> <Gold.PLP.Chemscore.Internal.Correction>
0.1036

> <Gold.Rescore>
     Score         DG    S(hbond)    S(metal)    S(lipo)     H(rot)  DE(clash)    DE(int)     intcor
     15.05     -17.16       1.01        0.00     122.91       2.38       0.01       2.10       ----

> <Gold.Chemscore.Fitness>
15.0500

> <Gold.Chemscore.DG>
-17.1621

> <Gold.Chemscore.ZeroCoef>
-5.4800

> <Gold.Chemscore.Hbond>
1.0128

> <Gold.Chemscore.Metal>
0.0000

> <Gold.Chemscore.Lipo>
122.9147

> <Gold.Chemscore.Internal_Hbond>
0.0000

> <Gold.Chemscore.DEClash>
0.0144

> <Gold.Chemscore.DEInternal>
2.0977

> <Gold.Chemscore.Rot>
2.3756

> <Gold.Chemscore.Internal.Correction>
   9.000000E+99

> <Gold.Chemscore.Hbonds>
donor molecule, donor type, donor heavy atom, donor atom, acceptor molecule, acceptor atom, score
      P1  H  6896  6907       L1    10  0.03
      P1  H  7989  7998       L1     5  0.33

> <Gold.Chemscore.Hbond.Weighted>
-3.3827

> <Gold.Chemscore.Metal.Weighted>
-0.0000

> <Gold.Chemscore.Lipo.Weighted>
-14.3810

> <Gold.Chemscore.Internal_Hbond.Weighted>
0.0000

> <Gold.Chemscore.DEClash.Weighted>
0.0144

> <Gold.Chemscore.DEInternal.Weighted>
2.0977

> <Gold.Chemscore.Rot.Weighted>
6.0816

> <Gold.Chemscore.Internal.Correction.Weighted>
   9.000000E+99

> <Gold.Protein.RotatedTorsions>
[ 6907 6896 6895 6894 ] final   25.85 input  -60.11 | X-H torsion
[ 7974 7965 7964 7962 ] final   77.20 input  175.53 | X-H torsion
[ 8008 7997 7996 7995 ] final   -7.45 input   59.86 | X-H torsion
[ 10167 10162 10161 10158 ] final  159.09 input  -65.29 | X-H torsion
[ 10718 10713 10712 10709 ] final   71.36 input   66.30 | X-H torsion
[ 10763 10752 10751 10750 ] final  -35.08 input  -60.55 | X-H torsion
[ 11005 11000 10999 10996 ] final  125.46 input  -57.11 | X-H torsion

> <Gold.Protein.ActiveResidues>
 VAL166  LYS551  ARG553  GLY616  TRP617  ASP618  TYR619  PRO620  LYS621  CYS622 
 ASP623  PHE694  ASN695  SER759  ASP760  ASP761  ALA762  ILE779  LEU786  VAL792 
 PHE793  MET794  SER795  GLU796  ALA797  LYS798  CYS799  TRP800  GLU811  SER814 

> <Gold.Protein.RotatedAtoms>
  151.9787  135.0040  160.0556 H   0  0  0  0  0  0  0  0  0  0  0  0  # atno 6907 bound_to 6896
  152.1717  133.4643  159.4920 H   0  0  0  0  0  0  0  0  0  0  0  0  # atno 6908 bound_to 6896
  150.6902  134.1863  159.4311 H   0  0  0  0  0  0  0  0  0  0  0  0  # atno 6909 bound_to 6896
  145.6930  139.2558  143.1749 H   0  0  0  0  0  0  0  0  0  0  0  0  # atno 7974 bound_to 7965
  154.5837  140.2406  155.8017 H   0  0  0  0  0  0  0  0  0  0  0  0  # atno 8008 bound_to 7997
  156.2198  140.3001  155.9880 H   0  0  0  0  0  0  0  0  0  0  0  0  # atno 8009 bound_to 7997
  155.2496  140.0410  157.2975 H   0  0  0  0  0  0  0  0  0  0  0  0  # atno 8010 bound_to 7997
  139.4830  144.4763  151.8507 H   0  0  0  0  0  0  0  0  0  0  0  0  # atno 10167 bound_to 10162
  157.6448  130.9524  150.0779 H   0  0  0  0  0  0  0  0  0  0  0  0  # atno 10718 bound_to 10713
  153.8573  135.6843  153.4786 H   0  0  0  0  0  0  0  0  0  0  0  0  # atno 10763 bound_to 10752
  153.1362  135.4676  154.9424 H   0  0  0  0  0  0  0  0  0  0  0  0  # atno 10764 bound_to 10752
  154.7775  135.3258  154.8010 H   0  0  0  0  0  0  0  0  0  0  0  0  # atno 10765 bound_to 10752
  139.9408  134.9635  156.8562 H   0  0  0  0  0  0  0  0  0  0  0  0  # atno 11005 bound_to 11000
  146.0865  140.7705  142.9616 LP  0  0  0  0  0  0  0  0  0  0  0  0  # atno 17320 bound_to 7965
  144.6991  140.3570  143.7171 LP  0  0  0  0  0  0  0  0  0  0  0  0  # atno 17321 bound_to 7965
  140.4235  144.2211  150.5887 LP  0  0  0  0  0  0  0  0  0  0  0  0  # atno 17342 bound_to 10162
  140.4850  143.2366  151.8901 LP  0  0  0  0  0  0  0  0  0  0  0  0  # atno 17343 bound_to 10162
  156.1764  130.3648  149.9095 LP  0  0  0  0  0  0  0  0  0  0  0  0  # atno 17370 bound_to 10713
  156.7058  130.8951  151.3604 LP  0  0  0  0  0  0  0  0  0  0  0  0  # atno 17371 bound_to 10713
  140.5958  134.0219  155.7517 LP  0  0  0  0  0  0  0  0  0  0  0  0  # atno 17394 bound_to 11000
  141.1041  133.9721  157.3028 LP  0  0  0  0  0  0  0  0  0  0  0  0  # atno 17395 bound_to 11000

$$$$
