AV-unprocessed.smi:3273|AV-procd|sdf|12521|dock10
  -GOLD-   2272018433D 1   1.00000     0.00000
 Structure written by MMmdl.
 41 42  0  0  0  0  0  0  0  0  1 V2000
  147.7194  141.9157  154.3222 C   0  0  0  0  0  0  0  0  0  0  0  0
  148.3026  140.5038  154.1111 C   0  0  0  0  0  0  0  0  0  0  0  0
  147.2375  139.4608  154.4998 C   0  0  0  0  0  0  0  0  0  0  0  0
  149.6526  140.3101  154.8665 C   0  0  1  0  0  0  0  0  0  0  0  0
  149.5862  140.7071  156.3646 C   0  0  0  0  0  0  0  0  0  0  0  0
  150.0605  142.0677  156.6081 N   0  0  0  0  0  0  0  0  0  0  0  0
  151.1672  142.3937  157.2936 C   0  0  0  0  0  0  0  0  0  0  0  0
  151.9543  141.5629  157.7471 O   0  0  0  0  0  0  0  0  0  0  0  0
  151.4144  143.8853  157.5179 C   0  0  0  0  0  0  0  0  0  0  0  0
  151.3952  144.2444  158.9934 C   0  0  0  0  0  0  0  0  0  0  0  0
  152.0679  145.5007  159.4970 C   0  0  0  0  0  0  0  0  0  0  0  0
  152.6449  144.1496  159.8409 C   0  0  0  0  0  0  0  0  0  0  0  0
  150.2254  138.9233  154.7032 C   0  0  0  0  0  0  0  0  0  0  0  0
  149.6378  137.6938  154.8410 C   0  0  0  0  0  0  0  0  0  0  0  0
  150.6928  136.7705  154.6111 C   0  0  0  0  0  0  0  0  0  0  0  0
  151.8414  137.3693  154.3548 N   0  0  0  0  0  0  0  0  0  0  0  0
  151.5606  138.6885  154.4172 N   0  0  0  0  0  0  0  0  0  0  0  0
  152.6289  139.6436  154.1894 C   0  0  0  0  0  0  0  0  0  0  0  0
  147.5363  142.1121  155.3790 H   0  0  0  0  0  0  0  0  0  0  0  0
  146.7711  142.0309  153.7966 H   0  0  0  0  0  0  0  0  0  0  0  0
  148.3805  142.6979  153.9509 H   0  0  0  0  0  0  0  0  0  0  0  0
  148.4864  140.3885  153.0421 H   0  0  0  0  0  0  0  0  0  0  0  0
  147.0650  139.4511  155.5764 H   0  0  0  0  0  0  0  0  0  0  0  0
  147.5215  138.4547  154.1929 H   0  0  0  0  0  0  0  0  0  0  0  0
  146.2846  139.6743  154.0147 H   0  0  0  0  0  0  0  0  0  0  0  0
  150.3512  141.0079  154.4037 H   0  0  0  0  0  0  0  0  0  0  0  0
  148.5679  140.5884  156.7365 H   0  0  0  0  0  0  0  0  0  0  0  0
  150.1816  140.0277  156.9727 H   0  0  0  0  0  0  0  0  0  0  0  0
  149.4779  142.8191  156.2680 H   0  0  0  0  0  0  0  0  0  0  0  0
  152.3846  144.1435  157.0917 H   0  0  0  0  0  0  0  0  0  0  0  0
  150.6682  144.4855  156.9954 H   0  0  0  0  0  0  0  0  0  0  0  0
  150.4684  143.9691  159.4939 H   0  0  0  0  0  0  0  0  0  0  0  0
  152.6136  146.1095  158.7791 H   0  0  0  0  0  0  0  0  0  0  0  0
  151.5693  146.0519  160.2915 H   0  0  0  0  0  0  0  0  0  0  0  0
  152.5298  143.7955  160.8633 H   0  0  0  0  0  0  0  0  0  0  0  0
  153.5723  143.8614  159.3497 H   0  0  0  0  0  0  0  0  0  0  0  0
  148.6062  137.4844  155.0818 H   0  0  0  0  0  0  0  0  0  0  0  0
  150.6592  135.6912  154.6276 H   0  0  0  0  0  0  0  0  0  0  0  0
  152.7811  140.2478  155.0833 H   0  0  0  0  0  0  0  0  0  0  0  0
  152.3689  140.2952  153.3551 H   0  0  0  0  0  0  0  0  0  0  0  0
  153.5613  139.1294  153.9530 H   0  0  0  0  0  0  0  0  0  0  0  0
  1  2  1  0  0  0  0
  1 19  1  0  0  0  0
  1 20  1  0  0  0  0
  1 21  1  0  0  0  0
  2  3  1  0  0  0  0
  2  4  1  0  0  0  0
  2 22  1  0  0  0  0
  3 23  1  0  0  0  0
  3 24  1  0  0  0  0
  3 25  1  0  0  0  0
  4  5  1  0  0  0  0
  4 13  1  0  0  0  0
  4 26  1  0  0  0  0
  5  6  1  0  0  0  0
  5 27  1  0  0  0  0
  5 28  1  0  0  0  0
  6  7  1  0  0  0  0
  6 29  1  0  0  0  0
  7  8  2  0  0  0  0
  7  9  1  0  0  0  0
  9 10  1  0  0  0  0
  9 30  1  0  0  0  0
  9 31  1  0  0  0  0
 10 12  1  0  0  0  0
 10 11  1  0  0  0  0
 10 32  1  0  0  0  0
 11 12  1  0  0  0  0
 11 33  1  0  0  0  0
 11 34  1  0  0  0  0
 12 35  1  0  0  0  0
 12 36  1  0  0  0  0
 13 17  1  0  0  0  0
 13 14  2  0  0  0  0
 14 15  1  0  0  0  0
 14 37  1  0  0  0  0
 15 16  2  0  0  0  0
 15 38  1  0  0  0  0
 16 17  1  0  0  0  0
 17 18  1  0  0  0  0
 18 39  1  0  0  0  0
 18 40  1  0  0  0  0
 18 41  1  0  0  0  0
M  END
> <s_m_source_file>
AV-unprocessed.smi

> <i_m_source_file_index>
3273

> <i_lp_mmshare_version>
43012

> <i_f3d_flags>
0

> <s_epik_input>
W0NIM11uMW5bY0hdW2NIXWMxW0NASF0oW0NIXShbQ0gzXSlbQ0gzXSlbQ0gyXVtOSF1DKD1PKVtDSDJdW0NIXTJbQ0gyXVtDSDJdMg==

> <s_epik_cmdline>
J2VwaWtfcHl0aG9uJywgJy1waCcsICc3LjAnLCAnLXRuJywgJzgnLCAnLW1hJywgJzIwMCcsICctbWV0YWxfYmluZGluZycsICctaW1hZScsICc8aW5maWxlLm1hZT4nLCAnLW9tYWUnLCAnPG91dGZpbGUubWFlPic=

> <r_lp_tautomer_probability>
1

> <r_epik_Ionization_Penalty>
0.00116261

> <r_epik_Ionization_Penalty_Charging>
0

> <r_epik_Ionization_Penalty_Neutral>
0.00116261

> <r_epik_State_Penalty>
-0

> <r_epik_Charging_Adjusted_Penalty>
0

> <i_epik_Tot_Q>
0

> <i_epik_Tot_abs_Q>
0

> <r_epik_Metal_State_Penalty>
-0

> <b_epik_Metal_Only>
0

> <s_lp_Force_Field>
OPLS_2005

> <r_lp_Energy>
15.0656

> <b_lp_Chiralities_Consistent>
1

> <s_lp_Variant>
AV-unprocessed.smi:3273-2

> <Gold.Version>
5.8.1

> <Gold.Id.Protein>
6NUR|6NUR_protein|mol2

> <Gold.PLP.Fitness>
42.7289

> <Gold.PLP.PLP>
-38.7829

> <Gold.PLP.part.hbond>
-2.0000

> <Gold.PLP.part.metal>
0.0000

> <Gold.PLP.part.buried>
-0.8399

> <Gold.PLP.part.nonpolar>
-36.0675

> <Gold.PLP.part.repulsive>
0.1627

> <Gold.PLP.ligand.clash>
0.0000

> <Gold.PLP.ligand.torsion>
1.3863

> <Gold.PLP.Chemscore.Hbond>
2.0000

> <Gold.PLP.Chemscore.CHOScore>
0.0000

> <Gold.PLP.Chemscore.Metal>
0.0000

> <Gold.Chemscore.Hbonds>
donor molecule, donor type, donor heavy atom, donor atom, acceptor molecule, acceptor atom, score
      L1  H     6    29       P1  8028  0.88
      P1  H 10752 10764       L1    16  0.58

> <Gold.PLP.Chemscore.Internal.Correction>
0.7187

> <Gold.Rescore>
     Score         DG    S(hbond)    S(metal)    S(lipo)     H(rot)  DE(clash)    DE(int)     intcor
     17.13     -18.84       1.71        0.00     101.35       1.64       0.26       1.45       ----

> <Gold.Chemscore.Fitness>
17.1343

> <Gold.Chemscore.DG>
-18.8417

> <Gold.Chemscore.ZeroCoef>
-5.4800

> <Gold.Chemscore.Hbond>
1.7097

> <Gold.Chemscore.Metal>
0.0000

> <Gold.Chemscore.Lipo>
101.3457

> <Gold.Chemscore.Internal_Hbond>
0.0000

> <Gold.Chemscore.DEClash>
0.2617

> <Gold.Chemscore.DEInternal>
1.4458

> <Gold.Chemscore.Rot>
1.6430

> <Gold.Chemscore.Internal.Correction>
   9.000000E+99

> <Gold.Chemscore.Hbonds>
donor molecule, donor type, donor heavy atom, donor atom, acceptor molecule, acceptor atom, score
      L1  H     6    29       P1  8028  0.85
      P1  H 10752 10764       L1    16  0.06

> <Gold.Chemscore.Hbond.Weighted>
-5.7104

> <Gold.Chemscore.Metal.Weighted>
-0.0000

> <Gold.Chemscore.Lipo.Weighted>
-11.8574

> <Gold.Chemscore.Internal_Hbond.Weighted>
0.0000

> <Gold.Chemscore.DEClash.Weighted>
0.2617

> <Gold.Chemscore.DEInternal.Weighted>
1.4458

> <Gold.Chemscore.Rot.Weighted>
4.2062

> <Gold.Chemscore.Internal.Correction.Weighted>
   9.000000E+99

> <Gold.Protein.RotatedTorsions>
[ 6907 6896 6895 6894 ] final -102.80 input  -60.11 | X-H torsion
[ 7974 7965 7964 7962 ] final  117.70 input  175.53 | X-H torsion
[ 8008 7997 7996 7995 ] final -139.02 input   59.86 | X-H torsion
[ 10167 10162 10161 10158 ] final  169.06 input  -65.29 | X-H torsion
[ 10718 10713 10712 10709 ] final  141.00 input   66.30 | X-H torsion
[ 10763 10752 10751 10750 ] final  -64.95 input  -60.55 | X-H torsion
[ 11005 11000 10999 10996 ] final  -29.01 input  -57.11 | X-H torsion

> <Gold.Protein.ActiveResidues>
 VAL166  LYS551  ARG553  GLY616  TRP617  ASP618  TYR619  PRO620  LYS621  CYS622 
 ASP623  PHE694  ASN695  SER759  ASP760  ASP761  ALA762  ILE779  LEU786  VAL792 
 PHE793  MET794  SER795  GLU796  ALA797  LYS798  CYS799  TRP800  GLU811  SER814 

> <Gold.Protein.RotatedAtoms>
  150.7212  134.0526  159.3803 H   0  0  0  0  0  0  0  0  0  0  0  0  # atno 6907 bound_to 6896
  151.8503  135.0558  160.0467 H   0  0  0  0  0  0  0  0  0  0  0  0  # atno 6908 bound_to 6896
  152.2795  133.5421  159.5525 H   0  0  0  0  0  0  0  0  0  0  0  0  # atno 6909 bound_to 6896
  145.1642  139.3138  143.4501 H   0  0  0  0  0  0  0  0  0  0  0  0  # atno 7974 bound_to 7965
  155.4380  140.0530  157.3013 H   0  0  0  0  0  0  0  0  0  0  0  0  # atno 8008 bound_to 7997
  154.4830  140.2089  155.9676 H   0  0  0  0  0  0  0  0  0  0  0  0  # atno 8009 bound_to 7997
  156.1234  140.3184  155.8247 H   0  0  0  0  0  0  0  0  0  0  0  0  # atno 8010 bound_to 7997
  139.4983  144.3747  151.9687 H   0  0  0  0  0  0  0  0  0  0  0  0  # atno 10167 bound_to 10162
  157.3969  131.1012  151.0591 H   0  0  0  0  0  0  0  0  0  0  0  0  # atno 10718 bound_to 10713
  154.3378  135.6163  153.5581 H   0  0  0  0  0  0  0  0  0  0  0  0  # atno 10763 bound_to 10752
  152.9806  135.5762  154.4888 H   0  0  0  0  0  0  0  0  0  0  0  0  # atno 10764 bound_to 10752
  154.4586  135.2855  155.1706 H   0  0  0  0  0  0  0  0  0  0  0  0  # atno 10765 bound_to 10752
  140.9259  133.7369  156.0867 H   0  0  0  0  0  0  0  0  0  0  0  0  # atno 11005 bound_to 11000
  146.3478  140.1763  142.8589 LP  0  0  0  0  0  0  0  0  0  0  0  0  # atno 17320 bound_to 7965
  145.0300  140.8863  143.5115 LP  0  0  0  0  0  0  0  0  0  0  0  0  # atno 17321 bound_to 7965
  140.3183  144.3458  150.6016 LP  0  0  0  0  0  0  0  0  0  0  0  0  # atno 17342 bound_to 10162
  140.5743  143.2178  151.7543 LP  0  0  0  0  0  0  0  0  0  0  0  0  # atno 17343 bound_to 10162
  157.1604  130.6223  149.5609 LP  0  0  0  0  0  0  0  0  0  0  0  0  # atno 17370 bound_to 10713
  155.9813  130.4819  150.6819 LP  0  0  0  0  0  0  0  0  0  0  0  0  # atno 17371 bound_to 10713
  140.7927  134.3599  157.5460 LP  0  0  0  0  0  0  0  0  0  0  0  0  # atno 17394 bound_to 11000
  139.8785  134.9150  156.3120 LP  0  0  0  0  0  0  0  0  0  0  0  0  # atno 17395 bound_to 11000

$$$$
