AV-unprocessed.smi:228|AV-procd|sdf|1744|dock1
  -GOLD-   2262020253D 1   1.00000     0.00000
 Structure written by MMmdl.
 60 63  0  0  0  0  0  0  0  0  2 V2000
  148.6257  136.6831  155.7610 C   0  0  0  0  0  0  0  0  0  0  0  0
  150.0124  136.2438  155.8541 N   0  0  0  0  0  0  0  0  0  0  0  0
  150.4185  135.1732  154.9398 C   0  0  0  0  0  0  0  0  0  0  0  0
  149.4038  134.0079  154.8695 C   0  0  1  0  0  0  0  0  0  0  0  0
  148.5587  134.2276  153.7581 O   0  0  0  0  0  0  0  0  0  0  0  0
  150.1086  132.6523  154.6656 C   0  0  0  0  0  0  0  0  0  0  0  0
  149.1737  131.5959  154.2027 N   0  3  0  0  0  0  0  0  0  0  0  0
  149.8308  130.2755  154.0572 C   0  0  0  0  0  0  0  0  0  0  0  0
  148.8330  129.2361  153.5185 C   0  0  0  0  0  0  0  0  0  0  0  0
  147.7084  129.1594  154.3856 O   0  0  0  0  0  0  0  0  0  0  0  0
  147.0158  130.3988  154.4707 C   0  0  0  0  0  0  0  0  0  0  0  0
  147.9541  131.4756  155.0408 C   0  0  0  0  0  0  0  0  0  0  0  0
  150.8716  137.2776  156.0554 C   0  0  0  0  0  0  0  0  0  0  0  0
  152.1614  137.1836  155.6324 N   0  0  0  0  0  0  0  0  0  0  0  0
  153.0132  138.1922  155.8354 C   0  0  0  0  0  0  0  0  0  0  0  0
  152.7893  139.3631  156.4324 N   0  0  0  0  0  0  0  0  0  0  0  0
  151.4977  139.4679  156.8585 C   0  0  0  0  0  0  0  0  0  0  0  0
  150.4826  138.4807  156.7085 C   0  0  0  0  0  0  0  0  0  0  0  0
  149.2971  138.9314  157.2753 N   0  0  0  0  0  0  0  0  0  0  0  0
  149.5910  140.1196  157.7275 C   0  0  0  0  0  0  0  0  0  0  0  0
  150.8923  140.5225  157.5239 N   0  0  0  0  0  0  0  0  0  0  0  0
  151.4725  141.7717  157.9324 C   0  0  0  0  0  0  0  0  0  0  0  0
  152.6672  141.8224  158.8889 C   0  0  0  0  0  0  0  0  0  0  0  0
  152.1146  143.1344  159.4943 C   0  0  0  0  0  0  0  0  0  0  0  0
  152.2135  143.2760  161.0262 C   0  0  0  0  0  0  0  0  0  0  0  0
  151.2056  144.1114  161.5606 O   0  0  0  0  0  0  0  0  0  0  0  0
  152.7176  144.4099  158.8771 C   0  0  0  0  0  0  0  0  0  0  0  0
  151.9651  145.5581  159.2132 O   0  0  0  0  0  0  0  0  0  0  0  0
  150.7490  142.6995  158.9114 C   0  0  0  0  0  0  0  0  0  0  0  0
  148.2797  137.1108  156.7020 H   0  0  0  0  0  0  0  0  0  0  0  0
  147.9681  135.8467  155.5222 H   0  0  0  0  0  0  0  0  0  0  0  0
  148.5114  137.4354  154.9793 H   0  0  0  0  0  0  0  0  0  0  0  0
  150.5941  135.5788  153.9424 H   0  0  0  0  0  0  0  0  0  0  0  0
  151.3900  134.8050  155.2722 H   0  0  0  0  0  0  0  0  0  0  0  0
  148.7864  133.9748  155.7654 H   0  0  0  0  0  0  0  0  0  0  0  0
  148.9355  134.9118  153.2251 H   0  0  0  0  0  0  0  0  0  0  0  0
  150.9184  132.7815  153.9454 H   0  0  0  0  0  0  0  0  0  0  0  0
  150.5794  132.3214  155.5926 H   0  0  0  0  0  0  0  0  0  0  0  0
  150.6781  130.3563  153.3751 H   0  0  0  0  0  0  0  0  0  0  0  0
  150.2242  129.9532  155.0226 H   0  0  0  0  0  0  0  0  0  0  0  0
  148.5113  129.4920  152.5075 H   0  0  0  0  0  0  0  0  0  0  0  0
  149.3050  128.2549  153.4636 H   0  0  0  0  0  0  0  0  0  0  0  0
  146.6398  130.6890  153.4883 H   0  0  0  0  0  0  0  0  0  0  0  0
  146.1489  130.2750  155.1199 H   0  0  0  0  0  0  0  0  0  0  0  0
  148.2356  131.2165  156.0627 H   0  0  0  0  0  0  0  0  0  0  0  0
  147.4236  132.4258  155.0903 H   0  0  0  0  0  0  0  0  0  0  0  0
  154.0175  138.0395  155.4688 H   0  0  0  0  0  0  0  0  0  0  0  0
  148.8598  140.7362  158.2300 H   0  0  0  0  0  0  0  0  0  0  0  0
  151.7099  142.3172  157.0169 H   0  0  0  0  0  0  0  0  0  0  0  0
  152.6846  140.9877  159.5900 H   0  0  0  0  0  0  0  0  0  0  0  0
  153.6321  141.9218  158.3907 H   0  0  0  0  0  0  0  0  0  0  0  0
  152.1321  142.3028  161.5108 H   0  0  0  0  0  0  0  0  0  0  0  0
  153.1759  143.6946  161.3216 H   0  0  0  0  0  0  0  0  0  0  0  0
  150.4652  144.1025  160.9734 H   0  0  0  0  0  0  0  0  0  0  0  0
  153.7464  144.5563  159.2074 H   0  0  0  0  0  0  0  0  0  0  0  0
  152.7533  144.3427  157.7894 H   0  0  0  0  0  0  0  0  0  0  0  0
  151.0522  145.3790  159.0465 H   0  0  0  0  0  0  0  0  0  0  0  0
  150.1798  143.4959  158.4308 H   0  0  0  0  0  0  0  0  0  0  0  0
  150.1237  142.1595  159.6229 H   0  0  0  0  0  0  0  0  0  0  0  0
  148.8764  131.8663  153.2758 H   0  0  0  0  0  0  0  0  0  0  0  0
  1  2  1  0  0  0  0
  1 30  1  0  0  0  0
  1 31  1  0  0  0  0
  1 32  1  0  0  0  0
  2  3  1  0  0  0  0
  2 13  1  0  0  0  0
  3  4  1  0  0  0  0
  3 33  1  0  0  0  0
  3 34  1  0  0  0  0
  4  5  1  0  0  0  0
  4  6  1  0  0  0  0
  4 35  1  0  0  0  0
  5 36  1  0  0  0  0
  6  7  1  0  0  0  0
  6 37  1  0  0  0  0
  6 38  1  0  0  0  0
  7 12  1  0  0  0  0
  7  8  1  0  0  0  0
  7 60  1  0  0  0  0
  8  9  1  0  0  0  0
  8 39  1  0  0  0  0
  8 40  1  0  0  0  0
  9 10  1  0  0  0  0
  9 41  1  0  0  0  0
  9 42  1  0  0  0  0
 10 11  1  0  0  0  0
 11 12  1  0  0  0  0
 11 43  1  0  0  0  0
 11 44  1  0  0  0  0
 12 45  1  0  0  0  0
 12 46  1  0  0  0  0
 13 18  1  0  0  0  0
 13 14  2  0  0  0  0
 14 15  1  0  0  0  0
 15 16  2  0  0  0  0
 15 47  1  0  0  0  0
 16 17  1  0  0  0  0
 17 21  1  0  0  0  0
 17 18  2  0  0  0  0
 18 19  1  0  0  0  0
 19 20  2  0  0  0  0
 20 21  1  0  0  0  0
 20 48  1  0  0  0  0
 21 22  1  0  0  0  0
 22 29  1  0  0  0  0
 22 23  1  0  0  0  0
 22 49  1  0  0  0  0
 23 24  1  0  0  0  0
 23 50  1  0  0  0  0
 23 51  1  0  0  0  0
 24 25  1  0  0  0  0
 24 27  1  0  0  0  0
 24 29  1  0  0  0  0
 25 26  1  0  0  0  0
 25 52  1  0  0  0  0
 25 53  1  0  0  0  0
 26 54  1  0  0  0  0
 27 28  1  0  0  0  0
 27 55  1  0  0  0  0
 27 56  1  0  0  0  0
 28 57  1  0  0  0  0
 29 58  1  0  0  0  0
 29 59  1  0  0  0  0
M  CHG  1   7   1
M  END
> <s_m_source_file>
AV-unprocessed.smi

> <i_m_source_file_index>
228

> <i_lp_mmshare_version>
43012

> <i_f3d_flags>
0

> <s_epik_input>
W0NIMl0xW0NIMl1PW0NIMl1bQ0gyXU4xW0NIMl1bQ0BASF0oW09IXSlbQ0gyXU4oW0NIM10pYyhuW2NIXW4yKWMoYzIzKW5bY0hdbjNbQ0hdKFtDSDJdNClbQ0gyXUM0KFtDSDJdW09IXSlbQ0gyXVtPSF0=

> <s_epik_cmdline>
J2VwaWtfcHl0aG9uJywgJy1waCcsICc3LjAnLCAnLXRuJywgJzgnLCAnLW1hJywgJzIwMCcsICctbWV0YWxfYmluZGluZycsICctaW1hZScsICc8aW5maWxlLm1hZT4nLCAnLW9tYWUnLCAnPG91dGZpbGUubWFlPic=

> <r_lp_tautomer_probability>
1

> <r_epik_Ionization_Penalty>
0.403032

> <r_epik_Ionization_Penalty_Charging>
0.40072

> <r_epik_Ionization_Penalty_Neutral>
0.00231206

> <r_epik_State_Penalty>
0.387266

> <r_epik_Charging_Adjusted_Penalty>
0.787986

> <i_epik_Tot_Q>
1

> <i_epik_Tot_abs_Q>
1

> <r_epik_Metal_State_Penalty>
0.385845

> <b_epik_Metal_Only>
0

> <s_lp_Force_Field>
OPLS_2005

> <r_lp_Energy>
50.3724

> <b_lp_Chiralities_Consistent>
1

> <s_lp_Variant>
AV-unprocessed.smi:228-2

> <Gold.Version>
5.8.1

> <Gold.Id.Protein>
6NUR|6NUR_protein|mol2

> <Gold.PLP.Fitness>
51.6130

> <Gold.PLP.PLP>
-44.9803

> <Gold.PLP.part.hbond>
-5.5579

> <Gold.PLP.part.metal>
0.0000

> <Gold.PLP.part.buried>
-8.8244

> <Gold.PLP.part.nonpolar>
-30.9568

> <Gold.PLP.part.repulsive>
0.1377

> <Gold.PLP.ligand.clash>
0.0000

> <Gold.PLP.ligand.torsion>
1.6571

> <Gold.PLP.Chemscore.Hbond>
2.9120

> <Gold.PLP.Chemscore.CHOScore>
0.0000

> <Gold.PLP.Chemscore.Metal>
0.0000

> <Gold.Chemscore.Hbonds>
donor molecule, donor type, donor heavy atom, donor atom, acceptor molecule, acceptor atom, score
      L1  H     5    36       P1  7948  0.95
      P1  H  7997  8010       L1    16  1.00
      P1  H 10752 10765       L1    14  0.90

> <Gold.PLP.Chemscore.Internal.Correction>
1.2109

> <Gold.Rescore>
     Score         DG    S(hbond)    S(metal)    S(lipo)     H(rot)  DE(clash)    DE(int)     intcor
      8.34     -11.70       2.23        0.00     101.33       5.11       0.18       3.17       ----

> <Gold.Chemscore.Fitness>
8.3431

> <Gold.Chemscore.DG>
-11.6968

> <Gold.Chemscore.ZeroCoef>
-5.4800

> <Gold.Chemscore.Hbond>
2.2321

> <Gold.Chemscore.Metal>
0.0000

> <Gold.Chemscore.Lipo>
101.3299

> <Gold.Chemscore.Internal_Hbond>
0.0000

> <Gold.Chemscore.DEClash>
0.1845

> <Gold.Chemscore.DEInternal>
3.1692

> <Gold.Chemscore.Rot>
5.1149

> <Gold.Chemscore.Internal.Correction>
   9.000000E+99

> <Gold.Chemscore.Hbonds>
donor molecule, donor type, donor heavy atom, donor atom, acceptor molecule, acceptor atom, score
      L1  H     5    36       P1  7948  0.21
      P1  H  7997  8010       L1    16  0.30
      P1  H 10752 10765       L1    14  0.72

> <Gold.Chemscore.Hbond.Weighted>
-7.4554

> <Gold.Chemscore.Metal.Weighted>
-0.0000

> <Gold.Chemscore.Lipo.Weighted>
-11.8556

> <Gold.Chemscore.Internal_Hbond.Weighted>
0.0000

> <Gold.Chemscore.DEClash.Weighted>
0.1845

> <Gold.Chemscore.DEInternal.Weighted>
3.1692

> <Gold.Chemscore.Rot.Weighted>
13.0942

> <Gold.Chemscore.Internal.Correction.Weighted>
   9.000000E+99

> <Gold.Protein.RotatedTorsions>
[ 6907 6896 6895 6894 ] final -175.54 input  -60.11 | X-H torsion
[ 7974 7965 7964 7962 ] final   12.79 input  175.53 | X-H torsion
[ 8008 7997 7996 7995 ] final   81.69 input   59.86 | X-H torsion
[ 10167 10162 10161 10158 ] final  144.78 input  -65.29 | X-H torsion
[ 10718 10713 10712 10709 ] final   15.96 input   66.30 | X-H torsion
[ 10763 10752 10751 10750 ] final -163.24 input  -60.55 | X-H torsion
[ 11005 11000 10999 10996 ] final  -64.54 input  -57.11 | X-H torsion

> <Gold.Protein.ActiveResidues>
 VAL166  LYS551  ARG553  GLY616  TRP617  ASP618  TYR619  PRO620  LYS621  CYS622 
 ASP623  PHE694  ASN695  SER759  ASP760  ASP761  ALA762  ILE779  LEU786  VAL792 
 PHE793  MET794  SER795  GLU796  ALA797  LYS798  CYS799  TRP800  GLU811  SER814 

> <Gold.Protein.RotatedAtoms>
  151.5903  133.3367  159.3026 H   0  0  0  0  0  0  0  0  0  0  0  0  # atno 6907 bound_to 6896
  150.8264  134.7500  159.6827 H   0  0  0  0  0  0  0  0  0  0  0  0  # atno 6908 bound_to 6896
  152.4353  134.5705  159.9971 H   0  0  0  0  0  0  0  0  0  0  0  0  # atno 6909 bound_to 6896
  146.2343  139.9284  142.8500 H   0  0  0  0  0  0  0  0  0  0  0  0  # atno 7974 bound_to 7965
  155.9006  140.3433  155.6023 H   0  0  0  0  0  0  0  0  0  0  0  0  # atno 8008 bound_to 7997
  155.7504  140.0819  157.2222 H   0  0  0  0  0  0  0  0  0  0  0  0  # atno 8009 bound_to 7997
  154.4043  140.1554  156.2705 H   0  0  0  0  0  0  0  0  0  0  0  0  # atno 8010 bound_to 7997
  139.4940  144.5948  151.6605 H   0  0  0  0  0  0  0  0  0  0  0  0  # atno 10167 bound_to 10162
  157.0610  130.6309  149.5786 H   0  0  0  0  0  0  0  0  0  0  0  0  # atno 10718 bound_to 10713
  154.7141  135.3012  154.9151 H   0  0  0  0  0  0  0  0  0  0  0  0  # atno 10763 bound_to 10752
  154.0044  135.6703  153.4765 H   0  0  0  0  0  0  0  0  0  0  0  0  # atno 10764 bound_to 10752
  153.0779  135.5025  154.8357 H   0  0  0  0  0  0  0  0  0  0  0  0  # atno 10765 bound_to 10752
  141.1428  133.6667  156.5849 H   0  0  0  0  0  0  0  0  0  0  0  0  # atno 11005 bound_to 11000
  145.2068  140.9878  143.4123 LP  0  0  0  0  0  0  0  0  0  0  0  0  # atno 17320 bound_to 7965
  144.9725  139.3865  143.6302 LP  0  0  0  0  0  0  0  0  0  0  0  0  # atno 17321 bound_to 7965
  140.5584  144.0310  150.6158 LP  0  0  0  0  0  0  0  0  0  0  0  0  # atno 17342 bound_to 10162
  140.3388  143.3032  152.0610 LP  0  0  0  0  0  0  0  0  0  0  0  0  # atno 17343 bound_to 10162
  155.9978  130.5051  150.7549 LP  0  0  0  0  0  0  0  0  0  0  0  0  # atno 17370 bound_to 10713
  157.4955  131.0914  151.0377 LP  0  0  0  0  0  0  0  0  0  0  0  0  # atno 17371 bound_to 10713
  140.3809  134.7524  157.4660 LP  0  0  0  0  0  0  0  0  0  0  0  0  # atno 17394 bound_to 11000
  140.0639  134.5957  155.8718 LP  0  0  0  0  0  0  0  0  0  0  0  0  # atno 17395 bound_to 11000

$$$$
