AV-unprocessed.smi:832|AV-procd|sdf|3879|dock5
  -GOLD-   22720 1333D 1   1.00000     0.00000
 Structure written by MMmdl.
 42 43  0  0  0  0  0  0  0  0  2 V2000
  150.8632  141.5183  156.3182 C   0  0  0  0  0  0  0  0  0  0  0  0
  151.0099  140.1350  155.7831 C   0  0  0  0  0  0  0  0  0  0  0  0
  150.1052  139.1804  155.4115 C   0  0  0  0  0  0  0  0  0  0  0  0
  150.9310  138.1021  154.9960 C   0  0  0  0  0  0  0  0  0  0  0  0
  150.3649  136.8887  154.5281 N   0  0  0  0  0  0  0  0  0  0  0  0
  150.4446  135.6752  155.1001 C   0  0  0  0  0  0  0  0  0  0  0  0
  151.0466  135.4212  156.1439 O   0  0  0  0  0  0  0  0  0  0  0  0
  149.7743  134.7550  154.3910 N   0  0  0  0  0  0  0  0  0  0  0  0
  149.6811  133.3360  154.7215 C   0  0  0  0  0  0  0  0  0  0  0  0
  148.9737  132.5229  153.6195 C   0  0  1  0  0  0  0  0  0  0  0  0
  148.0703  131.4165  154.1599 C   0  0  0  0  0  0  0  0  0  0  0  0
  147.0409  131.1700  153.0489 C   0  0  0  0  0  0  0  0  0  0  0  0
  147.1406  132.3070  152.0994 N   0  3  1  0  0  0  0  0  0  0  0  0
  145.8408  132.8146  151.5762 C   0  0  0  0  0  0  0  0  0  0  0  0
  145.0819  131.7121  150.8134 C   0  0  0  0  0  0  0  0  0  0  0  0
  146.0326  134.0372  150.6579 C   0  0  0  0  0  0  0  0  0  0  0  0
  148.0087  133.3185  152.7395 C   0  0  0  0  0  0  0  0  0  0  0  0
  152.2225  138.3736  155.1048 N   0  0  0  0  0  0  0  0  0  0  0  0
  152.2796  139.6785  155.6081 O   0  0  0  0  0  0  0  0  0  0  0  0
  149.8508  141.6887  156.6849 H   0  0  0  0  0  0  0  0  0  0  0  0
  151.0711  142.2556  155.5429 H   0  0  0  0  0  0  0  0  0  0  0  0
  151.5544  141.6903  157.1436 H   0  0  0  0  0  0  0  0  0  0  0  0
  149.0276  139.2467  155.4346 H   0  0  0  0  0  0  0  0  0  0  0  0
  149.8432  136.9531  153.6665 H   0  0  0  0  0  0  0  0  0  0  0  0
  149.3100  135.0542  153.5457 H   0  0  0  0  0  0  0  0  0  0  0  0
  150.6973  132.9627  154.8499 H   0  0  0  0  0  0  0  0  0  0  0  0
  149.1837  133.1978  155.6833 H   0  0  0  0  0  0  0  0  0  0  0  0
  149.7261  132.0628  152.9763 H   0  0  0  0  0  0  0  0  0  0  0  0
  148.6258  130.5158  154.4235 H   0  0  0  0  0  0  0  0  0  0  0  0
  147.5558  131.7607  155.0584 H   0  0  0  0  0  0  0  0  0  0  0  0
  147.2503  130.2431  152.5139 H   0  0  0  0  0  0  0  0  0  0  0  0
  146.0439  131.0849  153.4838 H   0  0  0  0  0  0  0  0  0  0  0  0
  145.2315  133.1253  152.4264 H   0  0  0  0  0  0  0  0  0  0  0  0
  144.1392  132.0907  150.4170 H   0  0  0  0  0  0  0  0  0  0  0  0
  144.8376  130.8631  151.4516 H   0  0  0  0  0  0  0  0  0  0  0  0
  145.6664  131.3387  149.9718 H   0  0  0  0  0  0  0  0  0  0  0  0
  145.0803  134.3636  150.2386 H   0  0  0  0  0  0  0  0  0  0  0  0
  146.6978  133.8085  149.8245 H   0  0  0  0  0  0  0  0  0  0  0  0
  146.4476  134.8908  151.1943 H   0  0  0  0  0  0  0  0  0  0  0  0
  147.4012  133.9833  153.3562 H   0  0  0  0  0  0  0  0  0  0  0  0
  148.5325  133.9228  151.9981 H   0  0  0  0  0  0  0  0  0  0  0  0
  147.6627  131.9611  151.3069 H   0  0  0  0  0  0  0  0  0  0  0  0
  1  2  1  0  0  0  0
  1 20  1  0  0  0  0
  1 21  1  0  0  0  0
  1 22  1  0  0  0  0
  2 19  1  0  0  0  0
  2  3  2  0  0  0  0
  3  4  1  0  0  0  0
  3 23  1  0  0  0  0
  4  5  1  0  0  0  0
  4 18  2  0  0  0  0
  5  6  1  0  0  0  0
  5 24  1  0  0  0  0
  6  7  2  0  0  0  0
  6  8  1  0  0  0  0
  8  9  1  0  0  0  0
  8 25  1  0  0  0  0
  9 10  1  0  0  0  0
  9 26  1  0  0  0  0
  9 27  1  0  0  0  0
 10 17  1  0  0  0  0
 10 11  1  0  0  0  0
 10 28  1  0  0  0  0
 11 12  1  0  0  0  0
 11 29  1  0  0  0  0
 11 30  1  0  0  0  0
 12 13  1  0  0  0  0
 12 31  1  0  0  0  0
 12 32  1  0  0  0  0
 13 14  1  0  0  0  0
 13 17  1  0  0  0  0
 13 42  1  0  0  0  0
 14 15  1  0  0  0  0
 14 16  1  0  0  0  0
 14 33  1  0  0  0  0
 15 34  1  0  0  0  0
 15 35  1  0  0  0  0
 15 36  1  0  0  0  0
 16 37  1  0  0  0  0
 16 38  1  0  0  0  0
 16 39  1  0  0  0  0
 17 40  1  0  0  0  0
 17 41  1  0  0  0  0
 18 19  1  0  0  0  0
M  CHG  1  13   1
M  END
> <s_m_source_file>
AV-unprocessed.smi

> <i_m_source_file_index>
832

> <i_lp_mmshare_version>
43012

> <i_f3d_flags>
0

> <s_epik_input>
W0NIM11jMVtjSF1jKG5vMSlbTkhdQyg9TylbTkhdW0NIMl1bQ0BASF0yW0NIMl1bQ0gyXU4oW0NIMl0yKVtDSF0oW0NIM10pW0NIM10=

> <s_epik_cmdline>
J2VwaWtfcHl0aG9uJywgJy1waCcsICc3LjAnLCAnLXRuJywgJzgnLCAnLW1hJywgJzIwMCcsICctbWV0YWxfYmluZGluZycsICctaW1hZScsICc8aW5maWxlLm1hZT4nLCAnLW9tYWUnLCAnPG91dGZpbGUubWFlPic=

> <r_lp_tautomer_probability>
1

> <r_epik_Ionization_Penalty>
0.000242791

> <r_epik_Ionization_Penalty_Charging>
0.000220876

> <r_epik_Ionization_Penalty_Neutral>
2.19143e-05

> <r_epik_State_Penalty>
-0

> <r_epik_Charging_Adjusted_Penalty>
0.000220876

> <i_epik_Tot_Q>
1

> <i_epik_Tot_abs_Q>
1

> <r_epik_Metal_State_Penalty>
-0

> <b_epik_Metal_Only>
0

> <s_lp_Force_Field>
OPLS_2005

> <r_lp_Energy>
26.1652

> <b_lp_Chiralities_Consistent>
1

> <s_lp_Variant>
AV-unprocessed.smi:832-4

> <Gold.Version>
5.8.1

> <Gold.Id.Protein>
6NUR|6NUR_protein|mol2

> <Gold.PLP.Fitness>
47.8149

> <Gold.PLP.PLP>
-36.7282

> <Gold.PLP.part.hbond>
-6.7089

> <Gold.PLP.part.metal>
0.0000

> <Gold.PLP.part.buried>
-3.7824

> <Gold.PLP.part.nonpolar>
-26.1213

> <Gold.PLP.part.repulsive>
0.2069

> <Gold.PLP.ligand.clash>
0.0000

> <Gold.PLP.ligand.torsion>
1.1651

> <Gold.PLP.Chemscore.Hbond>
4.4625

> <Gold.PLP.Chemscore.CHOScore>
0.0000

> <Gold.PLP.Chemscore.Metal>
0.0000

> <Gold.Chemscore.Hbonds>
donor molecule, donor type, donor heavy atom, donor atom, acceptor molecule, acceptor atom, score
      L1  H     5    24       P1  7948  0.83
      L1  H     8    25       P1  7948  0.78
      L1  H    13    42       P1 10747  1.00
      P1  H  7997  8008       L1    19  0.54
      P1  H 10752 10764       L1     7  0.10

> <Gold.PLP.Chemscore.Internal.Correction>
0.0294

> <Gold.Rescore>
     Score         DG    S(hbond)    S(metal)    S(lipo)     H(rot)  DE(clash)    DE(int)     intcor
     18.16     -19.86       2.95        0.00      71.86       1.51       0.44       1.25       ----

> <Gold.Chemscore.Fitness>
18.1630

> <Gold.Chemscore.DG>
-19.8590

> <Gold.Chemscore.ZeroCoef>
-5.4800

> <Gold.Chemscore.Hbond>
2.9486

> <Gold.Chemscore.Metal>
0.0000

> <Gold.Chemscore.Lipo>
71.8638

> <Gold.Chemscore.Internal_Hbond>
0.0000

> <Gold.Chemscore.DEClash>
0.4429

> <Gold.Chemscore.DEInternal>
1.2531

> <Gold.Chemscore.Rot>
1.5146

> <Gold.Chemscore.Internal.Correction>
   9.000000E+99

> <Gold.Chemscore.Hbonds>
donor molecule, donor type, donor heavy atom, donor atom, acceptor molecule, acceptor atom, score
      L1  H     5    24       P1  7948  0.40
      L1  H     8    25       P1  7948  0.11
      L1  H    13    42       P1 10747  0.95
      P1  H  7997  8008       L1    19  0.35
      P1  H 10752 10764       L1     7  0.01

> <Gold.Chemscore.Hbond.Weighted>
-9.8483

> <Gold.Chemscore.Metal.Weighted>
-0.0000

> <Gold.Chemscore.Lipo.Weighted>
-8.4081

> <Gold.Chemscore.Internal_Hbond.Weighted>
0.0000

> <Gold.Chemscore.DEClash.Weighted>
0.4429

> <Gold.Chemscore.DEInternal.Weighted>
1.2531

> <Gold.Chemscore.Rot.Weighted>
3.8774

> <Gold.Chemscore.Internal.Correction.Weighted>
   9.000000E+99

> <Gold.Protein.RotatedTorsions>
[ 6907 6896 6895 6894 ] final  -28.98 input  -60.11 | X-H torsion
[ 7974 7965 7964 7962 ] final  168.77 input  175.53 | X-H torsion
[ 8008 7997 7996 7995 ] final  -22.23 input   59.86 | X-H torsion
[ 10167 10162 10161 10158 ] final  -61.37 input  -65.29 | X-H torsion
[ 10718 10713 10712 10709 ] final  -78.94 input   66.30 | X-H torsion
[ 10763 10752 10751 10750 ] final  -24.77 input  -60.55 | X-H torsion
[ 11005 11000 10999 10996 ] final    5.49 input  -57.11 | X-H torsion

> <Gold.Protein.ActiveResidues>
 VAL166  LYS551  ARG553  GLY616  TRP617  ASP618  TYR619  PRO620  LYS621  CYS622 
 ASP623  PHE694  ASN695  SER759  ASP760  ASP761  ALA762  ILE779  LEU786  VAL792 
 PHE793  MET794  SER795  GLU796  ALA797  LYS798  CYS799  TRP800  GLU811  SER814 

> <Gold.Protein.RotatedAtoms>
  151.1255  135.0102  159.8558 H   0  0  0  0  0  0  0  0  0  0  0  0  # atno 6907 bound_to 6896
  152.5449  134.1672  159.8592 H   0  0  0  0  0  0  0  0  0  0  0  0  # atno 6908 bound_to 6896
  151.1734  133.4725  159.2627 H   0  0  0  0  0  0  0  0  0  0  0  0  # atno 6909 bound_to 6896
  144.7377  139.8956  143.6406 H   0  0  0  0  0  0  0  0  0  0  0  0  # atno 7974 bound_to 7965
  154.4656  140.2013  156.0126 H   0  0  0  0  0  0  0  0  0  0  0  0  # atno 8008 bound_to 7997
  156.0921  140.3256  155.7801 H   0  0  0  0  0  0  0  0  0  0  0  0  # atno 8009 bound_to 7997
  155.4939  140.0548  157.2940 H   0  0  0  0  0  0  0  0  0  0  0  0  # atno 8010 bound_to 7997
  140.6010  143.2361  151.5928 H   0  0  0  0  0  0  0  0  0  0  0  0  # atno 10167 bound_to 10162
  156.0105  130.4532  150.3573 H   0  0  0  0  0  0  0  0  0  0  0  0  # atno 10718 bound_to 10713
  153.6892  135.6962  153.5095 H   0  0  0  0  0  0  0  0  0  0  0  0  # atno 10763 bound_to 10752
  153.2426  135.4301  155.0713 H   0  0  0  0  0  0  0  0  0  0  0  0  # atno 10764 bound_to 10752
  154.8378  135.3511  154.6434 H   0  0  0  0  0  0  0  0  0  0  0  0  # atno 10765 bound_to 10752
  140.5701  134.0110  155.8005 H   0  0  0  0  0  0  0  0  0  0  0  0  # atno 11005 bound_to 11000
  146.1110  139.4114  143.0288 LP  0  0  0  0  0  0  0  0  0  0  0  0  # atno 17320 bound_to 7965
  145.7443  140.9996  143.1284 LP  0  0  0  0  0  0  0  0  0  0  0  0  # atno 17321 bound_to 7965
  139.5291  144.2969  152.1106 LP  0  0  0  0  0  0  0  0  0  0  0  0  # atno 17342 bound_to 10162
  140.2150  144.4524  150.6368 LP  0  0  0  0  0  0  0  0  0  0  0  0  # atno 17343 bound_to 10162
  157.1663  131.0357  151.2817 LP  0  0  0  0  0  0  0  0  0  0  0  0  # atno 17370 bound_to 10713
  157.4268  130.7468  149.6957 LP  0  0  0  0  0  0  0  0  0  0  0  0  # atno 17371 bound_to 10713
  141.1061  133.9691  157.2994 LP  0  0  0  0  0  0  0  0  0  0  0  0  # atno 17394 bound_to 11000
  139.9366  135.0196  156.8575 LP  0  0  0  0  0  0  0  0  0  0  0  0  # atno 17395 bound_to 11000

$$$$
