AV-unprocessed.smi:2451|AV-procd|sdf|9673|dock8
  -GOLD-   2272013313D 1   1.00000     0.00000
 Structure written by MMmdl.
 38 39  0  0  0  0  0  0  0  0  1 V2000
  151.5062  144.2145  160.4602 C   0  0  0  0  0  0  0  0  0  0  0  0
  152.6215  143.7819  159.4859 C   0  0  2  0  0  0  0  0  0  0  0  0
  152.2422  144.0861  158.0226 C   0  0  0  0  0  0  0  0  0  0  0  0
  151.1557  143.1356  157.4964 C   0  0  0  0  0  0  0  0  0  0  0  0
  151.5911  141.6709  157.6376 C   0  0  0  0  0  0  0  0  0  0  0  0
  151.9906  141.3250  159.0849 C   0  0  1  0  0  0  0  0  0  0  0  0
  152.4981  139.9498  159.1133 N   0  0  0  0  0  0  0  0  0  0  0  0
  151.4971  138.6832  158.5076 S   0  0  0  0  0  0  0  0  0  0  0  0
  151.4987  137.5997  159.5030 O   0  0  0  0  0  0  0  0  0  0  0  0
  150.2256  139.2884  158.0833 O   0  0  0  0  0  0  0  0  0  0  0  0
  152.4267  138.1169  157.0215 C   0  0  0  0  0  0  0  0  0  0  0  0
  151.6642  138.4834  155.7807 C   0  0  0  0  0  0  0  0  0  0  0  0
  151.2105  137.6290  154.7378 C   0  0  0  0  0  0  0  0  0  0  0  0
  150.5865  138.4830  153.8749 C   0  0  0  0  0  0  0  0  0  0  0  0
  150.6507  139.7570  154.3383 O   0  0  0  0  0  0  0  0  0  0  0  0
  151.3421  139.7473  155.5551 N   0  0  0  0  0  0  0  0  0  0  0  0
  153.0608  142.3001  159.6379 C   0  0  2  0  0  0  0  0  0  0  0  0
  153.4761  141.9646  161.0844 C   0  0  0  0  0  0  0  0  0  0  0  0
  150.6106  143.6022  160.3593 H   0  0  0  0  0  0  0  0  0  0  0  0
  151.2159  145.2504  160.2825 H   0  0  0  0  0  0  0  0  0  0  0  0
  151.8333  144.1531  161.4977 H   0  0  0  0  0  0  0  0  0  0  0  0
  153.4872  144.4027  159.7211 H   0  0  0  0  0  0  0  0  0  0  0  0
  151.9119  145.1209  157.9252 H   0  0  0  0  0  0  0  0  0  0  0  0
  153.1296  143.9936  157.3950 H   0  0  0  0  0  0  0  0  0  0  0  0
  150.2215  143.2973  158.0348 H   0  0  0  0  0  0  0  0  0  0  0  0
  150.9462  143.3585  156.4499 H   0  0  0  0  0  0  0  0  0  0  0  0
  150.7859  141.0148  157.3042 H   0  0  0  0  0  0  0  0  0  0  0  0
  152.4340  141.4863  156.9695 H   0  0  0  0  0  0  0  0  0  0  0  0
  151.1013  141.3844  159.7134 H   0  0  0  0  0  0  0  0  0  0  0  0
  153.4410  139.8950  158.7290 H   0  0  0  0  0  0  0  0  0  0  0  0
  153.4158  138.5753  157.0362 H   0  0  0  0  0  0  0  0  0  0  0  0
  152.5582  137.0372  157.0910 H   0  0  0  0  0  0  0  0  0  0  0  0
  151.3216  136.5592  154.6415 H   0  0  0  0  0  0  0  0  0  0  0  0
  150.0740  138.3449  152.9343 H   0  0  0  0  0  0  0  0  0  0  0  0
  153.9545  142.1785  159.0233 H   0  0  0  0  0  0  0  0  0  0  0  0
  152.6170  141.9425  161.7550 H   0  0  0  0  0  0  0  0  0  0  0  0
  154.1853  142.6972  161.4701 H   0  0  0  0  0  0  0  0  0  0  0  0
  153.9574  140.9883  161.1441 H   0  0  0  0  0  0  0  0  0  0  0  0
  1  2  1  0  0  0  0
  1 19  1  0  0  0  0
  1 20  1  0  0  0  0
  1 21  1  0  0  0  0
  2 17  1  0  0  0  0
  2  3  1  0  0  0  0
  2 22  1  0  0  0  0
  3  4  1  0  0  0  0
  3 23  1  0  0  0  0
  3 24  1  0  0  0  0
  4  5  1  0  0  0  0
  4 25  1  0  0  0  0
  4 26  1  0  0  0  0
  5  6  1  0  0  0  0
  5 27  1  0  0  0  0
  5 28  1  0  0  0  0
  6  7  1  0  0  0  0
  6 17  1  0  0  0  0
  6 29  1  0  0  0  0
  7  8  1  0  0  0  0
  7 30  1  0  0  0  0
  8  9  2  0  0  0  0
  8 10  2  0  0  0  0
  8 11  1  0  0  0  0
 11 12  1  0  0  0  0
 11 31  1  0  0  0  0
 11 32  1  0  0  0  0
 12 16  2  0  0  0  0
 12 13  1  0  0  0  0
 13 14  2  0  0  0  0
 13 33  1  0  0  0  0
 14 15  1  0  0  0  0
 14 34  1  0  0  0  0
 15 16  1  0  0  0  0
 17 18  1  0  0  0  0
 17 35  1  0  0  0  0
 18 36  1  0  0  0  0
 18 37  1  0  0  0  0
 18 38  1  0  0  0  0
M  END
> <s_m_source_file>
AV-unprocessed.smi

> <i_m_source_file_index>
2451

> <i_lp_mmshare_version>
43012

> <i_f3d_flags>
0

> <s_epik_input>
W0NIM11bQ0BASF0xW0NIMl1bQ0gyXVtDSDJdW0NASF0oW0NASF0xW0NIM10pW05IXVMoPU8pKD1PKVtDSDJdYzJbY0hdW2NIXW9uMg==

> <s_epik_cmdline>
J2VwaWtfcHl0aG9uJywgJy1waCcsICc3LjAnLCAnLXRuJywgJzgnLCAnLW1hJywgJzIwMCcsICctbWV0YWxfYmluZGluZycsICctaW1hZScsICc8aW5maWxlLm1hZT4nLCAnLW9tYWUnLCAnPG91dGZpbGUubWFlPic=

> <r_lp_tautomer_probability>
1

> <r_epik_Ionization_Penalty>
8.73668e-05

> <r_epik_Ionization_Penalty_Charging>
0

> <r_epik_Ionization_Penalty_Neutral>
8.73668e-05

> <r_epik_State_Penalty>
-0

> <r_epik_Charging_Adjusted_Penalty>
0

> <i_epik_Tot_Q>
0

> <i_epik_Tot_abs_Q>
0

> <r_epik_Metal_State_Penalty>
0.0716439

> <b_epik_Metal_Only>
0

> <s_lp_Force_Field>
OPLS_2005

> <r_lp_Energy>
8.38809

> <b_lp_Chiralities_Consistent>
1

> <s_lp_Variant>
AV-unprocessed.smi:2451-5

> <Gold.Version>
5.8.1

> <Gold.Id.Protein>
6NUR|6NUR_protein|mol2

> <Gold.PLP.Fitness>
46.3220

> <Gold.PLP.PLP>
-37.9650

> <Gold.PLP.part.hbond>
-1.0463

> <Gold.PLP.part.metal>
0.0000

> <Gold.PLP.part.buried>
-6.6471

> <Gold.PLP.part.nonpolar>
-30.7369

> <Gold.PLP.part.repulsive>
0.1417

> <Gold.PLP.ligand.clash>
0.0000

> <Gold.PLP.ligand.torsion>
0.2362

> <Gold.PLP.Chemscore.Hbond>
1.0000

> <Gold.PLP.Chemscore.CHOScore>
1.8978

> <Gold.PLP.Chemscore.Metal>
0.0000

> <Gold.Chemscore.Hbonds>
donor molecule, donor type, donor heavy atom, donor atom, acceptor molecule, acceptor atom, score
      P1  H  7989  7998       L1    15  0.95
      L1  C    14    34       P1  7948  0.90
      L1  C    14    34       P1  7957  0.98

> <Gold.PLP.Chemscore.Internal.Correction>
0.1359

> <Gold.Rescore>
     Score         DG    S(hbond)    S(metal)    S(lipo)     H(rot)  DE(clash)    DE(int)     intcor
     17.47     -19.74       1.63        0.00     111.71       1.66       0.34       1.93       ----

> <Gold.Chemscore.Fitness>
17.4721

> <Gold.Chemscore.DG>
-19.7362

> <Gold.Chemscore.ZeroCoef>
-5.4800

> <Gold.Chemscore.Hbond>
1.6265

> <Gold.Chemscore.Metal>
0.0000

> <Gold.Chemscore.Lipo>
111.7121

> <Gold.Chemscore.Internal_Hbond>
0.0000

> <Gold.Chemscore.DEClash>
0.3382

> <Gold.Chemscore.DEInternal>
1.9258

> <Gold.Chemscore.Rot>
1.6588

> <Gold.Chemscore.Internal.Correction>
   9.000000E+99

> <Gold.Chemscore.Hbonds>
donor molecule, donor type, donor heavy atom, donor atom, acceptor molecule, acceptor atom, score
      P1  H  6896  6909       L1     9  0.03
      P1  H  7989  7998       L1    15  0.21

> <Gold.Chemscore.Hbond.Weighted>
-5.4325

> <Gold.Chemscore.Metal.Weighted>
-0.0000

> <Gold.Chemscore.Lipo.Weighted>
-13.0703

> <Gold.Chemscore.Internal_Hbond.Weighted>
0.0000

> <Gold.Chemscore.DEClash.Weighted>
0.3382

> <Gold.Chemscore.DEInternal.Weighted>
1.9258

> <Gold.Chemscore.Rot.Weighted>
4.2466

> <Gold.Chemscore.Internal.Correction.Weighted>
   9.000000E+99

> <Gold.Protein.RotatedTorsions>
[ 6907 6896 6895 6894 ] final  118.57 input  -60.11 | X-H torsion
[ 7974 7965 7964 7962 ] final -177.57 input  175.53 | X-H torsion
[ 8008 7997 7996 7995 ] final  -57.98 input   59.86 | X-H torsion
[ 10167 10162 10161 10158 ] final  -12.71 input  -65.29 | X-H torsion
[ 10718 10713 10712 10709 ] final -159.33 input   66.30 | X-H torsion
[ 10763 10752 10751 10750 ] final -144.66 input  -60.55 | X-H torsion
[ 11005 11000 10999 10996 ] final  156.50 input  -57.11 | X-H torsion

> <Gold.Protein.ActiveResidues>
 VAL166  LYS551  ARG553  GLY616  TRP617  ASP618  TYR619  PRO620  LYS621  CYS622 
 ASP623  PHE694  ASN695  SER759  ASP760  ASP761  ALA762  ILE779  LEU786  VAL792 
 PHE793  MET794  SER795  GLU796  ALA797  LYS798  CYS799  TRP800  GLU811  SER814 

> <Gold.Protein.RotatedAtoms>
  152.4533  133.7673  159.6779 H   0  0  0  0  0  0  0  0  0  0  0  0  # atno 6907 bound_to 6896
  150.8452  133.7863  159.3052 H   0  0  0  0  0  0  0  0  0  0  0  0  # atno 6908 bound_to 6896
  151.5476  135.1070  159.9993 H   0  0  0  0  0  0  0  0  0  0  0  0  # atno 6909 bound_to 6896
  144.7128  140.1000  143.6417 H   0  0  0  0  0  0  0  0  0  0  0  0  # atno 7974 bound_to 7965
  154.4290  140.1094  156.5884 H   0  0  0  0  0  0  0  0  0  0  0  0  # atno 8008 bound_to 7997
  155.6038  140.3493  155.4583 H   0  0  0  0  0  0  0  0  0  0  0  0  # atno 8009 bound_to 7997
  156.0153  140.1228  157.0402 H   0  0  0  0  0  0  0  0  0  0  0  0  # atno 8010 bound_to 7997
  140.7167  143.5504  150.9308 H   0  0  0  0  0  0  0  0  0  0  0  0  # atno 10167 bound_to 10162
  156.5666  130.8670  151.2825 H   0  0  0  0  0  0  0  0  0  0  0  0  # atno 10718 bound_to 10713
  154.8418  135.3434  154.6382 H   0  0  0  0  0  0  0  0  0  0  0  0  # atno 10763 bound_to 10752
  153.6992  135.6970  153.5072 H   0  0  0  0  0  0  0  0  0  0  0  0  # atno 10764 bound_to 10752
  153.2536  135.4345  155.0777 H   0  0  0  0  0  0  0  0  0  0  0  0  # atno 10765 bound_to 10752
  140.1681  134.8563  157.2656 H   0  0  0  0  0  0  0  0  0  0  0  0  # atno 11005 bound_to 11000
  145.9546  139.2758  143.1192 LP  0  0  0  0  0  0  0  0  0  0  0  0  # atno 17320 bound_to 7965
  145.9286  140.9065  143.0368 LP  0  0  0  0  0  0  0  0  0  0  0  0  # atno 17321 bound_to 7965
  139.9228  143.6586  152.3093 LP  0  0  0  0  0  0  0  0  0  0  0  0  # atno 17342 bound_to 10162
  139.7009  144.7635  151.1275 LP  0  0  0  0  0  0  0  0  0  0  0  0  # atno 17343 bound_to 10162
  157.7357  130.9767  150.2096 LP  0  0  0  0  0  0  0  0  0  0  0  0  # atno 17370 bound_to 10713
  156.2751  130.3726  149.7992 LP  0  0  0  0  0  0  0  0  0  0  0  0  # atno 17371 bound_to 10713
  140.2410  134.3795  155.7481 LP  0  0  0  0  0  0  0  0  0  0  0  0  # atno 17394 bound_to 11000
  141.2215  133.7265  156.8789 LP  0  0  0  0  0  0  0  0  0  0  0  0  # atno 17395 bound_to 11000

$$$$
