AV-unprocessed.smi:653|AV-procd|sdf|3211|dock4
  -GOLD-   22720 0153D 1   1.00000     0.00000
 Structure written by MMmdl.
 45 46  0  0  0  0  0  0  0  0  2 V2000
  150.5333  144.7294  159.2503 C   0  0  0  0  0  0  0  0  0  0  0  0
  151.0272  143.4512  158.6064 C   0  0  0  0  0  0  0  0  0  0  0  0
  151.9340  142.5837  159.2525 C   0  0  0  0  0  0  0  0  0  0  0  0
  152.3470  141.4058  158.5959 C   0  0  0  0  0  0  0  0  0  0  0  0
  151.8447  141.1173  157.3075 C   0  0  0  0  0  0  0  0  0  0  0  0
  152.2649  139.8544  156.5768 C   0  0  0  0  0  0  0  0  0  0  0  0
  151.1240  139.3438  155.6963 C   0  0  0  0  0  0  0  0  0  0  0  0
  150.6703  140.0591  154.8039 O   0  0  0  0  0  0  0  0  0  0  0  0
  150.6687  138.1093  155.9602 N   0  0  0  0  0  0  0  0  0  0  0  0
  149.5924  137.4415  155.2366 C   0  0  0  0  0  0  0  0  0  0  0  0
  149.2588  136.0650  155.8442 C   0  0  1  0  0  0  0  0  0  0  0  0
  150.0817  134.9199  155.2852 C   0  0  0  0  0  0  0  0  0  0  0  0
  149.8960  133.8552  156.3592 C   0  0  0  0  0  0  0  0  0  0  0  0
  149.8301  134.5682  157.5894 O   0  0  0  0  0  0  0  0  0  0  0  0
  149.5714  135.9503  157.3447 C   0  0  2  0  0  0  0  0  0  0  0  0
  148.4918  136.4962  158.3075 C   0  0  0  0  0  0  0  0  0  0  0  0
  148.2019  137.9774  158.0187 C   0  0  0  0  0  0  0  0  0  0  0  0
  148.8382  136.2934  159.7943 C   0  0  0  0  0  0  0  0  0  0  0  0
  150.9418  142.0236  156.7100 C   0  0  0  0  0  0  0  0  0  0  0  0
  150.5701  143.1409  157.3723 N   0  3  0  0  0  0  0  0  0  0  0  0
  151.1476  144.9966  160.1106 H   0  0  0  0  0  0  0  0  0  0  0  0
  149.5042  144.6077  159.5897 H   0  0  0  0  0  0  0  0  0  0  0  0
  150.5672  145.5563  158.5403 H   0  0  0  0  0  0  0  0  0  0  0  0
  152.3087  142.8146  160.2392 H   0  0  0  0  0  0  0  0  0  0  0  0
  153.0388  140.7313  159.0795 H   0  0  0  0  0  0  0  0  0  0  0  0
  153.1410  140.0630  155.9609 H   0  0  0  0  0  0  0  0  0  0  0  0
  152.5582  139.0827  157.2901 H   0  0  0  0  0  0  0  0  0  0  0  0
  151.1021  137.5911  156.7105 H   0  0  0  0  0  0  0  0  0  0  0  0
  148.7150  138.0882  155.2657 H   0  0  0  0  0  0  0  0  0  0  0  0
  149.8609  137.3368  154.1843 H   0  0  0  0  0  0  0  0  0  0  0  0
  148.2084  135.8369  155.6656 H   0  0  0  0  0  0  0  0  0  0  0  0
  149.7483  134.5896  154.3010 H   0  0  0  0  0  0  0  0  0  0  0  0
  151.1336  135.2008  155.2152 H   0  0  0  0  0  0  0  0  0  0  0  0
  148.9523  133.3286  156.2116 H   0  0  0  0  0  0  0  0  0  0  0  0
  150.6998  133.1190  156.3646 H   0  0  0  0  0  0  0  0  0  0  0  0
  150.5108  136.4731  157.5322 H   0  0  0  0  0  0  0  0  0  0  0  0
  147.5679  135.9512  158.1105 H   0  0  0  0  0  0  0  0  0  0  0  0
  149.0823  138.5956  158.1972 H   0  0  0  0  0  0  0  0  0  0  0  0
  147.3985  138.3522  158.6534 H   0  0  0  0  0  0  0  0  0  0  0  0
  147.8963  138.1254  156.9827 H   0  0  0  0  0  0  0  0  0  0  0  0
  149.7732  136.7896  160.0567 H   0  0  0  0  0  0  0  0  0  0  0  0
  148.9361  135.2398  160.0527 H   0  0  0  0  0  0  0  0  0  0  0  0
  148.0577  136.7052  160.4346 H   0  0  0  0  0  0  0  0  0  0  0  0
  150.5040  141.8865  155.7317 H   0  0  0  0  0  0  0  0  0  0  0  0
  149.9136  143.7785  156.9210 H   0  0  0  0  0  0  0  0  0  0  0  0
  1  2  1  0  0  0  0
  1 21  1  0  0  0  0
  1 22  1  0  0  0  0
  1 23  1  0  0  0  0
  2 20  1  0  0  0  0
  2  3  2  0  0  0  0
  3  4  1  0  0  0  0
  3 24  1  0  0  0  0
  4  5  2  0  0  0  0
  4 25  1  0  0  0  0
  5  6  1  0  0  0  0
  5 19  1  0  0  0  0
  6  7  1  0  0  0  0
  6 26  1  0  0  0  0
  6 27  1  0  0  0  0
  7  8  2  0  0  0  0
  7  9  1  0  0  0  0
  9 10  1  0  0  0  0
  9 28  1  0  0  0  0
 10 11  1  0  0  0  0
 10 29  1  0  0  0  0
 10 30  1  0  0  0  0
 11 15  1  0  0  0  0
 11 12  1  0  0  0  0
 11 31  1  0  0  0  0
 12 13  1  0  0  0  0
 12 32  1  0  0  0  0
 12 33  1  0  0  0  0
 13 14  1  0  0  0  0
 13 34  1  0  0  0  0
 13 35  1  0  0  0  0
 14 15  1  0  0  0  0
 15 16  1  0  0  0  0
 15 36  1  0  0  0  0
 16 17  1  0  0  0  0
 16 18  1  0  0  0  0
 16 37  1  0  0  0  0
 17 38  1  0  0  0  0
 17 39  1  0  0  0  0
 17 40  1  0  0  0  0
 18 41  1  0  0  0  0
 18 42  1  0  0  0  0
 18 43  1  0  0  0  0
 19 20  2  0  0  0  0
 19 44  1  0  0  0  0
 20 45  1  0  0  0  0
M  CHG  1  20   1
M  END
> <s_m_source_file>
AV-unprocessed.smi

> <i_m_source_file_index>
653

> <i_lp_mmshare_version>
43012

> <i_f3d_flags>
0

> <s_epik_input>
W0NIM11jMVtjSF1bY0hdYyhbY0hdbjEpW0NIMl1DKD1PKVtOSF1bQ0gyXVtDQEBIXTJbQ0gyXVtDSDJdT1tDQEhdMltDSF0oW0NIM10pW0NIM10=

> <s_epik_cmdline>
J2VwaWtfcHl0aG9uJywgJy1waCcsICc3LjAnLCAnLXRuJywgJzgnLCAnLW1hJywgJzIwMCcsICctbWV0YWxfYmluZGluZycsICctaW1hZScsICc8aW5maWxlLm1hZT4nLCAnLW9tYWUnLCAnPG91dGZpbGUubWFlPic=

> <r_epik_Ionization_Penalty>
2.12486

> <r_epik_Ionization_Penalty_Charging>
2.12486

> <r_epik_Ionization_Penalty_Neutral>
9.0873e-08

> <r_epik_State_Penalty>
2.26279

> <r_epik_Charging_Adjusted_Penalty>
4.38765

> <i_epik_Tot_Q>
1

> <i_epik_Tot_abs_Q>
1

> <r_epik_Metal_State_Penalty>
2.27914

> <b_epik_Metal_Only>
0

> <s_lp_Force_Field>
OPLS_2005

> <r_lp_Energy>
26.1393

> <b_lp_Chiralities_Consistent>
1

> <s_lp_Variant>
AV-unprocessed.smi:653-8

> <Gold.Version>
5.8.1

> <Gold.Id.Protein>
6NUR|6NUR_protein|mol2

> <Gold.PLP.Fitness>
39.8219

> <Gold.PLP.PLP>
-29.3946

> <Gold.PLP.part.hbond>
-3.0000

> <Gold.PLP.part.metal>
0.0000

> <Gold.PLP.part.buried>
-4.8548

> <Gold.PLP.part.nonpolar>
-21.3423

> <Gold.PLP.part.repulsive>
0.0924

> <Gold.PLP.ligand.clash>
0.0000

> <Gold.PLP.ligand.torsion>
0.7673

> <Gold.PLP.Chemscore.Hbond>
3.9760

> <Gold.PLP.Chemscore.CHOScore>
0.0000

> <Gold.PLP.Chemscore.Metal>
0.0000

> <Gold.Chemscore.Hbonds>
donor molecule, donor type, donor heavy atom, donor atom, acceptor molecule, acceptor atom, score
      L1  H    20    45       P1  8028  2.00
      P1  H  6896  6907       L1    14  0.96
      P1  H  7989  7998       L1     8  1.00

> <Gold.PLP.Chemscore.Internal.Correction>
0.0339

> <Gold.Rescore>
     Score         DG    S(hbond)    S(metal)    S(lipo)     H(rot)  DE(clash)    DE(int)     intcor
     18.96     -21.28       2.92        0.00      85.90       1.57       0.06       2.26       ----

> <Gold.Chemscore.Fitness>
18.9582

> <Gold.Chemscore.DG>
-21.2757

> <Gold.Chemscore.ZeroCoef>
-5.4800

> <Gold.Chemscore.Hbond>
2.9236

> <Gold.Chemscore.Metal>
0.0000

> <Gold.Chemscore.Lipo>
85.9003

> <Gold.Chemscore.Internal_Hbond>
0.0000

> <Gold.Chemscore.DEClash>
0.0576

> <Gold.Chemscore.DEInternal>
2.2598

> <Gold.Chemscore.Rot>
1.5701

> <Gold.Chemscore.Internal.Correction>
   9.000000E+99

> <Gold.Chemscore.Hbonds>
donor molecule, donor type, donor heavy atom, donor atom, acceptor molecule, acceptor atom, score
      L1  H    20    45       P1  8028  0.98
      P1  H  6896  6907       L1    14  0.83
      P1  H  7989  7998       L1     8  1.00

> <Gold.Chemscore.Hbond.Weighted>
-9.7649

> <Gold.Chemscore.Metal.Weighted>
-0.0000

> <Gold.Chemscore.Lipo.Weighted>
-10.0503

> <Gold.Chemscore.Internal_Hbond.Weighted>
0.0000

> <Gold.Chemscore.DEClash.Weighted>
0.0576

> <Gold.Chemscore.DEInternal.Weighted>
2.2598

> <Gold.Chemscore.Rot.Weighted>
4.0196

> <Gold.Chemscore.Internal.Correction.Weighted>
   9.000000E+99

> <Gold.Protein.RotatedTorsions>
[ 6907 6896 6895 6894 ] final  -98.42 input  -60.11 | X-H torsion
[ 7974 7965 7964 7962 ] final  103.80 input  175.53 | X-H torsion
[ 8008 7997 7996 7995 ] final  177.82 input   59.86 | X-H torsion
[ 10167 10162 10161 10158 ] final -166.06 input  -65.29 | X-H torsion
[ 10718 10713 10712 10709 ] final  -67.90 input   66.30 | X-H torsion
[ 10763 10752 10751 10750 ] final  -10.01 input  -60.55 | X-H torsion
[ 11005 11000 10999 10996 ] final   62.61 input  -57.11 | X-H torsion

> <Gold.Protein.ActiveResidues>
 VAL166  LYS551  ARG553  GLY616  TRP617  ASP618  TYR619  PRO620  LYS621  CYS622 
 ASP623  PHE694  ASN695  SER759  ASP760  ASP761  ALA762  ILE779  LEU786  VAL792 
 PHE793  MET794  SER795  GLU796  ALA797  LYS798  CYS799  TRP800  GLU811  SER814 

> <Gold.Protein.RotatedAtoms>
  150.7046  134.1196  159.4029 H   0  0  0  0  0  0  0  0  0  0  0  0  # atno 6907 bound_to 6896
  151.9183  135.0307  160.0529 H   0  0  0  0  0  0  0  0  0  0  0  0  # atno 6908 bound_to 6896
  152.2278  133.4999  159.5235 H   0  0  0  0  0  0  0  0  0  0  0  0  # atno 6909 bound_to 6896
  145.3411  139.2462  143.3609 H   0  0  0  0  0  0  0  0  0  0  0  0  # atno 7974 bound_to 7965
  156.0615  140.1349  156.9936 H   0  0  0  0  0  0  0  0  0  0  0  0  # atno 8008 bound_to 7997
  154.4484  140.0990  156.6594 H   0  0  0  0  0  0  0  0  0  0  0  0  # atno 8009 bound_to 7997
  155.5370  140.3460  155.4441 H   0  0  0  0  0  0  0  0  0  0  0  0  # atno 8010 bound_to 7997
  139.6140  144.0757  152.1870 H   0  0  0  0  0  0  0  0  0  0  0  0  # atno 10167 bound_to 10162
  156.0533  130.4285  150.1922 H   0  0  0  0  0  0  0  0  0  0  0  0  # atno 10718 bound_to 10713
  153.4630  135.7016  153.6039 H   0  0  0  0  0  0  0  0  0  0  0  0  # atno 10763 bound_to 10752
  153.4325  135.3799  155.2179 H   0  0  0  0  0  0  0  0  0  0  0  0  # atno 10764 bound_to 10752
  154.8727  135.3954  154.4058 H   0  0  0  0  0  0  0  0  0  0  0  0  # atno 10765 bound_to 10752
  140.0080  134.6339  155.9824 H   0  0  0  0  0  0  0  0  0  0  0  0  # atno 11005 bound_to 11000
  146.3007  140.4009  142.8705 LP  0  0  0  0  0  0  0  0  0  0  0  0  # atno 17320 bound_to 7965
  144.8789  140.7374  143.5999 LP  0  0  0  0  0  0  0  0  0  0  0  0  # atno 17321 bound_to 7965
  140.0382  144.6028  150.7432 LP  0  0  0  0  0  0  0  0  0  0  0  0  # atno 17342 bound_to 10162
  140.7338  143.2722  151.3853 LP  0  0  0  0  0  0  0  0  0  0  0  0  # atno 17343 bound_to 10162
  157.0002  130.9920  151.3393 LP  0  0  0  0  0  0  0  0  0  0  0  0  # atno 17370 bound_to 10713
  157.5480  130.8163  149.8110 LP  0  0  0  0  0  0  0  0  0  0  0  0  # atno 17371 bound_to 10713
  141.1691  133.6537  156.4585 LP  0  0  0  0  0  0  0  0  0  0  0  0  # atno 17394 bound_to 11000
  140.4606  134.6845  157.5083 LP  0  0  0  0  0  0  0  0  0  0  0  0  # atno 17395 bound_to 11000

$$$$
