AV-unprocessed.smi:40|AV-procd|sdf|381|dock5
  -GOLD-   2262016233D 1   1.00000     0.00000
 Structure written by MMmdl.
 47 48  0  0  0  0  0  0  0  0  1 V2000
  148.8351  126.0150  150.6597 C   0  0  0  0  0  0  0  0  0  0  0  0
  147.9664  127.2746  150.7731 C   0  0  0  0  0  0  0  0  0  0  0  0
  147.6462  127.6805  152.2209 C   0  0  0  0  0  0  0  0  0  0  0  0
  148.8580  128.2314  152.9935 C   0  0  0  0  0  0  0  0  0  0  0  0
  148.4593  129.1317  154.1706 C   0  0  0  0  0  0  0  0  0  0  0  0
  149.3414  130.2399  154.2331 O   0  0  0  0  0  0  0  0  0  0  0  0
  149.0046  131.3427  154.9257 C   0  0  0  0  0  0  0  0  0  0  0  0
  148.2799  131.3357  155.9207 O   0  0  0  0  0  0  0  0  0  0  0  0
  149.6322  132.5326  154.3739 N   0  0  0  0  0  0  0  0  0  0  0  0
  149.5379  133.8196  154.7904 C   0  0  0  0  0  0  0  0  0  0  0  0
  150.6013  134.5797  155.0025 N   0  0  0  0  0  0  0  0  0  0  0  0
  150.5405  135.8868  155.4032 C   0  0  0  0  0  0  0  0  0  0  0  0
  151.5683  136.5399  155.5803 O   0  0  0  0  0  0  0  0  0  0  0  0
  149.2572  136.4494  155.5944 N   0  0  0  0  0  0  0  0  0  0  0  0
  149.1650  137.8970  156.0323 C   0  0  2  0  0  0  0  0  0  0  0  0
  147.8213  138.2437  156.2164 O   0  0  0  0  0  0  0  0  0  0  0  0
  147.4235  139.2032  155.2420 C   0  0  1  0  0  0  0  0  0  0  0  0
  146.2700  140.0546  155.7845 C   0  0  0  0  0  0  0  0  0  0  0  0
  148.7104  139.9817  154.9792 C   0  0  2  0  0  0  0  0  0  0  0  0
  148.6779  140.7081  153.7650 O   0  0  0  0  0  0  0  0  0  0  0  0
  149.7689  138.8840  155.0053 C   0  0  2  0  0  0  0  0  0  0  0  0
  149.9795  138.3123  153.7223 O   0  0  0  0  0  0  0  0  0  0  0  0
  148.1286  135.6787  155.3539 C   0  0  0  0  0  0  0  0  0  0  0  0
  148.2185  134.3906  154.9581 C   0  0  0  0  0  0  0  0  0  0  0  0
  147.1106  133.6645  154.7286 F   0  0  0  0  0  0  0  0  0  0  0  0
  149.6455  137.9491  157.0107 H   0  0  0  0  0  0  0  0  0  0  0  0
  147.1113  138.6802  154.3367 H   0  0  0  0  0  0  0  0  0  0  0  0
  148.8944  140.6730  155.8031 H   0  0  0  0  0  0  0  0  0  0  0  0
  150.7248  139.2564  155.3752 H   0  0  0  0  0  0  0  0  0  0  0  0
  148.9775  125.7376  149.6151 H   0  0  0  0  0  0  0  0  0  0  0  0
  148.3706  125.1690  151.1667 H   0  0  0  0  0  0  0  0  0  0  0  0
  149.8229  126.1679  151.0941 H   0  0  0  0  0  0  0  0  0  0  0  0
  148.4497  128.1038  150.2549 H   0  0  0  0  0  0  0  0  0  0  0  0
  147.0287  127.0963  150.2458 H   0  0  0  0  0  0  0  0  0  0  0  0
  146.8652  128.4412  152.1939 H   0  0  0  0  0  0  0  0  0  0  0  0
  147.2201  126.8312  152.7566 H   0  0  0  0  0  0  0  0  0  0  0  0
  149.4512  127.4026  153.3796 H   0  0  0  0  0  0  0  0  0  0  0  0
  149.5092  128.7863  152.3172 H   0  0  0  0  0  0  0  0  0  0  0  0
  147.4305  129.4761  154.0564 H   0  0  0  0  0  0  0  0  0  0  0  0
  148.5157  128.5689  155.1033 H   0  0  0  0  0  0  0  0  0  0  0  0
  150.1954  132.3588  153.5542 H   0  0  0  0  0  0  0  0  0  0  0  0
  145.9697  140.8131  155.0612 H   0  0  0  0  0  0  0  0  0  0  0  0
  146.5533  140.5637  156.7062 H   0  0  0  0  0  0  0  0  0  0  0  0
  145.3986  139.4359  155.9997 H   0  0  0  0  0  0  0  0  0  0  0  0
  148.5406  140.0993  153.0551 H   0  0  0  0  0  0  0  0  0  0  0  0
  149.4438  137.5373  153.6501 H   0  0  0  0  0  0  0  0  0  0  0  0
  147.1420  136.0991  155.4741 H   0  0  0  0  0  0  0  0  0  0  0  0
  1  2  1  0  0  0  0
  1 30  1  0  0  0  0
  1 31  1  0  0  0  0
  1 32  1  0  0  0  0
  2  3  1  0  0  0  0
  2 33  1  0  0  0  0
  2 34  1  0  0  0  0
  3  4  1  0  0  0  0
  3 35  1  0  0  0  0
  3 36  1  0  0  0  0
  4  5  1  0  0  0  0
  4 37  1  0  0  0  0
  4 38  1  0  0  0  0
  5  6  1  0  0  0  0
  5 39  1  0  0  0  0
  5 40  1  0  0  0  0
  6  7  1  0  0  0  0
  7  8  2  0  0  0  0
  7  9  1  0  0  0  0
  9 10  1  0  0  0  0
  9 41  1  0  0  0  0
 10 24  1  0  0  0  0
 10 11  2  0  0  0  0
 11 12  1  0  0  0  0
 12 13  2  0  0  0  0
 12 14  1  0  0  0  0
 14 15  1  0  0  0  0
 14 23  1  0  0  0  0
 15 26  1  0  0  0  0
 15 21  1  0  0  0  0
 15 16  1  0  0  0  0
 16 17  1  0  0  0  0
 17 27  1  0  0  0  0
 17 18  1  0  0  0  0
 17 19  1  0  0  0  0
 18 42  1  0  0  0  0
 18 43  1  0  0  0  0
 18 44  1  0  0  0  0
 19 28  1  0  0  0  0
 19 20  1  0  0  0  0
 19 21  1  0  0  0  0
 20 45  1  0  0  0  0
 21 29  1  0  0  0  0
 21 22  1  0  0  0  0
 22 46  1  0  0  0  0
 23 24  2  0  0  0  0
 23 47  1  0  0  0  0
 24 25  1  0  0  0  0
M  END
> <s_m_source_file>
AV-unprocessed.smi

> <i_m_source_file_index>
40

> <i_lp_mmshare_version>
43012

> <i_f3d_flags>
0

> <s_epik_input>
W0NIM11bQ0gyXVtDSDJdW0NIMl1bQ0gyXU9DKD1PKVtOSF1jMW5jKD1PKW4oW2NIXWMxRilbQ0BASF0yT1tDQEhdKFtDSDNdKVtDQEBIXShbT0hdKVtDQEhdMltPSF0=

> <s_epik_cmdline>
J2VwaWtfcHl0aG9uJywgJy1waCcsICc3LjAnLCAnLXRuJywgJzgnLCAnLW1hJywgJzIwMCcsICctbWV0YWxfYmluZGluZycsICctaW1hZScsICc8aW5maWxlLm1hZT4nLCAnLW9tYWUnLCAnPG91dGZpbGUubWFlPic=

> <r_lp_tautomer_probability>
1

> <r_epik_Ionization_Penalty>
2.29506e-06

> <r_epik_Ionization_Penalty_Charging>
8.26867e-09

> <r_epik_Ionization_Penalty_Neutral>
2.2868e-06

> <r_epik_State_Penalty>
-0

> <r_epik_Charging_Adjusted_Penalty>
8.26867e-09

> <i_epik_Tot_Q>
0

> <i_epik_Tot_abs_Q>
0

> <r_epik_Metal_State_Penalty>
-0

> <b_epik_Metal_Only>
0

> <s_epik_Chemistry_Notes>
This compound has an ester and may undergo hydrolysis at high or low pH. This compound contains an acetal/aminal-like group ( X-CH(R)-Y where X, Y are N, S, or O) that may be acid/base labile, releasing an aldehyde.

> <s_lp_Force_Field>
OPLS_2005

> <r_lp_Energy>
41.7027

> <b_lp_Chiralities_Consistent>
1

> <s_lp_Variant>
AV-unprocessed.smi:40-15

> <Gold.Version>
5.8.1

> <Gold.Id.Protein>
6NUR|6NUR_protein|mol2

> <Gold.PLP.Fitness>
42.2801

> <Gold.PLP.PLP>
-34.8128

> <Gold.PLP.part.hbond>
-5.7720

> <Gold.PLP.part.metal>
0.0000

> <Gold.PLP.part.buried>
-3.4172

> <Gold.PLP.part.nonpolar>
-25.8240

> <Gold.PLP.part.repulsive>
0.3060

> <Gold.PLP.ligand.clash>
0.0000

> <Gold.PLP.ligand.torsion>
1.3630

> <Gold.PLP.Chemscore.Hbond>
3.3308

> <Gold.PLP.Chemscore.CHOScore>
0.0000

> <Gold.PLP.Chemscore.Metal>
0.0000

> <Gold.Chemscore.Hbonds>
donor molecule, donor type, donor heavy atom, donor atom, acceptor molecule, acceptor atom, score
      L1  H    20    45       P1  7957  0.35
      L1  H    22    46       P1  7948  0.28
      P1  H 10752 10763       L1    13  1.00

> <Gold.PLP.Chemscore.Internal.Correction>
0.2008

> <Gold.Rescore>
     Score         DG    S(hbond)    S(metal)    S(lipo)     H(rot)  DE(clash)    DE(int)     intcor
      8.42     -10.93       2.34        0.00      60.67       3.70       0.92       1.59       ----

> <Gold.Chemscore.Fitness>
8.4249

> <Gold.Chemscore.DG>
-10.9332

> <Gold.Chemscore.ZeroCoef>
-5.4800

> <Gold.Chemscore.Hbond>
2.3400

> <Gold.Chemscore.Metal>
0.0000

> <Gold.Chemscore.Lipo>
60.6730

> <Gold.Chemscore.Internal_Hbond>
0.0000

> <Gold.Chemscore.DEClash>
0.9193

> <Gold.Chemscore.DEInternal>
1.5891

> <Gold.Chemscore.Rot>
3.6957

> <Gold.Chemscore.Internal.Correction>
   9.000000E+99

> <Gold.Chemscore.Hbonds>
donor molecule, donor type, donor heavy atom, donor atom, acceptor molecule, acceptor atom, score
      L1  H    20    45       P1  7957  0.35
      L1  H    22    46       P1  7948  0.27
      P1  H 10752 10763       L1    13  0.55

> <Gold.Chemscore.Hbond.Weighted>
-7.8155

> <Gold.Chemscore.Metal.Weighted>
-0.0000

> <Gold.Chemscore.Lipo.Weighted>
-7.0987

> <Gold.Chemscore.Internal_Hbond.Weighted>
0.0000

> <Gold.Chemscore.DEClash.Weighted>
0.9193

> <Gold.Chemscore.DEInternal.Weighted>
1.5891

> <Gold.Chemscore.Rot.Weighted>
9.4610

> <Gold.Chemscore.Internal.Correction.Weighted>
   9.000000E+99

> <Gold.Protein.RotatedTorsions>
[ 6907 6896 6895 6894 ] final  104.97 input  -60.11 | X-H torsion
[ 7974 7965 7964 7962 ] final  108.00 input  175.53 | X-H torsion
[ 8008 7997 7996 7995 ] final   65.49 input   59.86 | X-H torsion
[ 10167 10162 10161 10158 ] final  156.98 input  -65.29 | X-H torsion
[ 10718 10713 10712 10709 ] final -102.08 input   66.30 | X-H torsion
[ 10763 10752 10751 10750 ] final   65.71 input  -60.55 | X-H torsion
[ 11005 11000 10999 10996 ] final -110.82 input  -57.11 | X-H torsion

> <Gold.Protein.ActiveResidues>
 VAL166  LYS551  ARG553  GLY616  TRP617  ASP618  TYR619  PRO620  LYS621  CYS622 
 ASP623  PHE694  ASN695  SER759  ASP760  ASP761  ALA762  ILE779  LEU786  VAL792 
 PHE793  MET794  SER795  GLU796  ALA797  LYS798  CYS799  TRP800  GLU811  SER814 

> <Gold.Protein.RotatedAtoms>
  152.5246  133.9598  159.7711 H   0  0  0  0  0  0  0  0  0  0  0  0  # atno 6907 bound_to 6896
  150.9891  133.6159  159.2718 H   0  0  0  0  0  0  0  0  0  0  0  0  # atno 6908 bound_to 6896
  151.3309  135.0847  159.9391 H   0  0  0  0  0  0  0  0  0  0  0  0  # atno 6909 bound_to 6896
  145.2864  139.2615  143.3888 H   0  0  0  0  0  0  0  0  0  0  0  0  # atno 7974 bound_to 7965
  155.6626  140.3497  155.4788 H   0  0  0  0  0  0  0  0  0  0  0  0  # atno 8008 bound_to 7997
  155.9756  140.1164  157.0796 H   0  0  0  0  0  0  0  0  0  0  0  0  # atno 8009 bound_to 7997
  154.4177  140.1148  156.5352 H   0  0  0  0  0  0  0  0  0  0  0  0  # atno 8010 bound_to 7997
  139.4822  144.4959  151.8240 H   0  0  0  0  0  0  0  0  0  0  0  0  # atno 10167 bound_to 10162
  156.0216  130.5403  150.7056 H   0  0  0  0  0  0  0  0  0  0  0  0  # atno 10718 bound_to 10713
  153.0108  135.5347  154.6710 H   0  0  0  0  0  0  0  0  0  0  0  0  # atno 10763 bound_to 10752
  154.5895  135.2857  155.0652 H   0  0  0  0  0  0  0  0  0  0  0  0  # atno 10764 bound_to 10752
  154.1751  135.6525  153.5072 H   0  0  0  0  0  0  0  0  0  0  0  0  # atno 10765 bound_to 10752
  141.0770  133.9284  157.2369 H   0  0  0  0  0  0  0  0  0  0  0  0  # atno 11005 bound_to 11000
  146.3199  140.3344  142.8643 LP  0  0  0  0  0  0  0  0  0  0  0  0  # atno 17320 bound_to 7965
  144.9210  140.7868  143.5748 LP  0  0  0  0  0  0  0  0  0  0  0  0  # atno 17321 bound_to 7965
  140.4447  144.1937  150.5893 LP  0  0  0  0  0  0  0  0  0  0  0  0  # atno 17342 bound_to 10162
  140.4646  143.2435  151.9172 LP  0  0  0  0  0  0  0  0  0  0  0  0  # atno 17343 bound_to 10162
  157.4706  131.0892  151.0647 LP  0  0  0  0  0  0  0  0  0  0  0  0  # atno 17370 bound_to 10713
  157.1108  130.6021  149.5481 LP  0  0  0  0  0  0  0  0  0  0  0  0  # atno 17371 bound_to 10713
  139.9582  135.0160  156.9188 LP  0  0  0  0  0  0  0  0  0  0  0  0  # atno 17394 bound_to 11000
  140.5552  134.0588  155.7381 LP  0  0  0  0  0  0  0  0  0  0  0  0  # atno 17395 bound_to 11000

$$$$
