AV-unprocessed.smi:1501|AV-procd|sdf|6065|dock5
  -GOLD-   22720 6183D 1   1.00000     0.00000
 Structure written by MMmdl.
 49 50  0  0  0  0  0  0  0  0  1 V2000
  148.2621  141.7972  154.2838 C   0  0  0  0  0  0  0  0  0  0  0  0
  149.4083  141.1850  155.0693 C   0  0  0  0  0  0  0  0  0  0  0  0
  149.9340  142.0052  156.0502 N   0  0  0  0  0  0  0  0  0  0  0  0
  151.0021  141.5519  156.8147 C   0  0  0  0  0  0  0  0  0  0  0  0
  151.4671  142.4676  157.7583 N   0  0  0  0  0  0  0  0  0  0  0  0
  152.4751  142.0644  158.7388 C   0  0  0  0  0  0  0  0  0  0  0  0
  152.4860  143.0113  159.9506 C   0  0  0  0  0  0  0  0  0  0  0  0
  152.6853  144.3481  159.5110 O   0  0  0  0  0  0  0  0  0  0  0  0
  151.6372  144.7736  158.6503 C   0  0  0  0  0  0  0  0  0  0  0  0
  151.5989  143.8801  157.3988 C   0  0  0  0  0  0  0  0  0  0  0  0
  151.5211  140.3659  156.6738 N   0  0  0  0  0  0  0  0  0  0  0  0
  151.0170  139.4788  155.7111 C   0  0  0  0  0  0  0  0  0  0  0  0
  151.4961  138.3523  155.5886 O   0  0  0  0  0  0  0  0  0  0  0  0
  149.8985  139.9398  154.8627 C   0  0  0  0  0  0  0  0  0  0  0  0
  149.3654  139.0018  153.7838 C   0  0  0  0  0  0  0  0  0  0  0  0
  147.9630  138.4605  154.1231 C   0  0  0  0  0  0  0  0  0  0  0  0
  147.9880  137.2200  155.0217 C   0  0  0  0  0  0  0  0  0  0  0  0
  147.4143  137.2152  156.1116 O   0  0  0  0  0  0  0  0  0  0  0  0
  148.6667  136.1651  154.5460 N   0  0  0  0  0  0  0  0  0  0  0  0
  148.8088  134.8827  155.2286 C   0  0  0  0  0  0  0  0  0  0  0  0
  149.6129  133.8575  154.4008 C   0  0  0  0  0  0  0  0  0  0  0  0
  148.7625  133.2973  153.2514 C   0  0  0  0  0  0  0  0  0  0  0  0
  150.1735  132.7170  155.2679 C   0  0  0  0  0  0  0  0  0  0  0  0
  149.5252  142.9204  156.1701 H   0  0  0  0  0  0  0  0  0  0  0  0
  147.3824  141.1546  154.3303 H   0  0  0  0  0  0  0  0  0  0  0  0
  148.5435  141.9241  153.2383 H   0  0  0  0  0  0  0  0  0  0  0  0
  147.9826  142.7759  154.6763 H   0  0  0  0  0  0  0  0  0  0  0  0
  153.4549  142.0614  158.2588 H   0  0  0  0  0  0  0  0  0  0  0  0
  152.2847  141.0461  159.0814 H   0  0  0  0  0  0  0  0  0  0  0  0
  151.5536  142.9347  160.5123 H   0  0  0  0  0  0  0  0  0  0  0  0
  153.2915  142.7385  160.6323 H   0  0  0  0  0  0  0  0  0  0  0  0
  150.6821  144.7457  159.1773 H   0  0  0  0  0  0  0  0  0  0  0  0
  151.8129  145.8107  158.3649 H   0  0  0  0  0  0  0  0  0  0  0  0
  150.7784  144.2032  156.7574 H   0  0  0  0  0  0  0  0  0  0  0  0
  152.5162  144.0108  156.8228 H   0  0  0  0  0  0  0  0  0  0  0  0
  150.0650  138.1767  153.6399 H   0  0  0  0  0  0  0  0  0  0  0  0
  149.3392  139.5242  152.8275 H   0  0  0  0  0  0  0  0  0  0  0  0
  147.3802  139.2383  154.6189 H   0  0  0  0  0  0  0  0  0  0  0  0
  147.4308  138.2074  153.2055 H   0  0  0  0  0  0  0  0  0  0  0  0
  149.1082  136.2528  153.6421 H   0  0  0  0  0  0  0  0  0  0  0  0
  149.3046  135.0614  156.1833 H   0  0  0  0  0  0  0  0  0  0  0  0
  147.8207  134.4862  155.4691 H   0  0  0  0  0  0  0  0  0  0  0  0
  150.4602  134.3756  153.9493 H   0  0  0  0  0  0  0  0  0  0  0  0
  147.8916  132.7592  153.6274 H   0  0  0  0  0  0  0  0  0  0  0  0
  149.3398  132.6078  152.6346 H   0  0  0  0  0  0  0  0  0  0  0  0
  148.4056  134.0967  152.6015 H   0  0  0  0  0  0  0  0  0  0  0  0
  149.3734  132.1711  155.7685 H   0  0  0  0  0  0  0  0  0  0  0  0
  150.8521  133.0918  156.0344 H   0  0  0  0  0  0  0  0  0  0  0  0
  150.7334  132.0038  154.6623 H   0  0  0  0  0  0  0  0  0  0  0  0
  1 25  1  0  0  0  0
  1 26  1  0  0  0  0
  1 27  1  0  0  0  0
  1  2  1  0  0  0  0
  2 14  2  0  0  0  0
  2  3  1  0  0  0  0
  3 24  1  0  0  0  0
  3  4  1  0  0  0  0
  4  5  1  0  0  0  0
  4 11  2  0  0  0  0
  5 10  1  0  0  0  0
  5  6  1  0  0  0  0
  6  7  1  0  0  0  0
  6 28  1  0  0  0  0
  6 29  1  0  0  0  0
  7  8  1  0  0  0  0
  7 30  1  0  0  0  0
  7 31  1  0  0  0  0
  8  9  1  0  0  0  0
  9 10  1  0  0  0  0
  9 32  1  0  0  0  0
  9 33  1  0  0  0  0
 10 34  1  0  0  0  0
 10 35  1  0  0  0  0
 11 12  1  0  0  0  0
 12 13  2  0  0  0  0
 12 14  1  0  0  0  0
 14 15  1  0  0  0  0
 15 16  1  0  0  0  0
 15 36  1  0  0  0  0
 15 37  1  0  0  0  0
 16 17  1  0  0  0  0
 16 38  1  0  0  0  0
 16 39  1  0  0  0  0
 17 18  2  0  0  0  0
 17 19  1  0  0  0  0
 19 20  1  0  0  0  0
 19 40  1  0  0  0  0
 20 21  1  0  0  0  0
 20 41  1  0  0  0  0
 20 42  1  0  0  0  0
 21 22  1  0  0  0  0
 21 23  1  0  0  0  0
 21 43  1  0  0  0  0
 22 44  1  0  0  0  0
 22 45  1  0  0  0  0
 22 46  1  0  0  0  0
 23 47  1  0  0  0  0
 23 48  1  0  0  0  0
 23 49  1  0  0  0  0
M  END
> <s_m_source_file>
AV-unprocessed.smi

> <i_m_source_file_index>
1501

> <i_lp_mmshare_version>
43012

> <i_f3d_flags>
0

> <s_epik_input>
W0NIMl0xW0NIMl1PW0NIMl1bQ0gyXU4xYyhuYzJbQ0gzXSlbbkhdYyg9TyljMltDSDJdW0NIMl1DKD1PKVtOSF1bQ0gyXVtDSF0oW0NIM10pW0NIM10=

> <s_epik_cmdline>
J2VwaWtfcHl0aG9uJywgJy1waCcsICc3LjAnLCAnLXRuJywgJzgnLCAnLW1hJywgJzIwMCcsICctbWV0YWxfYmluZGluZycsICctaW1hZScsICc8aW5maWxlLm1hZT4nLCAnLW9tYWUnLCAnPG91dGZpbGUubWFlPic=

> <r_lp_tautomer_probability>
0.108306

> <r_epik_Ionization_Penalty>
0.0740208

> <r_epik_Ionization_Penalty_Charging>
0.0617106

> <r_epik_Ionization_Penalty_Neutral>
0.0123101

> <r_epik_State_Penalty>
1.70915

> <r_epik_Charging_Adjusted_Penalty>
1.77086

> <i_epik_Tot_Q>
0

> <i_epik_Tot_abs_Q>
0

> <r_epik_Metal_State_Penalty>
2.68075

> <b_epik_Metal_Only>
0

> <s_lp_Force_Field>
OPLS_2005

> <r_lp_Energy>
26.7913

> <b_lp_Chiralities_Consistent>
1

> <s_lp_Variant>
AV-unprocessed.smi:1501-2

> <Gold.Version>
5.8.1

> <Gold.Id.Protein>
6NUR|6NUR_protein|mol2

> <Gold.PLP.Fitness>
47.9964

> <Gold.PLP.PLP>
-43.1782

> <Gold.PLP.part.hbond>
-2.0000

> <Gold.PLP.part.metal>
0.0000

> <Gold.PLP.part.buried>
-1.4236

> <Gold.PLP.part.nonpolar>
-39.4994

> <Gold.PLP.part.repulsive>
0.1366

> <Gold.PLP.ligand.clash>
0.0000

> <Gold.PLP.ligand.torsion>
0.7479

> <Gold.PLP.Chemscore.Hbond>
1.9760

> <Gold.PLP.Chemscore.CHOScore>
0.0000

> <Gold.PLP.Chemscore.Metal>
0.0000

> <Gold.Chemscore.Hbonds>
donor molecule, donor type, donor heavy atom, donor atom, acceptor molecule, acceptor atom, score
      L1  H     3    24       P1  8028  1.00
      L1  H    19    40       P1  7948  0.99

> <Gold.PLP.Chemscore.Internal.Correction>
0.3861

> <Gold.Rescore>
     Score         DG    S(hbond)    S(metal)    S(lipo)     H(rot)  DE(clash)    DE(int)     intcor
     17.43     -18.56       1.96        0.00      95.86       1.83       0.22       0.90       ----

> <Gold.Chemscore.Fitness>
17.4323

> <Gold.Chemscore.DG>
-18.5576

> <Gold.Chemscore.ZeroCoef>
-5.4800

> <Gold.Chemscore.Hbond>
1.9630

> <Gold.Chemscore.Metal>
0.0000

> <Gold.Chemscore.Lipo>
95.8557

> <Gold.Chemscore.Internal_Hbond>
0.0000

> <Gold.Chemscore.DEClash>
0.2213

> <Gold.Chemscore.DEInternal>
0.9040

> <Gold.Chemscore.Rot>
1.8335

> <Gold.Chemscore.Internal.Correction>
   9.000000E+99

> <Gold.Chemscore.Hbonds>
donor molecule, donor type, donor heavy atom, donor atom, acceptor molecule, acceptor atom, score
      L1  H     3    24       P1  8028  0.97
      L1  H    19    40       P1  7948  0.91

> <Gold.Chemscore.Hbond.Weighted>
-6.5563

> <Gold.Chemscore.Metal.Weighted>
-0.0000

> <Gold.Chemscore.Lipo.Weighted>
-11.2151

> <Gold.Chemscore.Internal_Hbond.Weighted>
0.0000

> <Gold.Chemscore.DEClash.Weighted>
0.2213

> <Gold.Chemscore.DEInternal.Weighted>
0.9040

> <Gold.Chemscore.Rot.Weighted>
4.6938

> <Gold.Chemscore.Internal.Correction.Weighted>
   9.000000E+99

> <Gold.Protein.RotatedTorsions>
[ 6907 6896 6895 6894 ] final   37.38 input  -60.11 | X-H torsion
[ 7974 7965 7964 7962 ] final  -82.06 input  175.53 | X-H torsion
[ 8008 7997 7996 7995 ] final  -67.92 input   59.86 | X-H torsion
[ 10167 10162 10161 10158 ] final -167.56 input  -65.29 | X-H torsion
[ 10718 10713 10712 10709 ] final  -20.45 input   66.30 | X-H torsion
[ 10763 10752 10751 10750 ] final  -93.62 input  -60.55 | X-H torsion
[ 11005 11000 10999 10996 ] final  -18.08 input  -57.11 | X-H torsion

> <Gold.Protein.ActiveResidues>
 VAL166  LYS551  ARG553  GLY616  TRP617  ASP618  TYR619  PRO620  LYS621  CYS622 
 ASP623  PHE694  ASN695  SER759  ASP760  ASP761  ALA762  ILE779  LEU786  VAL792 
 PHE793  MET794  SER795  GLU796  ALA797  LYS798  CYS799  TRP800  GLU811  SER814 

> <Gold.Protein.RotatedAtoms>
  152.1424  134.9052  160.0552 H   0  0  0  0  0  0  0  0  0  0  0  0  # atno 6907 bound_to 6896
  152.0115  133.3858  159.4230 H   0  0  0  0  0  0  0  0  0  0  0  0  # atno 6908 bound_to 6896
  150.6866  134.3647  159.5009 H   0  0  0  0  0  0  0  0  0  0  0  0  # atno 6909 bound_to 6896
  145.5384  140.9513  143.1564 H   0  0  0  0  0  0  0  0  0  0  0  0  # atno 7974 bound_to 7965
  154.4833  140.0883  156.7427 H   0  0  0  0  0  0  0  0  0  0  0  0  # atno 8008 bound_to 7997
  155.4415  140.3454  155.4272 H   0  0  0  0  0  0  0  0  0  0  0  0  # atno 8009 bound_to 7997
  156.1223  140.1478  156.9174 H   0  0  0  0  0  0  0  0  0  0  0  0  # atno 8010 bound_to 7997
  139.6041  144.0949  152.1774 H   0  0  0  0  0  0  0  0  0  0  0  0  # atno 10167 bound_to 10162
  156.5317  130.4656  149.6544 H   0  0  0  0  0  0  0  0  0  0  0  0  # atno 10718 bound_to 10713
  154.6976  135.5188  153.8481 H   0  0  0  0  0  0  0  0  0  0  0  0  # atno 10763 bound_to 10752
  153.0679  135.6591  154.0322 H   0  0  0  0  0  0  0  0  0  0  0  0  # atno 10764 bound_to 10752
  154.0186  135.2995  155.3363 H   0  0  0  0  0  0  0  0  0  0  0  0  # atno 10765 bound_to 10752
  140.8232  133.8052  155.9681 H   0  0  0  0  0  0  0  0  0  0  0  0  # atno 11005 bound_to 11000
  144.7589  139.7004  143.7242 LP  0  0  0  0  0  0  0  0  0  0  0  0  # atno 17320 bound_to 7965
  146.1997  139.5285  142.9751 LP  0  0  0  0  0  0  0  0  0  0  0  0  # atno 17321 bound_to 7965
  140.0552  144.5900  150.7305 LP  0  0  0  0  0  0  0  0  0  0  0  0  # atno 17342 bound_to 10162
  140.7272  143.2649  151.4080 LP  0  0  0  0  0  0  0  0  0  0  0  0  # atno 17343 bound_to 10162
  156.3054  130.7199  151.2080 LP  0  0  0  0  0  0  0  0  0  0  0  0  # atno 17370 bound_to 10713
  157.7420  131.0495  150.5052 LP  0  0  0  0  0  0  0  0  0  0  0  0  # atno 17371 bound_to 10713
  140.9076  134.2300  157.5005 LP  0  0  0  0  0  0  0  0  0  0  0  0  # atno 17394 bound_to 11000
  139.8707  134.9735  156.4813 LP  0  0  0  0  0  0  0  0  0  0  0  0  # atno 17395 bound_to 11000

$$$$
