AV-unprocessed.smi:1918|AV-procd|sdf|7771|dock2
  -GOLD-   22720 9513D 1   1.00000     0.00000
 Structure written by MMmdl.
 36 38  0  0  0  0  0  0  0  0  2 V2000
  151.8810  137.9618  154.7336 C   0  0  0  0  0  0  0  0  0  0  0  0
  150.6721  138.8004  154.4862 C   0  0  0  0  0  0  0  0  0  0  0  0
  149.6064  138.4562  153.7097 N   0  3  0  0  0  0  0  0  0  0  0  0
  148.6643  139.4857  153.7164 C   0  0  0  0  0  0  0  0  0  0  0  0
  147.4304  139.5965  153.0831 C   0  0  0  0  0  0  0  0  0  0  0  0
  146.7132  140.7916  153.3000 C   0  0  0  0  0  0  0  0  0  0  0  0
  147.2271  141.8183  154.1187 C   0  0  0  0  0  0  0  0  0  0  0  0
  148.4793  141.6943  154.7559 C   0  0  0  0  0  0  0  0  0  0  0  0
  149.1812  140.5094  154.5364 C   0  0  0  0  0  0  0  0  0  0  0  0
  150.4176  140.0410  154.9940 N   0  0  0  0  0  0  0  0  0  0  0  0
  151.2139  140.8848  155.8981 C   0  0  0  0  0  0  0  0  0  0  0  0
  151.3623  140.2775  157.3082 C   0  0  2  0  0  0  0  0  0  0  0  0
  150.2185  139.4883  157.5645 O   0  0  0  0  0  0  0  0  0  0  0  0
  151.5867  141.3436  158.3749 C   0  0  0  0  0  0  0  0  0  0  0  0
  150.7958  142.5145  158.3920 C   0  0  0  0  0  0  0  0  0  0  0  0
  151.0170  143.5093  159.3638 C   0  0  0  0  0  0  0  0  0  0  0  0
  152.0322  143.3422  160.3241 C   0  0  0  0  0  0  0  0  0  0  0  0
  152.2468  144.2996  161.2571 F   0  0  0  0  0  0  0  0  0  0  0  0
  152.8266  142.1803  160.3114 C   0  0  0  0  0  0  0  0  0  0  0  0
  152.6069  141.1837  159.3408 C   0  0  0  0  0  0  0  0  0  0  0  0
  153.3906  140.0783  159.3356 F   0  0  0  0  0  0  0  0  0  0  0  0
  151.8454  137.0526  154.1333 H   0  0  0  0  0  0  0  0  0  0  0  0
  151.9357  137.6792  155.7845 H   0  0  0  0  0  0  0  0  0  0  0  0
  152.7839  138.5137  154.4721 H   0  0  0  0  0  0  0  0  0  0  0  0
  147.0348  138.8113  152.4557 H   0  0  0  0  0  0  0  0  0  0  0  0
  145.7501  140.9238  152.8288 H   0  0  0  0  0  0  0  0  0  0  0  0
  146.6486  142.7198  154.2609 H   0  0  0  0  0  0  0  0  0  0  0  0
  148.8637  142.4857  155.3823 H   0  0  0  0  0  0  0  0  0  0  0  0
  152.1928  141.0397  155.4428 H   0  0  0  0  0  0  0  0  0  0  0  0
  150.7393  141.8660  155.9451 H   0  0  0  0  0  0  0  0  0  0  0  0
  152.2063  139.5877  157.3177 H   0  0  0  0  0  0  0  0  0  0  0  0
  149.4729  140.0615  157.6594 H   0  0  0  0  0  0  0  0  0  0  0  0
  150.0198  142.6592  157.6546 H   0  0  0  0  0  0  0  0  0  0  0  0
  150.4095  144.4024  159.3704 H   0  0  0  0  0  0  0  0  0  0  0  0
  153.6083  142.0546  161.0460 H   0  0  0  0  0  0  0  0  0  0  0  0
  149.5310  137.5783  153.2122 H   0  0  0  0  0  0  0  0  0  0  0  0
  1  2  1  0  0  0  0
  1 22  1  0  0  0  0
  1 23  1  0  0  0  0
  1 24  1  0  0  0  0
  2 10  1  0  0  0  0
  2  3  2  0  0  0  0
  3  4  1  0  0  0  0
  3 36  1  0  0  0  0
  4  9  2  0  0  0  0
  4  5  1  0  0  0  0
  5  6  2  0  0  0  0
  5 25  1  0  0  0  0
  6  7  1  0  0  0  0
  6 26  1  0  0  0  0
  7  8  2  0  0  0  0
  7 27  1  0  0  0  0
  8  9  1  0  0  0  0
  8 28  1  0  0  0  0
  9 10  1  0  0  0  0
 10 11  1  0  0  0  0
 11 12  1  0  0  0  0
 11 29  1  0  0  0  0
 11 30  1  0  0  0  0
 12 13  1  0  0  0  0
 12 14  1  0  0  0  0
 12 31  1  0  0  0  0
 13 32  1  0  0  0  0
 14 20  1  0  0  0  0
 14 15  2  0  0  0  0
 15 16  1  0  0  0  0
 15 33  1  0  0  0  0
 16 17  2  0  0  0  0
 16 34  1  0  0  0  0
 17 18  1  0  0  0  0
 17 19  1  0  0  0  0
 19 20  2  0  0  0  0
 19 35  1  0  0  0  0
 20 21  1  0  0  0  0
M  CHG  1   3   1
M  END
> <s_m_source_file>
AV-unprocessed.smi

> <i_m_source_file_index>
1918

> <i_lp_mmshare_version>
43012

> <i_f3d_flags>
0

> <s_epik_input>
W2NIXTFbY0hdW2NIXVtjSF1jKGMxMiluKGMobjIpW0NIM10pW0NIMl1bQ0BIXShbT0hdKWMzW2NIXVtjSF1jKEYpW2NIXWMzRg==

> <s_epik_cmdline>
J2VwaWtfcHl0aG9uJywgJy1waCcsICc3LjAnLCAnLXRuJywgJzgnLCAnLW1hJywgJzIwMCcsICctbWV0YWxfYmluZGluZycsICctaW1hZScsICc8aW5maWxlLm1hZT4nLCAnLW9tYWUnLCAnPG91dGZpbGUubWFlPic=

> <r_epik_Ionization_Penalty>
0.963869

> <r_epik_Ionization_Penalty_Charging>
0.963868

> <r_epik_Ionization_Penalty_Neutral>
1.79538e-06

> <r_epik_State_Penalty>
1.00924

> <r_epik_Charging_Adjusted_Penalty>
1.9731

> <i_epik_Tot_Q>
1

> <i_epik_Tot_abs_Q>
1

> <r_epik_Metal_State_Penalty>
4.98304

> <b_epik_Metal_Only>
0

> <s_lp_Force_Field>
OPLS_2005

> <r_lp_Energy>
15.6488

> <b_lp_Chiralities_Consistent>
1

> <s_lp_Variant>
AV-unprocessed.smi:1918-3

> <Gold.Version>
5.8.1

> <Gold.Id.Protein>
6NUR|6NUR_protein|mol2

> <Gold.PLP.Fitness>
51.7593

> <Gold.PLP.PLP>
-47.2510

> <Gold.PLP.part.hbond>
-2.0000

> <Gold.PLP.part.metal>
0.0000

> <Gold.PLP.part.buried>
1.4791

> <Gold.PLP.part.nonpolar>
-46.8138

> <Gold.PLP.part.repulsive>
0.0644

> <Gold.PLP.ligand.clash>
0.0000

> <Gold.PLP.ligand.torsion>
0.7542

> <Gold.PLP.Chemscore.Hbond>
2.0000

> <Gold.PLP.Chemscore.CHOScore>
0.0000

> <Gold.PLP.Chemscore.Metal>
0.0000

> <Gold.Chemscore.Hbonds>
donor molecule, donor type, donor heavy atom, donor atom, acceptor molecule, acceptor atom, score
      L1  H     3    36       P1  7948  2.00

> <Gold.PLP.Chemscore.Internal.Correction>
0.0167

> <Gold.Rescore>
     Score         DG    S(hbond)    S(metal)    S(lipo)     H(rot)  DE(clash)    DE(int)     intcor
     15.67     -17.41       0.96        0.00     116.90       1.94       1.21       0.52       ----

> <Gold.Chemscore.Fitness>
15.6723

> <Gold.Chemscore.DG>
-17.4102

> <Gold.Chemscore.ZeroCoef>
-5.4800

> <Gold.Chemscore.Hbond>
0.9619

> <Gold.Chemscore.Metal>
0.0000

> <Gold.Chemscore.Lipo>
116.9001

> <Gold.Chemscore.Internal_Hbond>
0.0000

> <Gold.Chemscore.DEClash>
1.2134

> <Gold.Chemscore.DEInternal>
0.5246

> <Gold.Chemscore.Rot>
1.9375

> <Gold.Chemscore.Internal.Correction>
   9.000000E+99

> <Gold.Chemscore.Hbonds>
donor molecule, donor type, donor heavy atom, donor atom, acceptor molecule, acceptor atom, score
      L1  H     3    36       P1  7948  0.87

> <Gold.Chemscore.Hbond.Weighted>
-3.2128

> <Gold.Chemscore.Metal.Weighted>
-0.0000

> <Gold.Chemscore.Lipo.Weighted>
-13.6773

> <Gold.Chemscore.Internal_Hbond.Weighted>
0.0000

> <Gold.Chemscore.DEClash.Weighted>
1.2134

> <Gold.Chemscore.DEInternal.Weighted>
0.5246

> <Gold.Chemscore.Rot.Weighted>
4.9599

> <Gold.Chemscore.Internal.Correction.Weighted>
   9.000000E+99

> <Gold.Protein.RotatedTorsions>
[ 6907 6896 6895 6894 ] final   91.37 input  -60.11 | X-H torsion
[ 7974 7965 7964 7962 ] final -115.76 input  175.53 | X-H torsion
[ 8008 7997 7996 7995 ] final  -31.37 input   59.86 | X-H torsion
[ 10167 10162 10161 10158 ] final -114.07 input  -65.29 | X-H torsion
[ 10718 10713 10712 10709 ] final   48.70 input   66.30 | X-H torsion
[ 10763 10752 10751 10750 ] final  171.82 input  -60.55 | X-H torsion
[ 11005 11000 10999 10996 ] final  -13.09 input  -57.11 | X-H torsion

> <Gold.Protein.ActiveResidues>
 VAL166  LYS551  ARG553  GLY616  TRP617  ASP618  TYR619  PRO620  LYS621  CYS622 
 ASP623  PHE694  ASN695  SER759  ASP760  ASP761  ALA762  ILE779  LEU786  VAL792 
 PHE793  MET794  SER795  GLU796  ALA797  LYS798  CYS799  TRP800  GLU811  SER814 

> <Gold.Protein.RotatedAtoms>
  152.5449  134.1667  159.8579 H   0  0  0  0  0  0  0  0  0  0  0  0  # atno 6907 bound_to 6896
  151.1680  133.4795  159.2601 H   0  0  0  0  0  0  0  0  0  0  0  0  # atno 6908 bound_to 6896
  151.1304  135.0138  159.8635 H   0  0  0  0  0  0  0  0  0  0  0  0  # atno 6909 bound_to 6896
  145.1047  140.8574  143.3905 H   0  0  0  0  0  0  0  0  0  0  0  0  # atno 7974 bound_to 7965
  154.4216  140.1766  156.1556 H   0  0  0  0  0  0  0  0  0  0  0  0  # atno 8008 bound_to 7997
  155.9880  140.3371  155.6701 H   0  0  0  0  0  0  0  0  0  0  0  0  # atno 8009 bound_to 7997
  155.6411  140.0680  157.2609 H   0  0  0  0  0  0  0  0  0  0  0  0  # atno 8010 bound_to 7997
  140.1050  143.4579  152.1788 H   0  0  0  0  0  0  0  0  0  0  0  0  # atno 10167 bound_to 10162
  157.4713  130.8257  149.7991 H   0  0  0  0  0  0  0  0  0  0  0  0  # atno 10718 bound_to 10713
  154.4174  135.2757  155.1998 H   0  0  0  0  0  0  0  0  0  0  0  0  # atno 10763 bound_to 10752
  154.3958  135.6056  153.5872 H   0  0  0  0  0  0  0  0  0  0  0  0  # atno 10764 bound_to 10752
  152.9832  135.5914  154.4465 H   0  0  0  0  0  0  0  0  0  0  0  0  # atno 10765 bound_to 10752
  140.7725  133.8427  155.9219 H   0  0  0  0  0  0  0  0  0  0  0  0  # atno 11005 bound_to 11000
  145.0916  139.2886  143.5732 LP  0  0  0  0  0  0  0  0  0  0  0  0  # atno 17320 bound_to 7965
  146.3528  140.0454  142.8640 LP  0  0  0  0  0  0  0  0  0  0  0  0  # atno 17321 bound_to 7965
  139.5650  144.7430  151.4047 LP  0  0  0  0  0  0  0  0  0  0  0  0  # atno 17342 bound_to 10162
  140.6957  143.7755  150.7323 LP  0  0  0  0  0  0  0  0  0  0  0  0  # atno 17343 bound_to 10162
  156.0075  130.3849  150.2380 LP  0  0  0  0  0  0  0  0  0  0  0  0  # atno 17370 bound_to 10713
  157.0563  131.0077  151.3237 LP  0  0  0  0  0  0  0  0  0  0  0  0  # atno 17371 bound_to 10713
  140.9560  134.1717  157.4691 LP  0  0  0  0  0  0  0  0  0  0  0  0  # atno 17394 bound_to 11000
  139.8754  134.9927  156.5609 LP  0  0  0  0  0  0  0  0  0  0  0  0  # atno 17395 bound_to 11000

$$$$
