#       Name:                AV-unprocessed.smi:460
#       Creating user name   scv26
#       Creation time:       Thu Mar 26 23:03:33 2020


#       File generated by GOLD software.
#

@<TRIPOS>MOLECULE
AV-unprocessed.smi:460
    53    55     1
SMALL
NO_CHARGES


@<TRIPOS>ATOM
      1 ****        -0.7592   1.4803  -3.9824 C.3            1 S1                 0.0000
      2 ****        -1.0932   2.3584  -2.7681 C.3            1 S1                 0.0000
      3 ****        -0.6361   1.7618  -1.4236 C.3            1 S1                 0.0000
      4 ****        -0.8808   2.7121  -0.4084 O.3            1 S1                 0.0000
      5 ****        -1.3148   0.4569  -1.1320 C.2            1 S1                 0.0000
      6 ****        -2.6042   0.3107  -0.7127 N.pl3          1 S1                 1.0000
      7 ****        -2.8951  -1.0414  -0.5336 C.ar           1 S1                 0.0000
      8 ****        -4.0611  -1.6750  -0.1153 C.ar           1 S1                 0.0000
      9 ****        -4.0213  -3.0824  -0.0323 C.ar           1 S1                 0.0000
     10 ****        -2.8545  -3.8043  -0.3578 C.ar           1 S1                 0.0000
     11 ****        -1.6788  -3.1503  -0.7821 C.ar           1 S1                 0.0000
     12 ****        -1.7276  -1.7589  -0.8638 C.ar           1 S1                 0.0000
     13 ****        -0.7823  -0.7966  -1.2356 N.pl3          1 S1                 0.0000
     14 ****         0.5634  -1.2347  -1.6353 C.3            1 S1                 0.0000
     15 ****         1.4930  -1.4085  -0.4266 C.3            1 S1                 0.0000
     16 ****         1.5076  -0.1966   0.3158 O.3            1 S1                 0.0000
     17 ****         2.2236  -0.1480   1.4926 C.ar           1 S1                 0.0000
     18 ****         3.0233  -1.2166   1.9705 C.ar           1 S1                 0.0000
     19 ****         3.7273  -1.0939   3.1820 C.ar           1 S1                 0.0000
     20 ****         3.6407   0.0942   3.9274 C.ar           1 S1                 0.0000
     21 ****         2.8506   1.1607   3.4615 C.ar           1 S1                 0.0000
     22 ****         2.1365   1.0483   2.2415 C.ar           1 S1                 0.0000
     23 ****         1.3407   2.0511   1.7262 O.3            1 S1                 0.0000
     24 ****         1.2383   3.2681   2.4507 C.3            1 S1                 0.0000
     25 ****        -1.0689   1.9672  -4.9073 H              1 S1                 0.0000
     26 ****        -1.2655   0.5160  -3.9340 H              1 S1                 0.0000
     27 ****         0.3130   1.2946  -4.0495 H              1 S1                 0.0000
     28 ****        -0.6186   3.3306  -2.9078 H              1 S1                 0.0000
     29 ****        -2.1674   2.5466  -2.7449 H              1 S1                 0.0000
     30 ****         0.4422   1.6060  -1.4506 H              1 S1                 0.0000
     31 ****        -0.4555   2.4180   0.3834 H              1 S1                 0.0000
     32 ****        -4.9550  -1.1235   0.1372 H              1 S1                 0.0000
     33 ****        -4.9026  -3.6186   0.2891 H              1 S1                 0.0000
     34 ****        -2.8606  -4.8819  -0.2802 H              1 S1                 0.0000
     35 ****        -0.7900  -3.7128  -1.0265 H              1 S1                 0.0000
     36 ****         0.4847  -2.1586  -2.2088 H              1 S1                 0.0000
     37 ****         0.9703  -0.4878  -2.3166 H              1 S1                 0.0000
     38 ****         1.1331  -2.2287   0.1966 H              1 S1                 0.0000
     39 ****         2.4981  -1.6579  -0.7695 H              1 S1                 0.0000
     40 ****         3.1155  -2.1426   1.4238 H              1 S1                 0.0000
     41 ****         4.3350  -1.9123   3.5390 H              1 S1                 0.0000
     42 ****         4.1810   0.1885   4.8579 H              1 S1                 0.0000
     43 ****         2.8084   2.0569   4.0615 H              1 S1                 0.0000
     44 ****         0.5830   3.9525   1.9125 H              1 S1                 0.0000
     45 ****         2.2091   3.7547   2.5532 H              1 S1                 0.0000
     46 ****         0.8064   3.1083   3.4395 H              1 S1                 0.0000
     47 ****        -3.2330   1.0875  -0.5543 H              1 S1                 0.0000
     48 ****        -1.8651   2.7945  -0.2528 LP             1 S1                 0.0000
     49 ****        -0.5109   3.6004  -0.6808 LP             1 S1                 0.0000
     50 ****         0.5580   0.0222   0.5401 LP             1 S1                 0.0000
     51 ****         1.8799   0.5114  -0.2844 LP             1 S1                 0.0000
     52 ****         0.4163   1.6800   1.6385 LP             1 S1                 0.0000
     53 ****         1.6972   2.2755   0.8192 LP             1 S1                 0.0000
@<TRIPOS>BOND
    1    1    2 1     
    2    1   25 1     
    3    1   26 1     
    4    1   27 1     
    5    2    3 1     
    6    2   28 1     
    7    2   29 1     
    8    3    4 1     
    9    3    5 1     
   10    3   30 1     
   11    4   31 1     
   12    5   13 1     
   13    5    6 2     
   14    6    7 1     
   15    6   47 1     
   16    7   12 ar    
   17    7    8 ar    
   18    8    9 ar    
   19    8   32 1     
   20    9   10 ar    
   21    9   33 1     
   22   10   11 ar    
   23   10   34 1     
   24   11   12 ar    
   25   11   35 1     
   26   12   13 1     
   27   13   14 1     
   28   14   15 1     
   29   14   36 1     
   30   14   37 1     
   31   15   16 1     
   32   15   38 1     
   33   15   39 1     
   34   16   17 1     
   35   17   22 ar    
   36   17   18 ar    
   37   18   19 ar    
   38   18   40 1     
   39   19   20 ar    
   40   19   41 1     
   41   20   21 ar    
   42   20   42 1     
   43   21   22 ar    
   44   21   43 1     
   45   22   23 1     
   46   23   24 1     
   47   24   44 1     
   48   24   45 1     
   49   24   46 1     
   50    4   48 1     
   51    4   49 1     
   52   16   50 1     
   53   16   51 1     
   54   23   52 1     
   55   23   53 1     
@<TRIPOS>SUBSTRUCTURE
      1 S1             1
@<TRIPOS>SET
LONE_PAIRS      STATIC     ATOMS    <user>   **** ""
6 48 49 50 51 52 53
DONOR_HYDROGENS      STATIC     ATOMS    <user>   **** ""
2 31 47
ATOM$BLUE        STATIC     ATOMS    COLORGROUP SYSTEM
6 48 49 50 51 52 53
ATOM$RED        STATIC     ATOMS    COLORGROUP SYSTEM
2 31 47
