AV-unprocessed.smi:3032|AV-procd|sdf|11563|dock10
  -GOLD-   2272016533D 1   1.00000     0.00000
 Structure written by MMmdl.
 37 38  0  0  0  0  0  0  0  0  1 V2000
  152.7167  143.0938  162.0214 C   0  0  0  0  0  0  0  0  0  0  0  0
  152.6619  143.4707  160.5341 C   0  0  2  0  0  0  0  0  0  0  0  0
  152.1301  144.9034  160.3357 C   0  0  0  0  0  0  0  0  0  0  0  0
  152.0673  145.2813  158.8473 C   0  0  0  0  0  0  0  0  0  0  0  0
  151.2264  144.2711  158.0517 C   0  0  0  0  0  0  0  0  0  0  0  0
  151.7622  142.8359  158.2307 C   0  0  2  0  0  0  0  0  0  0  0  0
  150.9083  141.8354  157.4411 C   0  0  0  0  0  0  0  0  0  0  0  0
  151.2087  140.6413  157.4186 O   0  0  0  0  0  0  0  0  0  0  0  0
  149.8370  142.3352  156.8068 N   0  0  0  0  0  0  0  0  0  0  0  0
  148.8624  141.5479  156.0580 C   0  0  0  0  0  0  0  0  0  0  0  0
  149.4841  140.8078  154.8562 C   0  0  0  0  0  0  0  0  0  0  0  0
  148.5104  139.9513  154.1099 C   0  0  0  0  0  0  0  0  0  0  0  0
  148.7658  138.6627  153.8771 N   0  0  0  0  0  0  0  0  0  0  0  0
  147.6838  138.2845  153.1628 N   0  0  0  0  0  0  0  0  0  0  0  0
  146.8818  139.3367  153.0091 C   0  0  0  0  0  0  0  0  0  0  0  0
  147.3454  140.4394  153.5814 N   0  0  0  0  0  0  0  0  0  0  0  0
  151.8146  142.4657  159.7288 C   0  0  0  0  0  0  0  0  0  0  0  0
  151.7236  143.1107  162.4717 H   0  0  0  0  0  0  0  0  0  0  0  0
  153.3471  143.7869  162.5790 H   0  0  0  0  0  0  0  0  0  0  0  0
  153.1272  142.0931  162.1580 H   0  0  0  0  0  0  0  0  0  0  0  0
  153.6821  143.4344  160.1491 H   0  0  0  0  0  0  0  0  0  0  0  0
  151.1347  144.9912  160.7737 H   0  0  0  0  0  0  0  0  0  0  0  0
  152.7641  145.6146  160.8664 H   0  0  0  0  0  0  0  0  0  0  0  0
  151.6490  146.2821  158.7360 H   0  0  0  0  0  0  0  0  0  0  0  0
  153.0769  145.3210  158.4364 H   0  0  0  0  0  0  0  0  0  0  0  0
  150.1876  144.3298  158.3807 H   0  0  0  0  0  0  0  0  0  0  0  0
  151.2314  144.5450  156.9956 H   0  0  0  0  0  0  0  0  0  0  0  0
  152.7802  142.8024  157.8377 H   0  0  0  0  0  0  0  0  0  0  0  0
  149.6642  143.3276  156.8777 H   0  0  0  0  0  0  0  0  0  0  0  0
  148.4311  140.8208  156.7465 H   0  0  0  0  0  0  0  0  0  0  0  0
  148.0397  142.1837  155.7274 H   0  0  0  0  0  0  0  0  0  0  0  0
  149.9214  141.5319  154.1678 H   0  0  0  0  0  0  0  0  0  0  0  0
  150.3099  140.1816  155.1960 H   0  0  0  0  0  0  0  0  0  0  0  0
  145.9475  139.2970  152.4688 H   0  0  0  0  0  0  0  0  0  0  0  0
  152.2274  141.4626  159.8459 H   0  0  0  0  0  0  0  0  0  0  0  0
  150.8050  142.4325  160.1421 H   0  0  0  0  0  0  0  0  0  0  0  0
  147.5474  137.3453  152.8169 H   0  0  0  0  0  0  0  0  0  0  0  0
  1  2  1  0  0  0  0
  1 18  1  0  0  0  0
  1 19  1  0  0  0  0
  1 20  1  0  0  0  0
  2 17  1  0  0  0  0
  2  3  1  0  0  0  0
  2 21  1  0  0  0  0
  3  4  1  0  0  0  0
  3 22  1  0  0  0  0
  3 23  1  0  0  0  0
  4  5  1  0  0  0  0
  4 24  1  0  0  0  0
  4 25  1  0  0  0  0
  5  6  1  0  0  0  0
  5 26  1  0  0  0  0
  5 27  1  0  0  0  0
  6  7  1  0  0  0  0
  6 17  1  0  0  0  0
  6 28  1  0  0  0  0
  7  8  2  0  0  0  0
  7  9  1  0  0  0  0
  9 10  1  0  0  0  0
  9 29  1  0  0  0  0
 10 11  1  0  0  0  0
 10 30  1  0  0  0  0
 10 31  1  0  0  0  0
 11 32  1  0  0  0  0
 11 33  1  0  0  0  0
 11 12  1  0  0  0  0
 12 16  1  0  0  0  0
 12 13  2  0  0  0  0
 13 14  1  0  0  0  0
 14 15  1  0  0  0  0
 14 37  1  0  0  0  0
 15 16  2  0  0  0  0
 15 34  1  0  0  0  0
 17 35  1  0  0  0  0
 17 36  1  0  0  0  0
M  END
> <s_m_source_file>
AV-unprocessed.smi

> <i_m_source_file_index>
3032

> <i_lp_mmshare_version>
43012

> <i_f3d_flags>
0

> <s_epik_input>
W0NIM11bQ0BASF0xW0NIMl1bQ0gyXVtDSDJdW0NASF0oW0NIMl0xKUMoPU8pW05IXVtDSDJdW0NIMl1jMm5uW2NIXVtuSF0y

> <s_epik_cmdline>
J2VwaWtfcHl0aG9uJywgJy1waCcsICc3LjAnLCAnLXRuJywgJzgnLCAnLW1hJywgJzIwMCcsICctbWV0YWxfYmluZGluZycsICctaW1hZScsICc8aW5maWxlLm1hZT4nLCAnLW9tYWUnLCAnPG91dGZpbGUubWFlPic=

> <r_epik_Ionization_Penalty>
0.000752022

> <r_epik_Ionization_Penalty_Charging>
0

> <r_epik_Ionization_Penalty_Neutral>
0.000752022

> <r_epik_State_Penalty>
0.639926

> <r_epik_Charging_Adjusted_Penalty>
0.639926

> <i_epik_Tot_Q>
0

> <i_epik_Tot_abs_Q>
0

> <r_epik_Metal_State_Penalty>
0.76532

> <b_epik_Metal_Only>
0

> <s_lp_Force_Field>
OPLS_2005

> <r_lp_Energy>
8.90132

> <b_lp_Chiralities_Consistent>
1

> <s_lp_Variant>
AV-unprocessed.smi:3032-7

> <Gold.Version>
5.8.1

> <Gold.Id.Protein>
6NUR|6NUR_protein|mol2

> <Gold.PLP.Fitness>
42.8286

> <Gold.PLP.PLP>
-38.3623

> <Gold.PLP.part.hbond>
-2.5026

> <Gold.PLP.part.metal>
0.0000

> <Gold.PLP.part.buried>
-4.8958

> <Gold.PLP.part.nonpolar>
-32.6782

> <Gold.PLP.part.repulsive>
0.9203

> <Gold.PLP.ligand.clash>
2.2099

> <Gold.PLP.ligand.torsion>
0.0439

> <Gold.PLP.Chemscore.Hbond>
1.2480

> <Gold.PLP.Chemscore.CHOScore>
1.0000

> <Gold.PLP.Chemscore.Metal>
0.0000

> <Gold.Chemscore.Hbonds>
donor molecule, donor type, donor heavy atom, donor atom, acceptor molecule, acceptor atom, score
      L1  H     9    29       P1  8028  0.72
      L1  H    14    37       P1  7948  0.50
      L1  C    15    34       P1 10175  0.96

> <Gold.PLP.Chemscore.Internal.Correction>
0.0199

> <Gold.Rescore>
     Score         DG    S(hbond)    S(metal)    S(lipo)     H(rot)  DE(clash)    DE(int)     intcor
     15.47     -15.70       1.43        0.00      95.74       2.25       0.11       0.12       ----

> <Gold.Chemscore.Fitness>
15.4671

> <Gold.Chemscore.DG>
-15.6963

> <Gold.Chemscore.ZeroCoef>
-5.4800

> <Gold.Chemscore.Hbond>
1.4297

> <Gold.Chemscore.Metal>
0.0000

> <Gold.Chemscore.Lipo>
95.7402

> <Gold.Chemscore.Internal_Hbond>
0.0000

> <Gold.Chemscore.DEClash>
0.1112

> <Gold.Chemscore.DEInternal>
0.1181

> <Gold.Chemscore.Rot>
2.2501

> <Gold.Chemscore.Internal.Correction>
   9.000000E+99

> <Gold.Chemscore.Hbonds>
donor molecule, donor type, donor heavy atom, donor atom, acceptor molecule, acceptor atom, score
      L1  H     9    29       P1  8028  0.69
      L1  H    14    37       P1  7948  0.47

> <Gold.Chemscore.Hbond.Weighted>
-4.7751

> <Gold.Chemscore.Metal.Weighted>
-0.0000

> <Gold.Chemscore.Lipo.Weighted>
-11.2016

> <Gold.Chemscore.Internal_Hbond.Weighted>
0.0000

> <Gold.Chemscore.DEClash.Weighted>
0.1112

> <Gold.Chemscore.DEInternal.Weighted>
0.1181

> <Gold.Chemscore.Rot.Weighted>
5.7603

> <Gold.Chemscore.Internal.Correction.Weighted>
   9.000000E+99

> <Gold.Protein.RotatedTorsions>
[ 6907 6896 6895 6894 ] final -175.84 input  -60.11 | X-H torsion
[ 7974 7965 7964 7962 ] final   64.86 input  175.53 | X-H torsion
[ 8008 7997 7996 7995 ] final  -36.01 input   59.86 | X-H torsion
[ 10167 10162 10161 10158 ] final  150.05 input  -65.29 | X-H torsion
[ 10718 10713 10712 10709 ] final  -52.09 input   66.30 | X-H torsion
[ 10763 10752 10751 10750 ] final  121.02 input  -60.55 | X-H torsion
[ 11005 11000 10999 10996 ] final   88.73 input  -57.11 | X-H torsion

> <Gold.Protein.ActiveResidues>
 VAL166  LYS551  ARG553  GLY616  TRP617  ASP618  TYR619  PRO620  LYS621  CYS622 
 ASP623  PHE694  ASN695  SER759  ASP760  ASP761  ALA762  ILE779  LEU786  VAL792 
 PHE793  MET794  SER795  GLU796  ALA797  LYS798  CYS799  TRP800  GLU811  SER814 

> <Gold.Protein.RotatedAtoms>
  151.5951  133.3362  159.3035 H   0  0  0  0  0  0  0  0  0  0  0  0  # atno 6907 bound_to 6896
  150.8238  134.7463  159.6807 H   0  0  0  0  0  0  0  0  0  0  0  0  # atno 6908 bound_to 6896
  152.4330  134.5747  159.9983 H   0  0  0  0  0  0  0  0  0  0  0  0  # atno 6909 bound_to 6896
  145.8452  139.3220  143.0908 H   0  0  0  0  0  0  0  0  0  0  0  0  # atno 7974 bound_to 7965
  154.4082  140.1642  156.2305 H   0  0  0  0  0  0  0  0  0  0  0  0  # atno 8008 bound_to 7997
  155.9286  140.3416  155.6208 H   0  0  0  0  0  0  0  0  0  0  0  0  # atno 8009 bound_to 7997
  155.7134  140.0759  157.2352 H   0  0  0  0  0  0  0  0  0  0  0  0  # atno 8010 bound_to 7997
  139.4854  144.5553  151.7328 H   0  0  0  0  0  0  0  0  0  0  0  0  # atno 10167 bound_to 10162
  156.1652  130.4149  149.9731 H   0  0  0  0  0  0  0  0  0  0  0  0  # atno 10718 bound_to 10713
  153.6075  135.3436  155.2967 H   0  0  0  0  0  0  0  0  0  0  0  0  # atno 10763 bound_to 10752
  154.8625  135.4242  154.2345 H   0  0  0  0  0  0  0  0  0  0  0  0  # atno 10764 bound_to 10752
  153.3188  135.7037  153.7121 H   0  0  0  0  0  0  0  0  0  0  0  0  # atno 10765 bound_to 10752
  139.8890  134.8507  156.3042 H   0  0  0  0  0  0  0  0  0  0  0  0  # atno 11005 bound_to 11000
  145.9420  140.8972  143.0303 LP  0  0  0  0  0  0  0  0  0  0  0  0  # atno 17320 bound_to 7965
  144.6731  140.1562  143.7426 LP  0  0  0  0  0  0  0  0  0  0  0  0  # atno 17321 bound_to 7965
  140.5114  144.1020  150.5996 LP  0  0  0  0  0  0  0  0  0  0  0  0  # atno 17342 bound_to 10162
  140.3946  143.2734  152.0019 LP  0  0  0  0  0  0  0  0  0  0  0  0  # atno 17343 bound_to 10162
  156.7549  130.9129  151.3639 LP  0  0  0  0  0  0  0  0  0  0  0  0  # atno 17370 bound_to 10713
  157.6762  130.9097  150.0157 LP  0  0  0  0  0  0  0  0  0  0  0  0  # atno 17371 bound_to 10713
  140.9893  133.7219  156.0789 LP  0  0  0  0  0  0  0  0  0  0  0  0  # atno 17394 bound_to 11000
  140.7646  134.3900  157.5519 LP  0  0  0  0  0  0  0  0  0  0  0  0  # atno 17395 bound_to 11000

$$$$
