AV-unprocessed.smi:243|AV-procd|sdf|1858|dock2
  -GOLD-   2262020483D 1   1.00000     0.00000
 Structure written by MMmdl.
 58 61  0  0  0  0  0  0  0  0  2 V2000
  147.0973  128.1840  151.8306 C   0  0  0  0  0  0  0  0  0  0  0  0
  146.0140  129.2564  152.0172 C   0  0  0  0  0  0  0  0  0  0  0  0
  146.5449  130.6357  151.8711 N   0  3  2  0  0  0  0  0  0  0  0  0
  147.2352  131.1005  153.1014 C   0  0  0  0  0  0  0  0  0  0  0  0
  147.8822  132.4860  152.9112 C   0  0  0  0  0  0  0  0  0  0  0  0
  146.9456  133.5526  152.3053 C   0  0  2  0  0  0  0  0  0  0  0  0
  146.1260  134.2593  153.3067 N   0  0  0  0  0  0  0  0  0  0  0  0
  144.6791  134.0971  153.4362 C   0  0  0  0  0  0  0  0  0  0  0  0
  146.6651  135.3658  153.8814 C   0  0  0  0  0  0  0  0  0  0  0  0
  146.1077  136.5797  153.6279 N   0  0  0  0  0  0  0  0  0  0  0  0
  146.6299  137.6872  154.1624 C   0  0  0  0  0  0  0  0  0  0  0  0
  147.6864  137.8062  154.9683 N   0  0  0  0  0  0  0  0  0  0  0  0
  148.2409  136.5907  155.2414 C   0  0  0  0  0  0  0  0  0  0  0  0
  147.7977  135.3322  154.7446 C   0  0  0  0  0  0  0  0  0  0  0  0
  148.6040  134.3166  155.2455 N   0  0  0  0  0  0  0  0  0  0  0  0
  149.4807  134.9402  155.9842 C   0  0  0  0  0  0  0  0  0  0  0  0
  149.3330  136.3078  156.0436 N   0  0  0  0  0  0  0  0  0  0  0  0
  150.1678  137.2430  156.7829 C   0  0  0  0  0  0  0  0  0  0  0  0
  151.5505  137.4905  156.1345 C   0  0  1  0  0  0  0  0  0  0  0  0
  152.2981  136.2864  156.1656 O   0  0  0  0  0  0  0  0  0  0  0  0
  151.4487  137.9509  154.6850 C   0  0  0  0  0  0  0  0  0  0  0  0
  152.6949  138.8090  154.5142 C   0  0  0  0  0  0  0  0  0  0  0  0
  152.7752  139.4949  155.7517 O   0  0  0  0  0  0  0  0  0  0  0  0
  152.3894  138.6053  156.7953 C   0  0  0  0  0  0  0  0  0  0  0  0
  146.1642  132.9783  151.0976 C   0  0  2  0  0  0  0  0  0  0  0  0
  145.1717  133.9730  150.4715 C   0  0  0  0  0  0  0  0  0  0  0  0
  145.5235  131.6111  151.4061 C   0  0  0  0  0  0  0  0  0  0  0  0
  146.6938  127.1933  152.0417 H   0  0  0  0  0  0  0  0  0  0  0  0
  147.9360  128.3487  152.5080 H   0  0  0  0  0  0  0  0  0  0  0  0
  147.4846  128.1623  150.8125 H   0  0  0  0  0  0  0  0  0  0  0  0
  145.1881  129.0970  151.3224 H   0  0  0  0  0  0  0  0  0  0  0  0
  145.6006  129.1354  153.0194 H   0  0  0  0  0  0  0  0  0  0  0  0
  146.5426  131.0931  153.9402 H   0  0  0  0  0  0  0  0  0  0  0  0
  148.0200  130.3888  153.3611 H   0  0  0  0  0  0  0  0  0  0  0  0
  148.3074  132.8410  153.8510 H   0  0  0  0  0  0  0  0  0  0  0  0
  148.7288  132.3632  152.2346 H   0  0  0  0  0  0  0  0  0  0  0  0
  147.6081  134.2967  151.8641 H   0  0  0  0  0  0  0  0  0  0  0  0
  144.3427  134.4252  154.4208 H   0  0  0  0  0  0  0  0  0  0  0  0
  144.3701  133.0625  153.3300 H   0  0  0  0  0  0  0  0  0  0  0  0
  144.1531  134.6899  152.6880 H   0  0  0  0  0  0  0  0  0  0  0  0
  146.1305  138.6102  153.9069 H   0  0  0  0  0  0  0  0  0  0  0  0
  150.2628  134.4156  156.5136 H   0  0  0  0  0  0  0  0  0  0  0  0
  149.6226  138.1829  156.8794 H   0  0  0  0  0  0  0  0  0  0  0  0
  150.2935  136.8599  157.7965 H   0  0  0  0  0  0  0  0  0  0  0  0
  151.8753  135.6873  156.7620 H   0  0  0  0  0  0  0  0  0  0  0  0
  151.3878  137.1329  153.9656 H   0  0  0  0  0  0  0  0  0  0  0  0
  150.5667  138.5781  154.5477 H   0  0  0  0  0  0  0  0  0  0  0  0
  153.5833  138.1901  154.3783 H   0  0  0  0  0  0  0  0  0  0  0  0
  152.6216  139.5001  153.6743 H   0  0  0  0  0  0  0  0  0  0  0  0
  151.8232  139.1732  157.5323 H   0  0  0  0  0  0  0  0  0  0  0  0
  153.2757  138.2129  157.2965 H   0  0  0  0  0  0  0  0  0  0  0  0
  146.9111  132.7865  150.3253 H   0  0  0  0  0  0  0  0  0  0  0  0
  144.3294  134.1782  151.1316 H   0  0  0  0  0  0  0  0  0  0  0  0
  144.7664  133.5834  149.5373 H   0  0  0  0  0  0  0  0  0  0  0  0
  145.6577  134.9230  150.2469 H   0  0  0  0  0  0  0  0  0  0  0  0
  145.0505  131.2407  150.4974 H   0  0  0  0  0  0  0  0  0  0  0  0
  144.7302  131.7012  152.1473 H   0  0  0  0  0  0  0  0  0  0  0  0
  147.2543  130.5925  151.1533 H   0  0  0  0  0  0  0  0  0  0  0  0
  1  2  1  0  0  0  0
  1 28  1  0  0  0  0
  1 29  1  0  0  0  0
  1 30  1  0  0  0  0
  2  3  1  0  0  0  0
  2 31  1  0  0  0  0
  2 32  1  0  0  0  0
  3 27  1  0  0  0  0
  3  4  1  0  0  0  0
  3 58  1  0  0  0  0
  4  5  1  0  0  0  0
  4 33  1  0  0  0  0
  4 34  1  0  0  0  0
  5  6  1  0  0  0  0
  5 35  1  0  0  0  0
  5 36  1  0  0  0  0
  6  7  1  0  0  0  0
  6 25  1  0  0  0  0
  6 37  1  0  0  0  0
  7  8  1  0  0  0  0
  7  9  1  0  0  0  0
  8 38  1  0  0  0  0
  8 39  1  0  0  0  0
  8 40  1  0  0  0  0
  9 14  1  0  0  0  0
  9 10  2  0  0  0  0
 10 11  1  0  0  0  0
 11 12  2  0  0  0  0
 11 41  1  0  0  0  0
 12 13  1  0  0  0  0
 13 17  1  0  0  0  0
 13 14  2  0  0  0  0
 14 15  1  0  0  0  0
 15 16  2  0  0  0  0
 16 17  1  0  0  0  0
 16 42  1  0  0  0  0
 17 18  1  0  0  0  0
 18 19  1  0  0  0  0
 18 43  1  0  0  0  0
 18 44  1  0  0  0  0
 19 24  1  0  0  0  0
 19 20  1  0  0  0  0
 19 21  1  0  0  0  0
 20 45  1  0  0  0  0
 21 22  1  0  0  0  0
 21 46  1  0  0  0  0
 21 47  1  0  0  0  0
 22 23  1  0  0  0  0
 22 48  1  0  0  0  0
 22 49  1  0  0  0  0
 23 24  1  0  0  0  0
 24 50  1  0  0  0  0
 24 51  1  0  0  0  0
 25 26  1  0  0  0  0
 25 27  1  0  0  0  0
 25 52  1  0  0  0  0
 26 53  1  0  0  0  0
 26 54  1  0  0  0  0
 26 55  1  0  0  0  0
 27 56  1  0  0  0  0
 27 57  1  0  0  0  0
M  CHG  1   3   1
M  END
> <s_m_source_file>
AV-unprocessed.smi

> <i_m_source_file_index>
243

> <i_lp_mmshare_version>
43012

> <i_f3d_flags>
0

> <s_epik_input>
W0NIM11bQ0gyXU4xW0NIMl1bQ0gyXVtDQEhdKFtDQEBIXShbQ0gzXSlbQ0gyXTEpTihbQ0gzXSljKG5bY0hdbjIpYyhjMjMpbltjSF1uM1tDSDJdW0NAQF00KFtPSF0pW0NIMl1bQ0gyXU9bQ0gyXTQ=

> <s_epik_cmdline>
J2VwaWtfcHl0aG9uJywgJy1waCcsICc3LjAnLCAnLXRuJywgJzgnLCAnLW1hJywgJzIwMCcsICctbWV0YWxfYmluZGluZycsICctaW1hZScsICc8aW5maWxlLm1hZT4nLCAnLW9tYWUnLCAnPG91dGZpbGUubWFlPic=

> <r_lp_tautomer_probability>
1

> <r_epik_Ionization_Penalty>
0.00253099

> <r_epik_Ionization_Penalty_Charging>
0.00137877

> <r_epik_Ionization_Penalty_Neutral>
0.00115221

> <r_epik_State_Penalty>
-0

> <r_epik_Charging_Adjusted_Penalty>
0.00137877

> <i_epik_Tot_Q>
1

> <i_epik_Tot_abs_Q>
1

> <r_epik_Metal_State_Penalty>
-0

> <b_epik_Metal_Only>
0

> <s_lp_Force_Field>
OPLS_2005

> <r_lp_Energy>
51.0856

> <b_lp_Chiralities_Consistent>
1

> <s_lp_Variant>
AV-unprocessed.smi:243-11

> <Gold.Version>
5.8.1

> <Gold.Id.Protein>
6NUR|6NUR_protein|mol2

> <Gold.PLP.Fitness>
41.5569

> <Gold.PLP.PLP>
-36.1357

> <Gold.PLP.part.hbond>
-2.9137

> <Gold.PLP.part.metal>
0.0000

> <Gold.PLP.part.buried>
-4.0306

> <Gold.PLP.part.nonpolar>
-29.5687

> <Gold.PLP.part.repulsive>
0.2393

> <Gold.PLP.ligand.clash>
0.0000

> <Gold.PLP.ligand.torsion>
2.0509

> <Gold.PLP.Chemscore.Hbond>
3.0000

> <Gold.PLP.Chemscore.CHOScore>
0.0000

> <Gold.PLP.Chemscore.Metal>
0.0000

> <Gold.Chemscore.Hbonds>
donor molecule, donor type, donor heavy atom, donor atom, acceptor molecule, acceptor atom, score
      L1  H     3    58       P1 10747  1.00
      P1  H  7997  8008       L1    23  1.00
      P1  H 10752 10764       L1    20  1.00

> <Gold.PLP.Chemscore.Internal.Correction>
0.5229

> <Gold.Rescore>
     Score         DG    S(hbond)    S(metal)    S(lipo)     H(rot)  DE(clash)    DE(int)     intcor
     17.55     -20.00       2.74        0.00      94.71       2.24       0.29       2.16       ----

> <Gold.Chemscore.Fitness>
17.5519

> <Gold.Chemscore.DG>
-19.9976

> <Gold.Chemscore.ZeroCoef>
-5.4800

> <Gold.Chemscore.Hbond>
2.7442

> <Gold.Chemscore.Metal>
0.0000

> <Gold.Chemscore.Lipo>
94.7089

> <Gold.Chemscore.Internal_Hbond>
0.0000

> <Gold.Chemscore.DEClash>
0.2888

> <Gold.Chemscore.DEInternal>
2.1570

> <Gold.Chemscore.Rot>
2.2379

> <Gold.Chemscore.Internal.Correction>
   9.000000E+99

> <Gold.Chemscore.Hbonds>
donor molecule, donor type, donor heavy atom, donor atom, acceptor molecule, acceptor atom, score
      L1  H     3    58       P1 10747  0.99
      P1  H  7997  8008       L1    23  0.39
      P1  H 10752 10764       L1    20  0.64

> <Gold.Chemscore.Hbond.Weighted>
-9.1657

> <Gold.Chemscore.Metal.Weighted>
-0.0000

> <Gold.Chemscore.Lipo.Weighted>
-11.0809

> <Gold.Chemscore.Internal_Hbond.Weighted>
0.0000

> <Gold.Chemscore.DEClash.Weighted>
0.2888

> <Gold.Chemscore.DEInternal.Weighted>
2.1570

> <Gold.Chemscore.Rot.Weighted>
5.7291

> <Gold.Chemscore.Internal.Correction.Weighted>
   9.000000E+99

> <Gold.Protein.RotatedTorsions>
[ 6907 6896 6895 6894 ] final   -3.01 input  -60.11 | X-H torsion
[ 7974 7965 7964 7962 ] final   63.55 input  175.53 | X-H torsion
[ 8008 7997 7996 7995 ] final  -43.06 input   59.86 | X-H torsion
[ 10167 10162 10161 10158 ] final -122.84 input  -65.29 | X-H torsion
[ 10718 10713 10712 10709 ] final  -44.84 input   66.30 | X-H torsion
[ 10763 10752 10751 10750 ] final  -12.00 input  -60.55 | X-H torsion
[ 11005 11000 10999 10996 ] final -141.92 input  -57.11 | X-H torsion

> <Gold.Protein.ActiveResidues>
 VAL166  LYS551  ARG553  GLY616  TRP617  ASP618  TYR619  PRO620  LYS621  CYS622 
 ASP623  PHE694  ASN695  SER759  ASP760  ASP761  ALA762  ILE779  LEU786  VAL792 
 PHE793  MET794  SER795  GLU796  ALA797  LYS798  CYS799  TRP800  GLU811  SER814 

> <Gold.Protein.RotatedAtoms>
  151.5206  135.1067  159.9877 H   0  0  0  0  0  0  0  0  0  0  0  0  # atno 6907 bound_to 6896
  152.4622  133.7842  159.6877 H   0  0  0  0  0  0  0  0  0  0  0  0  # atno 6908 bound_to 6896
  150.8589  133.7609  159.3024 H   0  0  0  0  0  0  0  0  0  0  0  0  # atno 6909 bound_to 6896
  145.8606  139.3312  143.0821 H   0  0  0  0  0  0  0  0  0  0  0  0  # atno 7974 bound_to 7965
  154.3997  140.1457  156.3458 H   0  0  0  0  0  0  0  0  0  0  0  0  # atno 8008 bound_to 7997
  155.8315  140.3465  155.5554 H   0  0  0  0  0  0  0  0  0  0  0  0  # atno 8009 bound_to 7997
  155.8183  140.0894  157.1854 H   0  0  0  0  0  0  0  0  0  0  0  0  # atno 8010 bound_to 7997
  140.0099  143.5453  152.2267 H   0  0  0  0  0  0  0  0  0  0  0  0  # atno 10167 bound_to 10162
  156.2344  130.4175  149.8835 H   0  0  0  0  0  0  0  0  0  0  0  0  # atno 10718 bound_to 10713
  153.4920  135.7017  153.5879 H   0  0  0  0  0  0  0  0  0  0  0  0  # atno 10763 bound_to 10752
  153.4047  135.3863  155.2011 H   0  0  0  0  0  0  0  0  0  0  0  0  # atno 10764 bound_to 10752
  154.8716  135.3890  154.4382 H   0  0  0  0  0  0  0  0  0  0  0  0  # atno 10765 bound_to 10752
  140.8277  134.2555  157.4871 H   0  0  0  0  0  0  0  0  0  0  0  0  # atno 11005 bound_to 11000
  145.9253  140.9087  143.0384 LP  0  0  0  0  0  0  0  0  0  0  0  0  # atno 17320 bound_to 7965
  144.6726  140.1344  143.7441 LP  0  0  0  0  0  0  0  0  0  0  0  0  # atno 17321 bound_to 7965
  139.6212  144.7629  151.2736 LP  0  0  0  0  0  0  0  0  0  0  0  0  # atno 17342 bound_to 10162
  140.7385  143.6644  150.8135 LP  0  0  0  0  0  0  0  0  0  0  0  0  # atno 17343 bound_to 10162
  156.6438  130.8716  151.3519 LP  0  0  0  0  0  0  0  0  0  0  0  0  # atno 17370 bound_to 10713
  157.7148  130.9483  150.1215 LP  0  0  0  0  0  0  0  0  0  0  0  0  # atno 17371 bound_to 10713
  139.8706  134.9569  156.4253 LP  0  0  0  0  0  0  0  0  0  0  0  0  # atno 17394 bound_to 11000
  140.9032  133.7765  155.9704 LP  0  0  0  0  0  0  0  0  0  0  0  0  # atno 17395 bound_to 11000

$$$$
