AV-unprocessed.smi:573|AV-procd|sdf|2973|dock9
  -GOLD-   2262023483D 1   1.00000     0.00000
 Structure written by MMmdl.
 44 46  0  0  0  0  0  0  0  0  1 V2000
  150.5921  137.1636  155.5050 C   0  0  0  0  0  0  0  0  0  0  0  0
  151.5047  138.1418  154.7548 C   0  0  2  0  0  0  0  0  0  0  0  0
  152.8408  137.7992  155.0598 O   0  0  0  0  0  0  0  0  0  0  0  0
  151.2557  139.5984  155.1826 C   0  0  0  0  0  0  0  0  0  0  0  0
  151.7657  139.8763  156.5136 N   0  0  0  0  0  0  0  0  0  0  0  0
  151.7923  141.0371  157.2780 C   0  0  0  0  0  0  0  0  0  0  0  0
  151.3015  142.2063  156.8706 N   0  0  0  0  0  0  0  0  0  0  0  0
  151.5528  143.0241  157.9564 C   0  0  0  0  0  0  0  0  0  0  0  0
  151.2712  144.3945  158.1572 C   0  0  0  0  0  0  0  0  0  0  0  0
  151.6226  145.0258  159.3683 C   0  0  0  0  0  0  0  0  0  0  0  0
  152.2579  144.2978  160.3952 C   0  0  0  0  0  0  0  0  0  0  0  0
  152.5498  142.9319  160.2158 C   0  0  0  0  0  0  0  0  0  0  0  0
  152.2000  142.3063  159.0040 C   0  0  0  0  0  0  0  0  0  0  0  0
  152.3420  141.0106  158.5151 N   0  0  0  0  0  0  0  0  0  0  0  0
  152.9492  139.8832  159.2087 C   0  0  0  0  0  0  0  0  0  0  0  0
  154.2724  140.2694  159.8902 C   0  0  1  0  0  0  0  0  0  0  0  0
  154.4658  139.5353  161.2309 C   0  0  0  0  0  0  0  0  0  0  0  0
  155.8260  139.8835  161.8467 C   0  0  0  0  0  0  0  0  0  0  0  0
  156.9374  139.6317  160.8219 C   0  0  0  0  0  0  0  0  0  0  0  0
  156.6233  140.3574  159.5041 C   0  0  0  0  0  0  0  0  0  0  0  0
  155.3515  139.9444  159.0151 O   0  0  0  0  0  0  0  0  0  0  0  0
  149.5421  137.3745  155.2996 H   0  0  0  0  0  0  0  0  0  0  0  0
  150.7391  137.2286  156.5837 H   0  0  0  0  0  0  0  0  0  0  0  0
  150.7853  136.1338  155.2027 H   0  0  0  0  0  0  0  0  0  0  0  0
  151.3403  138.0224  153.6831 H   0  0  0  0  0  0  0  0  0  0  0  0
  152.9373  137.7862  155.9998 H   0  0  0  0  0  0  0  0  0  0  0  0
  151.7651  140.2740  154.4945 H   0  0  0  0  0  0  0  0  0  0  0  0
  150.1947  139.8459  155.1344 H   0  0  0  0  0  0  0  0  0  0  0  0
  152.1837  139.0729  156.9594 H   0  0  0  0  0  0  0  0  0  0  0  0
  150.7831  144.9604  157.3778 H   0  0  0  0  0  0  0  0  0  0  0  0
  151.4022  146.0737  159.5106 H   0  0  0  0  0  0  0  0  0  0  0  0
  152.5209  144.7885  161.3210 H   0  0  0  0  0  0  0  0  0  0  0  0
  153.0338  142.3707  161.0013 H   0  0  0  0  0  0  0  0  0  0  0  0
  152.2414  139.4891  159.9386 H   0  0  0  0  0  0  0  0  0  0  0  0
  153.1185  139.0843  158.4862 H   0  0  0  0  0  0  0  0  0  0  0  0
  154.2733  141.3470  160.0651 H   0  0  0  0  0  0  0  0  0  0  0  0
  153.6656  139.7952  161.9245 H   0  0  0  0  0  0  0  0  0  0  0  0
  154.4044  138.4579  161.0719 H   0  0  0  0  0  0  0  0  0  0  0  0
  155.8352  140.9316  162.1489 H   0  0  0  0  0  0  0  0  0  0  0  0
  155.9984  139.2944  162.7478 H   0  0  0  0  0  0  0  0  0  0  0  0
  157.8980  139.9634  161.2169 H   0  0  0  0  0  0  0  0  0  0  0  0
  157.0281  138.5611  160.6346 H   0  0  0  0  0  0  0  0  0  0  0  0
  156.6383  141.4396  159.6408 H   0  0  0  0  0  0  0  0  0  0  0  0
  157.3807  140.1211  158.7567 H   0  0  0  0  0  0  0  0  0  0  0  0
  1  2  1  0  0  0  0
  1 22  1  0  0  0  0
  1 23  1  0  0  0  0
  1 24  1  0  0  0  0
  2  3  1  0  0  0  0
  2  4  1  0  0  0  0
  2 25  1  0  0  0  0
  3 26  1  0  0  0  0
  4  5  1  0  0  0  0
  4 27  1  0  0  0  0
  4 28  1  0  0  0  0
  5  6  1  0  0  0  0
  5 29  1  0  0  0  0
  6 14  1  0  0  0  0
  6  7  2  0  0  0  0
  7  8  1  0  0  0  0
  8 13  2  0  0  0  0
  8  9  1  0  0  0  0
  9 10  2  0  0  0  0
  9 30  1  0  0  0  0
 10 11  1  0  0  0  0
 10 31  1  0  0  0  0
 11 12  2  0  0  0  0
 11 32  1  0  0  0  0
 12 13  1  0  0  0  0
 12 33  1  0  0  0  0
 13 14  1  0  0  0  0
 14 15  1  0  0  0  0
 15 16  1  0  0  0  0
 15 34  1  0  0  0  0
 15 35  1  0  0  0  0
 16 21  1  0  0  0  0
 16 17  1  0  0  0  0
 16 36  1  0  0  0  0
 17 18  1  0  0  0  0
 17 37  1  0  0  0  0
 17 38  1  0  0  0  0
 18 19  1  0  0  0  0
 18 39  1  0  0  0  0
 18 40  1  0  0  0  0
 19 20  1  0  0  0  0
 19 41  1  0  0  0  0
 19 42  1  0  0  0  0
 20 21  1  0  0  0  0
 20 43  1  0  0  0  0
 20 44  1  0  0  0  0
M  END
> <s_m_source_file>
AV-unprocessed.smi

> <i_m_source_file_index>
573

> <i_lp_mmshare_version>
43012

> <i_f3d_flags>
0

> <s_epik_input>
W0NIM11bQ0BIXShbT0hdKVtDSDJdW05IXWMobjEpbihjKGMxMilbY0hdW2NIXVtjSF1bY0hdMilbQ0gyXVtDQEBIXTNbQ0gyXVtDSDJdW0NIMl1bQ0gyXU8z

> <s_epik_cmdline>
J2VwaWtfcHl0aG9uJywgJy1waCcsICc3LjAnLCAnLXRuJywgJzgnLCAnLW1hJywgJzIwMCcsICctbWV0YWxfYmluZGluZycsICctaW1hZScsICc8aW5maWxlLm1hZT4nLCAnLW9tYWUnLCAnPG91dGZpbGUubWFlPic=

> <r_epik_Ionization_Penalty>
1.30635

> <r_epik_Ionization_Penalty_Charging>
0

> <r_epik_Ionization_Penalty_Neutral>
1.30635

> <r_epik_State_Penalty>
1.38073

> <r_epik_Charging_Adjusted_Penalty>
1.38073

> <i_epik_Tot_Q>
0

> <i_epik_Tot_abs_Q>
0

> <r_epik_Metal_State_Penalty>
0.00547412

> <b_epik_Metal_Only>
0

> <s_lp_Force_Field>
OPLS_2005

> <r_lp_Energy>
9.89465

> <b_lp_Chiralities_Consistent>
1

> <s_lp_Variant>
AV-unprocessed.smi:573-7

> <Gold.Version>
5.8.1

> <Gold.Id.Protein>
6NUR|6NUR_protein|mol2

> <Gold.PLP.Fitness>
46.1079

> <Gold.PLP.PLP>
-43.9217

> <Gold.PLP.part.hbond>
-2.0000

> <Gold.PLP.part.metal>
0.0000

> <Gold.PLP.part.buried>
-4.5400

> <Gold.PLP.part.nonpolar>
-36.9035

> <Gold.PLP.part.repulsive>
0.1873

> <Gold.PLP.ligand.clash>
0.0000

> <Gold.PLP.ligand.torsion>
0.7579

> <Gold.PLP.Chemscore.Hbond>
1.2317

> <Gold.PLP.Chemscore.CHOScore>
0.0000

> <Gold.PLP.Chemscore.Metal>
0.0000

> <Gold.Chemscore.Hbonds>
donor molecule, donor type, donor heavy atom, donor atom, acceptor molecule, acceptor atom, score
      P1  H  7997  8008       L1    21  0.99
      P1  H 10752 10764       L1     3  0.16

> <Gold.PLP.Chemscore.Internal.Correction>
0.0070

> <Gold.Rescore>
     Score         DG    S(hbond)    S(metal)    S(lipo)     H(rot)  DE(clash)    DE(int)     intcor
     17.01     -18.02       0.84        0.00     127.36       2.02       0.44       0.57       ----

> <Gold.Chemscore.Fitness>
17.0101

> <Gold.Chemscore.DG>
-18.0204

> <Gold.Chemscore.ZeroCoef>
-5.4800

> <Gold.Chemscore.Hbond>
0.8433

> <Gold.Chemscore.Metal>
0.0000

> <Gold.Chemscore.Lipo>
127.3599

> <Gold.Chemscore.Internal_Hbond>
0.0000

> <Gold.Chemscore.DEClash>
0.4387

> <Gold.Chemscore.DEInternal>
0.5716

> <Gold.Chemscore.Rot>
2.0224

> <Gold.Chemscore.Internal.Correction>
   9.000000E+99

> <Gold.Chemscore.Hbonds>
donor molecule, donor type, donor heavy atom, donor atom, acceptor molecule, acceptor atom, score
      P1  H  7997  8008       L1    21  0.84
      P1  H 10752 10764       L1     3  0.02

> <Gold.Chemscore.Hbond.Weighted>
-2.8166

> <Gold.Chemscore.Metal.Weighted>
-0.0000

> <Gold.Chemscore.Lipo.Weighted>
-14.9011

> <Gold.Chemscore.Internal_Hbond.Weighted>
0.0000

> <Gold.Chemscore.DEClash.Weighted>
0.4387

> <Gold.Chemscore.DEInternal.Weighted>
0.5716

> <Gold.Chemscore.Rot.Weighted>
5.1773

> <Gold.Chemscore.Internal.Correction.Weighted>
   9.000000E+99

> <Gold.Protein.RotatedTorsions>
[ 6907 6896 6895 6894 ] final  -77.74 input  -60.11 | X-H torsion
[ 7974 7965 7964 7962 ] final -163.33 input  175.53 | X-H torsion
[ 8008 7997 7996 7995 ] final -122.57 input   59.86 | X-H torsion
[ 10167 10162 10161 10158 ] final  -96.46 input  -65.29 | X-H torsion
[ 10718 10713 10712 10709 ] final   52.48 input   66.30 | X-H torsion
[ 10763 10752 10751 10750 ] final  -52.94 input  -60.55 | X-H torsion
[ 11005 11000 10999 10996 ] final   -9.12 input  -57.11 | X-H torsion

> <Gold.Protein.ActiveResidues>
 VAL166  LYS551  ARG553  GLY616  TRP617  ASP618  TYR619  PRO620  LYS621  CYS622 
 ASP623  PHE694  ASN695  SER759  ASP760  ASP761  ALA762  ILE779  LEU786  VAL792 
 PHE793  MET794  SER795  GLU796  ALA797  LYS798  CYS799  TRP800  GLU811  SER814 

> <Gold.Protein.RotatedAtoms>
  150.6990  134.4376  159.5277 H   0  0  0  0  0  0  0  0  0  0  0  0  # atno 6907 bound_to 6896
  152.2092  134.8514  160.0508 H   0  0  0  0  0  0  0  0  0  0  0  0  # atno 6908 bound_to 6896
  151.9406  133.3602  159.4000 H   0  0  0  0  0  0  0  0  0  0  0  0  # atno 6909 bound_to 6896
  144.7329  140.3122  143.6186 H   0  0  0  0  0  0  0  0  0  0  0  0  # atno 7974 bound_to 7965
  155.1664  140.0407  157.2853 H   0  0  0  0  0  0  0  0  0  0  0  0  # atno 8008 bound_to 7997
  154.6300  140.2521  155.7418 H   0  0  0  0  0  0  0  0  0  0  0  0  # atno 8009 bound_to 7997
  156.2479  140.2877  156.0647 H   0  0  0  0  0  0  0  0  0  0  0  0  # atno 8010 bound_to 7997
  140.2935  143.3206  152.0321 H   0  0  0  0  0  0  0  0  0  0  0  0  # atno 10167 bound_to 10162
  157.5078  130.8481  149.8397 H   0  0  0  0  0  0  0  0  0  0  0  0  # atno 10718 bound_to 10713
  154.1509  135.6490  153.4963 H   0  0  0  0  0  0  0  0  0  0  0  0  # atno 10763 bound_to 10752
  153.0138  135.5338  154.6809 H   0  0  0  0  0  0  0  0  0  0  0  0  # atno 10764 bound_to 10752
  154.6097  135.2952  155.0417 H   0  0  0  0  0  0  0  0  0  0  0  0  # atno 10765 bound_to 10752
  140.7308  133.8750  155.8891 H   0  0  0  0  0  0  0  0  0  0  0  0  # atno 11005 bound_to 11000
  145.7653  139.1838  143.2243 LP  0  0  0  0  0  0  0  0  0  0  0  0  # atno 17320 bound_to 7965
  146.0954  140.7607  142.9575 LP  0  0  0  0  0  0  0  0  0  0  0  0  # atno 17321 bound_to 7965
  139.4932  144.6507  151.6681 LP  0  0  0  0  0  0  0  0  0  0  0  0  # atno 17342 bound_to 10162
  140.5712  144.0106  150.6217 LP  0  0  0  0  0  0  0  0  0  0  0  0  # atno 17343 bound_to 10162
  156.0269  130.3776  150.1796 LP  0  0  0  0  0  0  0  0  0  0  0  0  # atno 17370 bound_to 10713
  156.9986  130.9915  151.3397 LP  0  0  0  0  0  0  0  0  0  0  0  0  # atno 17371 bound_to 10713
  140.9922  134.1263  157.4397 LP  0  0  0  0  0  0  0  0  0  0  0  0  # atno 17394 bound_to 11000
  139.8827  135.0044  156.6246 LP  0  0  0  0  0  0  0  0  0  0  0  0  # atno 17395 bound_to 11000

$$$$
