#       Name:                AV-unprocessed.smi:2374
#       Creating user name   scv26
#       Creation time:       Fri Mar 27 13:07:14 2020


#       File generated by GOLD software.
#

@<TRIPOS>MOLECULE
AV-unprocessed.smi:2374
    44    45     1
SMALL
NO_CHARGES


@<TRIPOS>ATOM
      1 ****        -1.1766   1.9543  -2.1664 C.3            1 S1                 0.0000
      2 ****        -2.3059   1.0140  -1.8556 C.2            1 S1                 0.0000
      3 ****        -3.5055   1.5032  -1.5908 N.2            1 S1                 0.0000
      4 ****        -4.3228   0.3977  -1.3358 O.3            1 S1                 0.0000
      5 ****        -3.5728  -0.7272  -1.4553 C.2            1 S1                 0.0000
      6 ****        -4.2643  -2.0259  -1.2121 C.3            1 S1                 0.0000
      7 ****        -2.2842  -0.4093  -1.7847 C.2            1 S1                 0.0000
      8 ****        -1.1192  -1.3382  -2.0093 C.3            1 S1                 0.0000
      9 ****        -0.3085  -1.4552  -0.7197 C.2            1 S1                 0.0000
     10 ****        -0.5732  -2.3385   0.0947 O.2            1 S1                 0.0000
     11 ****         0.6628  -0.5439  -0.5444 N.am           1 S1                 0.0000
     12 ****         1.5387  -0.4000   0.6194 C.3            1 S1                 0.0000
     13 ****         2.2238  -1.6714   0.9282 C.1            1 S1                 0.0000
     14 ****         2.7618  -2.6671   1.1700 N.1            1 S1                 0.0000
     15 ****         2.5898   0.6767   0.2659 C.3            1 S1                 0.0000
     16 ****         3.4938   1.0296   1.4595 C.3            1 S1                 0.0000
     17 ****         2.6600   1.4893   2.6637 C.3            1 S1                 0.0000
     18 ****         1.6053   0.4399   3.0422 C.3            1 S1                 0.0000
     19 ****         0.7150   0.0873   1.8383 C.3            1 S1                 0.0000
     20 ****        -0.5663   2.1342  -1.2811 H              1 S1                 0.0000
     21 ****        -1.5423   2.9191  -2.5197 H              1 S1                 0.0000
     22 ****        -0.5269   1.5460  -2.9406 H              1 S1                 0.0000
     23 ****        -5.2630  -1.8705  -0.8033 H              1 S1                 0.0000
     24 ****        -3.7014  -2.6349  -0.5044 H              1 S1                 0.0000
     25 ****        -4.3618  -2.5894  -2.1401 H              1 S1                 0.0000
     26 ****        -1.4550  -2.3327  -2.3057 H              1 S1                 0.0000
     27 ****        -0.4753  -0.9859  -2.8159 H              1 S1                 0.0000
     28 ****         0.7950   0.1326  -1.2819 H              1 S1                 0.0000
     29 ****         3.2063   0.3372  -0.5677 H              1 S1                 0.0000
     30 ****         2.0887   1.5839  -0.0767 H              1 S1                 0.0000
     31 ****         4.0973   0.1651   1.7382 H              1 S1                 0.0000
     32 ****         4.1952   1.8140   1.1739 H              1 S1                 0.0000
     33 ****         3.3120   1.6861   3.5152 H              1 S1                 0.0000
     34 ****         2.1665   2.4328   2.4272 H              1 S1                 0.0000
     35 ****         2.0986  -0.4591   3.4137 H              1 S1                 0.0000
     36 ****         0.9897   0.8126   3.8612 H              1 S1                 0.0000
     37 ****         0.1301   0.9654   1.5599 H              1 S1                 0.0000
     38 ****        -0.0055  -0.6730   2.1412 H              1 S1                 0.0000
     39 ****        -3.7734   2.4666  -1.5760 LP             1 S1                 0.0000
     40 ****        -5.0742   0.3741  -1.9953 LP             1 S1                 0.0000
     41 ****        -4.6942   0.4590  -0.4094 LP             1 S1                 0.0000
     42 ****        -1.3188  -2.9795  -0.0876 LP             1 S1                 0.0000
     43 ****        -0.0428  -2.4154   0.9389 LP             1 S1                 0.0000
     44 ****         3.2267  -3.5274   1.3789 LP             1 S1                 0.0000
@<TRIPOS>BOND
    1    1    2 1     
    2    1   20 1     
    3    1   21 1     
    4    1   22 1     
    5    2    7 1     
    6    2    3 2     
    7    3    4 1     
    8    4    5 1     
    9    5    6 1     
   10    5    7 2     
   11    6   23 1     
   12    6   24 1     
   13    6   25 1     
   14    7    8 1     
   15    8    9 1     
   16    8   26 1     
   17    8   27 1     
   18    9   10 2     
   19    9   11 am    
   20   11   12 1     
   21   11   28 1     
   22   12   19 1     
   23   12   13 1     
   24   12   15 1     
   25   13   14 3     
   26   15   16 1     
   27   15   29 1     
   28   15   30 1     
   29   16   17 1     
   30   16   31 1     
   31   16   32 1     
   32   17   18 1     
   33   17   33 1     
   34   17   34 1     
   35   18   19 1     
   36   18   35 1     
   37   18   36 1     
   38   19   37 1     
   39   19   38 1     
   40    3   39 1     
   41    4   40 1     
   42    4   41 1     
   43   10   42 1     
   44   10   43 1     
   45   14   44 1     
@<TRIPOS>SUBSTRUCTURE
      1 S1             1
@<TRIPOS>SET
LONE_PAIRS      STATIC     ATOMS    <user>   **** ""
6 39 40 41 42 43 44
DONOR_HYDROGENS      STATIC     ATOMS    <user>   **** ""
1 28
ATOM$BLUE        STATIC     ATOMS    COLORGROUP SYSTEM
6 39 40 41 42 43 44
ATOM$RED        STATIC     ATOMS    COLORGROUP SYSTEM
1 28
