AV-unprocessed.smi:1871|AV-procd|sdf|7602|dock7
  -GOLD-   22720 9323D 1   1.00000     0.00000
 Structure written by MMmdl.
 41 43  0  0  0  0  0  0  0  0  2 V2000
  148.4309  142.4047  154.1265 O   0  0  0  0  0  0  0  0  0  0  0  0
  149.2756  141.3112  154.4184 C   0  0  0  0  0  0  0  0  0  0  0  0
  150.0695  141.4975  155.6730 C   0  0  0  0  0  0  0  0  0  0  0  0
  150.0082  142.5711  156.5120 N   0  3  0  0  0  0  0  0  0  0  0  0
  150.8995  142.3982  157.5710 C   0  0  0  0  0  0  0  0  0  0  0  0
  151.1899  143.2129  158.6608 C   0  0  0  0  0  0  0  0  0  0  0  0
  152.1607  142.7360  159.5661 C   0  0  0  0  0  0  0  0  0  0  0  0
  152.7997  141.4942  159.3707 C   0  0  0  0  0  0  0  0  0  0  0  0
  152.4973  140.6776  158.2611 C   0  0  0  0  0  0  0  0  0  0  0  0
  151.5372  141.1575  157.3707 C   0  0  0  0  0  0  0  0  0  0  0  0
  150.9997  140.6403  156.1869 N   0  0  0  0  0  0  0  0  0  0  0  0
  151.4825  139.3421  155.6900 C   0  0  0  0  0  0  0  0  0  0  0  0
  150.3453  138.3183  155.4957 C   0  0  1  0  0  0  0  0  0  0  0  0
  150.9010  137.1442  154.9409 O   0  0  0  0  0  0  0  0  0  0  0  0
  149.5886  138.0470  156.7883 C   0  0  0  0  0  0  0  0  0  0  0  0
  148.2287  138.4014  156.9175 C   0  0  0  0  0  0  0  0  0  0  0  0
  147.5325  138.1200  158.1086 C   0  0  0  0  0  0  0  0  0  0  0  0
  148.1822  137.4887  159.1883 C   0  0  0  0  0  0  0  0  0  0  0  0
  147.4419  137.2243  160.3182 O   0  0  0  0  0  0  0  0  0  0  0  0
  147.9449  136.3872  161.2642 C   0  0  0  0  0  0  0  0  0  0  0  0
  147.2905  136.5741  162.4358 F   0  0  0  0  0  0  0  0  0  0  0  0
  147.7646  135.0946  160.8972 F   0  0  0  0  0  0  0  0  0  0  0  0
  149.5434  137.1244  159.0526 C   0  0  0  0  0  0  0  0  0  0  0  0
  150.2404  137.4057  157.8622 C   0  0  0  0  0  0  0  0  0  0  0  0
  148.5786  143.0789  154.7726 H   0  0  0  0  0  0  0  0  0  0  0  0
  148.6657  140.4117  154.5048 H   0  0  0  0  0  0  0  0  0  0  0  0
  149.9588  141.1643  153.5823 H   0  0  0  0  0  0  0  0  0  0  0  0
  150.7013  144.1645  158.8116 H   0  0  0  0  0  0  0  0  0  0  0  0
  152.4200  143.3341  160.4277 H   0  0  0  0  0  0  0  0  0  0  0  0
  153.5375  141.1609  160.0863 H   0  0  0  0  0  0  0  0  0  0  0  0
  152.9931  139.7285  158.1195 H   0  0  0  0  0  0  0  0  0  0  0  0
  152.0132  139.5171  154.7529 H   0  0  0  0  0  0  0  0  0  0  0  0
  152.2240  138.9624  156.3935 H   0  0  0  0  0  0  0  0  0  0  0  0
  149.6391  138.6993  154.7573 H   0  0  0  0  0  0  0  0  0  0  0  0
  151.4026  137.3818  154.1757 H   0  0  0  0  0  0  0  0  0  0  0  0
  147.7103  138.8816  156.1004 H   0  0  0  0  0  0  0  0  0  0  0  0
  146.4903  138.3911  158.1941 H   0  0  0  0  0  0  0  0  0  0  0  0
  149.0049  136.5702  161.4422 H   0  0  0  0  0  0  0  0  0  0  0  0
  150.0644  136.6194  159.8523 H   0  0  0  0  0  0  0  0  0  0  0  0
  151.2768  137.1146  157.7719 H   0  0  0  0  0  0  0  0  0  0  0  0
  149.3955  143.3628  156.3632 H   0  0  0  0  0  0  0  0  0  0  0  0
  1  2  1  0  0  0  0
  1 25  1  0  0  0  0
  2  3  1  0  0  0  0
  2 26  1  0  0  0  0
  2 27  1  0  0  0  0
  3 11  1  0  0  0  0
  3  4  2  0  0  0  0
  4  5  1  0  0  0  0
  4 41  1  0  0  0  0
  5 10  2  0  0  0  0
  5  6  1  0  0  0  0
  6  7  2  0  0  0  0
  6 28  1  0  0  0  0
  7  8  1  0  0  0  0
  7 29  1  0  0  0  0
  8  9  2  0  0  0  0
  8 30  1  0  0  0  0
  9 10  1  0  0  0  0
  9 31  1  0  0  0  0
 10 11  1  0  0  0  0
 11 12  1  0  0  0  0
 12 13  1  0  0  0  0
 12 32  1  0  0  0  0
 12 33  1  0  0  0  0
 13 14  1  0  0  0  0
 13 15  1  0  0  0  0
 13 34  1  0  0  0  0
 14 35  1  0  0  0  0
 15 24  1  0  0  0  0
 15 16  2  0  0  0  0
 16 17  1  0  0  0  0
 16 36  1  0  0  0  0
 17 18  2  0  0  0  0
 17 37  1  0  0  0  0
 18 19  1  0  0  0  0
 18 23  1  0  0  0  0
 19 20  1  0  0  0  0
 20 21  1  0  0  0  0
 20 22  1  0  0  0  0
 20 38  1  0  0  0  0
 23 24  2  0  0  0  0
 23 39  1  0  0  0  0
 24 40  1  0  0  0  0
M  CHG  1   4   1
M  END
> <s_m_source_file>
AV-unprocessed.smi

> <i_m_source_file_index>
1871

> <i_lp_mmshare_version>
43012

> <i_f3d_flags>
0

> <s_epik_input>
W2NIXTFbY0hdW2NIXVtjSF1jKGMxMiluKGMobjIpW0NIMl1bT0hdKVtDSDJdW0NASF0oW09IXSljM1tjSF1bY0hdYyhPW0NIXShGKUYpW2NIXVtjSF0z

> <s_epik_cmdline>
J2VwaWtfcHl0aG9uJywgJy1waCcsICc3LjAnLCAnLXRuJywgJzgnLCAnLW1hJywgJzIwMCcsICctbWV0YWxfYmluZGluZycsICctaW1hZScsICc8aW5maWxlLm1hZT4nLCAnLW9tYWUnLCAnPG91dGZpbGUubWFlPic=

> <r_lp_tautomer_probability>
1

> <r_epik_Ionization_Penalty>
1.35642

> <r_epik_Ionization_Penalty_Charging>
1.35557

> <r_epik_Ionization_Penalty_Neutral>
0.000856035

> <r_epik_State_Penalty>
1.43401

> <r_epik_Charging_Adjusted_Penalty>
2.78958

> <i_epik_Tot_Q>
1

> <i_epik_Tot_abs_Q>
1

> <r_epik_Metal_State_Penalty>
5.47166

> <b_epik_Metal_Only>
0

> <s_lp_Force_Field>
OPLS_2005

> <r_lp_Energy>
14.8195

> <b_lp_Chiralities_Consistent>
1

> <s_lp_Variant>
AV-unprocessed.smi:1871-4

> <Gold.Version>
5.8.1

> <Gold.Id.Protein>
6NUR|6NUR_protein|mol2

> <Gold.PLP.Fitness>
55.2691

> <Gold.PLP.PLP>
-44.1163

> <Gold.PLP.part.hbond>
-4.1473

> <Gold.PLP.part.metal>
0.0000

> <Gold.PLP.part.buried>
-4.5999

> <Gold.PLP.part.nonpolar>
-34.9867

> <Gold.PLP.part.repulsive>
0.0635

> <Gold.PLP.ligand.clash>
0.0000

> <Gold.PLP.ligand.torsion>
0.3793

> <Gold.PLP.Chemscore.Hbond>
3.9500

> <Gold.PLP.Chemscore.CHOScore>
0.0000

> <Gold.PLP.Chemscore.Metal>
0.0000

> <Gold.Chemscore.Hbonds>
donor molecule, donor type, donor heavy atom, donor atom, acceptor molecule, acceptor atom, score
      L1  H     1    25       P1  8028  1.00
      L1  H     4    41       P1  8028  2.00
      P1  H  6934  6947       L1    19  0.90

> <Gold.PLP.Chemscore.Internal.Correction>
0.0614

> <Gold.Rescore>
     Score         DG    S(hbond)    S(metal)    S(lipo)     H(rot)  DE(clash)    DE(int)     intcor
     14.76     -15.01       2.23        0.00      91.39       3.37       0.01       0.25       ----

> <Gold.Chemscore.Fitness>
14.7582

> <Gold.Chemscore.DG>
-15.0130

> <Gold.Chemscore.ZeroCoef>
-5.4800

> <Gold.Chemscore.Hbond>
2.2327

> <Gold.Chemscore.Metal>
0.0000

> <Gold.Chemscore.Lipo>
91.3889

> <Gold.Chemscore.Internal_Hbond>
0.0000

> <Gold.Chemscore.DEClash>
0.0088

> <Gold.Chemscore.DEInternal>
0.2460

> <Gold.Chemscore.Rot>
3.3659

> <Gold.Chemscore.Internal.Correction>
   9.000000E+99

> <Gold.Chemscore.Hbonds>
donor molecule, donor type, donor heavy atom, donor atom, acceptor molecule, acceptor atom, score
      L1  H     1    25       P1  8028  1.00
      L1  H     4    41       P1  8028  0.97
      P1  H  6934  6947       L1    19  0.15

> <Gold.Chemscore.Hbond.Weighted>
-7.4572

> <Gold.Chemscore.Metal.Weighted>
-0.0000

> <Gold.Chemscore.Lipo.Weighted>
-10.6925

> <Gold.Chemscore.Internal_Hbond.Weighted>
0.0000

> <Gold.Chemscore.DEClash.Weighted>
0.0088

> <Gold.Chemscore.DEInternal.Weighted>
0.2460

> <Gold.Chemscore.Rot.Weighted>
8.6167

> <Gold.Chemscore.Internal.Correction.Weighted>
   9.000000E+99

> <Gold.Protein.RotatedTorsions>
[ 6907 6896 6895 6894 ] final  -52.16 input  -60.11 | X-H torsion
[ 7974 7965 7964 7962 ] final  111.82 input  175.53 | X-H torsion
[ 8008 7997 7996 7995 ] final  -44.65 input   59.86 | X-H torsion
[ 10167 10162 10161 10158 ] final  148.98 input  -65.29 | X-H torsion
[ 10718 10713 10712 10709 ] final  -25.86 input   66.30 | X-H torsion
[ 10763 10752 10751 10750 ] final  149.16 input  -60.55 | X-H torsion
[ 11005 11000 10999 10996 ] final   91.59 input  -57.11 | X-H torsion

> <Gold.Protein.ActiveResidues>
 VAL166  LYS551  ARG553  GLY616  TRP617  ASP618  TYR619  PRO620  LYS621  CYS622 
 ASP623  PHE694  ASN695  SER759  ASP760  ASP761  ALA762  ILE779  LEU786  VAL792 
 PHE793  MET794  SER795  GLU796  ALA797  LYS798  CYS799  TRP800  GLU811  SER814 

> <Gold.Protein.RotatedAtoms>
  150.8543  134.7877  159.7033 H   0  0  0  0  0  0  0  0  0  0  0  0  # atno 6907 bound_to 6896
  152.4599  134.5204  159.9790 H   0  0  0  0  0  0  0  0  0  0  0  0  # atno 6908 bound_to 6896
  151.5319  133.3409  159.2955 H   0  0  0  0  0  0  0  0  0  0  0  0  # atno 6909 bound_to 6896
  145.2373  139.2793  143.4136 H   0  0  0  0  0  0  0  0  0  0  0  0  # atno 7974 bound_to 7965
  154.3998  140.1417  156.3718 H   0  0  0  0  0  0  0  0  0  0  0  0  # atno 8008 bound_to 7997
  155.8085  140.3473  155.5423 H   0  0  0  0  0  0  0  0  0  0  0  0  # atno 8009 bound_to 7997
  155.8410  140.0927  157.1725 H   0  0  0  0  0  0  0  0  0  0  0  0  # atno 8010 bound_to 7997
  139.4867  144.5637  151.7184 H   0  0  0  0  0  0  0  0  0  0  0  0  # atno 10167 bound_to 10162
  156.4589  130.4499  149.6942 H   0  0  0  0  0  0  0  0  0  0  0  0  # atno 10718 bound_to 10713
  154.0665  135.2870  155.3315 H   0  0  0  0  0  0  0  0  0  0  0  0  # atno 10763 bound_to 10752
  154.6774  135.5276  153.8221 H   0  0  0  0  0  0  0  0  0  0  0  0  # atno 10764 bound_to 10752
  153.0502  135.6573  154.0850 H   0  0  0  0  0  0  0  0  0  0  0  0  # atno 10765 bound_to 10752
  139.8836  134.8683  156.3450 H   0  0  0  0  0  0  0  0  0  0  0  0  # atno 11005 bound_to 11000
  146.3337  140.2726  142.8606 LP  0  0  0  0  0  0  0  0  0  0  0  0  # atno 17320 bound_to 7965
  144.9621  140.8285  143.5507 LP  0  0  0  0  0  0  0  0  0  0  0  0  # atno 17321 bound_to 7965
  140.5211  144.0877  150.6023 LP  0  0  0  0  0  0  0  0  0  0  0  0  # atno 17342 bound_to 10162
  140.3835  143.2790  152.0143 LP  0  0  0  0  0  0  0  0  0  0  0  0  # atno 17343 bound_to 10162
  156.3738  130.7544  151.2530 LP  0  0  0  0  0  0  0  0  0  0  0  0  # atno 17370 bound_to 10713
  157.7499  131.0315  150.4186 LP  0  0  0  0  0  0  0  0  0  0  0  0  # atno 17371 bound_to 10713
  140.9633  133.7375  156.0431 LP  0  0  0  0  0  0  0  0  0  0  0  0  # atno 17394 bound_to 11000
  140.7963  134.3560  157.5451 LP  0  0  0  0  0  0  0  0  0  0  0  0  # atno 17395 bound_to 11000

$$$$
