#       Name:                AV-unprocessed.smi:3314
#       Creating user name   scv26
#       Creation time:       Fri Mar 27 19:08:38 2020


#       File generated by GOLD software.
#

@<TRIPOS>MOLECULE
AV-unprocessed.smi:3314
    43    44     1
SMALL
NO_CHARGES


@<TRIPOS>ATOM
      1 ****        -3.7543  -3.0515   2.3434 C.3            1 S1                 0.0000
      2 ****        -3.2084  -2.1198   1.2823 C.ar           1 S1                 0.0000
      3 ****        -4.0501  -1.2074   0.6180 C.ar           1 S1                 0.0000
      4 ****        -3.4794  -0.3711  -0.3610 C.ar           1 S1                 0.0000
      5 ****        -4.3303   0.6332  -1.1095 C.3            1 S1                 0.0000
      6 ****        -2.1685  -0.4017  -0.6853 N.ar           1 S1                 0.0000
      7 ****        -1.3473  -1.2710  -0.0493 C.ar           1 S1                 0.0000
      8 ****        -0.0508  -1.2976  -0.3890 N.pl3          1 S1                -1.0000
      9 ****         0.8338  -0.4962   0.2525 C.2            1 S1                 0.0000
     10 ****         0.6295   0.2717   1.1951 O.2            1 S1                 0.0000
     11 ****         2.2528  -0.6241  -0.3465 C.3            1 S1                 0.0000
     12 ****         3.3014   0.3186   0.2908 C.3            1 S1                 0.0000
     13 ****         3.0408   1.7306  -0.0780 N.4            1 S1                 1.0000
     14 ****         3.9765   2.6731   0.5702 C.3            1 S1                 0.0000
     15 ****         2.9930   1.8908  -1.5486 C.3            1 S1                 0.0000
     16 ****         1.9521   0.9366  -2.1563 C.3            1 S1                 0.0000
     17 ****         2.2443  -0.4039  -1.7629 O.3            1 S1                 0.0000
     18 ****        -1.8418  -2.1524   0.9399 C.ar           1 S1                 0.0000
     19 ****        -4.7873  -2.8069   2.5924 H              1 S1                 0.0000
     20 ****        -3.1584  -2.9789   3.2534 H              1 S1                 0.0000
     21 ****        -3.7213  -4.0828   1.9917 H              1 S1                 0.0000
     22 ****        -5.1032  -1.1499   0.8507 H              1 S1                 0.0000
     23 ****        -5.3521   0.2685  -1.2186 H              1 S1                 0.0000
     24 ****        -3.9301   0.8204  -2.1068 H              1 S1                 0.0000
     25 ****        -4.3582   1.5785  -0.5674 H              1 S1                 0.0000
     26 ****         2.5764  -1.6526  -0.1800 H              1 S1                 0.0000
     27 ****         3.2999   0.2116   1.3766 H              1 S1                 0.0000
     28 ****         4.3001   0.0365  -0.0462 H              1 S1                 0.0000
     29 ****         5.0026   2.4890   0.2496 H              1 S1                 0.0000
     30 ****         3.9319   2.5728   1.6550 H              1 S1                 0.0000
     31 ****         3.7183   3.7026   0.3201 H              1 S1                 0.0000
     32 ****         2.7412   2.9215  -1.8006 H              1 S1                 0.0000
     33 ****         3.9782   1.6874  -1.9711 H              1 S1                 0.0000
     34 ****         0.9417   1.2241  -1.8630 H              1 S1                 0.0000
     35 ****         1.9848   0.9945  -3.2443 H              1 S1                 0.0000
     36 ****        -1.1767  -2.8457   1.4343 H              1 S1                 0.0000
     37 ****         2.1172   1.9500   0.2693 H              1 S1                 0.0000
     38 ****        -1.8078   0.2115  -1.3881 LP             1 S1                 0.0000
     39 ****         0.2635  -1.9086  -1.1156 LP             1 S1                 0.0000
     40 ****        -0.2894   0.3576   1.5799 LP             1 S1                 0.0000
     41 ****         1.3828   0.8087   1.5749 LP             1 S1                 0.0000
     42 ****         1.5547  -1.0045  -2.1674 LP             1 S1                 0.0000
     43 ****         3.1467  -0.6439  -2.1209 LP             1 S1                 0.0000
@<TRIPOS>BOND
    1    1    2 1     
    2    1   19 1     
    3    1   20 1     
    4    1   21 1     
    5    2   18 ar    
    6    2    3 ar    
    7    3    4 ar    
    8    3   22 1     
    9    4    5 1     
   10    4    6 ar    
   11    5   23 1     
   12    5   24 1     
   13    5   25 1     
   14    6    7 ar    
   15    7    8 1     
   16    7   18 ar    
   17    8    9 1     
   18    9   10 2     
   19    9   11 1     
   20   11   17 1     
   21   11   12 1     
   22   11   26 1     
   23   12   13 1     
   24   12   27 1     
   25   12   28 1     
   26   13   14 1     
   27   13   15 1     
   28   13   37 1     
   29   14   29 1     
   30   14   30 1     
   31   14   31 1     
   32   15   16 1     
   33   15   32 1     
   34   15   33 1     
   35   16   17 1     
   36   16   34 1     
   37   16   35 1     
   38   18   36 1     
   39    6   38 1     
   40    8   39 1     
   41   10   40 1     
   42   10   41 1     
   43   17   42 1     
   44   17   43 1     
@<TRIPOS>SUBSTRUCTURE
      1 S1             1
@<TRIPOS>SET
LONE_PAIRS      STATIC     ATOMS    <user>   **** ""
6 38 39 40 41 42 43
DONOR_HYDROGENS      STATIC     ATOMS    <user>   **** ""
1 37
ATOM$BLUE        STATIC     ATOMS    COLORGROUP SYSTEM
6 38 39 40 41 42 43
ATOM$RED        STATIC     ATOMS    COLORGROUP SYSTEM
1 37
