AV-unprocessed.smi:3118|AV-procd|sdf|11887|dock1
  -GOLD-   2272017273D 1   1.00000     0.00000
 Structure written by MMmdl.
 33 34  0  0  0  0  0  0  0  0  2 V2000
  149.3562  141.5548  154.3092 C   0  0  0  0  0  0  0  0  0  0  0  0
  149.9511  141.3410  155.7141 C   0  0  1  0  0  0  0  0  0  0  0  0
  151.2205  140.4661  155.7082 C   0  0  0  0  0  0  0  0  0  0  0  0
  150.9589  139.0819  155.3002 N   0  0  0  0  0  0  0  0  0  0  0  0
  151.1986  137.9446  156.0277 C   0  0  0  0  0  0  0  0  0  0  0  0
  150.7965  136.8902  155.2486 C   0  0  0  0  0  0  0  0  0  0  0  0
  150.3337  137.4279  154.0774 N   0  3  0  0  0  0  0  0  0  0  0  0
  150.4361  138.7606  154.1092 C   0  0  0  0  0  0  0  0  0  0  0  0
  150.2600  142.6278  156.3319 N   0  0  0  0  0  0  0  0  0  0  0  0
  150.9304  142.7970  157.4824 C   0  0  0  0  0  0  0  0  0  0  0  0
  151.3787  141.8602  158.1446 O   0  0  0  0  0  0  0  0  0  0  0  0
  151.1159  144.2481  157.9457 C   0  0  0  0  0  0  0  0  0  0  0  0
  152.4924  144.5668  158.5575 C   0  0  0  0  0  0  0  0  0  0  0  0
  151.7733  145.3298  159.6738 C   0  0  0  0  0  0  0  0  0  0  0  0
  150.5018  144.5518  159.3230 C   0  0  0  0  0  0  0  0  0  0  0  0
  149.0471  140.6121  153.8575 H   0  0  0  0  0  0  0  0  0  0  0  0
  150.0787  142.0248  153.6411 H   0  0  0  0  0  0  0  0  0  0  0  0
  148.4738  142.1943  154.3455 H   0  0  0  0  0  0  0  0  0  0  0  0
  149.2027  140.8333  156.3259 H   0  0  0  0  0  0  0  0  0  0  0  0
  151.9732  140.8846  155.0378 H   0  0  0  0  0  0  0  0  0  0  0  0
  151.6663  140.4332  156.7036 H   0  0  0  0  0  0  0  0  0  0  0  0
  151.6235  137.9701  157.0208 H   0  0  0  0  0  0  0  0  0  0  0  0
  150.8052  135.8262  155.4350 H   0  0  0  0  0  0  0  0  0  0  0  0
  150.1470  139.4420  153.3288 H   0  0  0  0  0  0  0  0  0  0  0  0
  149.9310  143.4544  155.8541 H   0  0  0  0  0  0  0  0  0  0  0  0
  150.8231  144.9858  157.1960 H   0  0  0  0  0  0  0  0  0  0  0  0
  153.0372  143.6968  158.9282 H   0  0  0  0  0  0  0  0  0  0  0  0
  153.1278  145.1947  157.9322 H   0  0  0  0  0  0  0  0  0  0  0  0
  152.1595  145.1417  160.6760 H   0  0  0  0  0  0  0  0  0  0  0  0
  151.6859  146.3975  159.4667 H   0  0  0  0  0  0  0  0  0  0  0  0
  149.6014  145.1661  159.2888 H   0  0  0  0  0  0  0  0  0  0  0  0
  150.3588  143.6719  159.9532 H   0  0  0  0  0  0  0  0  0  0  0  0
  149.9663  136.8958  153.2984 H   0  0  0  0  0  0  0  0  0  0  0  0
  1  2  1  0  0  0  0
  1 16  1  0  0  0  0
  1 17  1  0  0  0  0
  1 18  1  0  0  0  0
  2  3  1  0  0  0  0
  2  9  1  0  0  0  0
  2 19  1  0  0  0  0
  3  4  1  0  0  0  0
  3 20  1  0  0  0  0
  3 21  1  0  0  0  0
  4  8  1  0  0  0  0
  4  5  1  0  0  0  0
  5  6  2  0  0  0  0
  5 22  1  0  0  0  0
  6  7  1  0  0  0  0
  6 23  1  0  0  0  0
  7  8  2  0  0  0  0
  7 33  1  0  0  0  0
  8 24  1  0  0  0  0
  9 10  1  0  0  0  0
  9 25  1  0  0  0  0
 10 11  2  0  0  0  0
 10 12  1  0  0  0  0
 12 15  1  0  0  0  0
 12 13  1  0  0  0  0
 12 26  1  0  0  0  0
 13 14  1  0  0  0  0
 13 27  1  0  0  0  0
 13 28  1  0  0  0  0
 14 15  1  0  0  0  0
 14 29  1  0  0  0  0
 14 30  1  0  0  0  0
 15 31  1  0  0  0  0
 15 32  1  0  0  0  0
M  CHG  1   7   1
M  END
> <s_m_source_file>
AV-unprocessed.smi

> <i_m_source_file_index>
3118

> <i_lp_mmshare_version>
43012

> <i_f3d_flags>
0

> <s_epik_input>
W0NIMl0xW0NIMl1bQ0gyXVtDSF0xQyg9TylbTkhdW0NASF0oW0NIM10pW0NIMl1uMltjSF1bY0hdbltjSF0y

> <s_epik_cmdline>
J2VwaWtfcHl0aG9uJywgJy1waCcsICc3LjAnLCAnLXRuJywgJzgnLCAnLW1hJywgJzIwMCcsICctbWV0YWxfYmluZGluZycsICctaW1hZScsICc8aW5maWxlLm1hZT4nLCAnLW9tYWUnLCAnPG91dGZpbGUubWFlPic=

> <r_lp_tautomer_probability>
1

> <r_epik_Ionization_Penalty>
0.244425

> <r_epik_Ionization_Penalty_Charging>
0

> <r_epik_Ionization_Penalty_Neutral>
0.244425

> <r_epik_State_Penalty>
0.23553

> <r_epik_Charging_Adjusted_Penalty>
0.23553

> <i_epik_Tot_Q>
1

> <i_epik_Tot_abs_Q>
1

> <r_epik_Metal_State_Penalty>
0.5288

> <b_epik_Metal_Only>
0

> <s_lp_Force_Field>
OPLS_2005

> <r_lp_Energy>
14.8718

> <b_lp_Chiralities_Consistent>
1

> <s_lp_Variant>
AV-unprocessed.smi:3118-2

> <Gold.Version>
5.8.1

> <Gold.Id.Protein>
6NUR|6NUR_protein|mol2

> <Gold.PLP.Fitness>
50.3190

> <Gold.PLP.PLP>
-38.7306

> <Gold.PLP.part.hbond>
-2.8478

> <Gold.PLP.part.metal>
0.0000

> <Gold.PLP.part.buried>
-2.3803

> <Gold.PLP.part.nonpolar>
-33.2455

> <Gold.PLP.part.repulsive>
0.1693

> <Gold.PLP.ligand.clash>
0.0000

> <Gold.PLP.ligand.torsion>
0.4257

> <Gold.PLP.Chemscore.Hbond>
3.0000

> <Gold.PLP.Chemscore.CHOScore>
1.0000

> <Gold.PLP.Chemscore.Metal>
0.0000

> <Gold.Chemscore.Hbonds>
donor molecule, donor type, donor heavy atom, donor atom, acceptor molecule, acceptor atom, score
      L1  H     7    33       P1  7948  1.80
      L1  H     9    25       P1  8028  1.00
      L1  C     8    24       P1  7957  1.00

> <Gold.PLP.Chemscore.Internal.Correction>
0.4397

> <Gold.Rescore>
     Score         DG    S(hbond)    S(metal)    S(lipo)     H(rot)  DE(clash)    DE(int)     intcor
     15.83     -16.59       1.94        0.00      80.07       1.86       0.32       0.44       ----

> <Gold.Chemscore.Fitness>
15.8274

> <Gold.Chemscore.DG>
-16.5887

> <Gold.Chemscore.ZeroCoef>
-5.4800

> <Gold.Chemscore.Hbond>
1.9437

> <Gold.Chemscore.Metal>
0.0000

> <Gold.Chemscore.Lipo>
80.0720

> <Gold.Chemscore.Internal_Hbond>
0.0000

> <Gold.Chemscore.DEClash>
0.3230

> <Gold.Chemscore.DEInternal>
0.4384

> <Gold.Chemscore.Rot>
1.8561

> <Gold.Chemscore.Internal.Correction>
   9.000000E+99

> <Gold.Chemscore.Hbonds>
donor molecule, donor type, donor heavy atom, donor atom, acceptor molecule, acceptor atom, score
      L1  H     7    33       P1  7948  0.18
      L1  H     9    25       P1  8028  0.97

> <Gold.Chemscore.Hbond.Weighted>
-6.4919

> <Gold.Chemscore.Metal.Weighted>
-0.0000

> <Gold.Chemscore.Lipo.Weighted>
-9.3684

> <Gold.Chemscore.Internal_Hbond.Weighted>
0.0000

> <Gold.Chemscore.DEClash.Weighted>
0.3230

> <Gold.Chemscore.DEInternal.Weighted>
0.4384

> <Gold.Chemscore.Rot.Weighted>
4.7516

> <Gold.Chemscore.Internal.Correction.Weighted>
   9.000000E+99

> <Gold.Protein.RotatedTorsions>
[ 6907 6896 6895 6894 ] final -113.57 input  -60.11 | X-H torsion
[ 7974 7965 7964 7962 ] final   68.31 input  175.53 | X-H torsion
[ 8008 7997 7996 7995 ] final    6.34 input   59.86 | X-H torsion
[ 10167 10162 10161 10158 ] final -155.14 input  -65.29 | X-H torsion
[ 10718 10713 10712 10709 ] final   53.90 input   66.30 | X-H torsion
[ 10763 10752 10751 10750 ] final  143.59 input  -60.55 | X-H torsion
[ 11005 11000 10999 10996 ] final -122.78 input  -57.11 | X-H torsion

> <Gold.Protein.ActiveResidues>
 VAL166  LYS551  ARG553  GLY616  TRP617  ASP618  TYR619  PRO620  LYS621  CYS622 
 ASP623  PHE694  ASN695  SER759  ASP760  ASP761  ALA762  ILE779  LEU786  VAL792 
 PHE793  MET794  SER795  GLU796  ALA797  LYS798  CYS799  TRP800  GLU811  SER814 

> <Gold.Protein.RotatedAtoms>
  150.7839  133.8925  159.3317 H   0  0  0  0  0  0  0  0  0  0  0  0  # atno 6907 bound_to 6896
  151.6781  135.0964  160.0220 H   0  0  0  0  0  0  0  0  0  0  0  0  # atno 6908 bound_to 6896
  152.3898  133.6624  159.6263 H   0  0  0  0  0  0  0  0  0  0  0  0  # atno 6909 bound_to 6896
  145.8041  139.2998  143.1137 H   0  0  0  0  0  0  0  0  0  0  0  0  # atno 7974 bound_to 7965
  154.7398  140.2746  155.6383 H   0  0  0  0  0  0  0  0  0  0  0  0  # atno 8008 bound_to 7997
  156.2871  140.2699  156.2047 H   0  0  0  0  0  0  0  0  0  0  0  0  # atno 8009 bound_to 7997
  155.0274  140.0371  157.2450 H   0  0  0  0  0  0  0  0  0  0  0  0  # atno 8010 bound_to 7997
  139.6955  143.9349  152.2405 H   0  0  0  0  0  0  0  0  0  0  0  0  # atno 10167 bound_to 10162
  157.5209  130.8564  149.8557 H   0  0  0  0  0  0  0  0  0  0  0  0  # atno 10718 bound_to 10713
  153.9749  135.2947  155.3424 H   0  0  0  0  0  0  0  0  0  0  0  0  # atno 10763 bound_to 10752
  154.7301  135.5071  153.8954 H   0  0  0  0  0  0  0  0  0  0  0  0  # atno 10764 bound_to 10752
  153.0882  135.6700  154.0019 H   0  0  0  0  0  0  0  0  0  0  0  0  # atno 10765 bound_to 10752
  140.9969  134.0458  157.3586 H   0  0  0  0  0  0  0  0  0  0  0  0  # atno 11005 bound_to 11000
  145.9846  140.8654  143.0097 LP  0  0  0  0  0  0  0  0  0  0  0  0  # atno 17320 bound_to 7965
  144.6765  140.2129  143.7375 LP  0  0  0  0  0  0  0  0  0  0  0  0  # atno 17321 bound_to 7965
  139.9177  144.6819  150.8495 LP  0  0  0  0  0  0  0  0  0  0  0  0  # atno 17342 bound_to 10162
  140.7695  143.3397  151.2233 LP  0  0  0  0  0  0  0  0  0  0  0  0  # atno 17343 bound_to 10162
  156.0352  130.3753  150.1578 LP  0  0  0  0  0  0  0  0  0  0  0  0  # atno 17370 bound_to 10713
  156.9766  130.9851  151.3447 LP  0  0  0  0  0  0  0  0  0  0  0  0  # atno 17371 bound_to 10713
  139.9019  135.0167  156.7310 LP  0  0  0  0  0  0  0  0  0  0  0  0  # atno 17394 bound_to 11000
  140.6951  133.9356  155.7990 LP  0  0  0  0  0  0  0  0  0  0  0  0  # atno 17395 bound_to 11000

$$$$
