AV-unprocessed.smi:1954|AV-procd|sdf|7895|dock6
  -GOLD-   2272010 53D 1   1.00000     0.00000
 Structure written by MMmdl.
 44 46  0  0  0  0  0  0  0  0  1 V2000
  144.7035  136.8262  153.0514 O   0  0  0  0  0  0  0  0  0  0  0  0
  145.8845  136.6930  152.7298 C   0  0  0  0  0  0  0  0  0  0  0  0
  146.8496  137.5557  153.0786 N   0  0  0  0  0  0  0  0  0  0  0  0
  146.6672  138.7636  153.8830 C   0  0  0  0  0  0  0  0  0  0  0  0
  148.0165  139.4879  154.2059 C   0  0  2  0  0  0  0  0  0  0  0  0
  149.1471  138.5087  154.1959 N   0  0  0  0  0  0  0  0  0  0  0  0
  149.0387  137.3858  155.1385 C   0  0  0  0  0  0  0  0  0  0  0  0
  150.2011  136.3884  154.9988 C   0  0  0  0  0  0  0  0  0  0  0  0
  151.4387  137.0641  155.1744 O   0  0  0  0  0  0  0  0  0  0  0  0
  151.6169  138.1090  154.2283 C   0  0  0  0  0  0  0  0  0  0  0  0
  150.4707  139.1261  154.3575 C   0  0  0  0  0  0  0  0  0  0  0  0
  147.8532  140.2295  155.5649 C   0  0  0  0  0  0  0  0  0  0  0  0
  146.9024  141.4168  155.3809 C   0  0  0  0  0  0  0  0  0  0  0  0
  147.1494  142.0454  153.7039 S   0  0  0  0  0  0  0  0  0  0  0  0
  148.1925  140.6503  153.1951 C   0  0  0  0  0  0  0  0  0  0  0  0
  146.3816  135.6809  151.9974 N   0  0  0  0  0  0  0  0  0  0  0  0
  145.6870  134.5693  151.4503 C   0  0  0  0  0  0  0  0  0  0  0  0
  146.5082  133.5789  150.8654 C   0  0  0  0  0  0  0  0  0  0  0  0
  145.9156  132.4362  150.2938 C   0  0  0  0  0  0  0  0  0  0  0  0
  144.5153  132.3124  150.3232 C   0  0  0  0  0  0  0  0  0  0  0  0
  143.7711  133.3432  150.9261 C   0  0  0  0  0  0  0  0  0  0  0  0
  144.3367  134.4393  151.4741 N   0  0  0  0  0  0  0  0  0  0  0  0
  147.7926  137.3565  152.7782 H   0  0  0  0  0  0  0  0  0  0  0  0
  145.9932  139.4209  153.3357 H   0  0  0  0  0  0  0  0  0  0  0  0
  146.1054  138.5304  154.7874 H   0  0  0  0  0  0  0  0  0  0  0  0
  149.0095  137.7470  156.1658 H   0  0  0  0  0  0  0  0  0  0  0  0
  148.1260  136.8193  154.9698 H   0  0  0  0  0  0  0  0  0  0  0  0
  150.1161  135.6013  155.7483 H   0  0  0  0  0  0  0  0  0  0  0  0
  150.1777  135.9028  154.0219 H   0  0  0  0  0  0  0  0  0  0  0  0
  152.5756  138.5943  154.4116 H   0  0  0  0  0  0  0  0  0  0  0  0
  151.6548  137.6959  153.2191 H   0  0  0  0  0  0  0  0  0  0  0  0
  150.6394  139.8959  153.6078 H   0  0  0  0  0  0  0  0  0  0  0  0
  150.5378  139.6143  155.3303 H   0  0  0  0  0  0  0  0  0  0  0  0
  147.5303  139.5733  156.3728 H   0  0  0  0  0  0  0  0  0  0  0  0
  148.7932  140.6703  155.8889 H   0  0  0  0  0  0  0  0  0  0  0  0
  145.8638  141.1051  155.4913 H   0  0  0  0  0  0  0  0  0  0  0  0
  147.0849  142.1995  156.1177 H   0  0  0  0  0  0  0  0  0  0  0  0
  149.2161  141.0214  153.1861 H   0  0  0  0  0  0  0  0  0  0  0  0
  147.9542  140.3561  152.1725 H   0  0  0  0  0  0  0  0  0  0  0  0
  147.3723  135.7092  151.8077 H   0  0  0  0  0  0  0  0  0  0  0  0
  147.5828  133.6900  150.8510 H   0  0  0  0  0  0  0  0  0  0  0  0
  146.5259  131.6687  149.8411 H   0  0  0  0  0  0  0  0  0  0  0  0
  144.0244  131.4510  149.8952 H   0  0  0  0  0  0  0  0  0  0  0  0
  142.6936  133.2867  150.9703 H   0  0  0  0  0  0  0  0  0  0  0  0
  1  2  2  0  0  0  0
  2  3  1  0  0  0  0
  2 16  1  0  0  0  0
  3  4  1  0  0  0  0
  3 23  1  0  0  0  0
  4  5  1  0  0  0  0
  4 24  1  0  0  0  0
  4 25  1  0  0  0  0
  5 15  1  0  0  0  0
  5  6  1  0  0  0  0
  5 12  1  0  0  0  0
  6 11  1  0  0  0  0
  6  7  1  0  0  0  0
  7  8  1  0  0  0  0
  7 26  1  0  0  0  0
  7 27  1  0  0  0  0
  8  9  1  0  0  0  0
  8 28  1  0  0  0  0
  8 29  1  0  0  0  0
  9 10  1  0  0  0  0
 10 11  1  0  0  0  0
 10 30  1  0  0  0  0
 10 31  1  0  0  0  0
 11 32  1  0  0  0  0
 11 33  1  0  0  0  0
 12 13  1  0  0  0  0
 12 34  1  0  0  0  0
 12 35  1  0  0  0  0
 13 14  1  0  0  0  0
 13 36  1  0  0  0  0
 13 37  1  0  0  0  0
 14 15  1  0  0  0  0
 15 38  1  0  0  0  0
 15 39  1  0  0  0  0
 16 17  1  0  0  0  0
 16 40  1  0  0  0  0
 17 22  1  0  0  0  0
 17 18  2  0  0  0  0
 18 19  1  0  0  0  0
 18 41  1  0  0  0  0
 19 20  2  0  0  0  0
 19 42  1  0  0  0  0
 20 21  1  0  0  0  0
 20 43  1  0  0  0  0
 21 22  2  0  0  0  0
 21 44  1  0  0  0  0
M  END
> <s_m_source_file>
AV-unprocessed.smi

> <i_m_source_file_index>
1954

> <i_lp_mmshare_version>
43012

> <i_f3d_flags>
0

> <s_epik_input>
bjFbY0hdW2NIXVtjSF1bY0hdYzFbTkhdQyg9TylbTkhdW0NIMl1bQ0BdMihbQ0gyXVtDSDJdU1tDSDJdMilOM1tDSDJdW0NIMl1PW0NIMl1bQ0gyXTM=

> <s_epik_cmdline>
J2VwaWtfcHl0aG9uJywgJy1waCcsICc3LjAnLCAnLXRuJywgJzgnLCAnLW1hJywgJzIwMCcsICctbWV0YWxfYmluZGluZycsICctaW1hZScsICc8aW5maWxlLm1hZT4nLCAnLW9tYWUnLCAnPG91dGZpbGUubWFlPic=

> <r_epik_Ionization_Penalty>
0.0195535

> <r_epik_Ionization_Penalty_Charging>
0

> <r_epik_Ionization_Penalty_Neutral>
0.0195535

> <r_epik_State_Penalty>
0.0155843

> <r_epik_Charging_Adjusted_Penalty>
0.0155843

> <i_epik_Tot_Q>
0

> <i_epik_Tot_abs_Q>
0

> <r_epik_Metal_State_Penalty>
0.0155842

> <b_epik_Metal_Only>
0

> <s_lp_Force_Field>
OPLS_2005

> <r_lp_Energy>
55.0934

> <b_lp_Chiralities_Consistent>
1

> <s_lp_Variant>
AV-unprocessed.smi:1954-2

> <Gold.Version>
5.8.1

> <Gold.Id.Protein>
6NUR|6NUR_protein|mol2

> <Gold.PLP.Fitness>
43.7660

> <Gold.PLP.PLP>
-33.3521

> <Gold.PLP.part.hbond>
-3.0000

> <Gold.PLP.part.metal>
0.0000

> <Gold.PLP.part.buried>
-3.8778

> <Gold.PLP.part.nonpolar>
-27.8693

> <Gold.PLP.part.repulsive>
0.6518

> <Gold.PLP.ligand.clash>
0.0000

> <Gold.PLP.ligand.torsion>
0.7196

> <Gold.PLP.Chemscore.Hbond>
2.9673

> <Gold.PLP.Chemscore.CHOScore>
0.9609

> <Gold.PLP.Chemscore.Metal>
0.0000

> <Gold.Chemscore.Hbonds>
donor molecule, donor type, donor heavy atom, donor atom, acceptor molecule, acceptor atom, score
      L1  H     3    23       P1  7948  0.98
      L1  H    16    40       P1  7948  1.00
      P1  H 10752 10764       L1     9  0.63
      L1  C    21    44       P1 10186  0.99

> <Gold.PLP.Chemscore.Internal.Correction>
0.0686

> <Gold.Rescore>
     Score         DG    S(hbond)    S(metal)    S(lipo)     H(rot)  DE(clash)    DE(int)     intcor
     16.20     -19.70       2.29        0.00      88.90       1.49       1.51       1.99       ----

> <Gold.Chemscore.Fitness>
16.1964

> <Gold.Chemscore.DG>
-19.6997

> <Gold.Chemscore.ZeroCoef>
-5.4800

> <Gold.Chemscore.Hbond>
2.2883

> <Gold.Chemscore.Metal>
0.0000

> <Gold.Chemscore.Lipo>
88.9014

> <Gold.Chemscore.Internal_Hbond>
0.0000

> <Gold.Chemscore.DEClash>
1.5089

> <Gold.Chemscore.DEInternal>
1.9944

> <Gold.Chemscore.Rot>
1.4940

> <Gold.Chemscore.Internal.Correction>
   9.000000E+99

> <Gold.Chemscore.Hbonds>
donor molecule, donor type, donor heavy atom, donor atom, acceptor molecule, acceptor atom, score
      L1  H     3    23       P1  7948  0.93
      L1  H    16    40       P1  7948  0.99
      P1  H 10752 10764       L1     9  0.14

> <Gold.Chemscore.Hbond.Weighted>
-7.6428

> <Gold.Chemscore.Metal.Weighted>
-0.0000

> <Gold.Chemscore.Lipo.Weighted>
-10.4015

> <Gold.Chemscore.Internal_Hbond.Weighted>
0.0000

> <Gold.Chemscore.DEClash.Weighted>
1.5089

> <Gold.Chemscore.DEInternal.Weighted>
1.9944

> <Gold.Chemscore.Rot.Weighted>
3.8246

> <Gold.Chemscore.Internal.Correction.Weighted>
   9.000000E+99

> <Gold.Protein.RotatedTorsions>
[ 6907 6896 6895 6894 ] final  119.37 input  -60.11 | X-H torsion
[ 7974 7965 7964 7962 ] final  -44.05 input  175.53 | X-H torsion
[ 8008 7997 7996 7995 ] final   43.11 input   59.86 | X-H torsion
[ 10167 10162 10161 10158 ] final  134.92 input  -65.29 | X-H torsion
[ 10718 10713 10712 10709 ] final  104.22 input   66.30 | X-H torsion
[ 10763 10752 10751 10750 ] final  -57.37 input  -60.55 | X-H torsion
[ 11005 11000 10999 10996 ] final -104.25 input  -57.11 | X-H torsion

> <Gold.Protein.ActiveResidues>
 VAL166  LYS551  ARG553  GLY616  TRP617  ASP618  TYR619  PRO620  LYS621  CYS622 
 ASP623  PHE694  ASN695  SER759  ASP760  ASP761  ALA762  ILE779  LEU786  VAL792 
 PHE793  MET794  SER795  GLU796  ALA797  LYS798  CYS799  TRP800  GLU811  SER814 

> <Gold.Protein.RotatedAtoms>
  152.4477  133.7567  159.6723 H   0  0  0  0  0  0  0  0  0  0  0  0  # atno 6907 bound_to 6896
  150.8380  133.7971  159.3078 H   0  0  0  0  0  0  0  0  0  0  0  0  # atno 6908 bound_to 6896
  151.5605  135.1068  160.0023 H   0  0  0  0  0  0  0  0  0  0  0  0  # atno 6909 bound_to 6896
  145.9959  140.7129  142.9294 H   0  0  0  0  0  0  0  0  0  0  0  0  # atno 7974 bound_to 7965
  155.2973  140.3383  155.4249 H   0  0  0  0  0  0  0  0  0  0  0  0  # atno 8008 bound_to 7997
  156.2018  140.1735  156.7923 H   0  0  0  0  0  0  0  0  0  0  0  0  # atno 8009 bound_to 7997
  154.5568  140.0695  156.8741 H   0  0  0  0  0  0  0  0  0  0  0  0  # atno 8010 bound_to 7997
  139.5237  144.6543  151.5208 H   0  0  0  0  0  0  0  0  0  0  0  0  # atno 10167 bound_to 10162
  157.6747  131.0798  150.5673 H   0  0  0  0  0  0  0  0  0  0  0  0  # atno 10718 bound_to 10713
  154.2213  135.6377  153.5145 H   0  0  0  0  0  0  0  0  0  0  0  0  # atno 10763 bound_to 10752
  152.9968  135.5497  154.6111 H   0  0  0  0  0  0  0  0  0  0  0  0  # atno 10764 bound_to 10752
  154.5572  135.2906  155.0927 H   0  0  0  0  0  0  0  0  0  0  0  0  # atno 10765 bound_to 10752
  141.1109  133.8707  157.1587 H   0  0  0  0  0  0  0  0  0  0  0  0  # atno 11005 bound_to 11000
  144.6903  140.3149  143.7242 LP  0  0  0  0  0  0  0  0  0  0  0  0  # atno 17320 bound_to 7965
  145.7561  139.1809  143.2294 LP  0  0  0  0  0  0  0  0  0  0  0  0  # atno 17321 bound_to 7965
  140.6362  143.8979  150.6649 LP  0  0  0  0  0  0  0  0  0  0  0  0  # atno 17342 bound_to 10162
  140.2299  143.3743  152.1574 LP  0  0  0  0  0  0  0  0  0  0  0  0  # atno 17343 bound_to 10162
  156.5975  130.4345  149.5911 LP  0  0  0  0  0  0  0  0  0  0  0  0  # atno 17370 bound_to 10713
  156.2533  130.6920  151.1665 LP  0  0  0  0  0  0  0  0  0  0  0  0  # atno 17371 bound_to 10713
  140.0002  135.0030  157.0174 LP  0  0  0  0  0  0  0  0  0  0  0  0  # atno 17394 bound_to 11000
  140.4778  134.1321  155.7212 LP  0  0  0  0  0  0  0  0  0  0  0  0  # atno 17395 bound_to 11000

$$$$
