AV-unprocessed.smi:2693|AV-procd|sdf|10397|dock9
  -GOLD-   2272014433D 1   1.00000     0.00000
 Structure written by MMmdl.
 45 47  0  0  0  0  0  0  0  0  1 V2000
  151.8393  140.8215  158.1655 C   0  0  0  0  0  0  0  0  0  0  0  0
  151.0668  141.1470  156.9704 N   0  0  0  0  0  0  0  0  0  0  0  0
  151.0534  142.5404  156.5342 C   0  0  0  0  0  0  0  0  0  0  0  0
  150.3620  140.1622  156.2721 C   0  0  0  0  0  0  0  0  0  0  0  0
  150.3327  140.2544  154.9360 N   0  0  0  0  0  0  0  0  0  0  0  0
  149.6553  139.3045  154.2579 C   0  0  0  0  0  0  0  0  0  0  0  0
  148.9894  138.2500  154.9138 C   0  0  0  0  0  0  0  0  0  0  0  0
  148.3109  137.2738  154.1366 N   0  0  0  0  0  0  0  0  0  0  0  0
  147.1908  136.5975  154.4412 C   0  0  0  0  0  0  0  0  0  0  0  0
  146.5214  136.7501  155.4624 O   0  0  0  0  0  0  0  0  0  0  0  0
  146.8661  135.7369  153.4680 N   0  0  0  0  0  0  0  0  0  0  0  0
  145.6830  134.8701  153.4850 C   0  0  2  0  0  0  0  0  0  0  0  0
  145.7599  133.7479  152.4471 C   0  0  2  0  0  0  0  0  0  0  0  0
  146.8371  133.1077  151.6484 C   0  0  0  0  0  0  0  0  0  0  0  0
  146.0512  133.0052  150.3129 C   0  0  0  0  0  0  0  0  0  0  0  0
  144.8428  133.7867  150.4987 O   0  0  0  0  0  0  0  0  0  0  0  0
  145.2088  134.7565  151.4602 C   0  0  1  0  0  0  0  0  0  0  0  0
  144.4482  135.3902  152.6467 C   0  0  0  0  0  0  0  0  0  0  0  0
  143.0665  134.8046  152.9896 C   0  0  0  0  0  0  0  0  0  0  0  0
  144.2492  136.9079  152.5661 C   0  0  0  0  0  0  0  0  0  0  0  0
  149.0906  138.2424  156.3254 C   0  0  0  0  0  0  0  0  0  0  0  0
  149.7736  139.1977  156.9916 N   0  0  0  0  0  0  0  0  0  0  0  0
  151.1765  140.4944  158.9667 H   0  0  0  0  0  0  0  0  0  0  0  0
  152.4071  141.6781  158.5286 H   0  0  0  0  0  0  0  0  0  0  0  0
  152.5493  140.0209  157.9562 H   0  0  0  0  0  0  0  0  0  0  0  0
  150.0290  142.9000  156.4321 H   0  0  0  0  0  0  0  0  0  0  0  0
  151.5511  142.6399  155.5694 H   0  0  0  0  0  0  0  0  0  0  0  0
  151.5617  143.1934  157.2437 H   0  0  0  0  0  0  0  0  0  0  0  0
  149.6447  139.3904  153.1813 H   0  0  0  0  0  0  0  0  0  0  0  0
  148.7035  137.0972  153.2233 H   0  0  0  0  0  0  0  0  0  0  0  0
  147.4670  135.6770  152.6593 H   0  0  0  0  0  0  0  0  0  0  0  0
  145.4112  134.5084  154.4782 H   0  0  0  0  0  0  0  0  0  0  0  0
  145.0307  132.9812  152.7199 H   0  0  0  0  0  0  0  0  0  0  0  0
  147.7186  133.7433  151.5576 H   0  0  0  0  0  0  0  0  0  0  0  0
  147.1339  132.1336  152.0378 H   0  0  0  0  0  0  0  0  0  0  0  0
  146.6389  133.4049  149.4854 H   0  0  0  0  0  0  0  0  0  0  0  0
  145.7866  131.9749  150.0737 H   0  0  0  0  0  0  0  0  0  0  0  0
  145.9623  135.4349  151.0468 H   0  0  0  0  0  0  0  0  0  0  0  0
  142.3437  135.0110  152.1995 H   0  0  0  0  0  0  0  0  0  0  0  0
  142.6725  135.2361  153.9104 H   0  0  0  0  0  0  0  0  0  0  0  0
  143.0732  133.7254  153.1318 H   0  0  0  0  0  0  0  0  0  0  0  0
  143.4417  137.1714  151.8821 H   0  0  0  0  0  0  0  0  0  0  0  0
  145.1420  137.4200  152.2073 H   0  0  0  0  0  0  0  0  0  0  0  0
  144.0062  137.3293  153.5419 H   0  0  0  0  0  0  0  0  0  0  0  0
  148.6522  137.4720  156.9398 H   0  0  0  0  0  0  0  0  0  0  0  0
  1  2  1  0  0  0  0
  1 23  1  0  0  0  0
  1 24  1  0  0  0  0
  1 25  1  0  0  0  0
  2  3  1  0  0  0  0
  2  4  1  0  0  0  0
  3 26  1  0  0  0  0
  3 27  1  0  0  0  0
  3 28  1  0  0  0  0
  4 22  1  0  0  0  0
  4  5  2  0  0  0  0
  5  6  1  0  0  0  0
  6  7  2  0  0  0  0
  6 29  1  0  0  0  0
  7  8  1  0  0  0  0
  7 21  1  0  0  0  0
  8  9  1  0  0  0  0
  8 30  1  0  0  0  0
  9 10  2  0  0  0  0
  9 11  1  0  0  0  0
 11 12  1  0  0  0  0
 11 31  1  0  0  0  0
 12 18  1  0  0  0  0
 12 13  1  0  0  0  0
 12 32  1  0  0  0  0
 13 17  1  0  0  0  0
 13 14  1  0  0  0  0
 13 33  1  0  0  0  0
 14 15  1  0  0  0  0
 14 34  1  0  0  0  0
 14 35  1  0  0  0  0
 15 16  1  0  0  0  0
 15 36  1  0  0  0  0
 15 37  1  0  0  0  0
 16 17  1  0  0  0  0
 17 18  1  0  0  0  0
 17 38  1  0  0  0  0
 18 19  1  0  0  0  0
 18 20  1  0  0  0  0
 19 39  1  0  0  0  0
 19 40  1  0  0  0  0
 19 41  1  0  0  0  0
 20 42  1  0  0  0  0
 20 43  1  0  0  0  0
 20 44  1  0  0  0  0
 21 22  2  0  0  0  0
 21 45  1  0  0  0  0
M  END
> <s_m_source_file>
AV-unprocessed.smi

> <i_m_source_file_index>
2693

> <i_lp_mmshare_version>
43012

> <i_f3d_flags>
0

> <s_epik_input>
W0NIM11OKFtDSDNdKWMxbltjSF1jKFtjSF1uMSlbTkhdQyg9TylbTkhdW0NASF0yQyhbQ0gzXSkoW0NIM10pW0NAQEhdKFtDQEhdMjMpT1tDSDJdW0NIMl0z

> <s_epik_cmdline>
J2VwaWtfcHl0aG9uJywgJy1waCcsICc3LjAnLCAnLXRuJywgJzgnLCAnLW1hJywgJzIwMCcsICctbWV0YWxfYmluZGluZycsICctaW1hZScsICc8aW5maWxlLm1hZT4nLCAnLW9tYWUnLCAnPG91dGZpbGUubWFlPic=

> <r_lp_tautomer_probability>
1

> <r_epik_Ionization_Penalty>
0.00031779

> <r_epik_Ionization_Penalty_Charging>
0

> <r_epik_Ionization_Penalty_Neutral>
0.00031779

> <r_epik_State_Penalty>
-0

> <r_epik_Charging_Adjusted_Penalty>
0

> <i_epik_Tot_Q>
0

> <i_epik_Tot_abs_Q>
0

> <r_epik_Metal_State_Penalty>
-0

> <b_epik_Metal_Only>
0

> <s_lp_Force_Field>
OPLS_2005

> <r_lp_Energy>
57.3168

> <b_lp_Chiralities_Consistent>
1

> <s_lp_Variant>
AV-unprocessed.smi:2693-1

> <Gold.Version>
5.8.1

> <Gold.Id.Protein>
6NUR|6NUR_protein|mol2

> <Gold.PLP.Fitness>
38.4099

> <Gold.PLP.PLP>
-28.2702

> <Gold.PLP.part.hbond>
-3.0000

> <Gold.PLP.part.metal>
0.0000

> <Gold.PLP.part.buried>
-2.8865

> <Gold.PLP.part.nonpolar>
-22.1652

> <Gold.PLP.part.repulsive>
0.2441

> <Gold.PLP.ligand.clash>
0.0000

> <Gold.PLP.ligand.torsion>
1.0250

> <Gold.PLP.Chemscore.Hbond>
2.9760

> <Gold.PLP.Chemscore.CHOScore>
1.0000

> <Gold.PLP.Chemscore.Metal>
0.0000

> <Gold.Chemscore.Hbonds>
donor molecule, donor type, donor heavy atom, donor atom, acceptor molecule, acceptor atom, score
      L1  H     8    30       P1  7948  1.00
      L1  H    11    31       P1  7948  0.98
      P1  H  7989  7998       L1     5  0.99
      L1  C     6    29       P1  7957  1.00

> <Gold.PLP.Chemscore.Internal.Correction>
0.2618

> <Gold.Rescore>
     Score         DG    S(hbond)    S(metal)    S(lipo)     H(rot)  DE(clash)    DE(int)     intcor
     16.73     -17.63       2.23        0.00      61.98       1.00       0.05       0.85       ----

> <Gold.Chemscore.Fitness>
16.7329

> <Gold.Chemscore.DG>
-17.6300

> <Gold.Chemscore.ZeroCoef>
-5.4800

> <Gold.Chemscore.Hbond>
2.2332

> <Gold.Chemscore.Metal>
0.0000

> <Gold.Chemscore.Lipo>
61.9753

> <Gold.Chemscore.Internal_Hbond>
0.0000

> <Gold.Chemscore.DEClash>
0.0477

> <Gold.Chemscore.DEInternal>
0.8494

> <Gold.Chemscore.Rot>
1.0000

> <Gold.Chemscore.Internal.Correction>
   9.000000E+99

> <Gold.Chemscore.Hbonds>
donor molecule, donor type, donor heavy atom, donor atom, acceptor molecule, acceptor atom, score
      L1  H     8    30       P1  7948  0.98
      L1  H    11    31       P1  7948  0.92
      P1  H  7989  7998       L1     5  0.24

> <Gold.Chemscore.Hbond.Weighted>
-7.4589

> <Gold.Chemscore.Metal.Weighted>
-0.0000

> <Gold.Chemscore.Lipo.Weighted>
-7.2511

> <Gold.Chemscore.Internal_Hbond.Weighted>
0.0000

> <Gold.Chemscore.DEClash.Weighted>
0.0477

> <Gold.Chemscore.DEInternal.Weighted>
0.8494

> <Gold.Chemscore.Rot.Weighted>
2.5600

> <Gold.Chemscore.Internal.Correction.Weighted>
   9.000000E+99

> <Gold.Protein.RotatedTorsions>
[ 6907 6896 6895 6894 ] final -126.58 input  -60.11 | X-H torsion
[ 7974 7965 7964 7962 ] final  139.21 input  175.53 | X-H torsion
[ 8008 7997 7996 7995 ] final  -75.34 input   59.86 | X-H torsion
[ 10167 10162 10161 10158 ] final -117.93 input  -65.29 | X-H torsion
[ 10718 10713 10712 10709 ] final -164.37 input   66.30 | X-H torsion
[ 10763 10752 10751 10750 ] final -124.90 input  -60.55 | X-H torsion
[ 11005 11000 10999 10996 ] final  165.70 input  -57.11 | X-H torsion

> <Gold.Protein.ActiveResidues>
 VAL166  LYS551  ARG553  GLY616  TRP617  ASP618  TYR619  PRO620  LYS621  CYS622 
 ASP623  PHE694  ASN695  SER759  ASP760  ASP761  ALA762  ILE779  LEU786  VAL792 
 PHE793  MET794  SER795  GLU796  ALA797  LYS798  CYS799  TRP800  GLU811  SER814 

> <Gold.Protein.RotatedAtoms>
  150.8984  133.7151  159.2885 H   0  0  0  0  0  0  0  0  0  0  0  0  # atno 6907 bound_to 6896
  151.4678  135.1042  159.9752 H   0  0  0  0  0  0  0  0  0  0  0  0  # atno 6908 bound_to 6896
  152.4862  133.8331  159.7169 H   0  0  0  0  0  0  0  0  0  0  0  0  # atno 6909 bound_to 6896
  144.9300  139.5059  143.5622 H   0  0  0  0  0  0  0  0  0  0  0  0  # atno 7974 bound_to 7965
  154.5408  140.0746  156.8507 H   0  0  0  0  0  0  0  0  0  0  0  0  # atno 8008 bound_to 7997
  155.3184  140.3394  155.4223 H   0  0  0  0  0  0  0  0  0  0  0  0  # atno 8009 bound_to 7997
  156.1873  140.1673  156.8147 H   0  0  0  0  0  0  0  0  0  0  0  0  # atno 8010 bound_to 7997
  140.0630  143.4950  152.2021 H   0  0  0  0  0  0  0  0  0  0  0  0  # atno 10167 bound_to 10162
  156.6381  130.8957  151.2991 H   0  0  0  0  0  0  0  0  0  0  0  0  # atno 10718 bound_to 10713
  154.8729  135.4048  154.3181 H   0  0  0  0  0  0  0  0  0  0  0  0  # atno 10763 bound_to 10752
  153.4014  135.7018  153.6429 H   0  0  0  0  0  0  0  0  0  0  0  0  # atno 10764 bound_to 10752
  153.5170  135.3695  155.2584 H   0  0  0  0  0  0  0  0  0  0  0  0  # atno 10765 bound_to 10752
  140.2588  134.7918  157.3571 H   0  0  0  0  0  0  0  0  0  0  0  0  # atno 11005 bound_to 11000
  146.3243  139.8244  142.8920 LP  0  0  0  0  0  0  0  0  0  0  0  0  # atno 17320 bound_to 7965
  145.3157  141.0231  143.3529 LP  0  0  0  0  0  0  0  0  0  0  0  0  # atno 17321 bound_to 7965
  139.5882  144.7539  151.3467 LP  0  0  0  0  0  0  0  0  0  0  0  0  # atno 17342 bound_to 10162
  140.7163  143.7258  150.7661 LP  0  0  0  0  0  0  0  0  0  0  0  0  # atno 17343 bound_to 10162
  157.7179  130.9521  150.1326 LP  0  0  0  0  0  0  0  0  0  0  0  0  # atno 17370 bound_to 10713
  156.2181  130.3672  149.8589 LP  0  0  0  0  0  0  0  0  0  0  0  0  # atno 17371 bound_to 10713
  140.1485  134.4880  155.7979 LP  0  0  0  0  0  0  0  0  0  0  0  0  # atno 17394 bound_to 11000
  141.2193  133.6853  156.7336 LP  0  0  0  0  0  0  0  0  0  0  0  0  # atno 17395 bound_to 11000

$$$$
