AV-unprocessed.smi:1929|AV-procd|sdf|7804|dock6
  -GOLD-   22720 9543D 1   1.00000     0.00000
 Structure written by MMmdl.
 44 45  0  0  0  0  0  0  0  0  3 V2000
  140.5484  140.8235  154.3743 C   0  0  0  0  0  0  0  0  0  0  0  0
  141.7420  141.6558  154.3668 N   0  0  0  0  0  0  0  0  0  0  0  0
  142.4300  141.9956  155.4656 C   0  0  0  0  0  0  0  0  0  0  0  0
  142.1194  141.6243  156.5981 O   0  0  0  0  0  0  0  0  0  0  0  0
  143.6657  142.8748  155.2485 C   0  0  0  0  0  0  0  0  0  0  0  0
  144.8459  142.1083  154.7720 N   0  3  2  0  0  0  0  0  0  0  0  0
  145.5247  141.3509  155.8573 C   0  0  0  0  0  0  0  0  0  0  0  0
  146.6478  140.4630  155.2944 C   0  0  0  0  0  0  0  0  0  0  0  0
  147.6729  141.2758  154.4780 C   0  0  2  0  0  0  0  0  0  0  0  0
  148.4926  142.1392  155.3285 N   0  0  0  0  0  0  0  0  0  0  0  0
  149.3975  141.7127  156.2222 C   0  0  0  0  0  0  0  0  0  0  0  0
  149.6163  140.5231  156.4475 O   0  0  0  0  0  0  0  0  0  0  0  0
  150.0025  142.7456  156.8346 N   0  0  0  0  0  0  0  0  0  0  0  0
  151.0239  142.7212  157.8241 C   0  0  0  0  0  0  0  0  0  0  0  0
  151.7600  143.9098  158.0281 C   0  0  0  0  0  0  0  0  0  0  0  0
  152.7936  143.9336  158.9866 C   0  0  0  0  0  0  0  0  0  0  0  0
  153.0784  142.8207  159.6960 N   0  3  0  0  0  0  0  0  0  0  0  0
  152.4125  141.6584  159.5281 C   0  0  0  0  0  0  0  0  0  0  0  0
  151.3690  141.5737  158.5838 C   0  0  0  0  0  0  0  0  0  0  0  0
  146.9407  142.1086  153.4114 C   0  0  0  0  0  0  0  0  0  0  0  0
  145.8032  142.9541  154.0144 C   0  0  0  0  0  0  0  0  0  0  0  0
  140.1628  140.7168  153.3604 H   0  0  0  0  0  0  0  0  0  0  0  0
  139.7666  141.2693  154.9909 H   0  0  0  0  0  0  0  0  0  0  0  0
  140.7717  139.8283  154.7611 H   0  0  0  0  0  0  0  0  0  0  0  0
  142.0627  141.9928  153.4702 H   0  0  0  0  0  0  0  0  0  0  0  0
  143.3878  143.6217  154.5039 H   0  0  0  0  0  0  0  0  0  0  0  0
  143.9163  143.4194  156.1606 H   0  0  0  0  0  0  0  0  0  0  0  0
  145.9273  142.0483  156.5936 H   0  0  0  0  0  0  0  0  0  0  0  0
  144.8061  140.7220  156.3837 H   0  0  0  0  0  0  0  0  0  0  0  0
  147.1386  139.9221  156.1042 H   0  0  0  0  0  0  0  0  0  0  0  0
  146.2060  139.7004  154.6514 H   0  0  0  0  0  0  0  0  0  0  0  0
  148.3415  140.5827  153.9639 H   0  0  0  0  0  0  0  0  0  0  0  0
  148.3794  143.1353  155.2084 H   0  0  0  0  0  0  0  0  0  0  0  0
  149.6597  143.6637  156.5930 H   0  0  0  0  0  0  0  0  0  0  0  0
  151.5351  144.8009  157.4598 H   0  0  0  0  0  0  0  0  0  0  0  0
  153.3974  144.8025  159.2040 H   0  0  0  0  0  0  0  0  0  0  0  0
  152.7358  140.8333  160.1460 H   0  0  0  0  0  0  0  0  0  0  0  0
  150.8665  140.6277  158.4557 H   0  0  0  0  0  0  0  0  0  0  0  0
  147.6460  142.7505  152.8818 H   0  0  0  0  0  0  0  0  0  0  0  0
  146.5224  141.4366  152.6606 H   0  0  0  0  0  0  0  0  0  0  0  0
  145.2795  143.4700  153.2088 H   0  0  0  0  0  0  0  0  0  0  0  0
  146.2081  143.7252  154.6717 H   0  0  0  0  0  0  0  0  0  0  0  0
  144.4889  141.4268  154.1166 H   0  0  0  0  0  0  0  0  0  0  0  0
  153.8311  142.8581  160.3840 H   0  0  0  0  0  0  0  0  0  0  0  0
  1  2  1  0  0  0  0
  1 22  1  0  0  0  0
  1 23  1  0  0  0  0
  1 24  1  0  0  0  0
  2  3  1  0  0  0  0
  2 25  1  0  0  0  0
  3  4  2  0  0  0  0
  3  5  1  0  0  0  0
  5  6  1  0  0  0  0
  5 26  1  0  0  0  0
  5 27  1  0  0  0  0
  6 21  1  0  0  0  0
  6  7  1  0  0  0  0
  6 43  1  0  0  0  0
  7  8  1  0  0  0  0
  7 28  1  0  0  0  0
  7 29  1  0  0  0  0
  8  9  1  0  0  0  0
  8 30  1  0  0  0  0
  8 31  1  0  0  0  0
  9 10  1  0  0  0  0
  9 20  1  0  0  0  0
  9 32  1  0  0  0  0
 10 11  1  0  0  0  0
 10 33  1  0  0  0  0
 11 12  2  0  0  0  0
 11 13  1  0  0  0  0
 13 14  1  0  0  0  0
 13 34  1  0  0  0  0
 14 19  1  0  0  0  0
 14 15  2  0  0  0  0
 15 16  1  0  0  0  0
 15 35  1  0  0  0  0
 16 17  2  0  0  0  0
 16 36  1  0  0  0  0
 17 18  1  0  0  0  0
 17 44  1  0  0  0  0
 18 19  2  0  0  0  0
 18 37  1  0  0  0  0
 19 38  1  0  0  0  0
 20 21  1  0  0  0  0
 20 39  1  0  0  0  0
 20 40  1  0  0  0  0
 21 41  1  0  0  0  0
 21 42  1  0  0  0  0
M  CHG  1   6   1
M  CHG  1  17   1
M  END
> <s_m_source_file>
AV-unprocessed.smi

> <i_m_source_file_index>
1929

> <i_lp_mmshare_version>
43012

> <i_f3d_flags>
0

> <s_epik_input>
W0NIM11bTkhdQyg9TylbQ0gyXU4xW0NIMl1bQ0gyXVtDSF0oW0NIMl1bQ0gyXTEpW05IXUMoPU8pW05IXWMyW2NIXVtjSF1uW2NIXVtjSF0y

> <s_epik_cmdline>
J2VwaWtfcHl0aG9uJywgJy1waCcsICc3LjAnLCAnLXRuJywgJzgnLCAnLW1hJywgJzIwMCcsICctbWV0YWxfYmluZGluZycsICctaW1hZScsICc8aW5maWxlLm1hZT4nLCAnLW9tYWUnLCAnPG91dGZpbGUubWFlPic=

> <r_epik_Ionization_Penalty>
1.97435

> <r_epik_Ionization_Penalty_Charging>
1.97431

> <r_epik_Ionization_Penalty_Neutral>
3.89585e-05

> <r_epik_State_Penalty>
2.00691

> <r_epik_Charging_Adjusted_Penalty>
3.98122

> <i_epik_Tot_Q>
2

> <i_epik_Tot_abs_Q>
2

> <r_epik_Metal_State_Penalty>
2.11022

> <b_epik_Metal_Only>
0

> <s_lp_Force_Field>
OPLS_2005

> <r_lp_Energy>
26.8992

> <b_lp_Chiralities_Consistent>
1

> <s_lp_Variant>
AV-unprocessed.smi:1929-6

> <Gold.Version>
5.8.1

> <Gold.Id.Protein>
6NUR|6NUR_protein|mol2

> <Gold.PLP.Fitness>
47.3723

> <Gold.PLP.PLP>
-33.6691

> <Gold.PLP.part.hbond>
-5.0000

> <Gold.PLP.part.metal>
0.0000

> <Gold.PLP.part.buried>
-4.8197

> <Gold.PLP.part.nonpolar>
-24.9732

> <Gold.PLP.part.repulsive>
0.2936

> <Gold.PLP.ligand.clash>
0.0000

> <Gold.PLP.ligand.torsion>
0.6236

> <Gold.PLP.Chemscore.Hbond>
4.9745

> <Gold.PLP.Chemscore.CHOScore>
0.0000

> <Gold.PLP.Chemscore.Metal>
0.0000

> <Gold.Chemscore.Hbonds>
donor molecule, donor type, donor heavy atom, donor atom, acceptor molecule, acceptor atom, score
      L1  H     2    25       P1 10174  0.98
      L1  H     6    43       P1 10175  2.00
      L1  H    10    33       P1  8028  0.98
      L1  H    13    34       P1  8028  1.00

> <Gold.PLP.Chemscore.Internal.Correction>
0.0268

> <Gold.Rescore>
     Score         DG    S(hbond)    S(metal)    S(lipo)     H(rot)  DE(clash)    DE(int)     intcor
     18.79     -20.72       3.11        0.00      78.96       1.71       0.02       1.92       ----

> <Gold.Chemscore.Fitness>
18.7854

> <Gold.Chemscore.DG>
-20.7241

> <Gold.Chemscore.ZeroCoef>
-5.4800

> <Gold.Chemscore.Hbond>
3.1106

> <Gold.Chemscore.Metal>
0.0000

> <Gold.Chemscore.Lipo>
78.9618

> <Gold.Chemscore.Internal_Hbond>
0.0000

> <Gold.Chemscore.DEClash>
0.0197

> <Gold.Chemscore.DEInternal>
1.9191

> <Gold.Chemscore.Rot>
1.7124

> <Gold.Chemscore.Internal.Correction>
   9.000000E+99

> <Gold.Chemscore.Hbonds>
donor molecule, donor type, donor heavy atom, donor atom, acceptor molecule, acceptor atom, score
      L1  H     2    25       P1 10174  0.32
      L1  H     6    43       P1 10175  0.37
      L1  H    10    33       P1  8028  0.93
      L1  H    13    34       P1  8028  0.97

> <Gold.Chemscore.Hbond.Weighted>
-10.3894

> <Gold.Chemscore.Metal.Weighted>
-0.0000

> <Gold.Chemscore.Lipo.Weighted>
-9.2385

> <Gold.Chemscore.Internal_Hbond.Weighted>
0.0000

> <Gold.Chemscore.DEClash.Weighted>
0.0197

> <Gold.Chemscore.DEInternal.Weighted>
1.9191

> <Gold.Chemscore.Rot.Weighted>
4.3838

> <Gold.Chemscore.Internal.Correction.Weighted>
   9.000000E+99

> <Gold.Protein.RotatedTorsions>
[ 6907 6896 6895 6894 ] final  -20.35 input  -60.11 | X-H torsion
[ 7974 7965 7964 7962 ] final  141.70 input  175.53 | X-H torsion
[ 8008 7997 7996 7995 ] final   83.55 input   59.86 | X-H torsion
[ 10167 10162 10161 10158 ] final  -26.04 input  -65.29 | X-H torsion
[ 10718 10713 10712 10709 ] final  -77.05 input   66.30 | X-H torsion
[ 10763 10752 10751 10750 ] final -138.02 input  -60.55 | X-H torsion
[ 11005 11000 10999 10996 ] final -133.77 input  -57.11 | X-H torsion

> <Gold.Protein.ActiveResidues>
 VAL166  LYS551  ARG553  GLY616  TRP617  ASP618  TYR619  PRO620  LYS621  CYS622 
 ASP623  PHE694  ASN695  SER759  ASP760  ASP761  ALA762  ILE779  LEU786  VAL792 
 PHE793  MET794  SER795  GLU796  ALA797  LYS798  CYS799  TRP800  GLU811  SER814 

> <Gold.Protein.RotatedAtoms>
  151.2495  135.0617  159.9055 H   0  0  0  0  0  0  0  0  0  0  0  0  # atno 6907 bound_to 6896
  152.5382  134.0348  159.8051 H   0  0  0  0  0  0  0  0  0  0  0  0  # atno 6908 bound_to 6896
  151.0553  133.5540  159.2670 H   0  0  0  0  0  0  0  0  0  0  0  0  # atno 6909 bound_to 6896
  144.9073  139.5341  143.5725 H   0  0  0  0  0  0  0  0  0  0  0  0  # atno 7974 bound_to 7965
  155.9254  140.3418  155.6206 H   0  0  0  0  0  0  0  0  0  0  0  0  # atno 8008 bound_to 7997
  155.7223  140.0785  157.2344 H   0  0  0  0  0  0  0  0  0  0  0  0  # atno 8009 bound_to 7997
  154.4076  140.1603  156.2403 H   0  0  0  0  0  0  0  0  0  0  0  0  # atno 8010 bound_to 7997
  140.7284  143.4213  151.0947 H   0  0  0  0  0  0  0  0  0  0  0  0  # atno 10167 bound_to 10162
  156.0156  130.4481  150.3286 H   0  0  0  0  0  0  0  0  0  0  0  0  # atno 10718 bound_to 10713
  154.8647  135.3625  154.5317 H   0  0  0  0  0  0  0  0  0  0  0  0  # atno 10763 bound_to 10752
  153.5942  135.7014  153.5415 H   0  0  0  0  0  0  0  0  0  0  0  0  # atno 10764 bound_to 10752
  153.3347  135.4114  155.1485 H   0  0  0  0  0  0  0  0  0  0  0  0  # atno 10765 bound_to 10752
  140.9050  134.1641  157.4432 H   0  0  0  0  0  0  0  0  0  0  0  0  # atno 11005 bound_to 11000
  146.3140  139.7850  142.8998 LP  0  0  0  0  0  0  0  0  0  0  0  0  # atno 17320 bound_to 7965
  145.3515  141.0308  143.3336 LP  0  0  0  0  0  0  0  0  0  0  0  0  # atno 17321 bound_to 7965
  139.7859  143.8288  152.3145 LP  0  0  0  0  0  0  0  0  0  0  0  0  # atno 17342 bound_to 10162
  139.8255  144.7277  150.9517 LP  0  0  0  0  0  0  0  0  0  0  0  0  # atno 17343 bound_to 10162
  157.1384  131.0290  151.2938 LP  0  0  0  0  0  0  0  0  0  0  0  0  # atno 17370 bound_to 10713
  157.4492  130.7588  149.7136 LP  0  0  0  0  0  0  0  0  0  0  0  0  # atno 17371 bound_to 10713
  139.8748  134.9913  156.5544 LP  0  0  0  0  0  0  0  0  0  0  0  0  # atno 17394 bound_to 11000
  140.8182  133.8375  155.8871 LP  0  0  0  0  0  0  0  0  0  0  0  0  # atno 17395 bound_to 11000

$$$$
