AV-unprocessed.smi:3349|AV-procd|sdf|12936|dock7
  -GOLD-   2272019363D 1   1.00000     0.00000
 Structure written by MMmdl.
 41 42  0  0  0  0  0  0  0  0  2 V2000
  147.3961  133.5207  155.7317 C   0  0  0  0  0  0  0  0  0  0  0  0
  147.9100  134.7017  154.8702 C   0  0  1  0  0  0  0  0  0  0  0  0
  149.4613  134.7537  154.9030 C   0  0  0  0  0  0  0  0  0  0  0  0
  149.9870  136.0151  154.3940 N   0  0  0  0  0  0  0  0  0  0  0  0
  150.6864  136.8999  155.1203 C   0  0  0  0  0  0  0  0  0  0  0  0
  150.9850  136.7119  156.3003 O   0  0  0  0  0  0  0  0  0  0  0  0
  151.0971  138.1921  154.3972 C   0  0  2  0  0  0  0  0  0  0  0  0
  152.6180  138.4346  154.4124 C   0  0  0  0  0  0  0  0  0  0  0  0
  150.3800  139.3292  154.9579 N   0  0  0  0  0  0  0  0  0  0  0  0
  149.4820  140.1544  154.4119 C   0  0  0  0  0  0  0  0  0  0  0  0
  149.0523  141.1005  155.2349 N   0  0  0  0  0  0  0  0  0  0  0  0
  149.7737  140.7783  156.3493 C   0  0  0  0  0  0  0  0  0  0  0  0
  150.5877  139.7287  156.2356 N   0  0  0  0  0  0  0  0  0  0  0  0
  147.3703  134.6352  153.4699 N   0  3  0  0  0  0  0  0  0  0  0  0
  147.6216  133.3286  152.7982 C   0  0  0  0  0  0  0  0  0  0  0  0
  147.0708  133.3153  151.3624 C   0  0  0  0  0  0  0  0  0  0  0  0
  145.6820  133.6023  151.3819 O   0  0  0  0  0  0  0  0  0  0  0  0
  145.4349  134.8995  151.8992 C   0  0  0  0  0  0  0  0  0  0  0  0
  145.9259  134.9853  153.3545 C   0  0  0  0  0  0  0  0  0  0  0  0
  147.8306  133.5171  156.7311 H   0  0  0  0  0  0  0  0  0  0  0  0
  147.6347  132.5621  155.2702 H   0  0  0  0  0  0  0  0  0  0  0  0
  146.3202  133.5608  155.8929 H   0  0  0  0  0  0  0  0  0  0  0  0
  147.5419  135.6259  155.3189 H   0  0  0  0  0  0  0  0  0  0  0  0
  149.8140  134.5855  155.9223 H   0  0  0  0  0  0  0  0  0  0  0  0
  149.8997  133.9804  154.2736 H   0  0  0  0  0  0  0  0  0  0  0  0
  149.7850  136.2450  153.4314 H   0  0  0  0  0  0  0  0  0  0  0  0
  150.7951  138.0837  153.3535 H   0  0  0  0  0  0  0  0  0  0  0  0
  153.1574  137.5932  153.9759 H   0  0  0  0  0  0  0  0  0  0  0  0
  152.9953  138.5828  155.4251 H   0  0  0  0  0  0  0  0  0  0  0  0
  152.8746  139.3218  153.8327 H   0  0  0  0  0  0  0  0  0  0  0  0
  149.1399  140.0635  153.3913 H   0  0  0  0  0  0  0  0  0  0  0  0
  149.6991  141.3361  157.2711 H   0  0  0  0  0  0  0  0  0  0  0  0
  148.6871  133.1164  152.7355 H   0  0  0  0  0  0  0  0  0  0  0  0
  147.1654  132.5253  153.3787 H   0  0  0  0  0  0  0  0  0  0  0  0
  147.5985  134.0349  150.7342 H   0  0  0  0  0  0  0  0  0  0  0  0
  147.2200  132.3334  150.9130 H   0  0  0  0  0  0  0  0  0  0  0  0
  145.9218  135.6536  151.2785 H   0  0  0  0  0  0  0  0  0  0  0  0
  144.3638  135.0974  151.8541 H   0  0  0  0  0  0  0  0  0  0  0  0
  145.3365  134.3208  153.9885 H   0  0  0  0  0  0  0  0  0  0  0  0
  145.7415  136.0046  153.6885 H   0  0  0  0  0  0  0  0  0  0  0  0
  147.8718  135.3319  152.9373 H   0  0  0  0  0  0  0  0  0  0  0  0
  1  2  1  0  0  0  0
  1 20  1  0  0  0  0
  1 21  1  0  0  0  0
  1 22  1  0  0  0  0
  2  3  1  0  0  0  0
  2 14  1  0  0  0  0
  2 23  1  0  0  0  0
  3  4  1  0  0  0  0
  3 24  1  0  0  0  0
  3 25  1  0  0  0  0
  4  5  1  0  0  0  0
  4 26  1  0  0  0  0
  5  6  2  0  0  0  0
  5  7  1  0  0  0  0
  7  8  1  0  0  0  0
  7  9  1  0  0  0  0
  7 27  1  0  0  0  0
  8 28  1  0  0  0  0
  8 29  1  0  0  0  0
  8 30  1  0  0  0  0
  9 13  1  0  0  0  0
  9 10  1  0  0  0  0
 10 11  2  0  0  0  0
 10 31  1  0  0  0  0
 11 12  1  0  0  0  0
 12 13  2  0  0  0  0
 12 32  1  0  0  0  0
 14 19  1  0  0  0  0
 14 15  1  0  0  0  0
 14 41  1  0  0  0  0
 15 16  1  0  0  0  0
 15 33  1  0  0  0  0
 15 34  1  0  0  0  0
 16 17  1  0  0  0  0
 16 35  1  0  0  0  0
 16 36  1  0  0  0  0
 17 18  1  0  0  0  0
 18 19  1  0  0  0  0
 18 37  1  0  0  0  0
 18 38  1  0  0  0  0
 19 39  1  0  0  0  0
 19 40  1  0  0  0  0
M  CHG  1  14   1
M  END
> <s_m_source_file>
AV-unprocessed.smi

> <i_m_source_file_index>
3349

> <i_lp_mmshare_version>
43012

> <i_f3d_flags>
0

> <s_epik_input>
W0NIMl0xW0NIMl1PW0NIMl1bQ0gyXU4xW0NASF0oW0NIM10pW0NIMl1bTkhdQyg9TylbQ0BIXShbQ0gzXSluMltjSF1uW2NIXW4y

> <s_epik_cmdline>
J2VwaWtfcHl0aG9uJywgJy1waCcsICc3LjAnLCAnLXRuJywgJzgnLCAnLW1hJywgJzIwMCcsICctbWV0YWxfYmluZGluZycsICctaW1hZScsICc8aW5maWxlLm1hZT4nLCAnLW9tYWUnLCAnPG91dGZpbGUubWFlPic=

> <r_lp_tautomer_probability>
1

> <r_epik_Ionization_Penalty>
0.71326

> <r_epik_Ionization_Penalty_Charging>
0.713252

> <r_epik_Ionization_Penalty_Neutral>
8.10337e-06

> <r_epik_State_Penalty>
0.737017

> <r_epik_Charging_Adjusted_Penalty>
1.45027

> <i_epik_Tot_Q>
1

> <i_epik_Tot_abs_Q>
1

> <r_epik_Metal_State_Penalty>
0.73702

> <b_epik_Metal_Only>
0

> <s_lp_Force_Field>
OPLS_2005

> <r_lp_Energy>
26.8661

> <b_lp_Chiralities_Consistent>
1

> <s_lp_Variant>
AV-unprocessed.smi:3349-6

> <Gold.Version>
5.8.1

> <Gold.Id.Protein>
6NUR|6NUR_protein|mol2

> <Gold.PLP.Fitness>
38.7768

> <Gold.PLP.PLP>
-27.7453

> <Gold.PLP.part.hbond>
-2.7511

> <Gold.PLP.part.metal>
0.0000

> <Gold.PLP.part.buried>
-3.5437

> <Gold.PLP.part.nonpolar>
-21.4201

> <Gold.PLP.part.repulsive>
0.3014

> <Gold.PLP.ligand.clash>
0.0000

> <Gold.PLP.ligand.torsion>
0.3216

> <Gold.PLP.Chemscore.Hbond>
2.8500

> <Gold.PLP.Chemscore.CHOScore>
1.0000

> <Gold.PLP.Chemscore.Metal>
0.0000

> <Gold.Chemscore.Hbonds>
donor molecule, donor type, donor heavy atom, donor atom, acceptor molecule, acceptor atom, score
      L1  H     4    26       P1  7948  0.90
      L1  H    14    41       P1  7948  2.00
      L1  C    10    31       P1  7957  1.00

> <Gold.PLP.Chemscore.Internal.Correction>
0.1248

> <Gold.Rescore>
     Score         DG    S(hbond)    S(metal)    S(lipo)     H(rot)  DE(clash)    DE(int)     intcor
      9.54      -9.96       1.84        0.00      43.26       2.63       0.00       0.42       ----

> <Gold.Chemscore.Fitness>
9.5397

> <Gold.Chemscore.DG>
-9.9588

> <Gold.Chemscore.ZeroCoef>
-5.4800

> <Gold.Chemscore.Hbond>
1.8436

> <Gold.Chemscore.Metal>
0.0000

> <Gold.Chemscore.Lipo>
43.2611

> <Gold.Chemscore.Internal_Hbond>
0.0000

> <Gold.Chemscore.DEClash>
0.0000

> <Gold.Chemscore.DEInternal>
0.4192

> <Gold.Chemscore.Rot>
2.6329

> <Gold.Chemscore.Internal.Correction>
   9.000000E+99

> <Gold.Chemscore.Hbonds>
donor molecule, donor type, donor heavy atom, donor atom, acceptor molecule, acceptor atom, score
      L1  H     4    26       P1  7948  0.18
      L1  H    14    41       P1  7948  1.00

> <Gold.Chemscore.Hbond.Weighted>
-6.1576

> <Gold.Chemscore.Metal.Weighted>
-0.0000

> <Gold.Chemscore.Lipo.Weighted>
-5.0616

> <Gold.Chemscore.Internal_Hbond.Weighted>
0.0000

> <Gold.Chemscore.DEClash.Weighted>
0.0000

> <Gold.Chemscore.DEInternal.Weighted>
0.4192

> <Gold.Chemscore.Rot.Weighted>
6.7403

> <Gold.Chemscore.Internal.Correction.Weighted>
   9.000000E+99

> <Gold.Protein.RotatedTorsions>
[ 6907 6896 6895 6894 ] final -151.50 input  -60.11 | X-H torsion
[ 7974 7965 7964 7962 ] final   29.38 input  175.53 | X-H torsion
[ 8008 7997 7996 7995 ] final  -36.28 input   59.86 | X-H torsion
[ 10167 10162 10161 10158 ] final   95.54 input  -65.29 | X-H torsion
[ 10718 10713 10712 10709 ] final   53.72 input   66.30 | X-H torsion
[ 10763 10752 10751 10750 ] final   95.73 input  -60.55 | X-H torsion
[ 11005 11000 10999 10996 ] final  -32.40 input  -57.11 | X-H torsion

> <Gold.Protein.ActiveResidues>
 VAL166  LYS551  ARG553  GLY616  TRP617  ASP618  TYR619  PRO620  LYS621  CYS622 
 ASP623  PHE694  ASN695  SER759  ASP760  ASP761  ALA762  ILE779  LEU786  VAL792 
 PHE793  MET794  SER795  GLU796  ALA797  LYS798  CYS799  TRP800  GLU811  SER814 

> <Gold.Protein.RotatedAtoms>
  151.2140  133.4539  159.2598 H   0  0  0  0  0  0  0  0  0  0  0  0  # atno 6907 bound_to 6896
  151.0948  134.9938  159.8430 H   0  0  0  0  0  0  0  0  0  0  0  0  # atno 6908 bound_to 6896
  152.5438  134.2071  159.8788 H   0  0  0  0  0  0  0  0  0  0  0  0  # atno 6909 bound_to 6896
  146.1674  139.6929  142.8991 H   0  0  0  0  0  0  0  0  0  0  0  0  # atno 7974 bound_to 7965
  154.4076  140.1635  156.2348 H   0  0  0  0  0  0  0  0  0  0  0  0  # atno 8008 bound_to 7997
  155.9251  140.3418  155.6181 H   0  0  0  0  0  0  0  0  0  0  0  0  # atno 8009 bound_to 7997
  155.7174  140.0764  157.2336 H   0  0  0  0  0  0  0  0  0  0  0  0  # atno 8010 bound_to 7997
  139.7979  144.6826  150.9805 H   0  0  0  0  0  0  0  0  0  0  0  0  # atno 10167 bound_to 10162
  157.5193  130.8554  149.8537 H   0  0  0  0  0  0  0  0  0  0  0  0  # atno 10718 bound_to 10713
  153.2566  135.4243  155.0852 H   0  0  0  0  0  0  0  0  0  0  0  0  # atno 10763 bound_to 10752
  154.8403  135.3439  154.6437 H   0  0  0  0  0  0  0  0  0  0  0  0  # atno 10764 bound_to 10752
  153.6858  135.7036  153.5161 H   0  0  0  0  0  0  0  0  0  0  0  0  # atno 10765 bound_to 10752
  140.9549  133.7199  156.1277 H   0  0  0  0  0  0  0  0  0  0  0  0  # atno 11005 bound_to 11000
  145.4430  141.0423  143.2847 LP  0  0  0  0  0  0  0  0  0  0  0  0  # atno 17320 bound_to 7965
  144.8113  139.5957  143.7028 LP  0  0  0  0  0  0  0  0  0  0  0  0  # atno 17321 bound_to 7965
  140.7820  143.4312  151.0691 LP  0  0  0  0  0  0  0  0  0  0  0  0  # atno 17342 bound_to 10162
  139.7986  143.8116  152.3160 LP  0  0  0  0  0  0  0  0  0  0  0  0  # atno 17343 bound_to 10162
  156.0342  130.3756  150.1606 LP  0  0  0  0  0  0  0  0  0  0  0  0  # atno 17370 bound_to 10713
  156.9794  130.9859  151.3441 LP  0  0  0  0  0  0  0  0  0  0  0  0  # atno 17371 bound_to 10713
  140.7550  134.4002  157.5535 LP  0  0  0  0  0  0  0  0  0  0  0  0  # atno 17394 bound_to 11000
  139.8859  134.8924  156.2616 LP  0  0  0  0  0  0  0  0  0  0  0  0  # atno 17395 bound_to 11000

$$$$
