#       Name:                AV-unprocessed.smi:864
#       Creating user name   scv26
#       Creation time:       Fri Mar 27 01:46:44 2020


#       File generated by GOLD software.
#

@<TRIPOS>MOLECULE
AV-unprocessed.smi:864
    49    51     1
SMALL
NO_CHARGES


@<TRIPOS>ATOM
      1 ****        -3.6972   2.2401  -1.1928 C.3            1 S1                 0.0000
      2 ****        -3.2844   0.7865  -1.2824 C.ar           1 S1                 0.0000
      3 ****        -3.0779  -0.0108  -0.1365 C.ar           1 S1                 0.0000
      4 ****        -2.6761  -1.3530  -0.2957 C.ar           1 S1                 0.0000
      5 ****        -2.4876  -1.8716  -1.5964 C.ar           1 S1                 0.0000
      6 ****        -1.9922  -3.2940  -1.8007 C.3            1 S1                 0.0000
      7 ****        -0.5112  -3.3792  -2.2272 C.3            1 S1                 0.0000
      8 ****         0.3759  -2.6797  -1.2991 N.am           1 S1                 0.0000
      9 ****         0.7873  -1.4102  -1.4339 C.2            1 S1                 0.0000
     10 ****         0.5321  -0.7007  -2.4076 O.2            1 S1                 0.0000
     11 ****         1.4589  -0.9845  -0.3559 N.am           1 S1                 0.0000
     12 ****         1.9065   0.3908  -0.1518 C.3            1 S1                 0.0000
     13 ****         0.7374   1.3633   0.0817 C.3            1 S1                 0.0000
     14 ****         1.1683   2.1566   1.3014 C.2            1 S1                 0.0000
     15 ****         0.5507   3.1424   1.7018 O.2            1 S1                 0.0000
     16 ****         2.2796   1.6483   1.8454 N.am           1 S1                 0.0000
     17 ****         3.0065   2.2442   2.9278 C.3            1 S1                 0.0000
     18 ****         4.1662   1.5204   3.5849 C.3            1 S1                 0.0000
     19 ****         2.8479   1.6486   4.3080 C.3            1 S1                 0.0000
     20 ****         2.7904   0.5034   1.1034 C.3            1 S1                 0.0000
     21 ****        -2.7246  -1.0311  -2.7051 C.ar           1 S1                 0.0000
     22 ****        -3.1053   0.2504  -2.5105 N.pl3          1 S1                 1.0000
     23 ****        -3.8416   2.5445  -0.1557 H              1 S1                 0.0000
     24 ****        -4.6319   2.4050  -1.7295 H              1 S1                 0.0000
     25 ****        -2.9300   2.8794  -1.6308 H              1 S1                 0.0000
     26 ****        -3.2142   0.4012   0.8529 H              1 S1                 0.0000
     27 ****        -2.4964  -1.9693   0.5730 H              1 S1                 0.0000
     28 ****        -2.1377  -3.8571  -0.8778 H              1 S1                 0.0000
     29 ****        -2.6180  -3.7785  -2.5511 H              1 S1                 0.0000
     30 ****        -0.2037  -4.4240  -2.2738 H              1 S1                 0.0000
     31 ****        -0.3898  -2.9843  -3.2374 H              1 S1                 0.0000
     32 ****         0.6450  -3.1806  -0.4645 H              1 S1                 0.0000
     33 ****         1.6255  -1.6376   0.3958 H              1 S1                 0.0000
     34 ****         2.4805   0.7175  -1.0213 H              1 S1                 0.0000
     35 ****         0.5713   2.0163  -0.7758 H              1 S1                 0.0000
     36 ****        -0.1962   0.8472   0.3092 H              1 S1                 0.0000
     37 ****         3.1046   3.3280   2.8850 H              1 S1                 0.0000
     38 ****         4.4427   0.5264   3.2403 H              1 S1                 0.0000
     39 ****         4.9937   2.1282   3.9452 H              1 S1                 0.0000
     40 ****         2.7983   2.3384   5.1480 H              1 S1                 0.0000
     41 ****         2.2416   0.7502   4.4066 H              1 S1                 0.0000
     42 ****         2.7200  -0.3860   1.7323 H              1 S1                 0.0000
     43 ****         3.8378   0.6455   0.8335 H              1 S1                 0.0000
     44 ****        -2.5963  -1.3348  -3.7339 H              1 S1                 0.0000
     45 ****        -3.2560   0.8427  -3.3276 H              1 S1                 0.0000
     46 ****        -0.0141  -1.0646  -3.1621 LP             1 S1                 0.0000
     47 ****         0.8711   0.2394  -2.4439 LP             1 S1                 0.0000
     48 ****        -0.2695   3.4488   1.2186 LP             1 S1                 0.0000
     49 ****         0.8689   3.6373   2.5104 LP             1 S1                 0.0000
@<TRIPOS>BOND
    1    1    2 1     
    2    1   23 1     
    3    1   24 1     
    4    1   25 1     
    5    2   22 ar    
    6    2    3 ar    
    7    3    4 ar    
    8    3   26 1     
    9    4    5 ar    
   10    4   27 1     
   11    5    6 1     
   12    5   21 ar    
   13    6    7 1     
   14    6   28 1     
   15    6   29 1     
   16    7    8 1     
   17    7   30 1     
   18    7   31 1     
   19    8    9 am    
   20    8   32 1     
   21    9   10 2     
   22    9   11 am    
   23   11   12 1     
   24   11   33 1     
   25   12   20 1     
   26   12   13 1     
   27   12   34 1     
   28   13   14 1     
   29   13   35 1     
   30   13   36 1     
   31   14   15 2     
   32   14   16 am    
   33   16   17 1     
   34   16   20 1     
   35   17   19 1     
   36   17   18 1     
   37   17   37 1     
   38   18   19 1     
   39   18   38 1     
   40   18   39 1     
   41   19   40 1     
   42   19   41 1     
   43   20   42 1     
   44   20   43 1     
   45   21   22 ar    
   46   21   44 1     
   47   22   45 1     
   48   10   46 1     
   49   10   47 1     
   50   15   48 1     
   51   15   49 1     
@<TRIPOS>SUBSTRUCTURE
      1 S1             1
@<TRIPOS>SET
LONE_PAIRS      STATIC     ATOMS    <user>   **** ""
4 46 47 48 49
DONOR_HYDROGENS      STATIC     ATOMS    <user>   **** ""
3 32 33 45
ATOM$BLUE        STATIC     ATOMS    COLORGROUP SYSTEM
4 46 47 48 49
ATOM$RED        STATIC     ATOMS    COLORGROUP SYSTEM
3 32 33 45
