#       Name:                AV-unprocessed.smi:1240
#       Creating user name   scv26
#       Creation time:       Fri Mar 27 04:29:21 2020


#       File generated by GOLD software.
#

@<TRIPOS>MOLECULE
AV-unprocessed.smi:1240
    55    57     1
SMALL
NO_CHARGES


@<TRIPOS>ATOM
      1 ****        -2.6276   0.2503   0.3627 O.2            1 S1                 0.0000
      2 ****        -1.9306   1.0241  -0.2930 C.2            1 S1                 0.0000
      3 ****        -0.8211   0.6521  -0.9466 N.am           1 S1                 0.0000
      4 ****        -0.2631  -0.6974  -0.9774 C.3            1 S1                 0.0000
      5 ****         1.2693  -0.6873  -0.7299 C.3            1 S1                 0.0000
      6 ****         1.6514   0.0319   0.6025 C.3            1 S1                 0.0000
      7 ****         3.1108  -0.0804   1.0543 C.3            1 S1                 0.0000
      8 ****         3.0115  -0.5119   2.5169 C.3            1 S1                 0.0000
      9 ****         1.7357  -0.0496   2.9275 O.3            1 S1                 0.0000
     10 ****         0.8389  -0.3150   1.8615 C.3            1 S1                 0.0000
     11 ****         1.9465  -1.9788  -0.9679 N.3            1 S1                 0.0000
     12 ****         1.8958  -2.4109  -2.3634 C.3            1 S1                 0.0000
     13 ****         2.7351  -3.6764  -2.6001 C.3            1 S1                 0.0000
     14 ****         2.2761  -4.7114  -1.7377 O.3            1 S1                 0.0000
     15 ****         2.3617  -4.3542  -0.3625 C.3            1 S1                 0.0000
     16 ****         1.5428  -3.0787  -0.0945 C.3            1 S1                 0.0000
     17 ****        -2.1551   2.3421  -0.4321 N.am           1 S1                 0.0000
     18 ****        -3.2134   3.1234   0.1070 C.ar           1 S1                 0.0000
     19 ****        -3.0083   4.5173   0.2098 C.ar           1 S1                 0.0000
     20 ****        -4.0346   5.3360   0.7236 C.ar           1 S1                 0.0000
     21 ****        -5.2072   4.7852   1.1040 N.pl3          1 S1                 1.0000
     22 ****        -5.4554   3.4611   1.0116 C.ar           1 S1                 0.0000
     23 ****        -4.4670   2.5924   0.5054 C.ar           1 S1                 0.0000
     24 ****        -0.3119   1.3594  -1.4565 H              1 S1                 0.0000
     25 ****        -0.7571  -1.3457  -0.2527 H              1 S1                 0.0000
     26 ****        -0.4990  -1.1050  -1.9592 H              1 S1                 0.0000
     27 ****         1.6714  -0.0198  -1.4938 H              1 S1                 0.0000
     28 ****         1.4805   1.0971   0.4375 H              1 S1                 0.0000
     29 ****         3.7167  -0.7787   0.4780 H              1 S1                 0.0000
     30 ****         3.5934   0.8953   0.9834 H              1 S1                 0.0000
     31 ****         3.0457  -1.5991   2.6030 H              1 S1                 0.0000
     32 ****         3.8083  -0.0952   3.1333 H              1 S1                 0.0000
     33 ****        -0.0600   0.2938   1.9578 H              1 S1                 0.0000
     34 ****         0.5305  -1.3576   1.8989 H              1 S1                 0.0000
     35 ****         0.8683  -2.6214  -2.6591 H              1 S1                 0.0000
     36 ****         2.2551  -1.6132  -3.0144 H              1 S1                 0.0000
     37 ****         2.6415  -4.0060  -3.6348 H              1 S1                 0.0000
     38 ****         3.7932  -3.4804  -2.4197 H              1 S1                 0.0000
     39 ****         1.9876  -5.1787   0.2446 H              1 S1                 0.0000
     40 ****         3.4064  -4.2030  -0.0865 H              1 S1                 0.0000
     41 ****         1.6919  -2.8092   0.9473 H              1 S1                 0.0000
     42 ****         0.4827  -3.2961  -0.2264 H              1 S1                 0.0000
     43 ****        -1.4484   2.8590  -0.9346 H              1 S1                 0.0000
     44 ****        -2.0710   4.9594  -0.0962 H              1 S1                 0.0000
     45 ****        -3.9535   6.4072   0.8392 H              1 S1                 0.0000
     46 ****        -6.4333   3.1375   1.3372 H              1 S1                 0.0000
     47 ****        -4.6954   1.5409   0.4225 H              1 S1                 0.0000
     48 ****        -5.9379   5.3952   1.4718 H              1 S1                 0.0000
     49 ****        -2.3761  -0.7153   0.4289 LP             1 S1                 0.0000
     50 ****        -3.4454   0.5871   0.8292 LP             1 S1                 0.0000
     51 ****         1.7690   0.9326   3.1125 LP             1 S1                 0.0000
     52 ****         1.4432  -0.5343   3.7518 LP             1 S1                 0.0000
     53 ****         2.8931  -1.7645  -0.7268 LP             1 S1                 0.0000
     54 ****         2.8328  -5.5277  -1.8921 LP             1 S1                 0.0000
     55 ****         1.3216  -4.9123  -1.9579 LP             1 S1                 0.0000
@<TRIPOS>BOND
    1    1    2 2     
    2    2    3 am    
    3    2   17 am    
    4    3    4 1     
    5    3   24 1     
    6    4    5 1     
    7    4   25 1     
    8    4   26 1     
    9    5    6 1     
   10    5   11 1     
   11    5   27 1     
   12    6   10 1     
   13    6    7 1     
   14    6   28 1     
   15    7    8 1     
   16    7   29 1     
   17    7   30 1     
   18    8    9 1     
   19    8   31 1     
   20    8   32 1     
   21    9   10 1     
   22   10   33 1     
   23   10   34 1     
   24   11   16 1     
   25   11   12 1     
   26   12   13 1     
   27   12   35 1     
   28   12   36 1     
   29   13   14 1     
   30   13   37 1     
   31   13   38 1     
   32   14   15 1     
   33   15   16 1     
   34   15   39 1     
   35   15   40 1     
   36   16   41 1     
   37   16   42 1     
   38   17   18 1     
   39   17   43 1     
   40   18   23 ar    
   41   18   19 ar    
   42   19   20 ar    
   43   19   44 1     
   44   20   21 ar    
   45   20   45 1     
   46   21   22 ar    
   47   21   48 1     
   48   22   23 ar    
   49   22   46 1     
   50   23   47 1     
   51    1   49 1     
   52    1   50 1     
   53    9   51 1     
   54    9   52 1     
   55   11   53 1     
   56   14   54 1     
   57   14   55 1     
@<TRIPOS>SUBSTRUCTURE
      1 S1             1
@<TRIPOS>SET
LONE_PAIRS      STATIC     ATOMS    <user>   **** ""
7 49 50 51 52 53 54 55
DONOR_HYDROGENS      STATIC     ATOMS    <user>   **** ""
3 24 43 48
ATOM$BLUE        STATIC     ATOMS    COLORGROUP SYSTEM
7 49 50 51 52 53 54 55
ATOM$RED        STATIC     ATOMS    COLORGROUP SYSTEM
3 24 43 48
