AV-unprocessed.smi:40|AV-procd|sdf|371|dock4
  -GOLD-   2262016213D 1   1.00000     0.00000
 Structure written by MMmdl.
 47 48  0  0  0  0  0  0  0  0  1 V2000
  142.4097  134.8832  162.8712 C   0  0  0  0  0  0  0  0  0  0  0  0
  143.7326  134.1397  163.0859 C   0  0  0  0  0  0  0  0  0  0  0  0
  144.9115  134.8145  162.3700 C   0  0  0  0  0  0  0  0  0  0  0  0
  146.2357  134.0699  162.5851 C   0  0  0  0  0  0  0  0  0  0  0  0
  147.4542  134.9346  162.2288 C   0  0  0  0  0  0  0  0  0  0  0  0
  147.7068  134.8929  160.8309 O   0  0  0  0  0  0  0  0  0  0  0  0
  147.9246  136.0259  160.1298 C   0  0  0  0  0  0  0  0  0  0  0  0
  147.8963  137.1544  160.6201 O   0  0  0  0  0  0  0  0  0  0  0  0
  148.2262  135.7498  158.7342 N   0  0  0  0  0  0  0  0  0  0  0  0
  148.5003  136.6087  157.7212 C   0  0  0  0  0  0  0  0  0  0  0  0
  147.7757  136.6738  156.6158 N   0  0  0  0  0  0  0  0  0  0  0  0
  148.0198  137.5446  155.5890 C   0  0  0  0  0  0  0  0  0  0  0  0
  147.3391  137.5075  154.5652 O   0  0  0  0  0  0  0  0  0  0  0  0
  149.0815  138.4685  155.7491 N   0  0  0  0  0  0  0  0  0  0  0  0
  149.3943  139.4199  154.6046 C   0  0  2  0  0  0  0  0  0  0  0  0
  150.3441  140.3623  155.0216 O   0  0  0  0  0  0  0  0  0  0  0  0
  149.7436  141.6356  155.2434 C   0  0  2  0  0  0  0  0  0  0  0  0
  149.2850  141.7760  156.7087 C   0  0  0  0  0  0  0  0  0  0  0  0
  148.6255  141.6646  154.1994 C   0  0  2  0  0  0  0  0  0  0  0  0
  147.5792  142.5515  154.5453 O   0  0  0  0  0  0  0  0  0  0  0  0
  148.1476  140.2188  154.1484 C   0  0  1  0  0  0  0  0  0  0  0  0
  147.7698  139.8965  152.8249 O   0  0  0  0  0  0  0  0  0  0  0  0
  149.8740  138.3917  156.8880 C   0  0  0  0  0  0  0  0  0  0  0  0
  149.6172  137.5138  157.8816 C   0  0  0  0  0  0  0  0  0  0  0  0
  150.3861  137.4814  158.9839 F   0  0  0  0  0  0  0  0  0  0  0  0
  149.8268  138.7832  153.8305 H   0  0  0  0  0  0  0  0  0  0  0  0
  150.4776  142.4150  155.0353 H   0  0  0  0  0  0  0  0  0  0  0  0
  149.0510  141.9603  153.2386 H   0  0  0  0  0  0  0  0  0  0  0  0
  147.3205  140.0590  154.8425 H   0  0  0  0  0  0  0  0  0  0  0  0
  141.5929  134.3815  163.3906 H   0  0  0  0  0  0  0  0  0  0  0  0
  142.1521  134.9307  161.8129 H   0  0  0  0  0  0  0  0  0  0  0  0
  142.4671  135.9044  163.2494 H   0  0  0  0  0  0  0  0  0  0  0  0
  143.9398  134.0789  164.1549 H   0  0  0  0  0  0  0  0  0  0  0  0
  143.6284  133.1130  162.7327 H   0  0  0  0  0  0  0  0  0  0  0  0
  144.7010  134.8750  161.3015 H   0  0  0  0  0  0  0  0  0  0  0  0
  145.0112  135.8414  162.7239 H   0  0  0  0  0  0  0  0  0  0  0  0
  146.3115  133.7529  163.6259 H   0  0  0  0  0  0  0  0  0  0  0  0
  146.2412  133.1605  161.9833 H   0  0  0  0  0  0  0  0  0  0  0  0
  147.3181  135.9613  162.5718 H   0  0  0  0  0  0  0  0  0  0  0  0
  148.3365  134.5509  162.7415 H   0  0  0  0  0  0  0  0  0  0  0  0
  148.2117  134.7676  158.5000 H   0  0  0  0  0  0  0  0  0  0  0  0
  148.8758  142.7683  156.8997 H   0  0  0  0  0  0  0  0  0  0  0  0
  150.1231  141.6378  157.3918 H   0  0  0  0  0  0  0  0  0  0  0  0
  148.5161  141.0483  156.9679 H   0  0  0  0  0  0  0  0  0  0  0  0
  147.9571  143.3040  154.9747 H   0  0  0  0  0  0  0  0  0  0  0  0
  148.5553  139.7292  152.3254 H   0  0  0  0  0  0  0  0  0  0  0  0
  150.7264  139.0407  157.0175 H   0  0  0  0  0  0  0  0  0  0  0  0
  1  2  1  0  0  0  0
  1 30  1  0  0  0  0
  1 31  1  0  0  0  0
  1 32  1  0  0  0  0
  2  3  1  0  0  0  0
  2 33  1  0  0  0  0
  2 34  1  0  0  0  0
  3  4  1  0  0  0  0
  3 35  1  0  0  0  0
  3 36  1  0  0  0  0
  4  5  1  0  0  0  0
  4 37  1  0  0  0  0
  4 38  1  0  0  0  0
  5  6  1  0  0  0  0
  5 39  1  0  0  0  0
  5 40  1  0  0  0  0
  6  7  1  0  0  0  0
  7  8  2  0  0  0  0
  7  9  1  0  0  0  0
  9 10  1  0  0  0  0
  9 41  1  0  0  0  0
 10 24  1  0  0  0  0
 10 11  2  0  0  0  0
 11 12  1  0  0  0  0
 12 13  2  0  0  0  0
 12 14  1  0  0  0  0
 14 15  1  0  0  0  0
 14 23  1  0  0  0  0
 15 26  1  0  0  0  0
 15 21  1  0  0  0  0
 15 16  1  0  0  0  0
 16 17  1  0  0  0  0
 17 27  1  0  0  0  0
 17 18  1  0  0  0  0
 17 19  1  0  0  0  0
 18 42  1  0  0  0  0
 18 43  1  0  0  0  0
 18 44  1  0  0  0  0
 19 28  1  0  0  0  0
 19 20  1  0  0  0  0
 19 21  1  0  0  0  0
 20 45  1  0  0  0  0
 21 29  1  0  0  0  0
 21 22  1  0  0  0  0
 22 46  1  0  0  0  0
 23 24  2  0  0  0  0
 23 47  1  0  0  0  0
 24 25  1  0  0  0  0
M  END
> <s_m_source_file>
AV-unprocessed.smi

> <i_m_source_file_index>
40

> <i_lp_mmshare_version>
43012

> <i_f3d_flags>
0

> <s_epik_input>
W0NIM11bQ0gyXVtDSDJdW0NIMl1bQ0gyXU9DKD1PKVtOSF1jMW5jKD1PKW4oW2NIXWMxRilbQ0BASF0yT1tDQEhdKFtDSDNdKVtDQEBIXShbT0hdKVtDQEhdMltPSF0=

> <s_epik_cmdline>
J2VwaWtfcHl0aG9uJywgJy1waCcsICc3LjAnLCAnLXRuJywgJzgnLCAnLW1hJywgJzIwMCcsICctbWV0YWxfYmluZGluZycsICctaW1hZScsICc8aW5maWxlLm1hZT4nLCAnLW9tYWUnLCAnPG91dGZpbGUubWFlPic=

> <r_lp_tautomer_probability>
1

> <r_epik_Ionization_Penalty>
2.29506e-06

> <r_epik_Ionization_Penalty_Charging>
8.26867e-09

> <r_epik_Ionization_Penalty_Neutral>
2.2868e-06

> <r_epik_State_Penalty>
-0

> <r_epik_Charging_Adjusted_Penalty>
8.26867e-09

> <i_epik_Tot_Q>
0

> <i_epik_Tot_abs_Q>
0

> <r_epik_Metal_State_Penalty>
-0

> <b_epik_Metal_Only>
0

> <s_epik_Chemistry_Notes>
This compound has an ester and may undergo hydrolysis at high or low pH. This compound contains an acetal/aminal-like group ( X-CH(R)-Y where X, Y are N, S, or O) that may be acid/base labile, releasing an aldehyde.

> <s_lp_Force_Field>
OPLS_2005

> <r_lp_Energy>
32.726

> <b_lp_Chiralities_Consistent>
1

> <s_lp_Variant>
AV-unprocessed.smi:40-5

> <Gold.Version>
5.8.1

> <Gold.Id.Protein>
6NUR|6NUR_protein|mol2

> <Gold.PLP.Fitness>
49.6030

> <Gold.PLP.PLP>
-38.4378

> <Gold.PLP.part.hbond>
-4.7982

> <Gold.PLP.part.metal>
0.0000

> <Gold.PLP.part.buried>
-4.5244

> <Gold.PLP.part.nonpolar>
-29.0843

> <Gold.PLP.part.repulsive>
0.2293

> <Gold.PLP.ligand.clash>
0.0000

> <Gold.PLP.ligand.torsion>
1.2762

> <Gold.PLP.Chemscore.Hbond>
4.5320

> <Gold.PLP.Chemscore.CHOScore>
0.0000

> <Gold.PLP.Chemscore.Metal>
0.0000

> <Gold.Chemscore.Hbonds>
donor molecule, donor type, donor heavy atom, donor atom, acceptor molecule, acceptor atom, score
      L1  H    20    45       P1  8028  1.00
      L1  H    22    46       P1  7957  1.00
      P1  H  6931  6943       L1     8  0.81
      P1  H  6934  6947       L1     8  0.82
      P1  H  7989  7998       L1    16  0.90

> <Gold.PLP.Chemscore.Internal.Correction>
0.1215

> <Gold.Rescore>
     Score         DG    S(hbond)    S(metal)    S(lipo)     H(rot)  DE(clash)    DE(int)     intcor
     14.13     -16.60       3.57        0.00      73.98       3.70       0.05       2.42       ----

> <Gold.Chemscore.Fitness>
14.1277

> <Gold.Chemscore.DG>
-16.5985

> <Gold.Chemscore.ZeroCoef>
-5.4800

> <Gold.Chemscore.Hbond>
3.5702

> <Gold.Chemscore.Metal>
0.0000

> <Gold.Chemscore.Lipo>
73.9752

> <Gold.Chemscore.Internal_Hbond>
0.0000

> <Gold.Chemscore.DEClash>
0.0477

> <Gold.Chemscore.DEInternal>
2.4231

> <Gold.Chemscore.Rot>
3.6957

> <Gold.Chemscore.Internal.Correction>
   9.000000E+99

> <Gold.Chemscore.Hbonds>
donor molecule, donor type, donor heavy atom, donor atom, acceptor molecule, acceptor atom, score
      L1  H    20    45       P1  8028  0.78
      L1  H    22    46       P1  7957  0.95
      P1  H  6931  6943       L1     8  0.76
      P1  H  6934  6947       L1     8  0.77
      P1  H  7989  7998       L1    16  0.15

> <Gold.Chemscore.Hbond.Weighted>
-11.9244

> <Gold.Chemscore.Metal.Weighted>
-0.0000

> <Gold.Chemscore.Lipo.Weighted>
-8.6551

> <Gold.Chemscore.Internal_Hbond.Weighted>
0.0000

> <Gold.Chemscore.DEClash.Weighted>
0.0477

> <Gold.Chemscore.DEInternal.Weighted>
2.4231

> <Gold.Chemscore.Rot.Weighted>
9.4610

> <Gold.Chemscore.Internal.Correction.Weighted>
   9.000000E+99

> <Gold.Protein.RotatedTorsions>
[ 6907 6896 6895 6894 ] final  146.98 input  -60.11 | X-H torsion
[ 7974 7965 7964 7962 ] final  164.89 input  175.53 | X-H torsion
[ 8008 7997 7996 7995 ] final  -49.58 input   59.86 | X-H torsion
[ 10167 10162 10161 10158 ] final  116.56 input  -65.29 | X-H torsion
[ 10718 10713 10712 10709 ] final   14.74 input   66.30 | X-H torsion
[ 10763 10752 10751 10750 ] final   25.27 input  -60.55 | X-H torsion
[ 11005 11000 10999 10996 ] final -175.50 input  -57.11 | X-H torsion

> <Gold.Protein.ActiveResidues>
 VAL166  LYS551  ARG553  GLY616  TRP617  ASP618  TYR619  PRO620  LYS621  CYS622 
 ASP623  PHE694  ASN695  SER759  ASP760  ASP761  ALA762  ILE779  LEU786  VAL792 
 PHE793  MET794  SER795  GLU796  ALA797  LYS798  CYS799  TRP800  GLU811  SER814 

> <Gold.Protein.RotatedAtoms>
  152.1608  133.4581  159.4859 H   0  0  0  0  0  0  0  0  0  0  0  0  # atno 6907 bound_to 6896
  150.6906  134.2073  159.4354 H   0  0  0  0  0  0  0  0  0  0  0  0  # atno 6908 bound_to 6896
  151.9975  134.9946  160.0614 H   0  0  0  0  0  0  0  0  0  0  0  0  # atno 6909 bound_to 6896
  144.7526  139.8390  143.6361 H   0  0  0  0  0  0  0  0  0  0  0  0  # atno 7974 bound_to 7965
  154.4046  140.1293  156.4526 H   0  0  0  0  0  0  0  0  0  0  0  0  # atno 8008 bound_to 7997
  155.7352  140.3491  155.5058 H   0  0  0  0  0  0  0  0  0  0  0  0  # atno 8009 bound_to 7997
  155.9091  140.1032  157.1283 H   0  0  0  0  0  0  0  0  0  0  0  0  # atno 8010 bound_to 7997
  139.6239  144.7105  151.2576 H   0  0  0  0  0  0  0  0  0  0  0  0  # atno 10167 bound_to 10162
  157.0435  130.6241  149.5755 H   0  0  0  0  0  0  0  0  0  0  0  0  # atno 10718 bound_to 10713
  153.0704  135.6587  154.0260 H   0  0  0  0  0  0  0  0  0  0  0  0  # atno 10763 bound_to 10752
  153.9907  135.2946  155.3413 H   0  0  0  0  0  0  0  0  0  0  0  0  # atno 10764 bound_to 10752
  154.7076  135.5218  153.8689 H   0  0  0  0  0  0  0  0  0  0  0  0  # atno 10765 bound_to 10752
  140.4626  134.6240  157.4849 H   0  0  0  0  0  0  0  0  0  0  0  0  # atno 11005 bound_to 11000
  146.1496  139.4575  143.0057 LP  0  0  0  0  0  0  0  0  0  0  0  0  # atno 17320 bound_to 7965
  145.6891  141.0169  143.1565 LP  0  0  0  0  0  0  0  0  0  0  0  0  # atno 17321 bound_to 7965
  140.7399  143.6605  150.8169 LP  0  0  0  0  0  0  0  0  0  0  0  0  # atno 17342 bound_to 10162
  140.0220  143.5533  152.2796 LP  0  0  0  0  0  0  0  0  0  0  0  0  # atno 17343 bound_to 10162
  156.0030  130.5113  150.7732 LP  0  0  0  0  0  0  0  0  0  0  0  0  # atno 17370 bound_to 10713
  157.5086  131.0924  151.0226 LP  0  0  0  0  0  0  0  0  0  0  0  0  # atno 17371 bound_to 10713
  139.9936  134.6947  155.9648 LP  0  0  0  0  0  0  0  0  0  0  0  0  # atno 17394 bound_to 11000
  141.1614  133.6538  156.4332 LP  0  0  0  0  0  0  0  0  0  0  0  0  # atno 17395 bound_to 11000

$$$$
