#       Name:                AV-unprocessed.smi:3293
#       Creating user name   scv26
#       Creation time:       Fri Mar 27 18:56:48 2020


#       File generated by GOLD software.
#

@<TRIPOS>MOLECULE
AV-unprocessed.smi:3293
    45    46     1
SMALL
NO_CHARGES


@<TRIPOS>ATOM
      1 ****        -0.8809   1.7655   2.3888 C.3            1 S1                 0.0000
      2 ****        -1.8637   2.1151   1.2836 C.2            1 S1                 0.0000
      3 ****        -3.0750   2.6118   1.5993 C.2            1 S1                 0.0000
      4 ****        -4.1018   3.0614   0.5860 C.3            1 S1                 0.0000
      5 ****        -3.4435   3.3693  -0.7607 C.3            1 S1                 0.0000
      6 ****        -2.5302   2.2188  -1.2145 C.3            1 S1                 0.0000
      7 ****        -1.9632   2.5361  -2.6116 C.3            1 S1                 0.0000
      8 ****        -1.4106   1.9007  -0.1753 C.3            1 S1                 0.0000
      9 ****        -0.8470   0.4762  -0.4237 C.3            1 S1                 0.0000
     10 ****         0.5026   0.2806   0.1453 N.4            1 S1                 1.0000
     11 ****         1.0173  -1.0958   0.0104 C.3            1 S1                 0.0000
     12 ****         2.4213  -1.2245   0.6154 C.3            1 S1                 0.0000
     13 ****         2.9420  -2.6300   0.5016 C.2            1 S1                 0.0000
     14 ****         2.9904  -3.6284   1.5162 C.2            1 S1                 0.0000
     15 ****         3.5035  -4.7706   1.0900 N.2            1 S1                 0.0000
     16 ****         3.8006  -4.5435  -0.2058 N.pl3          1 S1                 0.0000
     17 ****         4.3903  -5.6007  -0.9989 C.3            1 S1                 0.0000
     18 ****         3.4762  -3.2596  -0.5878 C.2            1 S1                 0.0000
     19 ****         0.0877   2.2291   2.2005 H              1 S1                 0.0000
     20 ****        -0.7499   0.6867   2.4676 H              1 S1                 0.0000
     21 ****        -1.2330   2.1201   3.3581 H              1 S1                 0.0000
     22 ****        -3.3594   2.7229   2.6357 H              1 S1                 0.0000
     23 ****        -4.8560   2.2808   0.4816 H              1 S1                 0.0000
     24 ****        -4.6092   3.9510   0.9600 H              1 S1                 0.0000
     25 ****        -4.2170   3.5602  -1.5055 H              1 S1                 0.0000
     26 ****        -2.8607   4.2881  -0.6793 H              1 S1                 0.0000
     27 ****        -3.1637   1.3350  -1.3088 H              1 S1                 0.0000
     28 ****        -1.3155   3.4130  -2.5848 H              1 S1                 0.0000
     29 ****        -2.7662   2.7441  -3.3194 H              1 S1                 0.0000
     30 ****        -1.3849   1.7110  -3.0246 H              1 S1                 0.0000
     31 ****        -0.6069   2.6206  -0.3378 H              1 S1                 0.0000
     32 ****        -1.5318  -0.2655  -0.0100 H              1 S1                 0.0000
     33 ****        -0.7743   0.2623  -1.4888 H              1 S1                 0.0000
     34 ****         1.1407   0.9137  -0.3153 H              1 S1                 0.0000
     35 ****         0.3328  -1.7832   0.5096 H              1 S1                 0.0000
     36 ****         1.0381  -1.3693  -1.0455 H              1 S1                 0.0000
     37 ****         3.0955  -0.5282   0.1154 H              1 S1                 0.0000
     38 ****         2.3939  -0.9121   1.6601 H              1 S1                 0.0000
     39 ****         2.6669  -3.5580   2.5443 H              1 S1                 0.0000
     40 ****         4.3677  -5.3316  -2.0553 H              1 S1                 0.0000
     41 ****         3.8325  -6.5271  -0.8588 H              1 S1                 0.0000
     42 ****         5.4252  -5.7554  -0.6931 H              1 S1                 0.0000
     43 ****         3.6476  -2.9047  -1.5935 H              1 S1                 0.0000
     44 ****         0.4698   0.5129   1.1278 H              1 S1                 0.0000
     45 ****         3.6404  -5.6129   1.6113 LP             1 S1                 0.0000
@<TRIPOS>BOND
    1    1    2 1     
    2    1   19 1     
    3    1   20 1     
    4    1   21 1     
    5    2    8 1     
    6    2    3 2     
    7    3    4 1     
    8    3   22 1     
    9    4    5 1     
   10    4   23 1     
   11    4   24 1     
   12    5    6 1     
   13    5   25 1     
   14    5   26 1     
   15    6    7 1     
   16    6    8 1     
   17    6   27 1     
   18    7   28 1     
   19    7   29 1     
   20    7   30 1     
   21    8    9 1     
   22    8   31 1     
   23    9   10 1     
   24    9   32 1     
   25    9   33 1     
   26   10   11 1     
   27   10   34 1     
   28   10   44 1     
   29   11   12 1     
   30   11   35 1     
   31   11   36 1     
   32   12   13 1     
   33   12   37 1     
   34   12   38 1     
   35   13   18 2     
   36   13   14 1     
   37   14   15 2     
   38   14   39 1     
   39   15   16 1     
   40   16   17 1     
   41   16   18 1     
   42   17   40 1     
   43   17   41 1     
   44   17   42 1     
   45   18   43 1     
   46   15   45 1     
@<TRIPOS>SUBSTRUCTURE
      1 S1             1
@<TRIPOS>SET
LONE_PAIRS      STATIC     ATOMS    <user>   **** ""
1 45
DONOR_HYDROGENS      STATIC     ATOMS    <user>   **** ""
2 34 44
ATOM$BLUE        STATIC     ATOMS    COLORGROUP SYSTEM
1 45
ATOM$RED        STATIC     ATOMS    COLORGROUP SYSTEM
2 34 44
