AV-unprocessed.smi:294|AV-procd|sdf|2252|dock4
  -GOLD-   2262022133D 1   1.00000     0.00000
 Structure written by MMmdl.
 29 30  0  0  0  0  0  0  0  0  1 V2000
  154.2914  138.5021  154.6850 N   0  0  0  0  0  0  0  0  0  0  0  0
  153.1560  138.7225  154.6471 C   0  0  0  0  0  0  0  0  0  0  0  0
  151.7306  138.9990  154.6000 C   0  0  0  0  0  0  0  0  0  0  0  0
  150.8236  138.0212  154.3099 N   0  0  0  0  0  0  0  0  0  0  0  0
  149.7110  138.7401  154.3956 C   0  0  0  0  0  0  0  0  0  0  0  0
  149.9170  140.0251  154.7033 N   0  0  0  0  0  0  0  0  0  0  0  0
  148.9734  141.1092  154.9008 C   0  0  0  0  0  0  0  0  0  0  0  0
  149.1195  141.7038  156.3012 C   0  0  0  0  0  0  0  0  0  0  0  0
  148.1383  141.7868  157.0394 O   0  0  0  0  0  0  0  0  0  0  0  0
  150.3516  142.0978  156.6578 N   0  0  0  0  0  0  0  0  0  0  0  0
  150.7110  142.6458  157.9612 C   0  0  2  0  0  0  0  0  0  0  0  0
  151.5837  143.9058  157.8152 C   0  0  0  0  0  0  0  0  0  0  0  0
  152.2219  144.2209  159.1739 C   0  0  0  0  0  0  0  0  0  0  0  0
  152.4520  142.6073  160.0138 S   0  0  0  0  0  0  0  0  0  0  0  0
  153.8660  142.2098  159.9400 O   0  0  0  0  0  0  0  0  0  0  0  0
  151.7386  142.6333  161.2996 O   0  0  0  0  0  0  0  0  0  0  0  0
  151.4908  141.6242  158.8035 C   0  0  0  0  0  0  0  0  0  0  0  0
  151.2517  140.2173  154.8437 N   0  0  0  0  0  0  0  0  0  0  0  0
  148.7273  138.3227  154.2365 H   0  0  0  0  0  0  0  0  0  0  0  0
  149.1320  141.8734  154.1377 H   0  0  0  0  0  0  0  0  0  0  0  0
  147.9617  140.7248  154.7660 H   0  0  0  0  0  0  0  0  0  0  0  0
  151.0979  141.9880  155.9861 H   0  0  0  0  0  0  0  0  0  0  0  0
  149.8077  142.9299  158.5048 H   0  0  0  0  0  0  0  0  0  0  0  0
  152.3794  143.7105  157.0946 H   0  0  0  0  0  0  0  0  0  0  0  0
  151.0125  144.7539  157.4360 H   0  0  0  0  0  0  0  0  0  0  0  0
  153.1757  144.7415  159.0872 H   0  0  0  0  0  0  0  0  0  0  0  0
  151.5505  144.8243  159.7856 H   0  0  0  0  0  0  0  0  0  0  0  0
  150.8444  140.9156  159.3216 H   0  0  0  0  0  0  0  0  0  0  0  0
  152.2000  141.0653  158.1917 H   0  0  0  0  0  0  0  0  0  0  0  0
  1  2  3  0  0  0  0
  2  3  1  0  0  0  0
  3 18  2  0  0  0  0
  3  4  1  0  0  0  0
  4  5  2  0  0  0  0
  5  6  1  0  0  0  0
  5 19  1  0  0  0  0
  6  7  1  0  0  0  0
  6 18  1  0  0  0  0
  7  8  1  0  0  0  0
  7 20  1  0  0  0  0
  7 21  1  0  0  0  0
  8  9  2  0  0  0  0
  8 10  1  0  0  0  0
 10 11  1  0  0  0  0
 10 22  1  0  0  0  0
 11 17  1  0  0  0  0
 11 12  1  0  0  0  0
 11 23  1  0  0  0  0
 12 13  1  0  0  0  0
 12 24  1  0  0  0  0
 12 25  1  0  0  0  0
 13 14  1  0  0  0  0
 13 26  1  0  0  0  0
 13 27  1  0  0  0  0
 14 15  2  0  0  0  0
 14 16  2  0  0  0  0
 14 17  1  0  0  0  0
 17 28  1  0  0  0  0
 17 29  1  0  0  0  0
M  END
> <s_m_source_file>
AV-unprocessed.smi

> <i_m_source_file_index>
294

> <i_lp_mmshare_version>
43012

> <i_f3d_flags>
0

> <s_epik_input>
TiNDYzFuW2NIXW4objEpW0NIMl1DKD1PKVtOSF1bQ0BASF0oW0NIMl0yKVtDSDJdW0NIMl1TMig9Tyk9Tw==

> <s_epik_cmdline>
J2VwaWtfcHl0aG9uJywgJy1waCcsICc3LjAnLCAnLXRuJywgJzgnLCAnLW1hJywgJzIwMCcsICctbWV0YWxfYmluZGluZycsICctaW1hZScsICc8aW5maWxlLm1hZT4nLCAnLW9tYWUnLCAnPG91dGZpbGUubWFlPic=

> <r_lp_tautomer_probability>
1

> <r_epik_Ionization_Penalty>
6.08231e-07

> <r_epik_Ionization_Penalty_Charging>
0

> <r_epik_Ionization_Penalty_Neutral>
6.08231e-07

> <r_epik_State_Penalty>
-0

> <r_epik_Charging_Adjusted_Penalty>
0

> <i_epik_Tot_Q>
0

> <i_epik_Tot_abs_Q>
0

> <r_epik_Metal_State_Penalty>
-0

> <b_epik_Metal_Only>
0

> <s_lp_Force_Field>
OPLS_2005

> <r_lp_Energy>
6.42809

> <b_lp_Chiralities_Consistent>
1

> <s_lp_Variant>
AV-unprocessed.smi:294-1

> <Gold.Version>
5.8.1

> <Gold.Id.Protein>
6NUR|6NUR_protein|mol2

> <Gold.PLP.Fitness>
43.8073

> <Gold.PLP.PLP>
-38.4755

> <Gold.PLP.part.hbond>
-3.8283

> <Gold.PLP.part.metal>
0.0000

> <Gold.PLP.part.buried>
-5.2398

> <Gold.PLP.part.nonpolar>
-29.8055

> <Gold.PLP.part.repulsive>
0.5606

> <Gold.PLP.ligand.clash>
0.0000

> <Gold.PLP.ligand.torsion>
0.2108

> <Gold.PLP.Chemscore.Hbond>
1.9159

> <Gold.PLP.Chemscore.CHOScore>
0.0000

> <Gold.PLP.Chemscore.Metal>
0.0000

> <Gold.Chemscore.Hbonds>
donor molecule, donor type, donor heavy atom, donor atom, acceptor molecule, acceptor atom, score
      P1  H  6933  6945       L1    16  0.40
      P1  H  7989  7998       L1    18  0.90
      P1  H  7997  8010       L1     1  0.57

> <Gold.PLP.Chemscore.Internal.Correction>
0.0056

> <Gold.Rescore>
     Score         DG    S(hbond)    S(metal)    S(lipo)     H(rot)  DE(clash)    DE(int)     intcor
      7.46      -9.01       1.11        0.00      45.60       2.15       0.00       1.55       ----

> <Gold.Chemscore.Fitness>
7.4633

> <Gold.Chemscore.DG>
-9.0129

> <Gold.Chemscore.ZeroCoef>
-5.4800

> <Gold.Chemscore.Hbond>
1.1117

> <Gold.Chemscore.Metal>
0.0000

> <Gold.Chemscore.Lipo>
45.6028

> <Gold.Chemscore.Internal_Hbond>
0.0000

> <Gold.Chemscore.DEClash>
0.0038

> <Gold.Chemscore.DEInternal>
1.5458

> <Gold.Chemscore.Rot>
2.1546

> <Gold.Chemscore.Internal.Correction>
   9.000000E+99

> <Gold.Chemscore.Hbonds>
donor molecule, donor type, donor heavy atom, donor atom, acceptor molecule, acceptor atom, score
      P1  H  6933  6945       L1    16  0.38
      P1  H  7989  7998       L1    18  0.07
      P1  H  7997  8010       L1     1  0.09

> <Gold.Chemscore.Hbond.Weighted>
-3.7131

> <Gold.Chemscore.Metal.Weighted>
-0.0000

> <Gold.Chemscore.Lipo.Weighted>
-5.3355

> <Gold.Chemscore.Internal_Hbond.Weighted>
0.0000

> <Gold.Chemscore.DEClash.Weighted>
0.0038

> <Gold.Chemscore.DEInternal.Weighted>
1.5458

> <Gold.Chemscore.Rot.Weighted>
5.5158

> <Gold.Chemscore.Internal.Correction.Weighted>
   9.000000E+99

> <Gold.Protein.RotatedTorsions>
[ 6907 6896 6895 6894 ] final  146.84 input  -60.11 | X-H torsion
[ 7974 7965 7964 7962 ] final -171.04 input  175.53 | X-H torsion
[ 8008 7997 7996 7995 ] final  135.38 input   59.86 | X-H torsion
[ 10167 10162 10161 10158 ] final   68.37 input  -65.29 | X-H torsion
[ 10718 10713 10712 10709 ] final   50.11 input   66.30 | X-H torsion
[ 10763 10752 10751 10750 ] final  -30.92 input  -60.55 | X-H torsion
[ 11005 11000 10999 10996 ] final  157.11 input  -57.11 | X-H torsion

> <Gold.Protein.ActiveResidues>
 VAL166  LYS551  ARG553  GLY616  TRP617  ASP618  TYR619  PRO620  LYS621  CYS622 
 ASP623  PHE694  ASN695  SER759  ASP760  ASP761  ALA762  ILE779  LEU786  VAL792 
 PHE793  MET794  SER795  GLU796  ALA797  LYS798  CYS799  TRP800  GLU811  SER814 

> <Gold.Protein.RotatedAtoms>
  152.1626  133.4592  159.4868 H   0  0  0  0  0  0  0  0  0  0  0  0  # atno 6907 bound_to 6896
  150.6909  134.2052  159.4347 H   0  0  0  0  0  0  0  0  0  0  0  0  # atno 6908 bound_to 6896
  151.9955  134.9956  160.0614 H   0  0  0  0  0  0  0  0  0  0  0  0  # atno 6909 bound_to 6896
  144.7162  140.1982  143.6341 H   0  0  0  0  0  0  0  0  0  0  0  0  # atno 7974 bound_to 7965
  156.3003  140.2472  156.3572 H   0  0  0  0  0  0  0  0  0  0  0  0  # atno 8008 bound_to 7997
  154.8911  140.0409  157.1858 H   0  0  0  0  0  0  0  0  0  0  0  0  # atno 8009 bound_to 7997
  154.8597  140.2918  155.5551 H   0  0  0  0  0  0  0  0  0  0  0  0  # atno 8010 bound_to 7997
  140.0794  144.5084  150.7172 H   0  0  0  0  0  0  0  0  0  0  0  0  # atno 10167 bound_to 10162
  157.4852  130.8341  149.8139 H   0  0  0  0  0  0  0  0  0  0  0  0  # atno 10718 bound_to 10713
  153.7888  135.6899  153.4875 H   0  0  0  0  0  0  0  0  0  0  0  0  # atno 10763 bound_to 10752
  153.1763  135.4523  154.9968 H   0  0  0  0  0  0  0  0  0  0  0  0  # atno 10764 bound_to 10752
  154.8053  135.3354  154.7386 H   0  0  0  0  0  0  0  0  0  0  0  0  # atno 10765 bound_to 10752
  140.1739  134.8524  157.2723 H   0  0  0  0  0  0  0  0  0  0  0  0  # atno 11005 bound_to 11000
  145.8705  139.2269  143.1664 LP  0  0  0  0  0  0  0  0  0  0  0  0  # atno 17320 bound_to 7965
  146.0089  140.8453  142.9981 LP  0  0  0  0  0  0  0  0  0  0  0  0  # atno 17321 bound_to 7965
  140.7085  143.2487  151.4652 LP  0  0  0  0  0  0  0  0  0  0  0  0  # atno 17342 bound_to 10162
  139.5789  144.1756  152.1941 LP  0  0  0  0  0  0  0  0  0  0  0  0  # atno 17343 bound_to 10162
  156.0143  130.3820  150.2162 LP  0  0  0  0  0  0  0  0  0  0  0  0  # atno 17370 bound_to 10713
  157.0349  131.0018  151.3301 LP  0  0  0  0  0  0  0  0  0  0  0  0  # atno 17371 bound_to 10713
  140.2345  134.3869  155.7507 LP  0  0  0  0  0  0  0  0  0  0  0  0  # atno 17394 bound_to 11000
  141.2219  133.7232  156.8693 LP  0  0  0  0  0  0  0  0  0  0  0  0  # atno 17395 bound_to 11000

$$$$
