AV-unprocessed.smi:638|AV-procd|sdf|3143|dock3
  -GOLD-   22720 0 73D 1   1.00000     0.00000
 Structure written by MMmdl.
 41 42  0  0  0  0  0  0  0  0  3 V2000
  152.1830  135.2319  156.4458 N   0  0  0  0  0  0  0  0  0  0  0  0
  151.6676  136.2462  156.6571 C   0  0  0  0  0  0  0  0  0  0  0  0
  151.0107  137.5404  156.9280 C   0  0  0  0  0  0  0  0  0  0  0  0
  149.7071  137.3193  157.5648 N   0  0  0  0  0  0  0  0  0  0  0  0
  149.4675  136.6840  158.7236 C   0  0  0  0  0  0  0  0  0  0  0  0
  150.3534  136.1980  159.4268 O   0  0  0  0  0  0  0  0  0  0  0  0
  147.9977  136.6167  159.1599 C   0  0  0  0  0  0  0  0  0  0  0  0
  147.7135  135.4745  160.0443 N   0  0  0  0  0  0  0  0  0  0  0  0
  147.7749  134.1889  159.4711 C   0  0  0  0  0  0  0  0  0  0  0  0
  147.5218  133.0745  160.1850 C   0  0  0  0  0  0  0  0  0  0  0  0
  147.5805  131.7627  159.5784 N   0  3  0  0  0  0  0  0  0  0  0  0
  148.0518  131.6566  158.4508 O   0  0  0  0  0  0  0  0  0  0  0  0
  147.1579  130.7966  160.2068 O   0  5  0  0  0  0  0  0  0  0  0  0
  147.1814  133.2338  161.5856 C   0  0  0  0  0  0  0  0  0  0  0  0
  147.1175  134.4609  162.1385 C   0  0  0  0  0  0  0  0  0  0  0  0
  147.3874  135.6726  161.3581 C   0  0  0  0  0  0  0  0  0  0  0  0
  147.3246  136.7974  161.8547 O   0  0  0  0  0  0  0  0  0  0  0  0
  151.9483  138.3895  157.8310 C   0  0  0  0  0  0  0  0  0  0  0  0
  151.3488  139.7037  158.3738 C   0  0  0  0  0  0  0  0  0  0  0  0
  151.4837  140.9283  157.4525 C   0  0  0  0  0  0  0  0  0  0  0  0
  151.2563  140.6940  155.9492 C   0  0  0  0  0  0  0  0  0  0  0  0
  150.1938  139.6427  155.5922 C   0  0  0  0  0  0  0  0  0  0  0  0
  150.7625  138.2109  155.5591 C   0  0  0  0  0  0  0  0  0  0  0  0
  148.9082  137.6859  157.0681 H   0  0  0  0  0  0  0  0  0  0  0  0
  147.7488  137.5562  159.6549 H   0  0  0  0  0  0  0  0  0  0  0  0
  147.3539  136.5809  158.2789 H   0  0  0  0  0  0  0  0  0  0  0  0
  148.0290  134.1781  158.4209 H   0  0  0  0  0  0  0  0  0  0  0  0
  146.9741  132.3709  162.2011 H   0  0  0  0  0  0  0  0  0  0  0  0
  146.8611  134.5568  163.1835 H   0  0  0  0  0  0  0  0  0  0  0  0
  152.2332  137.7813  158.6901 H   0  0  0  0  0  0  0  0  0  0  0  0
  152.8853  138.5964  157.3123 H   0  0  0  0  0  0  0  0  0  0  0  0
  150.3024  139.5685  158.6446 H   0  0  0  0  0  0  0  0  0  0  0  0
  151.8459  139.9465  159.3135 H   0  0  0  0  0  0  0  0  0  0  0  0
  150.7860  141.6899  157.8028 H   0  0  0  0  0  0  0  0  0  0  0  0
  152.4754  141.3638  157.5807 H   0  0  0  0  0  0  0  0  0  0  0  0
  150.9755  141.6479  155.5012 H   0  0  0  0  0  0  0  0  0  0  0  0
  152.2020  140.4266  155.4761 H   0  0  0  0  0  0  0  0  0  0  0  0
  149.3247  139.7198  156.2463 H   0  0  0  0  0  0  0  0  0  0  0  0
  149.8282  139.8700  154.5904 H   0  0  0  0  0  0  0  0  0  0  0  0
  151.6871  138.2082  154.9798 H   0  0  0  0  0  0  0  0  0  0  0  0
  150.0735  137.5842  154.9906 H   0  0  0  0  0  0  0  0  0  0  0  0
  1  2  3  0  0  0  0
  2  3  1  0  0  0  0
  3 23  1  0  0  0  0
  3  4  1  0  0  0  0
  3 18  1  0  0  0  0
  4  5  1  0  0  0  0
  4 24  1  0  0  0  0
  5  6  2  0  0  0  0
  5  7  1  0  0  0  0
  7  8  1  0  0  0  0
  7 25  1  0  0  0  0
  7 26  1  0  0  0  0
  8 16  1  0  0  0  0
  8  9  1  0  0  0  0
  9 10  2  0  0  0  0
  9 27  1  0  0  0  0
 10 11  1  0  0  0  0
 10 14  1  0  0  0  0
 11 12  2  0  0  0  0
 11 13  1  0  0  0  0
 14 15  2  0  0  0  0
 14 28  1  0  0  0  0
 15 16  1  0  0  0  0
 15 29  1  0  0  0  0
 16 17  2  0  0  0  0
 18 19  1  0  0  0  0
 18 30  1  0  0  0  0
 18 31  1  0  0  0  0
 19 20  1  0  0  0  0
 19 32  1  0  0  0  0
 19 33  1  0  0  0  0
 20 21  1  0  0  0  0
 20 34  1  0  0  0  0
 20 35  1  0  0  0  0
 21 22  1  0  0  0  0
 21 36  1  0  0  0  0
 21 37  1  0  0  0  0
 22 23  1  0  0  0  0
 22 38  1  0  0  0  0
 22 39  1  0  0  0  0
 23 40  1  0  0  0  0
 23 41  1  0  0  0  0
M  CHG  1  11   1
M  CHG  1  13  -1
M  END
> <s_m_source_file>
AV-unprocessed.smi

> <i_m_source_file_index>
638

> <i_lp_mmshare_version>
43012

> <i_f3d_flags>
0

> <s_epik_input>
W0NIMl0xW0NIMl1bQ0gyXVtDSDJdW0NIMl1bQ0gyXUMxKEMjTilbTkhdQyg9TylbQ0gyXW4yW2NIXWMoW04rXSg9TylbTy1dKVtjSF1bY0hdYzI9Tw==

> <s_epik_cmdline>
J2VwaWtfcHl0aG9uJywgJy1waCcsICc3LjAnLCAnLXRuJywgJzgnLCAnLW1hJywgJzIwMCcsICctbWV0YWxfYmluZGluZycsICctaW1hZScsICc8aW5maWxlLm1hZT4nLCAnLW9tYWUnLCAnPG91dGZpbGUubWFlPic=

> <r_lp_tautomer_probability>
1

> <r_epik_Ionization_Penalty>
4.51205e-07

> <r_epik_Ionization_Penalty_Charging>
6.24361e-11

> <r_epik_Ionization_Penalty_Neutral>
4.51142e-07

> <r_epik_State_Penalty>
-0

> <r_epik_Charging_Adjusted_Penalty>
6.24361e-11

> <i_epik_Tot_Q>
0

> <i_epik_Tot_abs_Q>
2

> <r_epik_Metal_State_Penalty>
-0

> <b_epik_Metal_Only>
0

> <s_lp_Force_Field>
OPLS_2005

> <r_lp_Energy>
29.2466

> <b_lp_Chiralities_Consistent>
1

> <s_lp_Variant>
AV-unprocessed.smi:638-1

> <Gold.Version>
5.8.1

> <Gold.Id.Protein>
6NUR|6NUR_protein|mol2

> <Gold.PLP.Fitness>
46.1871

> <Gold.PLP.PLP>
-36.6456

> <Gold.PLP.part.hbond>
-4.3758

> <Gold.PLP.part.metal>
0.0000

> <Gold.PLP.part.buried>
-2.9404

> <Gold.PLP.part.nonpolar>
-29.1525

> <Gold.PLP.part.repulsive>
0.0455

> <Gold.PLP.ligand.clash>
0.0000

> <Gold.PLP.ligand.torsion>
0.4879

> <Gold.PLP.Chemscore.Hbond>
3.4978

> <Gold.PLP.Chemscore.CHOScore>
0.0000

> <Gold.PLP.Chemscore.Metal>
0.0000

> <Gold.Chemscore.Hbonds>
donor molecule, donor type, donor heavy atom, donor atom, acceptor molecule, acceptor atom, score
      P1  H  6896  6909       L1     6  0.67
      P1  H  6931  6943       L1    17  0.49
      P1  H  6934  6947       L1    17  0.06
      P1  H 10752 10764       L1     1  1.00

> <Gold.PLP.Chemscore.Internal.Correction>
0.0237

> <Gold.Rescore>
     Score         DG    S(hbond)    S(metal)    S(lipo)     H(rot)  DE(clash)    DE(int)     intcor
     20.45     -21.12       3.69        0.00      63.99       1.63       0.01       0.65       ----

> <Gold.Chemscore.Fitness>
20.4548

> <Gold.Chemscore.DG>
-21.1156

> <Gold.Chemscore.ZeroCoef>
-5.4800

> <Gold.Chemscore.Hbond>
3.6882

> <Gold.Chemscore.Metal>
0.0000

> <Gold.Chemscore.Lipo>
63.9875

> <Gold.Chemscore.Internal_Hbond>
0.0000

> <Gold.Chemscore.DEClash>
0.0126

> <Gold.Chemscore.DEInternal>
0.6482

> <Gold.Chemscore.Rot>
1.6287

> <Gold.Chemscore.Internal.Correction>
   9.000000E+99

> <Gold.Chemscore.Hbonds>
donor molecule, donor type, donor heavy atom, donor atom, acceptor molecule, acceptor atom, score
      P1  H  6896  6909       L1     6  0.67
      P1  H  6931  6943       L1    17  0.46
      P1  H  6934  6947       L1    17  0.08
      P1  H 10752 10764       L1     1  0.77

> <Gold.Chemscore.Hbond.Weighted>
-12.3185

> <Gold.Chemscore.Metal.Weighted>
-0.0000

> <Gold.Chemscore.Lipo.Weighted>
-7.4865

> <Gold.Chemscore.Internal_Hbond.Weighted>
0.0000

> <Gold.Chemscore.DEClash.Weighted>
0.0126

> <Gold.Chemscore.DEInternal.Weighted>
0.6482

> <Gold.Chemscore.Rot.Weighted>
4.1694

> <Gold.Chemscore.Internal.Correction.Weighted>
   9.000000E+99

> <Gold.Protein.RotatedTorsions>
[ 6907 6896 6895 6894 ] final   86.03 input  -60.11 | X-H torsion
[ 7974 7965 7964 7962 ] final -148.96 input  175.53 | X-H torsion
[ 8008 7997 7996 7995 ] final   70.78 input   59.86 | X-H torsion
[ 10167 10162 10161 10158 ] final   -9.79 input  -65.29 | X-H torsion
[ 10718 10713 10712 10709 ] final  -96.55 input   66.30 | X-H torsion
[ 10763 10752 10751 10750 ] final  -12.80 input  -60.55 | X-H torsion
[ 11005 11000 10999 10996 ] final -138.54 input  -57.11 | X-H torsion

> <Gold.Protein.ActiveResidues>
 VAL166  LYS551  ARG553  GLY616  TRP617  ASP618  TYR619  PRO620  LYS621  CYS622 
 ASP623  PHE694  ASN695  SER759  ASP760  ASP761  ALA762  ILE779  LEU786  VAL792 
 PHE793  MET794  SER795  GLU796  ALA797  LYS798  CYS799  TRP800  GLU811  SER814 

> <Gold.Protein.RotatedAtoms>
  152.5386  134.2494  159.8892 H   0  0  0  0  0  0  0  0  0  0  0  0  # atno 6907 bound_to 6896
  151.2458  133.4369  159.2617 H   0  0  0  0  0  0  0  0  0  0  0  0  # atno 6908 bound_to 6896
  151.0585  134.9734  159.8304 H   0  0  0  0  0  0  0  0  0  0  0  0  # atno 6909 bound_to 6896
  144.7997  140.5127  143.5716 H   0  0  0  0  0  0  0  0  0  0  0  0  # atno 7974 bound_to 7965
  155.7440  140.3490  155.5118 H   0  0  0  0  0  0  0  0  0  0  0  0  # atno 8008 bound_to 7997
  155.9068  140.1043  157.1331 H   0  0  0  0  0  0  0  0  0  0  0  0  # atno 8009 bound_to 7997
  154.4050  140.1275  156.4492 H   0  0  0  0  0  0  0  0  0  0  0  0  # atno 8010 bound_to 7997
  140.7097  143.5819  150.8983 H   0  0  0  0  0  0  0  0  0  0  0  0  # atno 10167 bound_to 10162
  156.0064  130.5156  150.6242 H   0  0  0  0  0  0  0  0  0  0  0  0  # atno 10718 bound_to 10713
  153.5038  135.7017  153.5817 H   0  0  0  0  0  0  0  0  0  0  0  0  # atno 10763 bound_to 10752
  153.3937  135.3889  155.1940 H   0  0  0  0  0  0  0  0  0  0  0  0  # atno 10764 bound_to 10752
  154.8708  135.3864  154.4512 H   0  0  0  0  0  0  0  0  0  0  0  0  # atno 10765 bound_to 10752
  140.8606  134.2174  157.4709 H   0  0  0  0  0  0  0  0  0  0  0  0  # atno 11005 bound_to 11000
  145.5585  139.1478  143.3354 LP  0  0  0  0  0  0  0  0  0  0  0  0  # atno 17320 bound_to 7965
  146.2274  140.5722  142.8990 LP  0  0  0  0  0  0  0  0  0  0  0  0  # atno 17321 bound_to 7965
  139.9545  143.6234  152.3020 LP  0  0  0  0  0  0  0  0  0  0  0  0  # atno 17342 bound_to 10162
  139.6765  144.7658  151.1687 LP  0  0  0  0  0  0  0  0  0  0  0  0  # atno 17343 bound_to 10162
  157.4052  131.0816  151.1272 LP  0  0  0  0  0  0  0  0  0  0  0  0  # atno 17370 bound_to 10713
  157.1921  130.6356  149.5708 LP  0  0  0  0  0  0  0  0  0  0  0  0  # atno 17371 bound_to 10713
  139.8707  134.9727  156.4784 LP  0  0  0  0  0  0  0  0  0  0  0  0  # atno 17394 bound_to 11000
  140.8687  133.8004  155.9341 LP  0  0  0  0  0  0  0  0  0  0  0  0  # atno 17395 bound_to 11000

$$$$
