#       Name:                AV-unprocessed.smi:2880
#       Creating user name   scv26
#       Creation time:       Fri Mar 27 15:52:05 2020


#       File generated by GOLD software.
#

@<TRIPOS>MOLECULE
AV-unprocessed.smi:2880
    52    53     1
SMALL
NO_CHARGES


@<TRIPOS>ATOM
      1 ****        -4.3614   3.7359  -1.1892 C.3            1 S1                 0.0000
      2 ****        -3.2590   3.6449  -0.1151 C.3            1 S1                 0.0000
      3 ****        -2.0150   4.4060  -0.6330 C.3            1 S1                 0.0000
      4 ****        -3.7453   4.3147   1.1837 C.3            1 S1                 0.0000
      5 ****        -2.9674   2.2314   0.1615 N.pl3          1 S1                 0.0000
      6 ****        -3.8586   1.2284   0.5063 C.2            1 S1                 0.0000
      7 ****        -3.1487   0.0785   0.7050 C.2            1 S1                 0.0000
      8 ****        -1.8072   0.4817   0.4723 C.2            1 S1                 0.0000
      9 ****        -0.7401  -0.4455   0.5869 N.am           1 S1                 0.0000
     10 ****         0.5691  -0.2174   0.3855 C.2            1 S1                 0.0000
     11 ****         1.0570   0.8618   0.0480 O.2            1 S1                 0.0000
     12 ****         1.2914  -1.3287   0.5921 N.am           1 S1                 0.0000
     13 ****         2.7476  -1.4468   0.4802 C.3            1 S1                 0.0000
     14 ****         3.3063  -2.1730   1.7206 C.3            1 S1                 0.0000
     15 ****         2.9243  -3.6632   1.7441 C.3            1 S1                 0.0000
     16 ****         3.3514  -4.3665   0.4477 C.3            1 S1                 0.0000
     17 ****         2.7777  -3.6583  -0.7900 C.3            1 S1                 0.0000
     18 ****         3.1757  -2.1652  -0.8269 C.3            1 S1                 0.0000
     19 ****         2.6563  -1.4540  -2.0938 C.3            1 S1                 0.0000
     20 ****         3.2965  -1.9551  -3.2489 O.3            1 S1                 0.0000
     21 ****        -1.6956   1.7640   0.1607 N.2            1 S1                 0.0000
     22 ****        -4.5901   4.7737  -1.4341 H              1 S1                 0.0000
     23 ****        -5.2912   3.2718  -0.8594 H              1 S1                 0.0000
     24 ****        -4.0551   3.2414  -2.1119 H              1 S1                 0.0000
     25 ****        -1.6241   3.9594  -1.5483 H              1 S1                 0.0000
     26 ****        -1.2103   4.4163   0.1036 H              1 S1                 0.0000
     27 ****        -2.2542   5.4459  -0.8577 H              1 S1                 0.0000
     28 ****        -3.9680   5.3704   1.0260 H              1 S1                 0.0000
     29 ****        -2.9899   4.2514   1.9677 H              1 S1                 0.0000
     30 ****        -4.6528   3.8435   1.5628 H              1 S1                 0.0000
     31 ****        -4.9199   1.4127   0.5830 H              1 S1                 0.0000
     32 ****        -3.5306  -0.8938   0.9788 H              1 S1                 0.0000
     33 ****        -1.0021  -1.3833   0.8522 H              1 S1                 0.0000
     34 ****         0.7966  -2.1659   0.8624 H              1 S1                 0.0000
     35 ****         3.1859  -0.4473   0.4742 H              1 S1                 0.0000
     36 ****         4.3936  -2.0846   1.7264 H              1 S1                 0.0000
     37 ****         2.9598  -1.6845   2.6322 H              1 S1                 0.0000
     38 ****         3.3890  -4.1515   2.6011 H              1 S1                 0.0000
     39 ****         1.8472  -3.7683   1.8793 H              1 S1                 0.0000
     40 ****         4.4401  -4.3846   0.3844 H              1 S1                 0.0000
     41 ****         3.0259  -5.4069   0.4652 H              1 S1                 0.0000
     42 ****         3.1344  -4.1658  -1.6867 H              1 S1                 0.0000
     43 ****         1.6914  -3.7559  -0.7967 H              1 S1                 0.0000
     44 ****         4.2657  -2.1196  -0.8621 H              1 S1                 0.0000
     45 ****         1.5782  -1.5766  -2.2016 H              1 S1                 0.0000
     46 ****         2.8546  -0.3833  -2.0354 H              1 S1                 0.0000
     47 ****         2.9686  -1.4862  -4.0010 H              1 S1                 0.0000
     48 ****         0.4651   1.6545  -0.0975 LP             1 S1                 0.0000
     49 ****         2.0452   0.9454  -0.0807 LP             1 S1                 0.0000
     50 ****         3.0995  -2.9306  -3.3474 LP             1 S1                 0.0000
     51 ****         4.2845  -1.8208  -3.1721 LP             1 S1                 0.0000
     52 ****        -0.8577   2.2745  -0.0326 LP             1 S1                 0.0000
@<TRIPOS>BOND
    1    1    2 1     
    2    1   22 1     
    3    1   23 1     
    4    1   24 1     
    5    2    3 1     
    6    2    4 1     
    7    2    5 1     
    8    3   25 1     
    9    3   26 1     
   10    3   27 1     
   11    4   28 1     
   12    4   29 1     
   13    4   30 1     
   14    5   21 1     
   15    5    6 1     
   16    6    7 2     
   17    6   31 1     
   18    7    8 1     
   19    7   32 1     
   20    8    9 1     
   21    8   21 2     
   22    9   10 am    
   23    9   33 1     
   24   10   11 2     
   25   10   12 am    
   26   12   13 1     
   27   12   34 1     
   28   13   18 1     
   29   13   14 1     
   30   13   35 1     
   31   14   15 1     
   32   14   36 1     
   33   14   37 1     
   34   15   16 1     
   35   15   38 1     
   36   15   39 1     
   37   16   17 1     
   38   16   40 1     
   39   16   41 1     
   40   17   18 1     
   41   17   42 1     
   42   17   43 1     
   43   18   19 1     
   44   18   44 1     
   45   19   20 1     
   46   19   45 1     
   47   19   46 1     
   48   20   47 1     
   49   11   48 1     
   50   11   49 1     
   51   20   50 1     
   52   20   51 1     
   53   21   52 1     
@<TRIPOS>SUBSTRUCTURE
      1 S1             1
@<TRIPOS>SET
LONE_PAIRS      STATIC     ATOMS    <user>   **** ""
5 48 49 50 51 52
DONOR_HYDROGENS      STATIC     ATOMS    <user>   **** ""
3 33 34 47
ATOM$BLUE        STATIC     ATOMS    COLORGROUP SYSTEM
5 48 49 50 51 52
ATOM$RED        STATIC     ATOMS    COLORGROUP SYSTEM
3 33 34 47
