AV-unprocessed.smi:3292|AV-procd|sdf|12622|dock4
  -GOLD-   2272018553D 1   1.00000     0.00000
 Structure written by MMmdl.
 39 40  0  0  0  0  0  0  0  0  2 V2000
  143.8147  136.9355  152.7758 C   0  0  0  0  0  0  0  0  0  0  0  0
  144.8683  135.8828  152.3944 C   0  0  1  0  0  0  0  0  0  0  0  0
  144.7984  135.4660  150.9088 C   0  0  0  0  0  0  0  0  0  0  0  0
  145.1449  134.0577  150.6963 N   0  0  0  0  0  0  0  0  0  0  0  0
  144.2973  133.0440  150.3302 C   0  0  0  0  0  0  0  0  0  0  0  0
  145.0581  131.9056  150.2575 C   0  0  0  0  0  0  0  0  0  0  0  0
  146.3359  132.2715  150.5865 N   0  3  0  0  0  0  0  0  0  0  0  0
  146.3861  133.5801  150.8566 C   0  0  0  0  0  0  0  0  0  0  0  0
  146.1974  136.3952  152.7151 N   0  0  0  0  0  0  0  0  0  0  0  0
  146.5321  137.0050  153.8612 C   0  0  0  0  0  0  0  0  0  0  0  0
  145.7507  137.1918  154.7943 O   0  0  0  0  0  0  0  0  0  0  0  0
  147.8167  137.3874  153.8656 N   0  0  0  0  0  0  0  0  0  0  0  0
  148.4866  138.0832  154.9600 C   0  0  0  0  0  0  0  0  0  0  0  0
  149.8424  138.6688  154.5228 C   0  0  2  0  0  0  0  0  0  0  0  0
  151.0360  137.8541  154.9772 C   0  0  0  0  0  0  0  0  0  0  0  0
  152.1797  138.8545  154.8331 C   0  0  0  0  0  0  0  0  0  0  0  0
  151.6043  140.1413  155.0417 O   0  0  0  0  0  0  0  0  0  0  0  0
  150.1865  140.0353  155.1184 C   0  0  0  0  0  0  0  0  0  0  0  0
  142.8018  136.5565  152.6387 H   0  0  0  0  0  0  0  0  0  0  0  0
  143.9183  137.8374  152.1717 H   0  0  0  0  0  0  0  0  0  0  0  0
  143.9111  137.2239  153.8232 H   0  0  0  0  0  0  0  0  0  0  0  0
  144.6846  135.0014  153.0122 H   0  0  0  0  0  0  0  0  0  0  0  0
  143.7989  135.6411  150.5071 H   0  0  0  0  0  0  0  0  0  0  0  0
  145.4882  136.0597  150.3074 H   0  0  0  0  0  0  0  0  0  0  0  0
  143.2437  133.2053  150.1518 H   0  0  0  0  0  0  0  0  0  0  0  0
  144.7925  130.8895  150.0043 H   0  0  0  0  0  0  0  0  0  0  0  0
  147.2585  134.1398  151.1435 H   0  0  0  0  0  0  0  0  0  0  0  0
  146.9098  136.2902  152.0073 H   0  0  0  0  0  0  0  0  0  0  0  0
  148.3747  137.1871  153.0483 H   0  0  0  0  0  0  0  0  0  0  0  0
  147.8456  138.8622  155.3766 H   0  0  0  0  0  0  0  0  0  0  0  0
  148.6453  137.3611  155.7614 H   0  0  0  0  0  0  0  0  0  0  0  0
  149.8710  138.7437  153.4343 H   0  0  0  0  0  0  0  0  0  0  0  0
  150.9236  137.5657  156.0235 H   0  0  0  0  0  0  0  0  0  0  0  0
  151.1879  136.9490  154.3886 H   0  0  0  0  0  0  0  0  0  0  0  0
  152.9901  138.6614  155.5362 H   0  0  0  0  0  0  0  0  0  0  0  0
  152.5916  138.8197  153.8240 H   0  0  0  0  0  0  0  0  0  0  0  0
  149.6981  140.8572  154.5942 H   0  0  0  0  0  0  0  0  0  0  0  0
  149.8950  140.0835  156.1687 H   0  0  0  0  0  0  0  0  0  0  0  0
  147.1295  131.6442  150.6230 H   0  0  0  0  0  0  0  0  0  0  0  0
  1  2  1  0  0  0  0
  1 19  1  0  0  0  0
  1 20  1  0  0  0  0
  1 21  1  0  0  0  0
  2  3  1  0  0  0  0
  2  9  1  0  0  0  0
  2 22  1  0  0  0  0
  3  4  1  0  0  0  0
  3 23  1  0  0  0  0
  3 24  1  0  0  0  0
  4  8  1  0  0  0  0
  4  5  1  0  0  0  0
  5  6  2  0  0  0  0
  5 25  1  0  0  0  0
  6  7  1  0  0  0  0
  6 26  1  0  0  0  0
  7  8  2  0  0  0  0
  7 39  1  0  0  0  0
  8 27  1  0  0  0  0
  9 10  1  0  0  0  0
  9 28  1  0  0  0  0
 10 11  2  0  0  0  0
 10 12  1  0  0  0  0
 12 13  1  0  0  0  0
 12 29  1  0  0  0  0
 13 14  1  0  0  0  0
 13 30  1  0  0  0  0
 13 31  1  0  0  0  0
 14 18  1  0  0  0  0
 14 15  1  0  0  0  0
 14 32  1  0  0  0  0
 15 16  1  0  0  0  0
 15 33  1  0  0  0  0
 15 34  1  0  0  0  0
 16 17  1  0  0  0  0
 16 35  1  0  0  0  0
 16 36  1  0  0  0  0
 17 18  1  0  0  0  0
 18 37  1  0  0  0  0
 18 38  1  0  0  0  0
M  CHG  1   7   1
M  END
> <s_m_source_file>
AV-unprocessed.smi

> <i_m_source_file_index>
3292

> <i_lp_mmshare_version>
43012

> <i_f3d_flags>
0

> <s_epik_input>
W2NIXTFuW2NIXVtjSF1uMVtDSDJdW0NAQEhdKFtDSDNdKVtOSF1DKD1PKVtOSF1bQ0gyXVtDQEBIXTJbQ0gyXVtDSDJdT1tDSDJdMg==

> <s_epik_cmdline>
J2VwaWtfcHl0aG9uJywgJy1waCcsICc3LjAnLCAnLXRuJywgJzgnLCAnLW1hJywgJzIwMCcsICctbWV0YWxfYmluZGluZycsICctaW1hZScsICc8aW5maWxlLm1hZT4nLCAnLW9tYWUnLCAnPG91dGZpbGUubWFlPic=

> <r_lp_tautomer_probability>
1

> <r_epik_Ionization_Penalty>
0.255703

> <r_epik_Ionization_Penalty_Charging>
0

> <r_epik_Ionization_Penalty_Neutral>
0.255703

> <r_epik_State_Penalty>
0.247169

> <r_epik_Charging_Adjusted_Penalty>
0.247169

> <i_epik_Tot_Q>
1

> <i_epik_Tot_abs_Q>
1

> <r_epik_Metal_State_Penalty>
0.536791

> <b_epik_Metal_Only>
0

> <s_lp_Force_Field>
OPLS_2005

> <r_lp_Energy>
19.451

> <b_lp_Chiralities_Consistent>
1

> <s_lp_Variant>
AV-unprocessed.smi:3292-2

> <Gold.Version>
5.8.1

> <Gold.Id.Protein>
6NUR|6NUR_protein|mol2

> <Gold.PLP.Fitness>
46.8908

> <Gold.PLP.PLP>
-34.4700

> <Gold.PLP.part.hbond>
-4.0000

> <Gold.PLP.part.metal>
0.0000

> <Gold.PLP.part.buried>
-4.6917

> <Gold.PLP.part.nonpolar>
-26.0671

> <Gold.PLP.part.repulsive>
0.2049

> <Gold.PLP.ligand.clash>
0.0000

> <Gold.PLP.ligand.torsion>
1.2876

> <Gold.PLP.Chemscore.Hbond>
3.7000

> <Gold.PLP.Chemscore.CHOScore>
1.2464

> <Gold.PLP.Chemscore.Metal>
0.0000

> <Gold.Chemscore.Hbonds>
donor molecule, donor type, donor heavy atom, donor atom, acceptor molecule, acceptor atom, score
      L1  H     7    39       P1 10747  0.99
      L1  H     9    28       P1  7948  0.82
      L1  H    12    29       P1  7948  1.00
      P1  H  7989  7998       L1    17  0.85
      L1  C     5    25       P1 10186  0.79
      L1  C     8    27       P1  7948  0.40

> <Gold.PLP.Chemscore.Internal.Correction>
0.1570

> <Gold.Rescore>
     Score         DG    S(hbond)    S(metal)    S(lipo)     H(rot)  DE(clash)    DE(int)     intcor
     14.20     -16.86       2.83        0.00      65.43       2.24       0.01       2.64       ----

> <Gold.Chemscore.Fitness>
14.1994

> <Gold.Chemscore.DG>
-16.8561

> <Gold.Chemscore.ZeroCoef>
-5.4800

> <Gold.Chemscore.Hbond>
2.8282

> <Gold.Chemscore.Metal>
0.0000

> <Gold.Chemscore.Lipo>
65.4327

> <Gold.Chemscore.Internal_Hbond>
0.0000

> <Gold.Chemscore.DEClash>
0.0126

> <Gold.Chemscore.DEInternal>
2.6440

> <Gold.Chemscore.Rot>
2.2367

> <Gold.Chemscore.Internal.Correction>
   9.000000E+99

> <Gold.Chemscore.Hbonds>
donor molecule, donor type, donor heavy atom, donor atom, acceptor molecule, acceptor atom, score
      L1  H     7    39       P1 10747  0.92
      L1  H     9    28       P1  7948  0.76
      L1  H    12    29       P1  7948  0.97
      P1  H  7989  7998       L1    17  0.06

> <Gold.Chemscore.Hbond.Weighted>
-9.4463

> <Gold.Chemscore.Metal.Weighted>
-0.0000

> <Gold.Chemscore.Lipo.Weighted>
-7.6556

> <Gold.Chemscore.Internal_Hbond.Weighted>
0.0000

> <Gold.Chemscore.DEClash.Weighted>
0.0126

> <Gold.Chemscore.DEInternal.Weighted>
2.6440

> <Gold.Chemscore.Rot.Weighted>
5.7259

> <Gold.Chemscore.Internal.Correction.Weighted>
   9.000000E+99

> <Gold.Protein.RotatedTorsions>
[ 6907 6896 6895 6894 ] final  -10.49 input  -60.11 | X-H torsion
[ 7974 7965 7964 7962 ] final  132.52 input  175.53 | X-H torsion
[ 8008 7997 7996 7995 ] final  116.62 input   59.86 | X-H torsion
[ 10167 10162 10161 10158 ] final  158.52 input  -65.29 | X-H torsion
[ 10718 10713 10712 10709 ] final  164.34 input   66.30 | X-H torsion
[ 10763 10752 10751 10750 ] final  -55.64 input  -60.55 | X-H torsion
[ 11005 11000 10999 10996 ] final  -95.12 input  -57.11 | X-H torsion

> <Gold.Protein.ActiveResidues>
 VAL166  LYS551  ARG553  GLY616  TRP617  ASP618  TYR619  PRO620  LYS621  CYS622 
 ASP623  PHE694  ASN695  SER759  ASP760  ASP761  ALA762  ILE779  LEU786  VAL792 
 PHE793  MET794  SER795  GLU796  ALA797  LYS798  CYS799  TRP800  GLU811  SER814 

> <Gold.Protein.RotatedAtoms>
  151.4011  135.0971  159.9555 H   0  0  0  0  0  0  0  0  0  0  0  0  # atno 6907 bound_to 6896
  152.5050  133.8888  159.7393 H   0  0  0  0  0  0  0  0  0  0  0  0  # atno 6908 bound_to 6896
  150.9362  133.6653  159.2829 H   0  0  0  0  0  0  0  0  0  0  0  0  # atno 6909 bound_to 6896
  144.9960  139.4359  143.5316 H   0  0  0  0  0  0  0  0  0  0  0  0  # atno 7974 bound_to 7965
  156.2449  140.2913  156.0552 H   0  0  0  0  0  0  0  0  0  0  0  0  # atno 8008 bound_to 7997
  155.1837  140.0405  157.2904 H   0  0  0  0  0  0  0  0  0  0  0  0  # atno 8009 bound_to 7997
  154.6242  140.2483  155.7519 H   0  0  0  0  0  0  0  0  0  0  0  0  # atno 8010 bound_to 7997
  139.4827  144.4817  151.8435 H   0  0  0  0  0  0  0  0  0  0  0  0  # atno 10167 bound_to 10162
  157.0957  131.0429  151.2519 H   0  0  0  0  0  0  0  0  0  0  0  0  # atno 10718 bound_to 10713
  154.1940  135.6422  153.5068 H   0  0  0  0  0  0  0  0  0  0  0  0  # atno 10763 bound_to 10752
  153.0028  135.5435  154.6385 H   0  0  0  0  0  0  0  0  0  0  0  0  # atno 10764 bound_to 10752
  154.5781  135.2923  155.0733 H   0  0  0  0  0  0  0  0  0  0  0  0  # atno 10765 bound_to 10752
  141.1451  133.8004  157.0392 H   0  0  0  0  0  0  0  0  0  0  0  0  # atno 11005 bound_to 11000
  146.3442  139.9320  142.8752 LP  0  0  0  0  0  0  0  0  0  0  0  0  # atno 17320 bound_to 7965
  145.2219  140.9938  143.4040 LP  0  0  0  0  0  0  0  0  0  0  0  0  # atno 17321 bound_to 7965
  140.4293  144.2137  150.5887 LP  0  0  0  0  0  0  0  0  0  0  0  0  # atno 17342 bound_to 10162
  140.4795  143.2384  151.8975 LP  0  0  0  0  0  0  0  0  0  0  0  0  # atno 17343 bound_to 10162
  157.4684  130.7694  149.7300 LP  0  0  0  0  0  0  0  0  0  0  0  0  # atno 17370 bound_to 10713
  155.9886  130.3957  150.3109 LP  0  0  0  0  0  0  0  0  0  0  0  0  # atno 17371 bound_to 10713
  140.0704  134.9705  157.1457 LP  0  0  0  0  0  0  0  0  0  0  0  0  # atno 17394 bound_to 11000
  140.3719  134.2381  155.7177 LP  0  0  0  0  0  0  0  0  0  0  0  0  # atno 17395 bound_to 11000

$$$$
