AV-unprocessed.smi:1837|AV-procd|sdf|7481|dock5
  -GOLD-   22720 9183D 1   1.00000     0.00000
 Structure written by MMmdl.
 45 48  0  0  0  0  0  0  0  0  3 V2000
  149.5050  135.1777  158.5426 O   0  0  0  0  0  0  0  0  0  0  0  0
  148.4653  134.9573  157.9206 C   0  0  0  0  0  0  0  0  0  0  0  0
  148.4984  134.7224  156.4037 C   0  0  0  0  0  0  0  0  0  0  0  0
  149.1845  133.4760  156.0237 N   0  0  0  0  0  0  0  0  0  0  0  0
  150.3475  133.1388  156.7443 C   0  0  0  0  0  0  0  0  0  0  0  0
  151.0572  132.0248  156.4775 C   0  0  0  0  0  0  0  0  0  0  0  0
  152.2526  131.6971  157.2230 N   0  3  0  0  0  0  0  0  0  0  0  0
  152.4894  132.3146  158.2564 O   0  0  0  0  0  0  0  0  0  0  0  0
  152.9943  130.8146  156.8017 O   0  5  0  0  0  0  0  0  0  0  0  0
  150.5844  131.1636  155.4110 C   0  0  0  0  0  0  0  0  0  0  0  0
  149.4755  131.4829  154.7148 C   0  0  0  0  0  0  0  0  0  0  0  0
  148.7075  132.6983  155.0038 C   0  0  0  0  0  0  0  0  0  0  0  0
  147.6970  132.9984  154.3678 O   0  0  0  0  0  0  0  0  0  0  0  0
  147.2511  134.8857  158.4930 N   0  0  0  0  0  0  0  0  0  0  0  0
  146.8990  135.0626  159.9058 C   0  0  0  0  0  0  0  0  0  0  0  0
  147.2355  136.4954  160.4026 C   0  0  0  0  0  0  0  0  0  0  0  0
  146.9109  136.6183  161.9074 C   0  0  1  0  0  0  0  0  0  0  0  0
  145.4110  136.3326  162.1390 C   0  0  0  0  0  0  0  0  0  0  0  0
  145.0821  134.8994  161.6672 C   0  0  2  0  0  0  0  0  0  0  0  0
  145.9288  133.8858  162.4649 C   0  0  0  0  0  0  0  0  0  0  0  0
  147.4251  134.1771  162.2278 C   0  0  2  0  0  0  0  0  0  0  0  0
  147.7585  135.6057  162.7053 C   0  0  0  0  0  0  0  0  0  0  0  0
  147.7415  134.0498  160.7226 C   0  0  0  0  0  0  0  0  0  0  0  0
  145.3952  134.7668  160.1608 C   0  0  0  0  0  0  0  0  0  0  0  0
  147.4707  134.7215  156.0381 H   0  0  0  0  0  0  0  0  0  0  0  0
  148.9732  135.5752  155.9142 H   0  0  0  0  0  0  0  0  0  0  0  0
  150.6204  133.8482  157.5122 H   0  0  0  0  0  0  0  0  0  0  0  0
  151.1169  130.2576  155.1614 H   0  0  0  0  0  0  0  0  0  0  0  0
  149.1422  130.8275  153.9234 H   0  0  0  0  0  0  0  0  0  0  0  0
  146.4753  134.6917  157.8765 H   0  0  0  0  0  0  0  0  0  0  0  0
  148.2887  136.7200  160.2285 H   0  0  0  0  0  0  0  0  0  0  0  0
  146.6683  137.2461  159.8523 H   0  0  0  0  0  0  0  0  0  0  0  0
  147.1425  137.6289  162.2452 H   0  0  0  0  0  0  0  0  0  0  0  0
  145.1639  136.4483  163.1951 H   0  0  0  0  0  0  0  0  0  0  0  0
  144.8007  137.0576  161.5991 H   0  0  0  0  0  0  0  0  0  0  0  0
  144.0238  134.6971  161.8351 H   0  0  0  0  0  0  0  0  0  0  0  0
  145.6945  133.9502  163.5283 H   0  0  0  0  0  0  0  0  0  0  0  0
  145.6884  132.8672  162.1576 H   0  0  0  0  0  0  0  0  0  0  0  0
  148.0264  133.4593  162.7866 H   0  0  0  0  0  0  0  0  0  0  0  0
  148.8208  135.8123  162.5698 H   0  0  0  0  0  0  0  0  0  0  0  0
  147.5584  135.7035  163.7730 H   0  0  0  0  0  0  0  0  0  0  0  0
  147.5382  133.0309  160.3888 H   0  0  0  0  0  0  0  0  0  0  0  0
  148.8062  134.2188  160.5543 H   0  0  0  0  0  0  0  0  0  0  0  0
  144.7591  135.4537  159.6026 H   0  0  0  0  0  0  0  0  0  0  0  0
  145.1412  133.7643  159.8139 H   0  0  0  0  0  0  0  0  0  0  0  0
  1  2  2  0  0  0  0
  2  3  1  0  0  0  0
  2 14  1  0  0  0  0
  3  4  1  0  0  0  0
  3 25  1  0  0  0  0
  3 26  1  0  0  0  0
  4 12  1  0  0  0  0
  4  5  1  0  0  0  0
  5  6  2  0  0  0  0
  5 27  1  0  0  0  0
  6  7  1  0  0  0  0
  6 10  1  0  0  0  0
  7  8  2  0  0  0  0
  7  9  1  0  0  0  0
 10 11  2  0  0  0  0
 10 28  1  0  0  0  0
 11 12  1  0  0  0  0
 11 29  1  0  0  0  0
 12 13  2  0  0  0  0
 14 15  1  0  0  0  0
 14 30  1  0  0  0  0
 15 23  1  0  0  0  0
 15 24  1  0  0  0  0
 15 16  1  0  0  0  0
 16 17  1  0  0  0  0
 16 31  1  0  0  0  0
 16 32  1  0  0  0  0
 17 22  1  0  0  0  0
 17 18  1  0  0  0  0
 17 33  1  0  0  0  0
 18 19  1  0  0  0  0
 18 34  1  0  0  0  0
 18 35  1  0  0  0  0
 19 20  1  0  0  0  0
 19 24  1  0  0  0  0
 19 36  1  0  0  0  0
 20 21  1  0  0  0  0
 20 37  1  0  0  0  0
 20 38  1  0  0  0  0
 21 22  1  0  0  0  0
 21 23  1  0  0  0  0
 21 39  1  0  0  0  0
 22 40  1  0  0  0  0
 22 41  1  0  0  0  0
 23 42  1  0  0  0  0
 23 43  1  0  0  0  0
 24 44  1  0  0  0  0
 24 45  1  0  0  0  0
M  CHG  1   7   1
M  CHG  1   9  -1
M  END
> <s_m_source_file>
AV-unprocessed.smi

> <i_m_source_file_index>
1837

> <i_lp_mmshare_version>
43012

> <i_f3d_flags>
0

> <s_epik_input>
Tz1jMVtjSF1bY0hdYyhbTitdKD1PKVtPLV0pW2NIXW4xW0NIMl1DKD1PKVtOSF1DMjNbQ0gyXVtDQEhdNFtDSDJdW0NAQEhdKFtDSDJdMylbQ0gyXVtDQEhdKFtDSDJdNClbQ0gyXTI=

> <s_epik_cmdline>
J2VwaWtfcHl0aG9uJywgJy1waCcsICc3LjAnLCAnLXRuJywgJzgnLCAnLW1hJywgJzIwMCcsICctbWV0YWxfYmluZGluZycsICctaW1hZScsICc8aW5maWxlLm1hZT4nLCAnLW9tYWUnLCAnPG91dGZpbGUubWFlPic=

> <r_lp_tautomer_probability>
1

> <r_epik_Ionization_Penalty>
2.34466e-08

> <r_epik_Ionization_Penalty_Charging>
8.88262e-11

> <r_epik_Ionization_Penalty_Neutral>
2.33578e-08

> <r_epik_State_Penalty>
-0

> <r_epik_Charging_Adjusted_Penalty>
8.88262e-11

> <i_epik_Tot_Q>
0

> <i_epik_Tot_abs_Q>
2

> <r_epik_Metal_State_Penalty>
-0

> <b_epik_Metal_Only>
0

> <s_lp_Force_Field>
OPLS_2005

> <r_lp_Energy>
41.9783

> <b_lp_Chiralities_Consistent>
1

> <s_lp_Variant>
AV-unprocessed.smi:1837-1

> <Gold.Version>
5.8.1

> <Gold.Id.Protein>
6NUR|6NUR_protein|mol2

> <Gold.PLP.Fitness>
41.1694

> <Gold.PLP.PLP>
-36.0272

> <Gold.PLP.part.hbond>
-2.0000

> <Gold.PLP.part.metal>
0.0000

> <Gold.PLP.part.buried>
-5.2975

> <Gold.PLP.part.nonpolar>
-28.7911

> <Gold.PLP.part.repulsive>
0.1139

> <Gold.PLP.ligand.clash>
0.0000

> <Gold.PLP.ligand.torsion>
0.4376

> <Gold.PLP.Chemscore.Hbond>
2.0000

> <Gold.PLP.Chemscore.CHOScore>
0.0000

> <Gold.PLP.Chemscore.Metal>
0.0000

> <Gold.Chemscore.Hbonds>
donor molecule, donor type, donor heavy atom, donor atom, acceptor molecule, acceptor atom, score
      P1  H  6896  6908       L1     8  1.00
      P1  H  6896  6909       L1     1  1.00

> <Gold.PLP.Chemscore.Internal.Correction>
0.0174

> <Gold.Rescore>
     Score         DG    S(hbond)    S(metal)    S(lipo)     H(rot)  DE(clash)    DE(int)     intcor
     16.63     -18.47       1.99        0.00      87.70       1.53       0.05       1.79       ----

> <Gold.Chemscore.Fitness>
16.6298

> <Gold.Chemscore.DG>
-18.4685

> <Gold.Chemscore.ZeroCoef>
-5.4800

> <Gold.Chemscore.Hbond>
1.9917

> <Gold.Chemscore.Metal>
0.0000

> <Gold.Chemscore.Lipo>
87.7019

> <Gold.Chemscore.Internal_Hbond>
0.0000

> <Gold.Chemscore.DEClash>
0.0515

> <Gold.Chemscore.DEInternal>
1.7872

> <Gold.Chemscore.Rot>
1.5332

> <Gold.Chemscore.Internal.Correction>
   9.000000E+99

> <Gold.Chemscore.Hbonds>
donor molecule, donor type, donor heavy atom, donor atom, acceptor molecule, acceptor atom, score
      P1  H  6896  6908       L1     8  0.98
      P1  H  6896  6909       L1     1  1.00

> <Gold.Chemscore.Hbond.Weighted>
-6.6523

> <Gold.Chemscore.Metal.Weighted>
-0.0000

> <Gold.Chemscore.Lipo.Weighted>
-10.2611

> <Gold.Chemscore.Internal_Hbond.Weighted>
0.0000

> <Gold.Chemscore.DEClash.Weighted>
0.0515

> <Gold.Chemscore.DEInternal.Weighted>
1.7872

> <Gold.Chemscore.Rot.Weighted>
3.9249

> <Gold.Chemscore.Internal.Correction.Weighted>
   9.000000E+99

> <Gold.Protein.RotatedTorsions>
[ 6907 6896 6895 6894 ] final   36.05 input  -60.11 | X-H torsion
[ 7974 7965 7964 7962 ] final  -54.52 input  175.53 | X-H torsion
[ 8008 7997 7996 7995 ] final  137.56 input   59.86 | X-H torsion
[ 10167 10162 10161 10158 ] final  171.09 input  -65.29 | X-H torsion
[ 10718 10713 10712 10709 ] final -140.63 input   66.30 | X-H torsion
[ 10763 10752 10751 10750 ] final    9.23 input  -60.55 | X-H torsion
[ 11005 11000 10999 10996 ] final   45.14 input  -57.11 | X-H torsion

> <Gold.Protein.ActiveResidues>
 VAL166  LYS551  ARG553  GLY616  TRP617  ASP618  TYR619  PRO620  LYS621  CYS622 
 ASP623  PHE694  ASN695  SER759  ASP760  ASP761  ALA762  ILE779  LEU786  VAL792 
 PHE793  MET794  SER795  GLU796  ALA797  LYS798  CYS799  TRP800  GLU811  SER814 

> <Gold.Protein.RotatedAtoms>
  152.1245  134.9181  160.0561 H   0  0  0  0  0  0  0  0  0  0  0  0  # atno 6907 bound_to 6896
  152.0309  133.3932  159.4305 H   0  0  0  0  0  0  0  0  0  0  0  0  # atno 6908 bound_to 6896
  150.6851  134.3443  159.4925 H   0  0  0  0  0  0  0  0  0  0  0  0  # atno 6909 bound_to 6896
  145.8846  140.8118  142.9822 H   0  0  0  0  0  0  0  0  0  0  0  0  # atno 7974 bound_to 7965
  156.3001  140.2416  156.3929 H   0  0  0  0  0  0  0  0  0  0  0  0  # atno 8008 bound_to 7997
  154.8597  140.0420  157.1677 H   0  0  0  0  0  0  0  0  0  0  0  0  # atno 8009 bound_to 7997
  154.8909  140.2963  155.5375 H   0  0  0  0  0  0  0  0  0  0  0  0  # atno 8010 bound_to 7997
  139.5036  144.3525  151.9908 H   0  0  0  0  0  0  0  0  0  0  0  0  # atno 10167 bound_to 10162
  156.3246  130.7553  151.1658 H   0  0  0  0  0  0  0  0  0  0  0  0  # atno 10718 bound_to 10713
  153.2163  135.6875  153.8054 H   0  0  0  0  0  0  0  0  0  0  0  0  # atno 10763 bound_to 10752
  153.7268  135.3259  155.3279 H   0  0  0  0  0  0  0  0  0  0  0  0  # atno 10764 bound_to 10752
  154.8247  135.4626  154.0991 H   0  0  0  0  0  0  0  0  0  0  0  0  # atno 10765 bound_to 10752
  140.1487  134.4490  155.8397 H   0  0  0  0  0  0  0  0  0  0  0  0  # atno 11005 bound_to 11000
  144.6728  140.1436  143.7435 LP  0  0  0  0  0  0  0  0  0  0  0  0  # atno 17320 bound_to 7965
  145.8982  139.2415  143.1509 LP  0  0  0  0  0  0  0  0  0  0  0  0  # atno 17321 bound_to 7965
  140.2961  144.3699  150.6074 LP  0  0  0  0  0  0  0  0  0  0  0  0  # atno 17342 bound_to 10162
  140.5909  143.2168  151.7255 LP  0  0  0  0  0  0  0  0  0  0  0  0  # atno 17343 bound_to 10162
  157.7418  131.0498  150.5066 LP  0  0  0  0  0  0  0  0  0  0  0  0  # atno 17370 bound_to 10713
  156.5223  130.4165  149.6244 LP  0  0  0  0  0  0  0  0  0  0  0  0  # atno 17371 bound_to 10713
  141.2196  133.6863  156.7381 LP  0  0  0  0  0  0  0  0  0  0  0  0  # atno 17394 bound_to 11000
  140.2632  134.8450  157.3778 LP  0  0  0  0  0  0  0  0  0  0  0  0  # atno 17395 bound_to 11000

$$$$
