AV-unprocessed.smi:1901|AV-procd|sdf|7716|dock3
  -GOLD-   22720 9453D 1   1.00000     0.00000
 Structure written by MMmdl.
 28 29  0  0  0  0  0  0  0  0  1 V2000
  148.4846  144.3876  161.5998 O   0  0  0  0  0  0  0  0  0  0  0  0
  148.3048  144.7549  160.4382 C   0  0  0  0  0  0  0  0  0  0  0  0
  149.2885  145.2025  159.6447 N   0  0  0  0  0  0  0  0  0  0  0  0
  150.6898  145.3171  160.0342 C   0  0  0  0  0  0  0  0  0  0  0  0
  151.4575  143.9973  159.8288 C   0  0  2  0  0  0  0  0  0  0  0  0
  152.1700  143.4777  161.0621 C   0  0  0  0  0  0  0  0  0  0  0  0
  153.1790  142.5104  160.4527 C   0  0  0  0  0  0  0  0  0  0  0  0
  153.5279  143.0634  159.1873 O   0  0  0  0  0  0  0  0  0  0  0  0
  152.6166  144.1018  158.8376 C   0  0  0  0  0  0  0  0  0  0  0  0
  147.1217  144.7647  159.7998 N   0  0  0  0  0  0  0  0  0  0  0  0
  145.8540  144.3608  160.2950 C   0  0  0  0  0  0  0  0  0  0  0  0
  144.7213  144.3888  159.5829 N   0  0  0  0  0  0  0  0  0  0  0  0
  143.6253  143.9370  160.3224 C   0  0  0  0  0  0  0  0  0  0  0  0
  143.9444  143.5652  161.6046 C   0  0  0  0  0  0  0  0  0  0  0  0
  145.6441  143.7680  161.9362 S   0  0  0  0  0  0  0  0  0  0  0  0
  149.0529  145.4848  158.7045 H   0  0  0  0  0  0  0  0  0  0  0  0
  151.1668  146.1223  159.4728 H   0  0  0  0  0  0  0  0  0  0  0  0
  150.7247  145.6125  161.0833 H   0  0  0  0  0  0  0  0  0  0  0  0
  150.7722  143.2259  159.4727 H   0  0  0  0  0  0  0  0  0  0  0  0
  152.6904  144.2888  161.5734 H   0  0  0  0  0  0  0  0  0  0  0  0
  151.5004  142.9962  161.7754 H   0  0  0  0  0  0  0  0  0  0  0  0
  154.0571  142.3701  161.0834 H   0  0  0  0  0  0  0  0  0  0  0  0
  152.7187  141.5349  160.2901 H   0  0  0  0  0  0  0  0  0  0  0  0
  152.2866  144.0082  157.8027 H   0  0  0  0  0  0  0  0  0  0  0  0
  153.1323  145.0573  158.9416 H   0  0  0  0  0  0  0  0  0  0  0  0
  147.1291  145.0926  158.8452 H   0  0  0  0  0  0  0  0  0  0  0  0
  142.6510  143.9129  159.8567 H   0  0  0  0  0  0  0  0  0  0  0  0
  143.2847  143.1861  162.3708 H   0  0  0  0  0  0  0  0  0  0  0  0
  1  2  2  0  0  0  0
  2  3  1  0  0  0  0
  2 10  1  0  0  0  0
  3  4  1  0  0  0  0
  3 16  1  0  0  0  0
  4  5  1  0  0  0  0
  4 17  1  0  0  0  0
  4 18  1  0  0  0  0
  5  9  1  0  0  0  0
  5  6  1  0  0  0  0
  5 19  1  0  0  0  0
  6  7  1  0  0  0  0
  6 20  1  0  0  0  0
  6 21  1  0  0  0  0
  7  8  1  0  0  0  0
  7 22  1  0  0  0  0
  7 23  1  0  0  0  0
  8  9  1  0  0  0  0
  9 24  1  0  0  0  0
  9 25  1  0  0  0  0
 10 11  1  0  0  0  0
 10 26  1  0  0  0  0
 11 15  1  0  0  0  0
 11 12  2  0  0  0  0
 12 13  1  0  0  0  0
 13 14  2  0  0  0  0
 13 27  1  0  0  0  0
 14 15  1  0  0  0  0
 14 28  1  0  0  0  0
M  END
> <s_m_source_file>
AV-unprocessed.smi

> <i_m_source_file_index>
1901

> <i_lp_mmshare_version>
43012

> <i_f3d_flags>
0

> <s_epik_input>
czFbY0hdW2NIXW5jMVtOSF1DKD1PKVtOSF1bQ0gyXVtDQEBIXTJbQ0gyXVtDSDJdT1tDSDJdMg==

> <s_epik_cmdline>
J2VwaWtfcHl0aG9uJywgJy1waCcsICc3LjAnLCAnLXRuJywgJzgnLCAnLW1hJywgJzIwMCcsICctbWV0YWxfYmluZGluZycsICctaW1hZScsICc8aW5maWxlLm1hZT4nLCAnLW9tYWUnLCAnPG91dGZpbGUubWFlPic=

> <r_lp_tautomer_probability>
0.999

> <r_epik_Ionization_Penalty>
0.000365592

> <r_epik_Ionization_Penalty_Charging>
0

> <r_epik_Ionization_Penalty_Neutral>
0.000365592

> <r_epik_State_Penalty>
0.000177984

> <r_epik_Charging_Adjusted_Penalty>
0.000177984

> <i_epik_Tot_Q>
0

> <i_epik_Tot_abs_Q>
0

> <r_epik_Metal_State_Penalty>
0.00682492

> <b_epik_Metal_Only>
0

> <s_lp_Force_Field>
OPLS_2005

> <r_lp_Energy>
16.9403

> <b_lp_Chiralities_Consistent>
1

> <s_lp_Variant>
AV-unprocessed.smi:1901-1

> <Gold.Version>
5.8.1

> <Gold.Id.Protein>
6NUR|6NUR_protein|mol2

> <Gold.PLP.Fitness>
40.1897

> <Gold.PLP.PLP>
-33.6261

> <Gold.PLP.part.hbond>
-3.0000

> <Gold.PLP.part.metal>
0.0000

> <Gold.PLP.part.buried>
-6.0665

> <Gold.PLP.part.nonpolar>
-25.1690

> <Gold.PLP.part.repulsive>
0.6151

> <Gold.PLP.ligand.clash>
0.0000

> <Gold.PLP.ligand.torsion>
0.9213

> <Gold.PLP.Chemscore.Hbond>
2.8000

> <Gold.PLP.Chemscore.CHOScore>
0.0000

> <Gold.PLP.Chemscore.Metal>
0.0000

> <Gold.Chemscore.Hbonds>
donor molecule, donor type, donor heavy atom, donor atom, acceptor molecule, acceptor atom, score
      L1  H     3    16       P1  8029  1.00
      L1  H    10    26       P1  8029  1.00
      P1  H  6933  6944       L1     1  0.78

> <Gold.PLP.Chemscore.Internal.Correction>
0.0062

> <Gold.Rescore>
     Score         DG    S(hbond)    S(metal)    S(lipo)     H(rot)  DE(clash)    DE(int)     intcor
     17.90     -20.00       2.87        0.00      71.04       1.32       0.00       2.10       ----

> <Gold.Chemscore.Fitness>
17.8973

> <Gold.Chemscore.DG>
-19.9970

> <Gold.Chemscore.ZeroCoef>
-5.4800

> <Gold.Chemscore.Hbond>
2.8669

> <Gold.Chemscore.Metal>
0.0000

> <Gold.Chemscore.Lipo>
71.0361

> <Gold.Chemscore.Internal_Hbond>
0.0000

> <Gold.Chemscore.DEClash>
0.0021

> <Gold.Chemscore.DEInternal>
2.0976

> <Gold.Chemscore.Rot>
1.3163

> <Gold.Chemscore.Internal.Correction>
   9.000000E+99

> <Gold.Chemscore.Hbonds>
donor molecule, donor type, donor heavy atom, donor atom, acceptor molecule, acceptor atom, score
      L1  H     3    16       P1  8029  0.98
      L1  H    10    26       P1  8029  0.98
      P1  H  6933  6944       L1     1  0.33

> <Gold.Chemscore.Hbond.Weighted>
-9.5756

> <Gold.Chemscore.Metal.Weighted>
-0.0000

> <Gold.Chemscore.Lipo.Weighted>
-8.3112

> <Gold.Chemscore.Internal_Hbond.Weighted>
0.0000

> <Gold.Chemscore.DEClash.Weighted>
0.0021

> <Gold.Chemscore.DEInternal.Weighted>
2.0976

> <Gold.Chemscore.Rot.Weighted>
3.3698

> <Gold.Chemscore.Internal.Correction.Weighted>
   9.000000E+99

> <Gold.Protein.RotatedTorsions>
[ 6907 6896 6895 6894 ] final   39.06 input  -60.11 | X-H torsion
[ 7974 7965 7964 7962 ] final  -43.53 input  175.53 | X-H torsion
[ 8008 7997 7996 7995 ] final  -55.47 input   59.86 | X-H torsion
[ 10167 10162 10161 10158 ] final -147.17 input  -65.29 | X-H torsion
[ 10718 10713 10712 10709 ] final  158.11 input   66.30 | X-H torsion
[ 10763 10752 10751 10750 ] final   68.92 input  -60.55 | X-H torsion
[ 11005 11000 10999 10996 ] final  -51.89 input  -57.11 | X-H torsion

> <Gold.Protein.ActiveResidues>
 VAL166  LYS551  ARG553  GLY616  TRP617  ASP618  TYR619  PRO620  LYS621  CYS622 
 ASP623  PHE694  ASN695  SER759  ASP760  ASP761  ALA762  ILE779  LEU786  VAL792 
 PHE793  MET794  SER795  GLU796  ALA797  LYS798  CYS799  TRP800  GLU811  SER814 

> <Gold.Protein.RotatedAtoms>
  152.1646  134.8884  160.0538 H   0  0  0  0  0  0  0  0  0  0  0  0  # atno 6907 bound_to 6896
  151.9866  133.3771  159.4136 H   0  0  0  0  0  0  0  0  0  0  0  0  # atno 6908 bound_to 6896
  150.6893  134.3904  159.5117 H   0  0  0  0  0  0  0  0  0  0  0  0  # atno 6909 bound_to 6896
  146.0010  140.7074  142.9271 H   0  0  0  0  0  0  0  0  0  0  0  0  # atno 7974 bound_to 7965
  154.4196  140.1152  156.5482 H   0  0  0  0  0  0  0  0  0  0  0  0  # atno 8008 bound_to 7997
  155.6437  140.3496  155.4705 H   0  0  0  0  0  0  0  0  0  0  0  0  # atno 8009 bound_to 7997
  155.9849  140.1168  157.0682 H   0  0  0  0  0  0  0  0  0  0  0  0  # atno 8010 bound_to 7997
  139.7646  143.8327  152.2613 H   0  0  0  0  0  0  0  0  0  0  0  0  # atno 10167 bound_to 10162
  157.1823  131.0635  151.2125 H   0  0  0  0  0  0  0  0  0  0  0  0  # atno 10718 bound_to 10713
  153.0260  135.5230  154.7208 H   0  0  0  0  0  0  0  0  0  0  0  0  # atno 10763 bound_to 10752
  154.6264  135.2895  155.0269 H   0  0  0  0  0  0  0  0  0  0  0  0  # atno 10764 bound_to 10752
  154.1237  135.6603  153.4960 H   0  0  0  0  0  0  0  0  0  0  0  0  # atno 10765 bound_to 10752
  141.0895  133.6635  156.3944 H   0  0  0  0  0  0  0  0  0  0  0  0  # atno 11005 bound_to 11000
  144.6919  140.3232  143.7228 LP  0  0  0  0  0  0  0  0  0  0  0  0  # atno 17320 bound_to 7965
  145.7488  139.1787  143.2333 LP  0  0  0  0  0  0  0  0  0  0  0  0  # atno 17321 bound_to 7965
  139.8343  144.7239  150.9411 LP  0  0  0  0  0  0  0  0  0  0  0  0  # atno 17342 bound_to 10162
  140.7810  143.4041  151.1100 LP  0  0  0  0  0  0  0  0  0  0  0  0  # atno 17343 bound_to 10162
  157.3940  130.7297  149.6718 LP  0  0  0  0  0  0  0  0  0  0  0  0  # atno 17370 bound_to 10713
  155.9722  130.4138  150.4103 LP  0  0  0  0  0  0  0  0  0  0  0  0  # atno 17371 bound_to 10713
  140.5284  134.6236  157.5342 LP  0  0  0  0  0  0  0  0  0  0  0  0  # atno 17394 bound_to 11000
  139.9719  134.7279  156.0025 LP  0  0  0  0  0  0  0  0  0  0  0  0  # atno 17395 bound_to 11000

$$$$
