AV-unprocessed.smi:3011|AV-procd|sdf|11459|dock2
  -GOLD-   2272016393D 1   1.00000     0.00000
 Structure written by MMmdl.
 47 49  0  0  0  0  0  0  0  0  2 V2000
  146.7592  137.9002  163.3341 C   0  0  0  0  0  0  0  0  0  0  0  0
  147.3143  137.4713  162.0997 O   0  0  0  0  0  0  0  0  0  0  0  0
  147.1889  136.1411  161.7533 C   0  0  0  0  0  0  0  0  0  0  0  0
  146.5565  135.1710  162.5719 C   0  0  0  0  0  0  0  0  0  0  0  0
  146.4649  133.8322  162.1504 C   0  0  0  0  0  0  0  0  0  0  0  0
  147.0017  133.4470  160.9102 C   0  0  0  0  0  0  0  0  0  0  0  0
  147.6312  134.4006  160.0901 C   0  0  0  0  0  0  0  0  0  0  0  0
  147.7289  135.7520  160.5059 C   0  0  0  0  0  0  0  0  0  0  0  0
  148.3325  136.7402  159.7595 O   0  0  0  0  0  0  0  0  0  0  0  0
  148.6026  136.4987  158.3860 C   0  0  0  0  0  0  0  0  0  0  0  0
  149.2922  137.7391  157.8006 C   0  0  0  0  0  0  0  0  0  0  0  0
  149.0981  137.8456  156.3467 N   0  0  0  0  0  0  0  0  0  0  0  0
  149.1460  136.8874  155.3746 C   0  0  0  0  0  0  0  0  0  0  0  0
  149.3871  135.4165  155.5753 C   0  0  2  0  0  0  0  0  0  0  0  0
  150.7503  135.1289  156.2319 C   0  0  0  0  0  0  0  0  0  0  0  0
  149.2112  134.6482  154.3450 N   0  0  0  0  0  0  0  0  0  0  0  0
  149.2473  133.3120  154.2486 C   0  0  0  0  0  0  0  0  0  0  0  0
  149.4375  132.5735  155.2111 O   0  0  0  0  0  0  0  0  0  0  0  0
  148.8866  137.5108  154.1887 N   0  3  0  0  0  0  0  0  0  0  0  0
  148.6958  138.8760  154.4004 C   0  0  0  0  0  0  0  0  0  0  0  0
  148.4175  139.9064  153.5078 C   0  0  0  0  0  0  0  0  0  0  0  0
  148.2841  141.1991  154.0559 C   0  0  0  0  0  0  0  0  0  0  0  0
  148.4281  141.4283  155.4397 C   0  0  0  0  0  0  0  0  0  0  0  0
  148.7086  140.3748  156.3348 C   0  0  0  0  0  0  0  0  0  0  0  0
  148.8357  139.0996  155.7849 C   0  0  0  0  0  0  0  0  0  0  0  0
  146.9450  138.9665  163.4604 H   0  0  0  0  0  0  0  0  0  0  0  0
  147.2180  137.3841  164.1784 H   0  0  0  0  0  0  0  0  0  0  0  0
  145.6793  137.7486  163.3598 H   0  0  0  0  0  0  0  0  0  0  0  0
  146.1323  135.4287  163.5303 H   0  0  0  0  0  0  0  0  0  0  0  0
  145.9816  133.0998  162.7802 H   0  0  0  0  0  0  0  0  0  0  0  0
  146.9311  132.4186  160.5876 H   0  0  0  0  0  0  0  0  0  0  0  0
  148.0337  134.0692  159.1452 H   0  0  0  0  0  0  0  0  0  0  0  0
  149.2525  135.6303  158.2704 H   0  0  0  0  0  0  0  0  0  0  0  0
  147.6736  136.3024  157.8484 H   0  0  0  0  0  0  0  0  0  0  0  0
  148.8855  138.6421  158.2564 H   0  0  0  0  0  0  0  0  0  0  0  0
  150.3598  137.7394  158.0217 H   0  0  0  0  0  0  0  0  0  0  0  0
  148.6233  135.0526  156.2622 H   0  0  0  0  0  0  0  0  0  0  0  0
  150.8352  135.6393  157.1918 H   0  0  0  0  0  0  0  0  0  0  0  0
  151.5832  135.4555  155.6084 H   0  0  0  0  0  0  0  0  0  0  0  0
  150.8755  134.0620  156.4184 H   0  0  0  0  0  0  0  0  0  0  0  0
  149.0570  135.1765  153.4980 H   0  0  0  0  0  0  0  0  0  0  0  0
  149.0877  132.9687  153.2143 H   0  0  0  0  0  0  0  0  0  0  0  0
  148.3082  139.7331  152.4472 H   0  0  0  0  0  0  0  0  0  0  0  0
  148.0680  142.0314  153.4017 H   0  0  0  0  0  0  0  0  0  0  0  0
  148.3204  142.4325  155.8233 H   0  0  0  0  0  0  0  0  0  0  0  0
  148.8177  140.5613  157.3928 H   0  0  0  0  0  0  0  0  0  0  0  0
  148.8478  137.0316  153.2983 H   0  0  0  0  0  0  0  0  0  0  0  0
  1  2  1  0  0  0  0
  1 26  1  0  0  0  0
  1 27  1  0  0  0  0
  1 28  1  0  0  0  0
  2  3  1  0  0  0  0
  3  8  1  0  0  0  0
  3  4  2  0  0  0  0
  4  5  1  0  0  0  0
  4 29  1  0  0  0  0
  5  6  2  0  0  0  0
  5 30  1  0  0  0  0
  6  7  1  0  0  0  0
  6 31  1  0  0  0  0
  7  8  2  0  0  0  0
  7 32  1  0  0  0  0
  8  9  1  0  0  0  0
  9 10  1  0  0  0  0
 10 11  1  0  0  0  0
 10 33  1  0  0  0  0
 10 34  1  0  0  0  0
 11 12  1  0  0  0  0
 11 35  1  0  0  0  0
 11 36  1  0  0  0  0
 12 25  1  0  0  0  0
 12 13  1  0  0  0  0
 13 14  1  0  0  0  0
 13 19  2  0  0  0  0
 14 15  1  0  0  0  0
 14 16  1  0  0  0  0
 14 37  1  0  0  0  0
 15 38  1  0  0  0  0
 15 39  1  0  0  0  0
 15 40  1  0  0  0  0
 16 17  1  0  0  0  0
 16 41  1  0  0  0  0
 17 18  2  0  0  0  0
 17 42  1  0  0  0  0
 19 20  1  0  0  0  0
 19 47  1  0  0  0  0
 20 25  2  0  0  0  0
 20 21  1  0  0  0  0
 21 22  2  0  0  0  0
 21 43  1  0  0  0  0
 22 23  1  0  0  0  0
 22 44  1  0  0  0  0
 23 24  2  0  0  0  0
 23 45  1  0  0  0  0
 24 25  1  0  0  0  0
 24 46  1  0  0  0  0
M  CHG  1  19   1
M  END
> <s_m_source_file>
AV-unprocessed.smi

> <i_m_source_file_index>
3011

> <i_lp_mmshare_version>
43012

> <i_f3d_flags>
0

> <s_epik_input>
W0NIM11PYzFbY0hdW2NIXVtjSF1bY0hdYzFPW0NIMl1bQ0gyXW4oYyhuMilbQ0BIXShbQ0gzXSlbTkhdW0NIXT1PKWMoYzIzKVtjSF1bY0hdW2NIXVtjSF0z

> <s_epik_cmdline>
J2VwaWtfcHl0aG9uJywgJy1waCcsICc3LjAnLCAnLXRuJywgJzgnLCAnLW1hJywgJzIwMCcsICctbWV0YWxfYmluZGluZycsICctaW1hZScsICc8aW5maWxlLm1hZT4nLCAnLW9tYWUnLCAnPG91dGZpbGUubWFlPic=

> <r_lp_tautomer_probability>
1

> <r_epik_Ionization_Penalty>
1.14644

> <r_epik_Ionization_Penalty_Charging>
1.14644

> <r_epik_Ionization_Penalty_Neutral>
5.5802e-08

> <r_epik_State_Penalty>
1.20743

> <r_epik_Charging_Adjusted_Penalty>
2.35387

> <i_epik_Tot_Q>
1

> <i_epik_Tot_abs_Q>
1

> <r_epik_Metal_State_Penalty>
1.28856

> <b_epik_Metal_Only>
0

> <s_lp_Force_Field>
OPLS_2005

> <r_lp_Energy>
19.8167

> <b_lp_Chiralities_Consistent>
1

> <s_lp_Variant>
AV-unprocessed.smi:3011-3

> <Gold.Version>
5.8.1

> <Gold.Id.Protein>
6NUR|6NUR_protein|mol2

> <Gold.PLP.Fitness>
51.1421

> <Gold.PLP.PLP>
-38.9771

> <Gold.PLP.part.hbond>
-4.0000

> <Gold.PLP.part.metal>
0.0000

> <Gold.PLP.part.buried>
-0.8589

> <Gold.PLP.part.nonpolar>
-33.3352

> <Gold.PLP.part.repulsive>
0.0288

> <Gold.PLP.ligand.clash>
0.0000

> <Gold.PLP.ligand.torsion>
0.6383

> <Gold.PLP.Chemscore.Hbond>
4.3259

> <Gold.PLP.Chemscore.CHOScore>
0.0000

> <Gold.PLP.Chemscore.Metal>
0.0000

> <Gold.Chemscore.Hbonds>
donor molecule, donor type, donor heavy atom, donor atom, acceptor molecule, acceptor atom, score
      L1  H    16    41       P1  7948  1.00
      L1  H    19    47       P1  7948  2.00
      P1  H  6931  6943       L1     2  0.72
      P1  H  6934  6947       L1     2  0.62

> <Gold.PLP.Chemscore.Internal.Correction>
0.4640

> <Gold.Rescore>
     Score         DG    S(hbond)    S(metal)    S(lipo)     H(rot)  DE(clash)    DE(int)     intcor
     16.90     -18.62       2.68        0.00      94.11       2.66       0.87       0.86       ----

> <Gold.Chemscore.Fitness>
16.8955

> <Gold.Chemscore.DG>
-18.6243

> <Gold.Chemscore.ZeroCoef>
-5.4800

> <Gold.Chemscore.Hbond>
2.6777

> <Gold.Chemscore.Metal>
0.0000

> <Gold.Chemscore.Lipo>
94.1134

> <Gold.Chemscore.Internal_Hbond>
0.0000

> <Gold.Chemscore.DEClash>
0.8693

> <Gold.Chemscore.DEInternal>
0.8596

> <Gold.Chemscore.Rot>
2.6604

> <Gold.Chemscore.Internal.Correction>
   9.000000E+99

> <Gold.Chemscore.Hbonds>
donor molecule, donor type, donor heavy atom, donor atom, acceptor molecule, acceptor atom, score
      L1  H    16    41       P1  7948  0.40
      L1  H    19    47       P1  7948  1.00
      P1  H  6931  6943       L1     2  0.42
      P1  H  6934  6947       L1     2  0.28

> <Gold.Chemscore.Hbond.Weighted>
-8.9437

> <Gold.Chemscore.Metal.Weighted>
-0.0000

> <Gold.Chemscore.Lipo.Weighted>
-11.0113

> <Gold.Chemscore.Internal_Hbond.Weighted>
0.0000

> <Gold.Chemscore.DEClash.Weighted>
0.8693

> <Gold.Chemscore.DEInternal.Weighted>
0.8596

> <Gold.Chemscore.Rot.Weighted>
6.8106

> <Gold.Chemscore.Internal.Correction.Weighted>
   9.000000E+99

> <Gold.Protein.RotatedTorsions>
[ 6907 6896 6895 6894 ] final -143.71 input  -60.11 | X-H torsion
[ 7974 7965 7964 7962 ] final -155.37 input  175.53 | X-H torsion
[ 8008 7997 7996 7995 ] final -140.73 input   59.86 | X-H torsion
[ 10167 10162 10161 10158 ] final -153.75 input  -65.29 | X-H torsion
[ 10718 10713 10712 10709 ] final  -73.42 input   66.30 | X-H torsion
[ 10763 10752 10751 10750 ] final   -3.15 input  -60.55 | X-H torsion
[ 11005 11000 10999 10996 ] final  -44.64 input  -57.11 | X-H torsion

> <Gold.Protein.ActiveResidues>
 VAL166  LYS551  ARG553  GLY616  TRP617  ASP618  TYR619  PRO620  LYS621  CYS622 
 ASP623  PHE694  ASN695  SER759  ASP760  ASP761  ALA762  ILE779  LEU786  VAL792 
 PHE793  MET794  SER795  GLU796  ALA797  LYS798  CYS799  TRP800  GLU811  SER814 

> <Gold.Protein.RotatedAtoms>
  151.1042  133.5221  159.2608 H   0  0  0  0  0  0  0  0  0  0  0  0  # atno 6907 bound_to 6896
  151.2040  135.0453  159.8893 H   0  0  0  0  0  0  0  0  0  0  0  0  # atno 6908 bound_to 6896
  152.5445  134.0867  159.8312 H   0  0  0  0  0  0  0  0  0  0  0  0  # atno 6909 bound_to 6896
  144.7643  140.4258  143.5953 H   0  0  0  0  0  0  0  0  0  0  0  0  # atno 7974 bound_to 7965
  155.4661  140.0549  157.2985 H   0  0  0  0  0  0  0  0  0  0  0  0  # atno 8008 bound_to 7997
  154.4717  140.2043  155.9932 H   0  0  0  0  0  0  0  0  0  0  0  0  # atno 8009 bound_to 7997
  156.1067  140.3210  155.8020 H   0  0  0  0  0  0  0  0  0  0  0  0  # atno 8010 bound_to 7997
  139.7071  143.9169  152.2453 H   0  0  0  0  0  0  0  0  0  0  0  0  # atno 10167 bound_to 10162
  156.0281  130.4394  150.2740 H   0  0  0  0  0  0  0  0  0  0  0  0  # atno 10718 bound_to 10713
  153.3675  135.6993  153.6663 H   0  0  0  0  0  0  0  0  0  0  0  0  # atno 10763 bound_to 10752
  153.5327  135.3589  155.2683 H   0  0  0  0  0  0  0  0  0  0  0  0  # atno 10764 bound_to 10752
  154.8677  135.4184  154.2946 H   0  0  0  0  0  0  0  0  0  0  0  0  # atno 10765 bound_to 10752
  141.0463  133.6760  156.2901 H   0  0  0  0  0  0  0  0  0  0  0  0  # atno 11005 bound_to 11000
  145.6519  139.1566  143.2857 LP  0  0  0  0  0  0  0  0  0  0  0  0  # atno 17320 bound_to 7965
  146.1736  140.6607  142.9221 LP  0  0  0  0  0  0  0  0  0  0  0  0  # atno 17321 bound_to 7965
  139.9027  144.6902  150.8647 LP  0  0  0  0  0  0  0  0  0  0  0  0  # atno 17342 bound_to 10162
  140.7724  143.3501  151.2031 LP  0  0  0  0  0  0  0  0  0  0  0  0  # atno 17343 bound_to 10162
  157.0843  131.0152  151.3145 LP  0  0  0  0  0  0  0  0  0  0  0  0  # atno 17370 bound_to 10713
  157.4903  130.7818  149.7501 LP  0  0  0  0  0  0  0  0  0  0  0  0  # atno 17371 bound_to 10713
  140.6139  134.5430  157.5538 LP  0  0  0  0  0  0  0  0  0  0  0  0  # atno 17394 bound_to 11000
  139.9315  134.7955  156.0919 LP  0  0  0  0  0  0  0  0  0  0  0  0  # atno 17395 bound_to 11000

$$$$
