AV-unprocessed.smi:958|AV-procd|sdf|4268|dock3
  -GOLD-   22720 2173D 1   1.00000     0.00000
 Structure written by MMmdl.
 31 33  0  0  0  0  0  0  0  0  2 V2000
  153.0696  141.6582  159.2957 C   0  0  0  0  0  0  0  0  0  0  0  0
  153.3688  140.5014  158.7078 N   0  0  0  0  0  0  0  0  0  0  0  0
  152.4914  140.4147  157.6469 N   0  0  0  0  0  0  0  0  0  0  0  0
  151.7414  141.5232  157.7034 C   0  0  0  0  0  0  0  0  0  0  0  0
  150.6373  141.8243  156.7287 C   0  0  1  0  0  0  0  0  0  0  0  0
  150.5720  140.7841  155.5939 C   0  0  0  0  0  0  0  0  0  0  0  0
  149.4319  141.1208  154.6208 C   0  0  0  0  0  0  0  0  0  0  0  0
  148.0957  141.2642  155.3684 C   0  0  0  0  0  0  0  0  0  0  0  0
  148.2040  142.2709  156.4468 N   0  3  0  0  0  0  0  0  0  0  0  0
  149.2682  141.9589  157.4266 C   0  0  0  0  0  0  0  0  0  0  0  0
  152.0845  142.3570  158.7092 N   0  0  0  0  0  0  0  0  0  0  0  0
  151.5071  143.6259  159.1207 C   0  0  0  0  0  0  0  0  0  0  0  0
  152.4164  144.8177  158.9254 C   0  0  0  0  0  0  0  0  0  0  0  0
  152.1729  144.2723  160.3149 C   0  0  0  0  0  0  0  0  0  0  0  0
  153.5864  142.0072  160.1778 H   0  0  0  0  0  0  0  0  0  0  0  0
  150.8464  142.7896  156.2679 H   0  0  0  0  0  0  0  0  0  0  0  0
  151.5207  140.7496  155.0572 H   0  0  0  0  0  0  0  0  0  0  0  0
  150.4130  139.7878  156.0090 H   0  0  0  0  0  0  0  0  0  0  0  0
  149.6609  142.0493  154.0960 H   0  0  0  0  0  0  0  0  0  0  0  0
  149.3520  140.3458  153.8577 H   0  0  0  0  0  0  0  0  0  0  0  0
  147.3068  141.5654  154.6785 H   0  0  0  0  0  0  0  0  0  0  0  0
  147.7962  140.3070  155.7976 H   0  0  0  0  0  0  0  0  0  0  0  0
  148.4061  143.1678  156.0289 H   0  0  0  0  0  0  0  0  0  0  0  0
  149.0083  141.0371  157.9491 H   0  0  0  0  0  0  0  0  0  0  0  0
  149.3000  142.7515  158.1748 H   0  0  0  0  0  0  0  0  0  0  0  0
  150.4333  143.6998  158.9601 H   0  0  0  0  0  0  0  0  0  0  0  0
  153.3988  144.6506  158.4875 H   0  0  0  0  0  0  0  0  0  0  0  0
  151.9500  145.7672  158.6712 H   0  0  0  0  0  0  0  0  0  0  0  0
  151.5447  144.8615  160.9799 H   0  0  0  0  0  0  0  0  0  0  0  0
  153.0007  143.7551  160.7967 H   0  0  0  0  0  0  0  0  0  0  0  0
  147.3194  142.3292  156.9312 H   0  0  0  0  0  0  0  0  0  0  0  0
  1 11  1  0  0  0  0
  1  2  2  0  0  0  0
  1 15  1  0  0  0  0
  2  3  1  0  0  0  0
  3  4  2  0  0  0  0
  4  5  1  0  0  0  0
  4 11  1  0  0  0  0
  5 10  1  0  0  0  0
  5  6  1  0  0  0  0
  5 16  1  0  0  0  0
  6  7  1  0  0  0  0
  6 17  1  0  0  0  0
  6 18  1  0  0  0  0
  7  8  1  0  0  0  0
  7 19  1  0  0  0  0
  7 20  1  0  0  0  0
  8  9  1  0  0  0  0
  8 21  1  0  0  0  0
  8 22  1  0  0  0  0
  9 10  1  0  0  0  0
  9 23  1  0  0  0  0
  9 31  1  0  0  0  0
 10 24  1  0  0  0  0
 10 25  1  0  0  0  0
 11 12  1  0  0  0  0
 12 14  1  0  0  0  0
 12 13  1  0  0  0  0
 12 26  1  0  0  0  0
 13 14  1  0  0  0  0
 13 27  1  0  0  0  0
 13 28  1  0  0  0  0
 14 29  1  0  0  0  0
 14 30  1  0  0  0  0
M  CHG  1   9   1
M  END
> <s_m_source_file>
AV-unprocessed.smi

> <i_m_source_file_index>
958

> <i_lp_mmshare_version>
43012

> <i_f3d_flags>
0

> <s_epik_input>
W0NIMl0xW0NIMl1bQ0hdMW4yW2NIXW5uYzJbQ0BASF0zW0NIMl1bQ0gyXVtDSDJdW05IXVtDSDJdMw==

> <s_epik_cmdline>
J2VwaWtfcHl0aG9uJywgJy1waCcsICc3LjAnLCAnLXRuJywgJzgnLCAnLW1hJywgJzIwMCcsICctbWV0YWxfYmluZGluZycsICctaW1hZScsICc8aW5maWxlLm1hZT4nLCAnLW9tYWUnLCAnPG91dGZpbGUubWFlPic=

> <r_lp_tautomer_probability>
1

> <r_epik_Ionization_Penalty>
0.000442722

> <r_epik_Ionization_Penalty_Charging>
0.000426856

> <r_epik_Ionization_Penalty_Neutral>
1.58656e-05

> <r_epik_State_Penalty>
-0

> <r_epik_Charging_Adjusted_Penalty>
0.000426856

> <i_epik_Tot_Q>
1

> <i_epik_Tot_abs_Q>
1

> <r_epik_Metal_State_Penalty>
-0

> <b_epik_Metal_Only>
0

> <s_lp_Force_Field>
OPLS_2005

> <r_lp_Energy>
27.2192

> <b_lp_Chiralities_Consistent>
1

> <s_lp_Variant>
AV-unprocessed.smi:958-2

> <Gold.Version>
5.8.1

> <Gold.Id.Protein>
6NUR|6NUR_protein|mol2

> <Gold.PLP.Fitness>
38.0858

> <Gold.PLP.PLP>
-31.8239

> <Gold.PLP.part.hbond>
-2.9969

> <Gold.PLP.part.metal>
0.0000

> <Gold.PLP.part.buried>
-0.8418

> <Gold.PLP.part.nonpolar>
-26.7824

> <Gold.PLP.part.repulsive>
0.0172

> <Gold.PLP.ligand.clash>
0.0000

> <Gold.PLP.ligand.torsion>
0.1237

> <Gold.PLP.Chemscore.Hbond>
2.1383

> <Gold.PLP.Chemscore.CHOScore>
0.0000

> <Gold.PLP.Chemscore.Metal>
0.0000

> <Gold.Chemscore.Hbonds>
donor molecule, donor type, donor heavy atom, donor atom, acceptor molecule, acceptor atom, score
      L1  H     9    23       P1  8028  2.00
      P1  H  7997  8009       L1     2  0.13

> <Gold.PLP.Chemscore.Internal.Correction>
0.0943

> <Gold.Rescore>
     Score         DG    S(hbond)    S(metal)    S(lipo)     H(rot)  DE(clash)    DE(int)     intcor
     13.64     -13.87       0.98        0.00      71.15       1.25       0.03       0.19       ----

> <Gold.Chemscore.Fitness>
13.6442

> <Gold.Chemscore.DG>
-13.8694

> <Gold.Chemscore.ZeroCoef>
-5.4800

> <Gold.Chemscore.Hbond>
0.9768

> <Gold.Chemscore.Metal>
0.0000

> <Gold.Chemscore.Lipo>
71.1490

> <Gold.Chemscore.Internal_Hbond>
0.0000

> <Gold.Chemscore.DEClash>
0.0308

> <Gold.Chemscore.DEInternal>
0.1944

> <Gold.Chemscore.Rot>
1.2491

> <Gold.Chemscore.Internal.Correction>
   9.000000E+99

> <Gold.Chemscore.Hbonds>
donor molecule, donor type, donor heavy atom, donor atom, acceptor molecule, acceptor atom, score
      L1  H     9    23       P1  8028  0.90

> <Gold.Chemscore.Hbond.Weighted>
-3.2626

> <Gold.Chemscore.Metal.Weighted>
-0.0000

> <Gold.Chemscore.Lipo.Weighted>
-8.3244

> <Gold.Chemscore.Internal_Hbond.Weighted>
0.0000

> <Gold.Chemscore.DEClash.Weighted>
0.0308

> <Gold.Chemscore.DEInternal.Weighted>
0.1944

> <Gold.Chemscore.Rot.Weighted>
3.1977

> <Gold.Chemscore.Internal.Correction.Weighted>
   9.000000E+99

> <Gold.Protein.RotatedTorsions>
[ 6907 6896 6895 6894 ] final  -96.15 input  -60.11 | X-H torsion
[ 7974 7965 7964 7962 ] final  140.90 input  175.53 | X-H torsion
[ 8008 7997 7996 7995 ] final  127.19 input   59.86 | X-H torsion
[ 10167 10162 10161 10158 ] final -108.07 input  -65.29 | X-H torsion
[ 10718 10713 10712 10709 ] final   57.67 input   66.30 | X-H torsion
[ 10763 10752 10751 10750 ] final  -38.52 input  -60.55 | X-H torsion
[ 11005 11000 10999 10996 ] final  -80.35 input  -57.11 | X-H torsion

> <Gold.Protein.ActiveResidues>
 VAL166  LYS551  ARG553  GLY616  TRP617  ASP618  TYR619  PRO620  LYS621  CYS622 
 ASP623  PHE694  ASN695  SER759  ASP760  ASP761  ALA762  ILE779  LEU786  VAL792 
 PHE793  MET794  SER795  GLU796  ALA797  LYS798  CYS799  TRP800  GLU811  SER814 

> <Gold.Protein.RotatedAtoms>
  150.6981  134.1547  159.4153 H   0  0  0  0  0  0  0  0  0  0  0  0  # atno 6907 bound_to 6896
  151.9529  135.0158  160.0552 H   0  0  0  0  0  0  0  0  0  0  0  0  # atno 6908 bound_to 6896
  152.1995  133.4795  159.5087 H   0  0  0  0  0  0  0  0  0  0  0  0  # atno 6909 bound_to 6896
  144.9145  139.5249  143.5693 H   0  0  0  0  0  0  0  0  0  0  0  0  # atno 7974 bound_to 7965
  156.2884  140.2675  156.2232 H   0  0  0  0  0  0  0  0  0  0  0  0  # atno 8008 bound_to 7997
  155.0147  140.0387  157.2431 H   0  0  0  0  0  0  0  0  0  0  0  0  # atno 8009 bound_to 7997
  154.7488  140.2739  155.6315 H   0  0  0  0  0  0  0  0  0  0  0  0  # atno 8010 bound_to 7997
  140.1702  143.4049  152.1360 H   0  0  0  0  0  0  0  0  0  0  0  0  # atno 10167 bound_to 10162
  157.5533  130.8782  149.8997 H   0  0  0  0  0  0  0  0  0  0  0  0  # atno 10718 bound_to 10713
  153.9142  135.6789  153.4750 H   0  0  0  0  0  0  0  0  0  0  0  0  # atno 10763 bound_to 10752
  153.1062  135.4804  154.8953 H   0  0  0  0  0  0  0  0  0  0  0  0  # atno 10764 bound_to 10752
  154.7511  135.3185  154.8511 H   0  0  0  0  0  0  0  0  0  0  0  0  # atno 10765 bound_to 10752
  141.1668  133.7146  156.8259 H   0  0  0  0  0  0  0  0  0  0  0  0  # atno 11005 bound_to 11000
  146.3175  139.7977  142.8972 LP  0  0  0  0  0  0  0  0  0  0  0  0  # atno 17320 bound_to 7965
  145.3399  141.0285  143.3398 LP  0  0  0  0  0  0  0  0  0  0  0  0  # atno 17321 bound_to 7965
  139.5341  144.7191  151.4952 LP  0  0  0  0  0  0  0  0  0  0  0  0  # atno 17342 bound_to 10162
  140.6587  143.8544  150.6863 LP  0  0  0  0  0  0  0  0  0  0  0  0  # atno 17343 bound_to 10162
  156.0596  130.3702  150.1012 LP  0  0  0  0  0  0  0  0  0  0  0  0  # atno 17370 bound_to 10713
  156.9183  130.9674  151.3552 LP  0  0  0  0  0  0  0  0  0  0  0  0  # atno 17371 bound_to 10713
  140.2086  134.8844  157.3249 LP  0  0  0  0  0  0  0  0  0  0  0  0  # atno 17394 bound_to 11000
  140.2111  134.4137  155.7612 LP  0  0  0  0  0  0  0  0  0  0  0  0  # atno 17395 bound_to 11000

$$$$
