AV-unprocessed.smi:2605|AV-procd|sdf|10193|dock5
  -GOLD-   2272014203D 1   1.00000     0.00000
 Structure written by MMmdl.
 26 27  0  0  0  0  0  0  0  0  2 V2000
  150.7717  139.4681  155.1301 C   0  0  0  0  0  0  0  0  0  0  0  0
  149.6361  139.0036  154.4364 C   0  0  0  0  0  0  0  0  0  0  0  0
  148.5978  139.9156  154.1549 C   0  0  0  0  0  0  0  0  0  0  0  0
  147.3586  139.4589  153.4016 C   0  0  2  0  0  0  0  0  0  0  0  0
  146.4455  138.5916  154.2978 C   0  0  0  0  0  0  0  0  0  0  0  0
  145.2280  138.1909  153.5631 N   0  3  0  0  0  0  0  0  0  0  0  0
  145.5693  137.5039  152.3017 C   0  0  0  0  0  0  0  0  0  0  0  0
  146.4867  138.3975  151.4474 C   0  0  0  0  0  0  0  0  0  0  0  0
  147.7022  138.7108  152.1922 N   0  0  0  0  0  0  0  0  0  0  0  0
  148.7487  141.2547  154.5767 C   0  0  0  0  0  0  0  0  0  0  0  0
  149.9245  141.6163  155.2642 C   0  0  0  0  0  0  0  0  0  0  0  0
  150.9197  140.7463  155.5384 N   0  0  0  0  0  0  0  0  0  0  0  0
  151.5830  138.7942  155.3626 H   0  0  0  0  0  0  0  0  0  0  0  0
  149.5689  137.9695  154.1315 H   0  0  0  0  0  0  0  0  0  0  0  0
  146.8127  140.3536  153.0970 H   0  0  0  0  0  0  0  0  0  0  0  0
  146.9706  137.6980  154.6393 H   0  0  0  0  0  0  0  0  0  0  0  0
  146.1484  139.1465  155.1882 H   0  0  0  0  0  0  0  0  0  0  0  0
  144.6716  137.5779  154.1416 H   0  0  0  0  0  0  0  0  0  0  0  0
  146.0569  136.5534  152.5236 H   0  0  0  0  0  0  0  0  0  0  0  0
  144.6511  137.2748  151.7607 H   0  0  0  0  0  0  0  0  0  0  0  0
  146.7602  137.8813  150.5269 H   0  0  0  0  0  0  0  0  0  0  0  0
  145.9773  139.3181  151.1589 H   0  0  0  0  0  0  0  0  0  0  0  0
  148.3253  139.2632  151.6193 H   0  0  0  0  0  0  0  0  0  0  0  0
  147.9834  141.9915  154.3813 H   0  0  0  0  0  0  0  0  0  0  0  0
  150.0693  142.6318  155.6017 H   0  0  0  0  0  0  0  0  0  0  0  0
  144.6926  139.0192  153.3459 H   0  0  0  0  0  0  0  0  0  0  0  0
  1 12  1  0  0  0  0
  1  2  2  0  0  0  0
  1 13  1  0  0  0  0
  2  3  1  0  0  0  0
  2 14  1  0  0  0  0
  3  4  1  0  0  0  0
  3 10  2  0  0  0  0
  4  9  1  0  0  0  0
  4  5  1  0  0  0  0
  4 15  1  0  0  0  0
  5  6  1  0  0  0  0
  5 16  1  0  0  0  0
  5 17  1  0  0  0  0
  6  7  1  0  0  0  0
  6 18  1  0  0  0  0
  6 26  1  0  0  0  0
  7  8  1  0  0  0  0
  7 19  1  0  0  0  0
  7 20  1  0  0  0  0
  8  9  1  0  0  0  0
  8 21  1  0  0  0  0
  8 22  1  0  0  0  0
  9 23  1  0  0  0  0
 10 11  1  0  0  0  0
 10 24  1  0  0  0  0
 11 12  2  0  0  0  0
 11 25  1  0  0  0  0
M  CHG  1   6   1
M  END
> <s_m_source_file>
AV-unprocessed.smi

> <i_m_source_file_index>
2605

> <i_lp_mmshare_version>
43012

> <i_f3d_flags>
0

> <s_epik_input>
W2NIXTFbY0hdbltjSF1bY0hdYzFbQ0BASF0yW0NIMl1bTkhdW0NIMl1bQ0gyXVtOSF0y

> <s_epik_cmdline>
J2VwaWtfcHl0aG9uJywgJy1waCcsICc3LjAnLCAnLXRuJywgJzgnLCAnLW1hJywgJzIwMCcsICctbWV0YWxfYmluZGluZycsICctaW1hZScsICc8aW5maWxlLm1hZT4nLCAnLW9tYWUnLCAnPG91dGZpbGUubWFlPic=

> <r_epik_Ionization_Penalty>
0.0197506

> <r_epik_Ionization_Penalty_Charging>
0.010317

> <r_epik_Ionization_Penalty_Neutral>
0.00943359

> <r_epik_State_Penalty>
0.319455

> <r_epik_Charging_Adjusted_Penalty>
0.329772

> <i_epik_Tot_Q>
1

> <i_epik_Tot_abs_Q>
1

> <r_epik_Metal_State_Penalty>
0.318246

> <b_epik_Metal_Only>
0

> <s_lp_Force_Field>
OPLS_2005

> <r_lp_Energy>
9.79217

> <b_lp_Chiralities_Consistent>
1

> <s_lp_Variant>
AV-unprocessed.smi:2605-1

> <Gold.Version>
5.8.1

> <Gold.Id.Protein>
6NUR|6NUR_protein|mol2

> <Gold.PLP.Fitness>
35.6826

> <Gold.PLP.PLP>
-24.2002

> <Gold.PLP.part.hbond>
-3.9418

> <Gold.PLP.part.metal>
0.0000

> <Gold.PLP.part.buried>
0.5842

> <Gold.PLP.part.nonpolar>
-21.1820

> <Gold.PLP.part.repulsive>
0.0435

> <Gold.PLP.ligand.clash>
0.0000

> <Gold.PLP.ligand.torsion>
0.2625

> <Gold.PLP.Chemscore.Hbond>
3.0000

> <Gold.PLP.Chemscore.CHOScore>
1.0000

> <Gold.PLP.Chemscore.Metal>
0.0000

> <Gold.Chemscore.Hbonds>
donor molecule, donor type, donor heavy atom, donor atom, acceptor molecule, acceptor atom, score
      L1  H     6    26       P1 10175  2.00
      L1  H     9    23       P1  7957  1.00
      L1  C    11    25       P1  8028  1.00

> <Gold.PLP.Chemscore.Internal.Correction>
0.0074

> <Gold.Rescore>
     Score         DG    S(hbond)    S(metal)    S(lipo)     H(rot)  DE(clash)    DE(int)     intcor
     15.98     -16.25       1.88        0.00      60.34       1.00       0.08       0.20       ----

> <Gold.Chemscore.Fitness>
15.9765

> <Gold.Chemscore.DG>
-16.2507

> <Gold.Chemscore.ZeroCoef>
-5.4800

> <Gold.Chemscore.Hbond>
1.8774

> <Gold.Chemscore.Metal>
0.0000

> <Gold.Chemscore.Lipo>
60.3427

> <Gold.Chemscore.Internal_Hbond>
0.0000

> <Gold.Chemscore.DEClash>
0.0760

> <Gold.Chemscore.DEInternal>
0.1982

> <Gold.Chemscore.Rot>
1.0000

> <Gold.Chemscore.Internal.Correction>
   9.000000E+99

> <Gold.Chemscore.Hbonds>
donor molecule, donor type, donor heavy atom, donor atom, acceptor molecule, acceptor atom, score
      L1  H     6    26       P1 10175  0.98
      L1  H     9    23       P1  7957  0.89

> <Gold.Chemscore.Hbond.Weighted>
-6.2706

> <Gold.Chemscore.Metal.Weighted>
-0.0000

> <Gold.Chemscore.Lipo.Weighted>
-7.0601

> <Gold.Chemscore.Internal_Hbond.Weighted>
0.0000

> <Gold.Chemscore.DEClash.Weighted>
0.0760

> <Gold.Chemscore.DEInternal.Weighted>
0.1982

> <Gold.Chemscore.Rot.Weighted>
2.5600

> <Gold.Chemscore.Internal.Correction.Weighted>
   9.000000E+99

> <Gold.Protein.RotatedTorsions>
[ 6907 6896 6895 6894 ] final -173.87 input  -60.11 | X-H torsion
[ 7974 7965 7964 7962 ] final   40.18 input  175.53 | X-H torsion
[ 8008 7997 7996 7995 ] final  -33.21 input   59.86 | X-H torsion
[ 10167 10162 10161 10158 ] final  -81.73 input  -65.29 | X-H torsion
[ 10718 10713 10712 10709 ] final    1.47 input   66.30 | X-H torsion
[ 10763 10752 10751 10750 ] final -169.74 input  -60.55 | X-H torsion
[ 11005 11000 10999 10996 ] final -178.86 input  -57.11 | X-H torsion

> <Gold.Protein.ActiveResidues>
 VAL166  LYS551  ARG553  GLY616  TRP617  ASP618  TYR619  PRO620  LYS621  CYS622 
 ASP623  PHE694  ASN695  SER759  ASP760  ASP761  ALA762  ILE779  LEU786  VAL792 
 PHE793  MET794  SER795  GLU796  ALA797  LYS798  CYS799  TRP800  GLU811  SER814 

> <Gold.Protein.RotatedAtoms>
  151.5632  133.3400  159.2974 H   0  0  0  0  0  0  0  0  0  0  0  0  # atno 6907 bound_to 6896
  150.8411  134.7705  159.6944 H   0  0  0  0  0  0  0  0  0  0  0  0  # atno 6908 bound_to 6896
  152.4478  134.5465  159.9906 H   0  0  0  0  0  0  0  0  0  0  0  0  # atno 6909 bound_to 6896
  146.0925  139.5563  142.9466 H   0  0  0  0  0  0  0  0  0  0  0  0  # atno 7974 bound_to 7965
  154.4156  140.1717  156.1851 H   0  0  0  0  0  0  0  0  0  0  0  0  # atno 8008 bound_to 7997
  155.9650  140.3390  155.6500 H   0  0  0  0  0  0  0  0  0  0  0  0  # atno 8009 bound_to 7997
  155.6699  140.0710  157.2514 H   0  0  0  0  0  0  0  0  0  0  0  0  # atno 8010 bound_to 7997
  140.4385  143.2523  151.8659 H   0  0  0  0  0  0  0  0  0  0  0  0  # atno 10167 bound_to 10162
  156.8486  130.5546  149.5671 H   0  0  0  0  0  0  0  0  0  0  0  0  # atno 10718 bound_to 10713
  154.6490  135.2909  155.0010 H   0  0  0  0  0  0  0  0  0  0  0  0  # atno 10763 bound_to 10752
  154.1110  135.6562  153.4889 H   0  0  0  0  0  0  0  0  0  0  0  0  # atno 10764 bound_to 10752
  153.0366  135.5265  154.7390 H   0  0  0  0  0  0  0  0  0  0  0  0  # atno 10765 bound_to 10752
  140.4251  134.6570  157.4683 H   0  0  0  0  0  0  0  0  0  0  0  0  # atno 11005 bound_to 11000
  145.6011  141.0355  143.2018 LP  0  0  0  0  0  0  0  0  0  0  0  0  # atno 17320 bound_to 7965
  144.7371  139.7555  143.7325 LP  0  0  0  0  0  0  0  0  0  0  0  0  # atno 17321 bound_to 7965
  139.4788  144.5255  151.8741 LP  0  0  0  0  0  0  0  0  0  0  0  0  # atno 17342 bound_to 10162
  140.4345  144.2070  150.5889 LP  0  0  0  0  0  0  0  0  0  0  0  0  # atno 17343 bound_to 10162
  156.0840  130.5843  150.9615 LP  0  0  0  0  0  0  0  0  0  0  0  0  # atno 17370 bound_to 10713
  157.6316  131.0920  150.8431 LP  0  0  0  0  0  0  0  0  0  0  0  0  # atno 17371 bound_to 10713
  140.0173  134.6600  155.9291 LP  0  0  0  0  0  0  0  0  0  0  0  0  # atno 17394 bound_to 11000
  141.1768  133.6541  156.4862 LP  0  0  0  0  0  0  0  0  0  0  0  0  # atno 17395 bound_to 11000

$$$$
