AV-unprocessed.smi:2954|AV-procd|sdf|11297|dock1
  -GOLD-   2272016193D 1   1.00000     0.00000
 Structure written by MMmdl.
 42 44  0  0  0  0  0  0  0  0  1 V2000
  153.0302  138.4396  154.9951 C   0  0  0  0  0  0  0  0  0  0  0  0
  152.0671  139.1305  155.9786 C   0  0  2  0  0  0  0  0  0  0  0  0
  151.8141  138.3540  157.1947 N   0  0  0  0  0  0  0  0  0  0  0  0
  151.8156  137.0180  157.3084 C   0  0  0  0  0  0  0  0  0  0  0  0
  152.0434  136.2654  156.3647 O   0  0  0  0  0  0  0  0  0  0  0  0
  150.7563  139.5254  155.3392 C   0  0  0  0  0  0  0  0  0  0  0  0
  149.9948  138.6456  154.6830 N   0  0  0  0  0  0  0  0  0  0  0  0
  148.9299  139.4117  154.2557 C   0  0  0  0  0  0  0  0  0  0  0  0
  147.7904  139.0587  153.4982 C   0  0  0  0  0  0  0  0  0  0  0  0
  146.8234  140.0308  153.1686 C   0  0  0  0  0  0  0  0  0  0  0  0
  146.9819  141.3663  153.5916 C   0  0  0  0  0  0  0  0  0  0  0  0
  148.1085  141.7374  154.3504 C   0  0  0  0  0  0  0  0  0  0  0  0
  149.0706  140.7626  154.6778 C   0  0  0  0  0  0  0  0  0  0  0  0
  150.2673  140.7934  155.3887 N   0  0  0  0  0  0  0  0  0  0  0  0
  150.8476  141.9719  156.0191 C   0  0  0  0  0  0  0  0  0  0  0  0
  150.5453  142.0204  157.5234 C   0  0  0  0  0  0  0  0  0  0  0  0
  151.7581  141.8155  158.2350 O   0  0  0  0  0  0  0  0  0  0  0  0
  151.9713  142.5231  159.3980 C   0  0  0  0  0  0  0  0  0  0  0  0
  151.4420  143.8151  159.6455 C   0  0  0  0  0  0  0  0  0  0  0  0
  151.7062  144.4730  160.8625 C   0  0  0  0  0  0  0  0  0  0  0  0
  152.5004  143.8521  161.8438 C   0  0  0  0  0  0  0  0  0  0  0  0
  153.0316  142.5712  161.6066 C   0  0  0  0  0  0  0  0  0  0  0  0
  152.7683  141.9105  160.3906 C   0  0  0  0  0  0  0  0  0  0  0  0
  153.4250  140.3345  160.1247 Cl  0  0  0  0  0  0  0  0  0  0  0  0
  153.2724  139.1032  154.1644 H   0  0  0  0  0  0  0  0  0  0  0  0
  152.6021  137.5310  154.5706 H   0  0  0  0  0  0  0  0  0  0  0  0
  153.9665  138.1711  155.4850 H   0  0  0  0  0  0  0  0  0  0  0  0
  152.5847  140.0222  156.3241 H   0  0  0  0  0  0  0  0  0  0  0  0
  151.6225  138.8862  158.0309 H   0  0  0  0  0  0  0  0  0  0  0  0
  151.5955  136.6884  158.3351 H   0  0  0  0  0  0  0  0  0  0  0  0
  147.6620  138.0388  153.1672 H   0  0  0  0  0  0  0  0  0  0  0  0
  145.9575  139.7508  152.5870 H   0  0  0  0  0  0  0  0  0  0  0  0
  146.2387  142.1061  153.3323 H   0  0  0  0  0  0  0  0  0  0  0  0
  148.2335  142.7612  154.6701 H   0  0  0  0  0  0  0  0  0  0  0  0
  151.9268  141.9522  155.8645 H   0  0  0  0  0  0  0  0  0  0  0  0
  150.4943  142.8708  155.5146 H   0  0  0  0  0  0  0  0  0  0  0  0
  150.1120  142.9878  157.7819 H   0  0  0  0  0  0  0  0  0  0  0  0
  149.8211  141.2455  157.7794 H   0  0  0  0  0  0  0  0  0  0  0  0
  150.8313  144.3246  158.9159 H   0  0  0  0  0  0  0  0  0  0  0  0
  151.2984  145.4565  161.0426 H   0  0  0  0  0  0  0  0  0  0  0  0
  152.7022  144.3575  162.7768 H   0  0  0  0  0  0  0  0  0  0  0  0
  153.6413  142.0941  162.3599 H   0  0  0  0  0  0  0  0  0  0  0  0
  1  2  1  0  0  0  0
  1 25  1  0  0  0  0
  1 26  1  0  0  0  0
  1 27  1  0  0  0  0
  2  3  1  0  0  0  0
  2  6  1  0  0  0  0
  2 28  1  0  0  0  0
  3  4  1  0  0  0  0
  3 29  1  0  0  0  0
  4  5  2  0  0  0  0
  4 30  1  0  0  0  0
  6 14  1  0  0  0  0
  6  7  2  0  0  0  0
  7  8  1  0  0  0  0
  8 13  2  0  0  0  0
  8  9  1  0  0  0  0
  9 10  2  0  0  0  0
  9 31  1  0  0  0  0
 10 11  1  0  0  0  0
 10 32  1  0  0  0  0
 11 12  2  0  0  0  0
 11 33  1  0  0  0  0
 12 13  1  0  0  0  0
 12 34  1  0  0  0  0
 13 14  1  0  0  0  0
 14 15  1  0  0  0  0
 15 16  1  0  0  0  0
 15 35  1  0  0  0  0
 15 36  1  0  0  0  0
 16 17  1  0  0  0  0
 16 37  1  0  0  0  0
 16 38  1  0  0  0  0
 17 18  1  0  0  0  0
 18 23  1  0  0  0  0
 18 19  2  0  0  0  0
 19 20  1  0  0  0  0
 19 39  1  0  0  0  0
 20 21  2  0  0  0  0
 20 40  1  0  0  0  0
 21 22  1  0  0  0  0
 21 41  1  0  0  0  0
 22 23  2  0  0  0  0
 22 42  1  0  0  0  0
 23 24  1  0  0  0  0
M  END
> <s_m_source_file>
AV-unprocessed.smi

> <i_m_source_file_index>
2954

> <i_lp_mmshare_version>
43012

> <i_f3d_flags>
0

> <s_epik_input>
Tz1bQ0hdW05IXVtDQEBIXShbQ0gzXSljKG4xKW4oYyhjMTIpW2NIXVtjSF1bY0hdW2NIXTIpW0NIMl1bQ0gyXU9jM1tjSF1bY0hdW2NIXVtjSF1jM0Ns

> <s_epik_cmdline>
J2VwaWtfcHl0aG9uJywgJy1waCcsICc3LjAnLCAnLXRuJywgJzgnLCAnLW1hJywgJzIwMCcsICctbWV0YWxfYmluZGluZycsICctaW1hZScsICc8aW5maWxlLm1hZT4nLCAnLW9tYWUnLCAnPG91dGZpbGUubWFlPic=

> <r_lp_tautomer_probability>
1

> <r_epik_Ionization_Penalty>
0.0861383

> <r_epik_Ionization_Penalty_Charging>
0

> <r_epik_Ionization_Penalty_Neutral>
0.0861383

> <r_epik_State_Penalty>
0.0766841

> <r_epik_Charging_Adjusted_Penalty>
0.0766841

> <i_epik_Tot_Q>
0

> <i_epik_Tot_abs_Q>
0

> <r_epik_Metal_State_Penalty>
0.0668745

> <b_epik_Metal_Only>
0

> <s_lp_Force_Field>
OPLS_2005

> <r_lp_Energy>
13.8103

> <b_lp_Chiralities_Consistent>
1

> <s_lp_Variant>
AV-unprocessed.smi:2954-1

> <Gold.Version>
5.8.1

> <Gold.Id.Protein>
6NUR|6NUR_protein|mol2

> <Gold.PLP.Fitness>
53.3104

> <Gold.PLP.PLP>
-53.8725

> <Gold.PLP.part.hbond>
-1.0000

> <Gold.PLP.part.metal>
0.0000

> <Gold.PLP.part.buried>
-4.8325

> <Gold.PLP.part.nonpolar>
-49.2321

> <Gold.PLP.part.repulsive>
0.2373

> <Gold.PLP.ligand.clash>
0.0000

> <Gold.PLP.ligand.torsion>
1.8511

> <Gold.PLP.Chemscore.Hbond>
1.0000

> <Gold.PLP.Chemscore.CHOScore>
0.0000

> <Gold.PLP.Chemscore.Metal>
0.0000

> <Gold.Chemscore.Hbonds>
donor molecule, donor type, donor heavy atom, donor atom, acceptor molecule, acceptor atom, score
      P1  H 10752 10763       L1     5  1.00

> <Gold.PLP.Chemscore.Internal.Correction>
0.1400

> <Gold.Rescore>
     Score         DG    S(hbond)    S(metal)    S(lipo)     H(rot)  DE(clash)    DE(int)     intcor
     16.71     -20.22       1.00        0.00     147.45       2.28       0.15       3.35       ----

> <Gold.Chemscore.Fitness>
16.7129

> <Gold.Chemscore.DG>
-20.2193

> <Gold.Chemscore.ZeroCoef>
-5.4800

> <Gold.Chemscore.Hbond>
0.9991

> <Gold.Chemscore.Metal>
0.0000

> <Gold.Chemscore.Lipo>
147.4514

> <Gold.Chemscore.Internal_Hbond>
0.0000

> <Gold.Chemscore.DEClash>
0.1525

> <Gold.Chemscore.DEInternal>
3.3539

> <Gold.Chemscore.Rot>
2.2849

> <Gold.Chemscore.Internal.Correction>
   9.000000E+99

> <Gold.Chemscore.Hbonds>
donor molecule, donor type, donor heavy atom, donor atom, acceptor molecule, acceptor atom, score
      P1  H 10752 10763       L1     5  0.94

> <Gold.Chemscore.Hbond.Weighted>
-3.3369

> <Gold.Chemscore.Metal.Weighted>
-0.0000

> <Gold.Chemscore.Lipo.Weighted>
-17.2518

> <Gold.Chemscore.Internal_Hbond.Weighted>
0.0000

> <Gold.Chemscore.DEClash.Weighted>
0.1525

> <Gold.Chemscore.DEInternal.Weighted>
3.3539

> <Gold.Chemscore.Rot.Weighted>
5.8495

> <Gold.Chemscore.Internal.Correction.Weighted>
   9.000000E+99

> <Gold.Protein.RotatedTorsions>
[ 6907 6896 6895 6894 ] final  -19.56 input  -60.11 | X-H torsion
[ 7974 7965 7964 7962 ] final  -22.70 input  175.53 | X-H torsion
[ 8008 7997 7996 7995 ] final  -88.53 input   59.86 | X-H torsion
[ 10167 10162 10161 10158 ] final   17.19 input  -65.29 | X-H torsion
[ 10718 10713 10712 10709 ] final  174.38 input   66.30 | X-H torsion
[ 10763 10752 10751 10750 ] final  111.77 input  -60.55 | X-H torsion
[ 11005 11000 10999 10996 ] final  -68.86 input  -57.11 | X-H torsion

> <Gold.Protein.ActiveResidues>
 VAL166  LYS551  ARG553  GLY616  TRP617  ASP618  TYR619  PRO620  LYS621  CYS622 
 ASP623  PHE694  ASN695  SER759  ASP760  ASP761  ALA762  ILE779  LEU786  VAL792 
 PHE793  MET794  SER795  GLU796  ALA797  LYS798  CYS799  TRP800  GLU811  SER814 

> <Gold.Protein.RotatedAtoms>
  151.2612  135.0654  159.9098 H   0  0  0  0  0  0  0  0  0  0  0  0  # atno 6907 bound_to 6896
  152.5365  134.0228  159.8000 H   0  0  0  0  0  0  0  0  0  0  0  0  # atno 6908 bound_to 6896
  151.0452  133.5622  159.2678 H   0  0  0  0  0  0  0  0  0  0  0  0  # atno 6909 bound_to 6896
  146.1660  140.4515  142.8552 H   0  0  0  0  0  0  0  0  0  0  0  0  # atno 7974 bound_to 7965
  154.6759  140.0552  157.0215 H   0  0  0  0  0  0  0  0  0  0  0  0  # atno 8008 bound_to 7997
  155.1021  140.3230  155.4525 H   0  0  0  0  0  0  0  0  0  0  0  0  # atno 8009 bound_to 7997
  156.2676  140.2029  156.6146 H   0  0  0  0  0  0  0  0  0  0  0  0  # atno 8010 bound_to 7997
  140.5744  143.9101  150.6738 H   0  0  0  0  0  0  0  0  0  0  0  0  # atno 10167 bound_to 10162
  156.9504  131.0029  151.2950 H   0  0  0  0  0  0  0  0  0  0  0  0  # atno 10718 bound_to 10713
  153.4682  135.3706  155.2376 H   0  0  0  0  0  0  0  0  0  0  0  0  # atno 10763 bound_to 10752
  154.8757  135.3925  154.3843 H   0  0  0  0  0  0  0  0  0  0  0  0  # atno 10764 bound_to 10752
  153.4427  135.7084  153.6223 H   0  0  0  0  0  0  0  0  0  0  0  0  # atno 10765 bound_to 10752
  141.1541  133.6750  156.6511 H   0  0  0  0  0  0  0  0  0  0  0  0  # atno 11005 bound_to 11000
  144.8093  140.6357  143.6426 LP  0  0  0  0  0  0  0  0  0  0  0  0  # atno 17320 bound_to 7965
  145.4465  139.1529  143.3941 LP  0  0  0  0  0  0  0  0  0  0  0  0  # atno 17321 bound_to 7965
  140.2584  143.3541  152.1344 LP  0  0  0  0  0  0  0  0  0  0  0  0  # atno 17342 bound_to 10162
  139.5134  144.6932  151.5701 LP  0  0  0  0  0  0  0  0  0  0  0  0  # atno 17343 bound_to 10162
  157.5725  130.8320  149.8411 LP  0  0  0  0  0  0  0  0  0  0  0  0  # atno 17370 bound_to 10713
  156.0365  130.3750  150.1546 LP  0  0  0  0  0  0  0  0  0  0  0  0  # atno 17371 bound_to 10713
  140.3320  134.7921  157.4333 LP  0  0  0  0  0  0  0  0  0  0  0  0  # atno 17394 bound_to 11000
  140.1009  134.5474  155.8354 LP  0  0  0  0  0  0  0  0  0  0  0  0  # atno 17395 bound_to 11000

$$$$
