AV-unprocessed.smi:114|AV-procd|sdf|1110|dock8
  -GOLD-   2262018223D 1   1.00000     0.00000
 Structure written by MMmdl.
 32 34  0  0  0  0  0  0  0  0  1 V2000
  144.7127  135.1879  150.0691 N   0  0  0  0  0  0  0  0  0  0  0  0
  144.7157  135.7965  151.2636 C   0  0  0  0  0  0  0  0  0  0  0  0
  143.8968  135.3224  152.2306 N   0  0  0  0  0  0  0  0  0  0  0  0
  143.8693  135.9034  153.4359 C   0  0  0  0  0  0  0  0  0  0  0  0
  143.0233  135.3647  154.3452 F   0  0  0  0  0  0  0  0  0  0  0  0
  144.5848  136.9566  153.8437 N   0  0  0  0  0  0  0  0  0  0  0  0
  145.4132  137.4408  152.8740 C   0  0  0  0  0  0  0  0  0  0  0  0
  145.5355  136.9131  151.5596 C   0  0  0  0  0  0  0  0  0  0  0  0
  146.4686  137.6438  150.8384 N   0  0  0  0  0  0  0  0  0  0  0  0
  146.8717  138.5540  151.6832 C   0  0  0  0  0  0  0  0  0  0  0  0
  146.2875  138.5105  152.9301 N   0  0  0  0  0  0  0  0  0  0  0  0
  146.5692  139.4324  154.0755 C   0  0  1  0  0  0  0  0  0  0  0  0
  147.5453  138.8715  154.8973 O   0  0  0  0  0  0  0  0  0  0  0  0
  148.5031  139.8489  155.3119 C   0  0  1  0  0  0  0  0  0  0  0  0
  149.8821  139.4281  154.7606 C   0  0  0  0  0  0  0  0  0  0  0  0
  150.8466  140.4083  155.0794 O   0  0  0  0  0  0  0  0  0  0  0  0
  147.9587  141.1846  154.7668 C   0  0  1  0  0  0  0  0  0  0  0  0
  148.9677  142.1004  154.3855 O   0  0  0  0  0  0  0  0  0  0  0  0
  147.1080  140.7707  153.5769 C   0  0  2  0  0  0  0  0  0  0  0  0
  146.0742  141.7175  153.3895 O   0  0  0  0  0  0  0  0  0  0  0  0
  145.6294  139.5113  154.6240 H   0  0  0  0  0  0  0  0  0  0  0  0
  148.5433  139.8926  156.4011 H   0  0  0  0  0  0  0  0  0  0  0  0
  147.3322  141.6439  155.5337 H   0  0  0  0  0  0  0  0  0  0  0  0
  147.7097  140.6238  152.6779 H   0  0  0  0  0  0  0  0  0  0  0  0
  145.3155  135.5253  149.3323 H   0  0  0  0  0  0  0  0  0  0  0  0
  144.1071  134.3964  149.9067 H   0  0  0  0  0  0  0  0  0  0  0  0
  147.6165  139.2906  151.4186 H   0  0  0  0  0  0  0  0  0  0  0  0
  150.1863  138.4501  155.1310 H   0  0  0  0  0  0  0  0  0  0  0  0
  149.8638  139.3628  153.6729 H   0  0  0  0  0  0  0  0  0  0  0  0
  151.0864  140.3092  155.9881 H   0  0  0  0  0  0  0  0  0  0  0  0
  148.8502  142.8993  154.8763 H   0  0  0  0  0  0  0  0  0  0  0  0
  145.2498  141.2584  153.3419 H   0  0  0  0  0  0  0  0  0  0  0  0
  1  2  1  0  0  0  0
  1 25  1  0  0  0  0
  1 26  1  0  0  0  0
  2  8  1  0  0  0  0
  2  3  2  0  0  0  0
  3  4  1  0  0  0  0
  4  5  1  0  0  0  0
  4  6  2  0  0  0  0
  6  7  1  0  0  0  0
  7 11  1  0  0  0  0
  7  8  2  0  0  0  0
  8  9  1  0  0  0  0
  9 10  2  0  0  0  0
 10 11  1  0  0  0  0
 10 27  1  0  0  0  0
 11 12  1  0  0  0  0
 12 21  1  0  0  0  0
 12 19  1  0  0  0  0
 12 13  1  0  0  0  0
 13 14  1  0  0  0  0
 14 22  1  0  0  0  0
 14 15  1  0  0  0  0
 14 17  1  0  0  0  0
 15 16  1  0  0  0  0
 15 28  1  0  0  0  0
 15 29  1  0  0  0  0
 16 30  1  0  0  0  0
 17 23  1  0  0  0  0
 17 18  1  0  0  0  0
 17 19  1  0  0  0  0
 18 31  1  0  0  0  0
 19 24  1  0  0  0  0
 19 20  1  0  0  0  0
 20 32  1  0  0  0  0
M  END
> <s_m_source_file>
AV-unprocessed.smi

> <i_m_source_file_index>
114

> <i_lp_mmshare_version>
43012

> <i_f3d_flags>
0

> <s_epik_input>
RmMobjEpbmMoW05IMl0pYyhjMTIpbltjSF1uMltDQEBIXTNPW0NASF0oW0NIMl1bT0hdKVtDQEBIXShbT0hdKVtDQEBIXTNbT0hd

> <s_epik_cmdline>
J2VwaWtfcHl0aG9uJywgJy1waCcsICc3LjAnLCAnLXRuJywgJzgnLCAnLW1hJywgJzIwMCcsICctbWV0YWxfYmluZGluZycsICctaW1hZScsICc8aW5maWxlLm1hZT4nLCAnLW9tYWUnLCAnPG91dGZpbGUubWFlPic=

> <r_lp_tautomer_probability>
1

> <r_epik_Ionization_Penalty>
1.13199e-05

> <r_epik_Ionization_Penalty_Charging>
0

> <r_epik_Ionization_Penalty_Neutral>
1.13199e-05

> <r_epik_State_Penalty>
-0

> <r_epik_Charging_Adjusted_Penalty>
0

> <i_epik_Tot_Q>
0

> <i_epik_Tot_abs_Q>
0

> <r_epik_Metal_State_Penalty>
-0

> <b_epik_Metal_Only>
0

> <s_epik_Chemistry_Notes>
This compound contains an acetal/aminal-like group ( X-CH(R)-Y where X, Y are N, S, or O) that may be acid/base labile, releasing an aldehyde.

> <s_lp_Force_Field>
OPLS_2005

> <r_lp_Energy>
42.0862

> <b_lp_Chiralities_Consistent>
1

> <s_lp_Variant>
AV-unprocessed.smi:114-4

> <Gold.Version>
5.8.1

> <Gold.Id.Protein>
6NUR|6NUR_protein|mol2

> <Gold.PLP.Fitness>
39.7313

> <Gold.PLP.PLP>
-24.9331

> <Gold.PLP.part.hbond>
-6.0000

> <Gold.PLP.part.metal>
0.0000

> <Gold.PLP.part.buried>
-2.0973

> <Gold.PLP.part.nonpolar>
-21.4822

> <Gold.PLP.part.repulsive>
2.7565

> <Gold.PLP.ligand.clash>
0.0000

> <Gold.PLP.ligand.torsion>
0.7048

> <Gold.PLP.Chemscore.Hbond>
4.4004

> <Gold.PLP.Chemscore.CHOScore>
1.0000

> <Gold.PLP.Chemscore.Metal>
0.0000

> <Gold.Chemscore.Hbonds>
donor molecule, donor type, donor heavy atom, donor atom, acceptor molecule, acceptor atom, score
      L1  H     1    25       P1  7921  0.77
      L1  H    18    31       P1  8028  1.00
      L1  H    20    32       P1 10175  0.95
      P1  H  7954  7966       L1     9  0.45
      P1  H  7989  7998       L1    16  1.00
      P1  H  8011  8017       L1    18  0.17
      L1  C    10    27       P1  7957  1.00

> <Gold.PLP.Chemscore.Internal.Correction>
0.0066

> <Gold.Rescore>
     Score         DG    S(hbond)    S(metal)    S(lipo)     H(rot)  DE(clash)    DE(int)     intcor
      6.38      -9.23       3.15        0.00      30.14       4.03       2.17       0.68       ----

> <Gold.Chemscore.Fitness>
6.3772

> <Gold.Chemscore.DG>
-9.2261

> <Gold.Chemscore.ZeroCoef>
-5.4800

> <Gold.Chemscore.Hbond>
3.1527

> <Gold.Chemscore.Metal>
0.0000

> <Gold.Chemscore.Lipo>
30.1450

> <Gold.Chemscore.Internal_Hbond>
0.0000

> <Gold.Chemscore.DEClash>
2.1698

> <Gold.Chemscore.DEInternal>
0.6791

> <Gold.Chemscore.Rot>
4.0277

> <Gold.Chemscore.Internal.Correction>
   9.000000E+99

> <Gold.Chemscore.Hbonds>
donor molecule, donor type, donor heavy atom, donor atom, acceptor molecule, acceptor atom, score
      L1  H     1    25       P1  7921  0.74
      L1  H    18    31       P1  8028  0.98
      L1  H    20    32       P1 10175  0.21
      P1  H  7954  7966       L1     9  0.02
      P1  H  7989  7998       L1    16  0.54
      P1  H  8011  8017       L1    18  0.14

> <Gold.Chemscore.Hbond.Weighted>
-10.5301

> <Gold.Chemscore.Metal.Weighted>
-0.0000

> <Gold.Chemscore.Lipo.Weighted>
-3.5270

> <Gold.Chemscore.Internal_Hbond.Weighted>
0.0000

> <Gold.Chemscore.DEClash.Weighted>
2.1698

> <Gold.Chemscore.DEInternal.Weighted>
0.6791

> <Gold.Chemscore.Rot.Weighted>
10.3110

> <Gold.Chemscore.Internal.Correction.Weighted>
   9.000000E+99

> <Gold.Protein.RotatedTorsions>
[ 6907 6896 6895 6894 ] final   19.03 input  -60.11 | X-H torsion
[ 7974 7965 7964 7962 ] final  178.00 input  175.53 | X-H torsion
[ 8008 7997 7996 7995 ] final -148.92 input   59.86 | X-H torsion
[ 10167 10162 10161 10158 ] final  177.01 input  -65.29 | X-H torsion
[ 10718 10713 10712 10709 ] final -112.38 input   66.30 | X-H torsion
[ 10763 10752 10751 10750 ] final    5.33 input  -60.55 | X-H torsion
[ 11005 11000 10999 10996 ] final  -33.99 input  -57.11 | X-H torsion

> <Gold.Protein.ActiveResidues>
 VAL166  LYS551  ARG553  GLY616  TRP617  ASP618  TYR619  PRO620  LYS621  CYS622 
 ASP623  PHE694  ASN695  SER759  ASP760  ASP761  ALA762  ILE779  LEU786  VAL792 
 PHE793  MET794  SER795  GLU796  ALA797  LYS798  CYS799  TRP800  GLU811  SER814 

> <Gold.Protein.RotatedAtoms>
  151.8745  135.0477  160.0482 H   0  0  0  0  0  0  0  0  0  0  0  0  # atno 6907 bound_to 6896
  152.2562  133.5253  159.5363 H   0  0  0  0  0  0  0  0  0  0  0  0  # atno 6908 bound_to 6896
  150.7100  134.0809  159.3940 H   0  0  0  0  0  0  0  0  0  0  0  0  # atno 6909 bound_to 6896
  144.7161  140.0332  143.6438 H   0  0  0  0  0  0  0  0  0  0  0  0  # atno 7974 bound_to 7965
  155.5993  140.0660  157.2737 H   0  0  0  0  0  0  0  0  0  0  0  0  # atno 8008 bound_to 7997
  154.4283  140.1821  156.1203 H   0  0  0  0  0  0  0  0  0  0  0  0  # atno 8009 bound_to 7997
  156.0172  140.3320  155.7004 H   0  0  0  0  0  0  0  0  0  0  0  0  # atno 8010 bound_to 7997
  139.5236  144.2848  152.0515 H   0  0  0  0  0  0  0  0  0  0  0  0  # atno 10167 bound_to 10162
  156.0702  130.5917  150.8501 H   0  0  0  0  0  0  0  0  0  0  0  0  # atno 10718 bound_to 10713
  153.2607  135.6923  153.7581 H   0  0  0  0  0  0  0  0  0  0  0  0  # atno 10763 bound_to 10752
  153.6641  135.3355  155.3136 H   0  0  0  0  0  0  0  0  0  0  0  0  # atno 10764 bound_to 10752
  154.8429  135.4484  154.1597 H   0  0  0  0  0  0  0  0  0  0  0  0  # atno 10765 bound_to 10752
  140.9680  133.7126  156.1476 H   0  0  0  0  0  0  0  0  0  0  0  0  # atno 11005 bound_to 11000
  146.0085  139.3150  143.0885 LP  0  0  0  0  0  0  0  0  0  0  0  0  # atno 17320 bound_to 7965
  145.8710  140.9420  143.0651 LP  0  0  0  0  0  0  0  0  0  0  0  0  # atno 17321 bound_to 7965
  140.2301  144.4377  150.6303 LP  0  0  0  0  0  0  0  0  0  0  0  0  # atno 17342 bound_to 10162
  140.6361  143.2195  151.6392 LP  0  0  0  0  0  0  0  0  0  0  0  0  # atno 17343 bound_to 10162
  157.5769  131.0946  150.9332 LP  0  0  0  0  0  0  0  0  0  0  0  0  # atno 17370 bound_to 10713
  156.9536  130.5429  149.5283 LP  0  0  0  0  0  0  0  0  0  0  0  0  # atno 17371 bound_to 10713
  140.7371  134.4191  157.5559 LP  0  0  0  0  0  0  0  0  0  0  0  0  # atno 17394 bound_to 11000
  139.8901  134.8812  156.2384 LP  0  0  0  0  0  0  0  0  0  0  0  0  # atno 17395 bound_to 11000

$$$$
