AV-unprocessed.smi:1768|AV-procd|sdf|7146|dock10
  -GOLD-   22720 8383D 1   1.00000     0.00000
 Structure written by MMmdl.
 33 34  0  0  0  0  0  0  0  0  1 V2000
  153.2251  136.5888  157.3123 C   0  0  0  0  0  0  0  0  0  0  0  0
  152.2177  135.7872  156.5612 C   0  0  0  0  0  0  0  0  0  0  0  0
  151.8574  134.5496  156.9229 N   0  0  0  0  0  0  0  0  0  0  0  0
  150.9080  134.0069  156.0683 N   0  0  0  0  0  0  0  0  0  0  0  0
  150.5796  134.8546  155.0837 C   0  0  0  0  0  0  0  0  0  0  0  0
  149.6317  134.5582  154.0690 N   0  0  0  0  0  0  0  0  0  0  0  0
  148.8705  133.4581  153.9346 C   0  0  0  0  0  0  0  0  0  0  0  0
  148.8899  132.4843  154.6874 O   0  0  0  0  0  0  0  0  0  0  0  0
  148.0758  133.5514  152.8583 N   0  0  0  0  0  0  0  0  0  0  0  0
  147.1140  132.5452  152.4105 C   0  0  1  0  0  0  0  0  0  0  0  0
  146.0619  132.3402  153.5103 C   0  0  0  0  0  0  0  0  0  0  0  0
  146.4774  132.9769  151.0744 C   0  0  1  0  0  0  0  0  0  0  0  0
  145.5373  131.9432  150.4479 C   0  0  0  0  0  0  0  0  0  0  0  0
  144.6392  132.8167  149.6032 C   0  0  0  0  0  0  0  0  0  0  0  0
  144.4658  134.0360  150.5022 C   0  0  0  0  0  0  0  0  0  0  0  0
  145.6711  134.1402  151.2553 O   0  0  0  0  0  0  0  0  0  0  0  0
  151.4102  136.4004  155.1238 S   0  0  0  0  0  0  0  0  0  0  0  0
  153.5999  136.0313  158.1714 H   0  0  0  0  0  0  0  0  0  0  0  0
  152.7743  137.5156  157.6672 H   0  0  0  0  0  0  0  0  0  0  0  0
  154.0649  136.8336  156.6618 H   0  0  0  0  0  0  0  0  0  0  0  0
  149.5138  135.2729  153.3662 H   0  0  0  0  0  0  0  0  0  0  0  0
  148.1374  134.3903  152.3004 H   0  0  0  0  0  0  0  0  0  0  0  0
  147.6153  131.5889  152.2522 H   0  0  0  0  0  0  0  0  0  0  0  0
  145.3423  131.5709  153.2295 H   0  0  0  0  0  0  0  0  0  0  0  0
  145.5072  133.2581  153.7066 H   0  0  0  0  0  0  0  0  0  0  0  0
  146.5282  132.0258  154.4446 H   0  0  0  0  0  0  0  0  0  0  0  0
  147.2559  133.2272  150.3515 H   0  0  0  0  0  0  0  0  0  0  0  0
  146.0632  131.1847  149.8673 H   0  0  0  0  0  0  0  0  0  0  0  0
  144.9497  131.4387  151.2165 H   0  0  0  0  0  0  0  0  0  0  0  0
  145.1497  133.0970  148.6807 H   0  0  0  0  0  0  0  0  0  0  0  0
  143.6938  132.3399  149.3426 H   0  0  0  0  0  0  0  0  0  0  0  0
  144.2687  134.9469  149.9365 H   0  0  0  0  0  0  0  0  0  0  0  0
  143.6388  133.8823  151.1964 H   0  0  0  0  0  0  0  0  0  0  0  0
  1  2  1  0  0  0  0
  1 18  1  0  0  0  0
  1 19  1  0  0  0  0
  1 20  1  0  0  0  0
  2 17  1  0  0  0  0
  2  3  2  0  0  0  0
  3  4  1  0  0  0  0
  4  5  2  0  0  0  0
  5  6  1  0  0  0  0
  5 17  1  0  0  0  0
  6  7  1  0  0  0  0
  6 21  1  0  0  0  0
  7  8  2  0  0  0  0
  7  9  1  0  0  0  0
  9 10  1  0  0  0  0
  9 22  1  0  0  0  0
 10 11  1  0  0  0  0
 10 12  1  0  0  0  0
 10 23  1  0  0  0  0
 11 24  1  0  0  0  0
 11 25  1  0  0  0  0
 11 26  1  0  0  0  0
 12 16  1  0  0  0  0
 12 13  1  0  0  0  0
 12 27  1  0  0  0  0
 13 14  1  0  0  0  0
 13 28  1  0  0  0  0
 13 29  1  0  0  0  0
 14 15  1  0  0  0  0
 14 30  1  0  0  0  0
 14 31  1  0  0  0  0
 15 16  1  0  0  0  0
 15 32  1  0  0  0  0
 15 33  1  0  0  0  0
M  END
> <s_m_source_file>
AV-unprocessed.smi

> <i_m_source_file_index>
1768

> <i_lp_mmshare_version>
43012

> <i_f3d_flags>
0

> <s_epik_input>
W0NIM11jMW5uYyhzMSlbTkhdQyg9TylbTkhdW0NASF0oW0NIM10pW0NAQEhdMltDSDJdW0NIMl1bQ0gyXU8y

> <s_epik_cmdline>
J2VwaWtfcHl0aG9uJywgJy1waCcsICc3LjAnLCAnLXRuJywgJzgnLCAnLW1hJywgJzIwMCcsICctbWV0YWxfYmluZGluZycsICctaW1hZScsICc8aW5maWxlLm1hZT4nLCAnLW9tYWUnLCAnPG91dGZpbGUubWFlPic=

> <r_lp_tautomer_probability>
1

> <r_epik_Ionization_Penalty>
0.000523083

> <r_epik_Ionization_Penalty_Charging>
0

> <r_epik_Ionization_Penalty_Neutral>
0.000523083

> <r_epik_State_Penalty>
-0

> <r_epik_Charging_Adjusted_Penalty>
0

> <i_epik_Tot_Q>
0

> <i_epik_Tot_abs_Q>
0

> <r_epik_Metal_State_Penalty>
0.223408

> <b_epik_Metal_Only>
0

> <s_lp_Force_Field>
OPLS_2005

> <r_lp_Energy>
16.9545

> <b_lp_Chiralities_Consistent>
1

> <s_lp_Variant>
AV-unprocessed.smi:1768-4

> <Gold.Version>
5.8.1

> <Gold.Id.Protein>
6NUR|6NUR_protein|mol2

> <Gold.PLP.Fitness>
32.6909

> <Gold.PLP.PLP>
-26.8857

> <Gold.PLP.part.hbond>
-3.0000

> <Gold.PLP.part.metal>
0.0000

> <Gold.PLP.part.buried>
-3.5017

> <Gold.PLP.part.nonpolar>
-19.5072

> <Gold.PLP.part.repulsive>
0.1873

> <Gold.PLP.ligand.clash>
0.0000

> <Gold.PLP.ligand.torsion>
0.0416

> <Gold.PLP.Chemscore.Hbond>
1.9600

> <Gold.PLP.Chemscore.CHOScore>
0.0000

> <Gold.PLP.Chemscore.Metal>
0.0000

> <Gold.Chemscore.Hbonds>
donor molecule, donor type, donor heavy atom, donor atom, acceptor molecule, acceptor atom, score
      L1  H     6    21       P1  7948  0.60
      L1  H     9    22       P1  7948  0.85

> <Gold.PLP.Chemscore.Internal.Correction>
0.0085

> <Gold.Rescore>
     Score         DG    S(hbond)    S(metal)    S(lipo)     H(rot)  DE(clash)    DE(int)     intcor
     13.31     -16.27       2.26        0.00      56.06       1.29       0.07       2.89       ----

> <Gold.Chemscore.Fitness>
13.3100

> <Gold.Chemscore.DG>
-16.2718

> <Gold.Chemscore.ZeroCoef>
-5.4800

> <Gold.Chemscore.Hbond>
2.2576

> <Gold.Chemscore.Metal>
0.0000

> <Gold.Chemscore.Lipo>
56.0555

> <Gold.Chemscore.Internal_Hbond>
0.0000

> <Gold.Chemscore.DEClash>
0.0728

> <Gold.Chemscore.DEInternal>
2.8889

> <Gold.Chemscore.Rot>
1.2919

> <Gold.Chemscore.Internal.Correction>
   9.000000E+99

> <Gold.Chemscore.Hbonds>
donor molecule, donor type, donor heavy atom, donor atom, acceptor molecule, acceptor atom, score
      L1  H     6    21       P1  7948  0.04
      L1  H     9    22       P1  7948  0.13

> <Gold.Chemscore.Hbond.Weighted>
-7.5404

> <Gold.Chemscore.Metal.Weighted>
-0.0000

> <Gold.Chemscore.Lipo.Weighted>
-6.5585

> <Gold.Chemscore.Internal_Hbond.Weighted>
0.0000

> <Gold.Chemscore.DEClash.Weighted>
0.0728

> <Gold.Chemscore.DEInternal.Weighted>
2.8889

> <Gold.Chemscore.Rot.Weighted>
3.3072

> <Gold.Chemscore.Internal.Correction.Weighted>
   9.000000E+99

> <Gold.Protein.RotatedTorsions>
[ 6907 6896 6895 6894 ] final  -79.26 input  -60.11 | X-H torsion
[ 7974 7965 7964 7962 ] final  111.43 input  175.53 | X-H torsion
[ 8008 7997 7996 7995 ] final   65.67 input   59.86 | X-H torsion
[ 10167 10162 10161 10158 ] final  -14.69 input  -65.29 | X-H torsion
[ 10718 10713 10712 10709 ] final    1.94 input   66.30 | X-H torsion
[ 10763 10752 10751 10750 ] final   -6.26 input  -60.55 | X-H torsion
[ 11005 11000 10999 10996 ] final   81.50 input  -57.11 | X-H torsion

> <Gold.Protein.ActiveResidues>
 VAL166  LYS551  ARG553  GLY616  TRP617  ASP618  TYR619  PRO620  LYS621  CYS622 
 ASP623  PHE694  ASN695  SER759  ASP760  ASP761  ALA762  ILE779  LEU786  VAL792 
 PHE793  MET794  SER795  GLU796  ALA797  LYS798  CYS799  TRP800  GLU811  SER814 

> <Gold.Protein.RotatedAtoms>
  150.6954  134.4148  159.5177 H   0  0  0  0  0  0  0  0  0  0  0  0  # atno 6907 bound_to 6896
  152.1900  134.8677  160.0527 H   0  0  0  0  0  0  0  0  0  0  0  0  # atno 6908 bound_to 6896
  151.9636  133.3668  159.4081 H   0  0  0  0  0  0  0  0  0  0  0  0  # atno 6909 bound_to 6896
  145.2423  139.2774  143.4111 H   0  0  0  0  0  0  0  0  0  0  0  0  # atno 7974 bound_to 7965
  155.6654  140.3497  155.4798 H   0  0  0  0  0  0  0  0  0  0  0  0  # atno 8008 bound_to 7997
  155.9733  140.1160  157.0815 H   0  0  0  0  0  0  0  0  0  0  0  0  # atno 8009 bound_to 7997
  154.4172  140.1152  156.5323 H   0  0  0  0  0  0  0  0  0  0  0  0  # atno 8010 bound_to 7997
  140.7205  143.5296  150.9536 H   0  0  0  0  0  0  0  0  0  0  0  0  # atno 10167 bound_to 10162
  156.8556  130.5569  149.5666 H   0  0  0  0  0  0  0  0  0  0  0  0  # atno 10718 bound_to 10713
  153.4099  135.7007  153.6366 H   0  0  0  0  0  0  0  0  0  0  0  0  # atno 10763 bound_to 10752
  153.4865  135.3682  155.2470 H   0  0  0  0  0  0  0  0  0  0  0  0  # atno 10764 bound_to 10752
  154.8716  135.4078  154.3449 H   0  0  0  0  0  0  0  0  0  0  0  0  # atno 10765 bound_to 10752
  139.9096  134.8001  156.2050 H   0  0  0  0  0  0  0  0  0  0  0  0  # atno 11005 bound_to 11000
  146.3325  140.2790  142.8609 LP  0  0  0  0  0  0  0  0  0  0  0  0  # atno 17320 bound_to 7965
  144.9578  140.8244  143.5532 LP  0  0  0  0  0  0  0  0  0  0  0  0  # atno 17321 bound_to 7965
  139.9016  143.6829  152.3130 LP  0  0  0  0  0  0  0  0  0  0  0  0  # atno 17342 bound_to 10162
  139.7181  144.7608  151.1001 LP  0  0  0  0  0  0  0  0  0  0  0  0  # atno 17343 bound_to 10162
  156.0804  130.5816  150.9553 LP  0  0  0  0  0  0  0  0  0  0  0  0  # atno 17370 bound_to 10713
  157.6279  131.0924  150.8498 LP  0  0  0  0  0  0  0  0  0  0  0  0  # atno 17371 bound_to 10713
  141.0501  133.6893  156.1756 LP  0  0  0  0  0  0  0  0  0  0  0  0  # atno 17394 bound_to 11000
  140.6823  134.4753  157.5589 LP  0  0  0  0  0  0  0  0  0  0  0  0  # atno 17395 bound_to 11000

$$$$
