AV-unprocessed.smi:2923|AV-procd|sdf|11207|dock7
  -GOLD-   2272016103D 1   1.00000     0.00000
 Structure written by MMmdl.
 47 49  0  0  0  0  0  0  0  0  2 V2000
  143.1671  132.6543  149.4818 C   0  0  0  0  0  0  0  0  0  0  0  0
  144.4260  132.8648  150.1880 N   0  0  0  0  0  0  0  0  0  0  0  0
  145.3756  131.7702  150.3391 C   0  0  0  0  0  0  0  0  0  0  0  0
  144.6783  134.1037  150.8161 C   0  0  0  0  0  0  0  0  0  0  0  0
  145.8763  134.3894  151.5150 C   0  0  0  0  0  0  0  0  0  0  0  0
  146.0524  135.6515  152.1179 C   0  0  0  0  0  0  0  0  0  0  0  0
  145.0371  136.6262  152.0236 C   0  0  0  0  0  0  0  0  0  0  0  0
  145.2722  137.8776  152.6579 N   0  0  0  0  0  0  0  0  0  0  0  0
  146.2710  138.2432  153.4805 C   0  0  0  0  0  0  0  0  0  0  0  0
  147.1912  137.5189  153.8578 O   0  0  0  0  0  0  0  0  0  0  0  0
  146.1404  139.5219  153.8578 N   0  0  0  0  0  0  0  0  0  0  0  0
  147.0649  140.2165  154.7481 C   0  0  1  0  0  0  0  0  0  0  0  0
  148.4717  140.3509  154.1455 C   0  0  2  0  0  0  0  0  0  0  0  0
  149.6337  139.6448  154.7899 C   0  0  0  0  0  0  0  0  0  0  0  0
  150.2372  140.7289  155.6871 C   0  0  0  0  0  0  0  0  0  0  0  0
  149.1735  141.6547  155.8977 O   0  0  0  0  0  0  0  0  0  0  0  0
  148.4647  141.7799  154.6673 C   0  0  2  0  0  0  0  0  0  0  0  0
  146.9237  141.7602  154.7504 C   0  0  0  0  0  0  0  0  0  0  0  0
  146.2214  142.4111  153.5502 C   0  0  0  0  0  0  0  0  0  0  0  0
  146.3118  142.3793  156.0080 C   0  0  0  0  0  0  0  0  0  0  0  0
  143.8587  136.2930  151.3130 C   0  0  0  0  0  0  0  0  0  0  0  0
  143.7320  135.0717  150.7508 N   0  3  0  0  0  0  0  0  0  0  0  0
  143.0533  133.3789  148.6748 H   0  0  0  0  0  0  0  0  0  0  0  0
  142.3233  132.7594  150.1644 H   0  0  0  0  0  0  0  0  0  0  0  0
  143.1199  131.6577  149.0428 H   0  0  0  0  0  0  0  0  0  0  0  0
  145.5055  131.5178  151.3919 H   0  0  0  0  0  0  0  0  0  0  0  0
  146.3454  132.0439  149.9231 H   0  0  0  0  0  0  0  0  0  0  0  0
  145.0337  130.8739  149.8215 H   0  0  0  0  0  0  0  0  0  0  0  0
  146.6676  133.6597  151.6001 H   0  0  0  0  0  0  0  0  0  0  0  0
  146.9672  135.8655  152.6511 H   0  0  0  0  0  0  0  0  0  0  0  0
  144.5891  138.5935  152.4582 H   0  0  0  0  0  0  0  0  0  0  0  0
  145.3556  140.0516  153.5079 H   0  0  0  0  0  0  0  0  0  0  0  0
  147.0977  139.8027  155.7587 H   0  0  0  0  0  0  0  0  0  0  0  0
  148.4686  140.3235  153.0543 H   0  0  0  0  0  0  0  0  0  0  0  0
  149.2930  138.7958  155.3832 H   0  0  0  0  0  0  0  0  0  0  0  0
  150.3575  139.2767  154.0623 H   0  0  0  0  0  0  0  0  0  0  0  0
  150.6177  140.3330  156.6288 H   0  0  0  0  0  0  0  0  0  0  0  0
  151.0547  141.2388  155.1752 H   0  0  0  0  0  0  0  0  0  0  0  0
  148.9028  142.5071  153.9818 H   0  0  0  0  0  0  0  0  0  0  0  0
  146.3720  143.4909  153.5403 H   0  0  0  0  0  0  0  0  0  0  0  0
  145.1457  142.2325  153.5659 H   0  0  0  0  0  0  0  0  0  0  0  0
  146.6008  142.0281  152.6025 H   0  0  0  0  0  0  0  0  0  0  0  0
  146.4923  143.4536  156.0532 H   0  0  0  0  0  0  0  0  0  0  0  0
  146.7303  141.9435  156.9156 H   0  0  0  0  0  0  0  0  0  0  0  0
  145.2334  142.2224  156.0473 H   0  0  0  0  0  0  0  0  0  0  0  0
  143.0077  136.9395  151.1665 H   0  0  0  0  0  0  0  0  0  0  0  0
  142.8691  134.8662  150.2472 H   0  0  0  0  0  0  0  0  0  0  0  0
  1  2  1  0  0  0  0
  1 23  1  0  0  0  0
  1 24  1  0  0  0  0
  1 25  1  0  0  0  0
  2  3  1  0  0  0  0
  2  4  1  0  0  0  0
  3 26  1  0  0  0  0
  3 27  1  0  0  0  0
  3 28  1  0  0  0  0
  4 22  1  0  0  0  0
  4  5  2  0  0  0  0
  5  6  1  0  0  0  0
  5 29  1  0  0  0  0
  6  7  2  0  0  0  0
  6 30  1  0  0  0  0
  7  8  1  0  0  0  0
  7 21  1  0  0  0  0
  8  9  1  0  0  0  0
  8 31  1  0  0  0  0
  9 10  2  0  0  0  0
  9 11  1  0  0  0  0
 11 12  1  0  0  0  0
 11 32  1  0  0  0  0
 12 18  1  0  0  0  0
 12 13  1  0  0  0  0
 12 33  1  0  0  0  0
 13 17  1  0  0  0  0
 13 14  1  0  0  0  0
 13 34  1  0  0  0  0
 14 15  1  0  0  0  0
 14 35  1  0  0  0  0
 14 36  1  0  0  0  0
 15 16  1  0  0  0  0
 15 37  1  0  0  0  0
 15 38  1  0  0  0  0
 16 17  1  0  0  0  0
 17 18  1  0  0  0  0
 17 39  1  0  0  0  0
 18 19  1  0  0  0  0
 18 20  1  0  0  0  0
 19 40  1  0  0  0  0
 19 41  1  0  0  0  0
 19 42  1  0  0  0  0
 20 43  1  0  0  0  0
 20 44  1  0  0  0  0
 20 45  1  0  0  0  0
 21 22  2  0  0  0  0
 21 46  1  0  0  0  0
 22 47  1  0  0  0  0
M  CHG  1  22   1
M  END
> <s_m_source_file>
AV-unprocessed.smi

> <i_m_source_file_index>
2923

> <i_lp_mmshare_version>
43012

> <i_f3d_flags>
0

> <s_epik_input>
W0NIM11OKFtDSDNdKWMxW2NIXVtjSF1jKFtjSF1uMSlbTkhdQyg9TylbTkhdW0NASF0yQyhbQ0gzXSkoW0NIM10pW0NAQEhdKFtDQEhdMjMpT1tDSDJdW0NIMl0z

> <s_epik_cmdline>
J2VwaWtfcHl0aG9uJywgJy1waCcsICc3LjAnLCAnLXRuJywgJzgnLCAnLW1hJywgJzIwMCcsICctbWV0YWxfYmluZGluZycsICctaW1hZScsICc8aW5maWxlLm1hZT4nLCAnLW9tYWUnLCAnPG91dGZpbGUubWFlPic=

> <r_lp_tautomer_probability>
0.999994

> <r_epik_Ionization_Penalty>
0.252205

> <r_epik_Ionization_Penalty_Charging>
0.252185

> <r_epik_Ionization_Penalty_Neutral>
1.99479e-05

> <r_epik_State_Penalty>
0.243573

> <r_epik_Charging_Adjusted_Penalty>
0.495758

> <i_epik_Tot_Q>
1

> <i_epik_Tot_abs_Q>
1

> <r_epik_Metal_State_Penalty>
0.534372

> <b_epik_Metal_Only>
0

> <s_lp_Force_Field>
OPLS_2005

> <r_lp_Energy>
44.3361

> <b_lp_Chiralities_Consistent>
1

> <s_lp_Variant>
AV-unprocessed.smi:2923-6

> <Gold.Version>
5.8.1

> <Gold.Id.Protein>
6NUR|6NUR_protein|mol2

> <Gold.PLP.Fitness>
42.7842

> <Gold.PLP.PLP>
-31.0309

> <Gold.PLP.part.hbond>
-3.3474

> <Gold.PLP.part.metal>
0.0000

> <Gold.PLP.part.buried>
3.4834

> <Gold.PLP.part.nonpolar>
-33.9948

> <Gold.PLP.part.repulsive>
2.1851

> <Gold.PLP.ligand.clash>
0.0000

> <Gold.PLP.ligand.torsion>
0.1262

> <Gold.PLP.Chemscore.Hbond>
3.9413

> <Gold.PLP.Chemscore.CHOScore>
0.0000

> <Gold.PLP.Chemscore.Metal>
0.0000

> <Gold.Chemscore.Hbonds>
donor molecule, donor type, donor heavy atom, donor atom, acceptor molecule, acceptor atom, score
      L1  H     8    31       P1 10175  0.91
      L1  H    11    32       P1 10175  1.00
      L1  H    22    47       P1 10186  2.00

> <Gold.PLP.Chemscore.Internal.Correction>
0.1820

> <Gold.Rescore>
     Score         DG    S(hbond)    S(metal)    S(lipo)     H(rot)  DE(clash)    DE(int)     intcor
     16.94     -21.44       2.40        0.00      89.81       1.00       2.94       1.55       ----

> <Gold.Chemscore.Fitness>
16.9411

> <Gold.Chemscore.DG>
-21.4377

> <Gold.Chemscore.ZeroCoef>
-5.4800

> <Gold.Chemscore.Hbond>
2.3981

> <Gold.Chemscore.Metal>
0.0000

> <Gold.Chemscore.Lipo>
89.8135

> <Gold.Chemscore.Internal_Hbond>
0.0000

> <Gold.Chemscore.DEClash>
2.9437

> <Gold.Chemscore.DEInternal>
1.5530

> <Gold.Chemscore.Rot>
1.0000

> <Gold.Chemscore.Internal.Correction>
   9.000000E+99

> <Gold.Chemscore.Hbonds>
donor molecule, donor type, donor heavy atom, donor atom, acceptor molecule, acceptor atom, score
      L1  H     8    31       P1 10175  0.87
      L1  H    11    32       P1 10175  0.95
      L1  H    22    47       P1 10186  0.28

> <Gold.Chemscore.Hbond.Weighted>
-8.0096

> <Gold.Chemscore.Metal.Weighted>
-0.0000

> <Gold.Chemscore.Lipo.Weighted>
-10.5082

> <Gold.Chemscore.Internal_Hbond.Weighted>
0.0000

> <Gold.Chemscore.DEClash.Weighted>
2.9437

> <Gold.Chemscore.DEInternal.Weighted>
1.5530

> <Gold.Chemscore.Rot.Weighted>
2.5600

> <Gold.Chemscore.Internal.Correction.Weighted>
   9.000000E+99

> <Gold.Protein.RotatedTorsions>
[ 6907 6896 6895 6894 ] final   42.34 input  -60.11 | X-H torsion
[ 7974 7965 7964 7962 ] final   94.91 input  175.53 | X-H torsion
[ 8008 7997 7996 7995 ] final  -55.45 input   59.86 | X-H torsion
[ 10167 10162 10161 10158 ] final -131.14 input  -65.29 | X-H torsion
[ 10718 10713 10712 10709 ] final -146.36 input   66.30 | X-H torsion
[ 10763 10752 10751 10750 ] final  108.62 input  -60.55 | X-H torsion
[ 11005 11000 10999 10996 ] final -118.54 input  -57.11 | X-H torsion

> <Gold.Protein.ActiveResidues>
 VAL166  LYS551  ARG553  GLY616  TRP617  ASP618  TYR619  PRO620  LYS621  CYS622 
 ASP623  PHE694  ASN695  SER759  ASP760  ASP761  ALA762  ILE779  LEU786  VAL792 
 PHE793  MET794  SER795  GLU796  ALA797  LYS798  CYS799  TRP800  GLU811  SER814 

> <Gold.Protein.RotatedAtoms>
  152.2066  134.8540  160.0501 H   0  0  0  0  0  0  0  0  0  0  0  0  # atno 6907 bound_to 6896
  151.9373  133.3623  159.3961 H   0  0  0  0  0  0  0  0  0  0  0  0  # atno 6908 bound_to 6896
  150.6966  134.4400  159.5331 H   0  0  0  0  0  0  0  0  0  0  0  0  # atno 6909 bound_to 6896
  145.4592  139.2288  143.2997 H   0  0  0  0  0  0  0  0  0  0  0  0  # atno 7974 bound_to 7965
  154.4195  140.1152  156.5479 H   0  0  0  0  0  0  0  0  0  0  0  0  # atno 8008 bound_to 7997
  155.6440  140.3496  155.4706 H   0  0  0  0  0  0  0  0  0  0  0  0  # atno 8009 bound_to 7997
  155.9847  140.1167  157.0684 H   0  0  0  0  0  0  0  0  0  0  0  0  # atno 8010 bound_to 7997
  139.9220  143.6371  152.2551 H   0  0  0  0  0  0  0  0  0  0  0  0  # atno 10167 bound_to 10162
  156.3939  130.7900  151.2104 H   0  0  0  0  0  0  0  0  0  0  0  0  # atno 10718 bound_to 10713
  153.4232  135.3806  155.2124 H   0  0  0  0  0  0  0  0  0  0  0  0  # atno 10763 bound_to 10752
  154.8746  135.3822  154.4358 H   0  0  0  0  0  0  0  0  0  0  0  0  # atno 10764 bound_to 10752
  153.4881  135.7088  153.5962 H   0  0  0  0  0  0  0  0  0  0  0  0  # atno 10765 bound_to 10752
  141.0279  134.0026  157.3187 H   0  0  0  0  0  0  0  0  0  0  0  0  # atno 11005 bound_to 11000
  146.2461  140.5359  142.8913 LP  0  0  0  0  0  0  0  0  0  0  0  0  # atno 17320 bound_to 7965
  144.8013  140.6219  143.6476 LP  0  0  0  0  0  0  0  0  0  0  0  0  # atno 17321 bound_to 7965
  139.6854  144.7652  151.1534 LP  0  0  0  0  0  0  0  0  0  0  0  0  # atno 17342 bound_to 10162
  140.7660  143.5665  150.9042 LP  0  0  0  0  0  0  0  0  0  0  0  0  # atno 17343 bound_to 10162
  157.7500  131.0307  150.4149 LP  0  0  0  0  0  0  0  0  0  0  0  0  # atno 17370 bound_to 10713
  156.4416  130.3993  149.6694 LP  0  0  0  0  0  0  0  0  0  0  0  0  # atno 17371 bound_to 10713
  139.9188  135.0199  156.7985 LP  0  0  0  0  0  0  0  0  0  0  0  0  # atno 17394 bound_to 11000
  140.6459  133.9776  155.7730 LP  0  0  0  0  0  0  0  0  0  0  0  0  # atno 17395 bound_to 11000

$$$$
