#       Name:                AV-unprocessed.smi:3195
#       Creating user name   scv26
#       Creation time:       Fri Mar 27 18:05:16 2020


#       File generated by GOLD software.
#

@<TRIPOS>MOLECULE
AV-unprocessed.smi:3195
    37    38     1
SMALL
NO_CHARGES


@<TRIPOS>ATOM
      1 ****        -1.8562  -1.4985  -2.0988 C.3            1 S1                 0.0000
      2 ****        -1.5765  -0.9829  -0.6767 C.3            1 S1                 0.0000
      3 ****        -0.0605  -1.0067  -0.3845 C.2            1 S1                 0.0000
      4 ****         0.5204  -2.0912  -0.3236 O.2            1 S1                 0.0000
      5 ****         0.5440   0.1856  -0.2183 N.am           1 S1                 0.0000
      6 ****         1.9096   0.4607   0.0667 C.ar           1 S1                 0.0000
      7 ****         2.8490  -0.5093   0.1989 N.ar           1 S1                 0.0000
      8 ****         4.1247  -0.1634   0.4692 C.ar           1 S1                 0.0000
      9 ****         4.5438   1.1698   0.6249 C.ar           1 S1                 0.0000
     10 ****         3.5821   2.1859   0.4905 C.ar           1 S1                 0.0000
     11 ****         2.2477   1.8309   0.2086 C.ar           1 S1                 0.0000
     12 ****         1.3067   2.8146   0.0777 O.3            1 S1                 0.0000
     13 ****        -2.3787  -1.7629   0.3917 C.3            1 S1                 0.0000
     14 ****        -3.3629  -0.7476   0.9442 C.3            1 S1                 0.0000
     15 ****        -2.6614   0.5736   0.6756 C.3            1 S1                 0.0000
     16 ****        -2.0721   0.3585  -0.5979 O.3            1 S1                 0.0000
     17 ****        -1.5551  -2.5405  -2.2134 H              1 S1                 0.0000
     18 ****        -1.3196  -0.9124  -2.8461 H              1 S1                 0.0000
     19 ****        -2.9188  -1.4351  -2.3349 H              1 S1                 0.0000
     20 ****        -0.0504   0.9979  -0.3002 H              1 S1                 0.0000
     21 ****         4.8319  -0.9740   0.5635 H              1 S1                 0.0000
     22 ****         5.5754   1.4054   0.8409 H              1 S1                 0.0000
     23 ****         3.8655   3.2222   0.6021 H              1 S1                 0.0000
     24 ****         1.6603   3.6834   0.1920 H              1 S1                 0.0000
     25 ****        -2.8929  -2.6341  -0.0159 H              1 S1                 0.0000
     26 ****        -1.7386  -2.1208   1.2002 H              1 S1                 0.0000
     27 ****        -4.2965  -0.7908   0.3820 H              1 S1                 0.0000
     28 ****        -3.5917  -0.9026   1.9988 H              1 S1                 0.0000
     29 ****        -3.3452   1.4224   0.6649 H              1 S1                 0.0000
     30 ****        -1.8843   0.7629   1.4178 H              1 S1                 0.0000
     31 ****         0.0104  -2.9401  -0.4626 LP             1 S1                 0.0000
     32 ****         1.5020  -2.1228  -0.1352 LP             1 S1                 0.0000
     33 ****         2.5981  -1.4719   0.0969 LP             1 S1                 0.0000
     34 ****         0.5951   2.6677   0.7647 LP             1 S1                 0.0000
     35 ****         0.9057   2.7518  -0.8362 LP             1 S1                 0.0000
     36 ****        -2.7583   0.5023  -1.3109 LP             1 S1                 0.0000
     37 ****        -1.3167   1.0007  -0.7280 LP             1 S1                 0.0000
@<TRIPOS>BOND
    1    1    2 1     
    2    1   17 1     
    3    1   18 1     
    4    1   19 1     
    5    2   16 1     
    6    2    3 1     
    7    2   13 1     
    8    3    4 2     
    9    3    5 am    
   10    5    6 1     
   11    5   20 1     
   12    6   11 ar    
   13    6    7 ar    
   14    7    8 ar    
   15    8    9 ar    
   16    8   21 1     
   17    9   10 ar    
   18    9   22 1     
   19   10   11 ar    
   20   10   23 1     
   21   11   12 1     
   22   12   24 1     
   23   13   14 1     
   24   13   25 1     
   25   13   26 1     
   26   14   15 1     
   27   14   27 1     
   28   14   28 1     
   29   15   16 1     
   30   15   29 1     
   31   15   30 1     
   32    4   31 1     
   33    4   32 1     
   34    7   33 1     
   35   12   34 1     
   36   12   35 1     
   37   16   36 1     
   38   16   37 1     
@<TRIPOS>SUBSTRUCTURE
      1 S1             1
@<TRIPOS>SET
LONE_PAIRS      STATIC     ATOMS    <user>   **** ""
7 31 32 33 34 35 36 37
DONOR_HYDROGENS      STATIC     ATOMS    <user>   **** ""
2 20 24
ATOM$BLUE        STATIC     ATOMS    COLORGROUP SYSTEM
7 31 32 33 34 35 36 37
ATOM$RED        STATIC     ATOMS    COLORGROUP SYSTEM
2 20 24
