#       Name:                AV-unprocessed.smi:1594
#       Creating user name   scv26
#       Creation time:       Fri Mar 27 07:05:01 2020


#       File generated by GOLD software.
#

@<TRIPOS>MOLECULE
AV-unprocessed.smi:1594
    42    43     1
SMALL
NO_CHARGES


@<TRIPOS>ATOM
      1 ****        -2.7889   2.3502   1.4346 C.3            1 S1                 0.0000
      2 ****        -3.2448   0.9222   1.5231 C.2            1 S1                 0.0000
      3 ****        -4.5383   0.6470   1.5264 N.2            1 S1                 0.0000
      4 ****        -4.6330  -0.7455   1.6112 O.3            1 S1                 0.0000
      5 ****        -3.3776  -1.2595   1.6570 C.2            1 S1                 0.0000
      6 ****        -3.2640  -2.7436   1.7458 C.3            1 S1                 0.0000
      7 ****        -2.4494  -0.2562   1.6099 C.2            1 S1                 0.0000
      8 ****        -0.9441  -0.3616   1.6378 C.3            1 S1                 0.0000
      9 ****        -0.3431  -0.3241   0.2272 C.2            1 S1                 0.0000
     10 ****        -1.0583  -0.3758  -0.7749 O.2            1 S1                 0.0000
     11 ****         0.9940  -0.2310   0.1677 N.am           1 S1                 0.0000
     12 ****         1.7799  -0.1689  -1.0611 C.3            1 S1                 0.0000
     13 ****         3.2190  -0.6298  -0.7858 C.3            1 S1                 0.0000
     14 ****         4.0999  -0.4335  -2.0307 C.3            1 S1                 0.0000
     15 ****         4.0623   0.9283  -2.4439 O.3            1 S1                 0.0000
     16 ****         2.7594   1.3562  -2.8256 C.3            1 S1                 0.0000
     17 ****         1.8017   1.2616  -1.6270 C.3            1 S1                 0.0000
     18 ****        -1.9699   2.4545   0.7227 H              1 S1                 0.0000
     19 ****        -2.4348   2.7058   2.4023 H              1 S1                 0.0000
     20 ****        -3.5934   3.0117   1.1106 H              1 S1                 0.0000
     21 ****        -2.3992  -3.0998   1.1858 H              1 S1                 0.0000
     22 ****        -4.1511  -3.2291   1.3390 H              1 S1                 0.0000
     23 ****        -3.1495  -3.0594   2.7827 H              1 S1                 0.0000
     24 ****        -0.5112   0.4512   2.2225 H              1 S1                 0.0000
     25 ****        -0.6246  -1.2856   2.1210 H              1 S1                 0.0000
     26 ****         1.5056  -0.1964   1.0376 H              1 S1                 0.0000
     27 ****         1.3429  -0.8396  -1.8036 H              1 S1                 0.0000
     28 ****         3.6406  -0.0594   0.0432 H              1 S1                 0.0000
     29 ****         3.2297  -1.6772  -0.4823 H              1 S1                 0.0000
     30 ****         5.1315  -0.7040  -1.8052 H              1 S1                 0.0000
     31 ****         3.7724  -1.0809  -2.8455 H              1 S1                 0.0000
     32 ****         2.8160   2.3861  -3.1783 H              1 S1                 0.0000
     33 ****         2.3973   0.7541  -3.6604 H              1 S1                 0.0000
     34 ****         0.7996   1.5688  -1.9282 H              1 S1                 0.0000
     35 ****         2.1242   1.9617  -0.8550 H              1 S1                 0.0000
     36 ****        -5.2936   1.3006   1.4781 LP             1 S1                 0.0000
     37 ****        -5.1141  -1.1005   0.8096 LP             1 S1                 0.0000
     38 ****        -5.1324  -1.0000   2.4394 LP             1 S1                 0.0000
     39 ****        -2.0513  -0.4436  -0.6776 LP             1 S1                 0.0000
     40 ****        -0.6458  -0.3499  -1.6855 LP             1 S1                 0.0000
     41 ****         4.6768   1.0419  -3.2246 LP             1 S1                 0.0000
     42 ****         4.3767   1.5003  -1.6863 LP             1 S1                 0.0000
@<TRIPOS>BOND
    1    1    2 1     
    2    1   18 1     
    3    1   19 1     
    4    1   20 1     
    5    2    7 1     
    6    2    3 2     
    7    3    4 1     
    8    4    5 1     
    9    5    6 1     
   10    5    7 2     
   11    6   21 1     
   12    6   22 1     
   13    6   23 1     
   14    7    8 1     
   15    8    9 1     
   16    8   24 1     
   17    8   25 1     
   18    9   10 2     
   19    9   11 am    
   20   11   12 1     
   21   11   26 1     
   22   12   17 1     
   23   12   13 1     
   24   12   27 1     
   25   13   14 1     
   26   13   28 1     
   27   13   29 1     
   28   14   15 1     
   29   14   30 1     
   30   14   31 1     
   31   15   16 1     
   32   16   17 1     
   33   16   32 1     
   34   16   33 1     
   35   17   34 1     
   36   17   35 1     
   37    3   36 1     
   38    4   37 1     
   39    4   38 1     
   40   10   39 1     
   41   10   40 1     
   42   15   41 1     
   43   15   42 1     
@<TRIPOS>SUBSTRUCTURE
      1 S1             1
@<TRIPOS>SET
LONE_PAIRS      STATIC     ATOMS    <user>   **** ""
7 36 37 38 39 40 41 42
DONOR_HYDROGENS      STATIC     ATOMS    <user>   **** ""
1 26
ATOM$BLUE        STATIC     ATOMS    COLORGROUP SYSTEM
7 36 37 38 39 40 41 42
ATOM$RED        STATIC     ATOMS    COLORGROUP SYSTEM
1 26
