#       Name:                AV-unprocessed.smi:1682
#       Creating user name   scv26
#       Creation time:       Fri Mar 27 07:50:01 2020


#       File generated by GOLD software.
#

@<TRIPOS>MOLECULE
AV-unprocessed.smi:1682
    43    44     1
SMALL
NO_CHARGES


@<TRIPOS>ATOM
      1 ****        -0.6399   3.0162  -0.6704 O.2            1 S1                 0.0000
      2 ****         0.1478   2.0836  -0.5154 C.2            1 S1                 0.0000
      3 ****        -0.2504   0.8149  -0.3301 N.am           1 S1                 0.0000
      4 ****        -1.6419   0.3869  -0.3198 C.3            1 S1                 0.0000
      5 ****        -1.7440  -1.1334  -0.1356 C.3            1 S1                 0.0000
      6 ****        -3.1812  -1.6170  -0.1676 C.ar           1 S1                 0.0000
      7 ****        -3.7435  -2.2267  -1.3104 C.ar           1 S1                 0.0000
      8 ****        -5.0911  -2.6424  -1.2771 C.ar           1 S1                 0.0000
      9 ****        -5.8470  -2.4405  -0.1038 C.ar           1 S1                 0.0000
     10 ****        -5.2352  -1.8273   1.0085 C.ar           1 S1                 0.0000
     11 ****        -3.9417  -1.4427   0.9376 N.pl3          1 S1                 1.0000
     12 ****         1.6619   2.3507  -0.5382 C.3            1 S1                 0.0000
     13 ****         2.3693   1.6035  -1.6851 C.3            1 S1                 0.0000
     14 ****         3.2592   0.6024  -0.9666 C.2            1 S1                 0.0000
     15 ****         3.8884  -0.2720  -1.5595 O.2            1 S1                 0.0000
     16 ****         3.2375   0.7991   0.3567 N.am           1 S1                 0.0000
     17 ****         3.9521   0.0130   1.3615 C.3            1 S1                 0.0000
     18 ****         5.4282   0.4294   1.4963 C.3            1 S1                 0.0000
     19 ****         5.9958  -0.2943   2.4601 F              1 S1                 0.0000
     20 ****         6.0968   0.2196   0.3627 F              1 S1                 0.0000
     21 ****         5.5169   1.7182   1.8254 F              1 S1                 0.0000
     22 ****         2.3829   1.9078   0.7526 C.3            1 S1                 0.0000
     23 ****         0.4561   0.1034  -0.2094 H              1 S1                 0.0000
     24 ****        -2.1720   0.9018   0.4832 H              1 S1                 0.0000
     25 ****        -2.1141   0.6802  -1.2589 H              1 S1                 0.0000
     26 ****        -1.1795  -1.6425  -0.9184 H              1 S1                 0.0000
     27 ****        -1.2915  -1.4288   0.8121 H              1 S1                 0.0000
     28 ****        -3.1533  -2.3723  -2.2038 H              1 S1                 0.0000
     29 ****        -5.5400  -3.1090  -2.1418 H              1 S1                 0.0000
     30 ****        -6.8808  -2.7504  -0.0581 H              1 S1                 0.0000
     31 ****        -5.7375  -1.6327   1.9448 H              1 S1                 0.0000
     32 ****         1.8047   3.4245  -0.6713 H              1 S1                 0.0000
     33 ****         1.6867   1.0927  -2.3662 H              1 S1                 0.0000
     34 ****         2.9881   2.2811  -2.2741 H              1 S1                 0.0000
     35 ****         3.4523   0.1269   2.3243 H              1 S1                 0.0000
     36 ****         3.8847  -1.0468   1.1102 H              1 S1                 0.0000
     37 ****         2.9997   2.7166   1.1468 H              1 S1                 0.0000
     38 ****         1.6950   1.6042   1.5437 H              1 S1                 0.0000
     39 ****        -3.5209  -0.9983   1.7540 H              1 S1                 0.0000
     40 ****        -1.6251   2.8452  -0.6616 LP             1 S1                 0.0000
     41 ****        -0.2947   3.9451  -0.8051 LP             1 S1                 0.0000
     42 ****         3.8262  -0.3450  -2.5549 LP             1 S1                 0.0000
     43 ****         4.4624  -0.9101  -1.0463 LP             1 S1                 0.0000
@<TRIPOS>BOND
    1    1    2 2     
    2    2    3 am    
    3    2   12 1     
    4    3    4 1     
    5    3   23 1     
    6    4    5 1     
    7    4   24 1     
    8    4   25 1     
    9    5    6 1     
   10    5   26 1     
   11    5   27 1     
   12    6   11 ar    
   13    6    7 ar    
   14    7    8 ar    
   15    7   28 1     
   16    8    9 ar    
   17    8   29 1     
   18    9   10 ar    
   19    9   30 1     
   20   10   11 ar    
   21   10   31 1     
   22   11   39 1     
   23   12   22 1     
   24   12   13 1     
   25   12   32 1     
   26   13   14 1     
   27   13   33 1     
   28   13   34 1     
   29   14   15 2     
   30   14   16 am    
   31   16   17 1     
   32   16   22 1     
   33   17   18 1     
   34   17   35 1     
   35   17   36 1     
   36   18   19 1     
   37   18   20 1     
   38   18   21 1     
   39   22   37 1     
   40   22   38 1     
   41    1   40 1     
   42    1   41 1     
   43   15   42 1     
   44   15   43 1     
@<TRIPOS>SUBSTRUCTURE
      1 S1             1
@<TRIPOS>SET
LONE_PAIRS      STATIC     ATOMS    <user>   **** ""
4 40 41 42 43
DONOR_HYDROGENS      STATIC     ATOMS    <user>   **** ""
2 23 39
ATOM$BLUE        STATIC     ATOMS    COLORGROUP SYSTEM
4 40 41 42 43
ATOM$RED        STATIC     ATOMS    COLORGROUP SYSTEM
2 23 39
