AV-unprocessed.smi:1|AV-procd|sdf|19|dock10
  -GOLD-   2262015123D 1   1.00000     0.00000
 Structure written by MMmdl.
 56 61  0  0  0  0  0  0  0  0  2 V2000
  152.5466  140.0649  157.4677 O   0  0  0  0  0  0  0  0  0  0  0  0
  151.8565  141.0538  157.2111 C   0  0  0  0  0  0  0  0  0  0  0  0
  150.9060  141.1806  156.2508 N   0  5  0  0  0  0  0  0  0  0  0  0
  150.3464  140.0853  155.7151 C   0  0  0  0  0  0  0  0  0  0  0  0
  150.9091  139.4871  154.6337 N   0  0  0  0  0  0  0  0  0  0  0  0
  150.3545  138.3918  154.1003 C   0  0  0  0  0  0  0  0  0  0  0  0
  149.2567  137.7330  154.4847 N   0  0  0  0  0  0  0  0  0  0  0  0
  148.6894  138.3215  155.5774 C   0  0  0  0  0  0  0  0  0  0  0  0
  149.1718  139.4838  156.2446 C   0  0  0  0  0  0  0  0  0  0  0  0
  148.3572  139.8040  157.3214 N   0  0  0  0  0  0  0  0  0  0  0  0
  147.4369  138.8430  157.2590 C   0  0  0  0  0  0  0  0  0  0  0  0
  147.5581  137.9335  156.2700 N   0  0  0  0  0  0  0  0  0  0  0  0
  146.6950  136.7570  155.9567 C   0  0  2  0  0  0  0  0  0  0  0  0
  145.6445  136.7162  156.8701 O   0  0  0  0  0  0  0  0  0  0  0  0
  145.2151  135.3677  156.9693 C   0  0  2  0  0  0  0  0  0  0  0  0
  144.3108  135.1563  158.1908 C   0  0  0  0  0  0  0  0  0  0  0  0
  143.8968  133.7997  158.2228 O   0  0  0  0  0  0  0  0  0  0  0  0
  142.7259  133.4576  158.7936 C   0  0  0  0  0  0  0  0  0  0  0  0
  141.9140  134.2750  159.2318 O   0  0  0  0  0  0  0  0  0  0  0  0
  142.5209  131.9814  158.8499 C   0  0  0  0  0  0  0  0  0  0  0  0
  141.5438  131.4499  159.7236 C   0  0  0  0  0  0  0  0  0  0  0  0
  141.3349  130.0594  159.8053 C   0  0  0  0  0  0  0  0  0  0  0  0
  142.0985  129.1834  159.0121 C   0  0  0  0  0  0  0  0  0  0  0  0
  143.0712  129.6997  158.1365 C   0  0  0  0  0  0  0  0  0  0  0  0
  143.2831  131.0899  158.0547 C   0  0  0  0  0  0  0  0  0  0  0  0
  146.5334  134.5886  156.9878 C   0  0  2  0  0  0  0  0  0  0  0  0
  147.0689  134.5590  158.3006 O   0  0  0  0  0  0  0  0  0  0  0  0
  148.6657  135.0422  158.2570 S   0  0  0  0  0  0  0  0  0  0  0  0
  148.8158  136.2102  159.1379 O   0  0  0  0  0  0  0  0  0  0  0  0
  149.5099  133.8442  158.3819 O   0  0  0  0  0  0  0  0  0  0  0  0
  148.7339  135.5629  156.6722 O   0  0  0  0  0  0  0  0  0  0  0  0
  147.4531  135.4197  156.0774 C   0  0  2  0  0  0  0  0  0  0  0  0
  151.9927  142.2777  158.0766 C   0  0  0  0  0  0  0  0  0  0  0  0
  152.6721  142.1896  159.3133 C   0  0  0  0  0  0  0  0  0  0  0  0
  152.8293  143.3286  160.1271 C   0  0  0  0  0  0  0  0  0  0  0  0
  152.3175  144.5708  159.7078 C   0  0  0  0  0  0  0  0  0  0  0  0
  151.6522  144.6741  158.4719 C   0  0  0  0  0  0  0  0  0  0  0  0
  151.4942  143.5355  157.6577 C   0  0  0  0  0  0  0  0  0  0  0  0
  150.8658  137.9840  153.2411 H   0  0  0  0  0  0  0  0  0  0  0  0
  146.6330  138.7955  157.9789 H   0  0  0  0  0  0  0  0  0  0  0  0
  146.3149  136.9430  154.9509 H   0  0  0  0  0  0  0  0  0  0  0  0
  144.6629  135.1250  156.0591 H   0  0  0  0  0  0  0  0  0  0  0  0
  144.8453  135.4241  159.1035 H   0  0  0  0  0  0  0  0  0  0  0  0
  143.4323  135.7991  158.1283 H   0  0  0  0  0  0  0  0  0  0  0  0
  140.9473  132.1027  160.3447 H   0  0  0  0  0  0  0  0  0  0  0  0
  140.5883  129.6649  160.4787 H   0  0  0  0  0  0  0  0  0  0  0  0
  141.9390  128.1172  159.0755 H   0  0  0  0  0  0  0  0  0  0  0  0
  143.6576  129.0284  157.5264 H   0  0  0  0  0  0  0  0  0  0  0  0
  144.0382  131.4524  157.3728 H   0  0  0  0  0  0  0  0  0  0  0  0
  146.4126  133.5649  156.6323 H   0  0  0  0  0  0  0  0  0  0  0  0
  147.5455  134.9783  155.0847 H   0  0  0  0  0  0  0  0  0  0  0  0
  153.0718  141.2435  159.6491 H   0  0  0  0  0  0  0  0  0  0  0  0
  153.3442  143.2483  161.0730 H   0  0  0  0  0  0  0  0  0  0  0  0
  152.4384  145.4440  160.3312 H   0  0  0  0  0  0  0  0  0  0  0  0
  151.2639  145.6276  158.1459 H   0  0  0  0  0  0  0  0  0  0  0  0
  150.9889  143.6380  156.7080 H   0  0  0  0  0  0  0  0  0  0  0  0
  1  2  2  0  0  0  0
  2  3  1  0  0  0  0
  2 33  1  0  0  0  0
  3  4  1  0  0  0  0
  4  9  1  0  0  0  0
  4  5  2  0  0  0  0
  5  6  1  0  0  0  0
  6  7  2  0  0  0  0
  6 39  1  0  0  0  0
  7  8  1  0  0  0  0
  8 12  1  0  0  0  0
  8  9  2  0  0  0  0
  9 10  1  0  0  0  0
 10 11  2  0  0  0  0
 11 12  1  0  0  0  0
 11 40  1  0  0  0  0
 12 13  1  0  0  0  0
 13 32  1  0  0  0  0
 13 14  1  0  0  0  0
 13 41  1  0  0  0  0
 14 15  1  0  0  0  0
 15 16  1  0  0  0  0
 15 26  1  0  0  0  0
 15 42  1  0  0  0  0
 16 17  1  0  0  0  0
 16 43  1  0  0  0  0
 16 44  1  0  0  0  0
 17 18  1  0  0  0  0
 18 19  2  0  0  0  0
 18 20  1  0  0  0  0
 20 25  1  0  0  0  0
 20 21  2  0  0  0  0
 21 22  1  0  0  0  0
 21 45  1  0  0  0  0
 22 23  2  0  0  0  0
 22 46  1  0  0  0  0
 23 24  1  0  0  0  0
 23 47  1  0  0  0  0
 24 25  2  0  0  0  0
 24 48  1  0  0  0  0
 25 49  1  0  0  0  0
 26 32  1  0  0  0  0
 26 27  1  0  0  0  0
 26 50  1  0  0  0  0
 27 28  1  0  0  0  0
 28 29  2  0  0  0  0
 28 30  2  0  0  0  0
 28 31  1  0  0  0  0
 31 32  1  0  0  0  0
 32 51  1  0  0  0  0
 33 38  1  0  0  0  0
 33 34  2  0  0  0  0
 34 35  1  0  0  0  0
 34 52  1  0  0  0  0
 35 36  2  0  0  0  0
 35 53  1  0  0  0  0
 36 37  1  0  0  0  0
 36 54  1  0  0  0  0
 37 38  2  0  0  0  0
 37 55  1  0  0  0  0
 38 56  1  0  0  0  0
M  CHG  1   3  -1
M  END
> <s_m_source_file>
AV-unprocessed.smi

> <i_m_source_file_index>
1

> <i_lp_mmshare_version>
43012

> <i_f3d_flags>
0

> <s_epik_input>
W2NIXTFbY0hdW2NIXVtjSF1bY0hdYzFDKD1PKVtOSF1jKG5bY0hdbjIpYyhjMjMpbltjSF1uM1tDQEBIXShbQ0BIXShbQ0BIXTQ1KU9TKE81KSg9Tyk9TylPW0NASF00W0NIMl1PQyg9TyljNltjSF1bY0hdW2NIXVtjSF1bY0hdNg==

> <s_epik_cmdline>
J2VwaWtfcHl0aG9uJywgJy1waCcsICc3LjAnLCAnLXRuJywgJzgnLCAnLW1hJywgJzIwMCcsICctbWV0YWxfYmluZGluZycsICctaW1hZScsICc8aW5maWxlLm1hZT4nLCAnLW9tYWUnLCAnPG91dGZpbGUubWFlPic=

> <r_lp_tautomer_probability>
1

> <r_epik_Ionization_Penalty>
4.39121

> <r_epik_Ionization_Penalty_Charging>
3.39398

> <r_epik_Ionization_Penalty_Neutral>
0.997232

> <r_epik_State_Penalty>
3.39839

> <r_epik_Charging_Adjusted_Penalty>
6.79237

> <i_epik_Tot_Q>
-1

> <i_epik_Tot_abs_Q>
1

> <r_epik_Metal_State_Penalty>
0.497663

> <b_epik_Metal_Only>
1

> <s_epik_Chemistry_Notes>
This compound has an ester and may undergo hydrolysis at high or low pH. This compound contains an acetal/aminal-like group ( X-CH(R)-Y where X, Y are N, S, or O) that may be acid/base labile, releasing an aldehyde.

> <s_lp_Force_Field>
OPLS_2005

> <r_lp_Energy>
44.2661

> <b_lp_Chiralities_Consistent>
1

> <s_lp_Variant>
AV-unprocessed.smi:1-19

> <Gold.Version>
5.8.1

> <Gold.Id.Protein>
6NUR|6NUR_protein|mol2

> <Gold.PLP.Fitness>
57.7842

> <Gold.PLP.PLP>
-45.8606

> <Gold.PLP.part.hbond>
-4.0000

> <Gold.PLP.part.metal>
0.0000

> <Gold.PLP.part.buried>
-7.1797

> <Gold.PLP.part.nonpolar>
-35.6369

> <Gold.PLP.part.repulsive>
1.1537

> <Gold.PLP.ligand.clash>
0.0000

> <Gold.PLP.ligand.torsion>
1.2960

> <Gold.PLP.Chemscore.Hbond>
4.0000

> <Gold.PLP.Chemscore.CHOScore>
0.6557

> <Gold.PLP.Chemscore.Metal>
0.0000

> <Gold.Chemscore.Hbonds>
donor molecule, donor type, donor heavy atom, donor atom, acceptor molecule, acceptor atom, score
      P1  H  6896  6909       L1    30  0.98
      P1  H  7989  7998       L1     5  1.00
      P1  H  7997  8010       L1     1  1.00
      P1  H 11000 11005       L1    19  0.90
      L1  C     6    39       P1  7948  0.03
      L1  C     6    39       P1  7949  0.61

> <Gold.PLP.Chemscore.Internal.Correction>
0.5483

> <Gold.Rescore>
     Score         DG    S(hbond)    S(metal)    S(lipo)     H(rot)  DE(clash)    DE(int)     intcor
     20.29     -23.01       3.28        0.00     102.34       2.11       0.56       2.16       ----

> <Gold.Chemscore.Fitness>
20.2862

> <Gold.Chemscore.DG>
-23.0058

> <Gold.Chemscore.ZeroCoef>
-5.4800

> <Gold.Chemscore.Hbond>
3.2822

> <Gold.Chemscore.Metal>
0.0000

> <Gold.Chemscore.Lipo>
102.3406

> <Gold.Chemscore.Internal_Hbond>
0.0000

> <Gold.Chemscore.DEClash>
0.5555

> <Gold.Chemscore.DEInternal>
2.1641

> <Gold.Chemscore.Rot>
2.1136

> <Gold.Chemscore.Internal.Correction>
   9.000000E+99

> <Gold.Chemscore.Hbonds>
donor molecule, donor type, donor heavy atom, donor atom, acceptor molecule, acceptor atom, score
      P1  H  6896  6909       L1    30  0.75
      P1  H  7989  7998       L1     5  0.68
      P1  H  7997  8010       L1     1  0.85
      P1  H 11000 11005       L1    19  0.19

> <Gold.Chemscore.Hbond.Weighted>
-10.9627

> <Gold.Chemscore.Metal.Weighted>
-0.0000

> <Gold.Chemscore.Lipo.Weighted>
-11.9738

> <Gold.Chemscore.Internal_Hbond.Weighted>
0.0000

> <Gold.Chemscore.DEClash.Weighted>
0.5555

> <Gold.Chemscore.DEInternal.Weighted>
2.1641

> <Gold.Chemscore.Rot.Weighted>
5.4107

> <Gold.Chemscore.Internal.Correction.Weighted>
   9.000000E+99

> <Gold.Protein.RotatedTorsions>
[ 6907 6896 6895 6894 ] final   18.92 input  -60.11 | X-H torsion
[ 7974 7965 7964 7962 ] final  -31.19 input  175.53 | X-H torsion
[ 8008 7997 7996 7995 ] final   56.73 input   59.86 | X-H torsion
[ 10167 10162 10161 10158 ] final   33.11 input  -65.29 | X-H torsion
[ 10718 10713 10712 10709 ] final -170.00 input   66.30 | X-H torsion
[ 10763 10752 10751 10750 ] final  150.16 input  -60.55 | X-H torsion
[ 11005 11000 10999 10996 ] final -157.31 input  -57.11 | X-H torsion

> <Gold.Protein.ActiveResidues>
 VAL166  LYS551  ARG553  GLY616  TRP617  ASP618  TYR619  PRO620  LYS621  CYS622 
 ASP623  PHE694  ASN695  SER759  ASP760  ASP761  ALA762  ILE779  LEU786  VAL792 
 PHE793  MET794  SER795  GLU796  ALA797  LYS798  CYS799  TRP800  GLU811  SER814 

> <Gold.Protein.RotatedAtoms>
  151.8728  135.0483  160.0480 H   0  0  0  0  0  0  0  0  0  0  0  0  # atno 6907 bound_to 6896
  152.2575  133.5264  159.5370 H   0  0  0  0  0  0  0  0  0  0  0  0  # atno 6908 bound_to 6896
  150.7105  134.0792  159.3934 H   0  0  0  0  0  0  0  0  0  0  0  0  # atno 6909 bound_to 6896
  146.1086  140.5636  142.8788 H   0  0  0  0  0  0  0  0  0  0  0  0  # atno 7974 bound_to 7965
  155.5222  140.3480  155.4409 H   0  0  0  0  0  0  0  0  0  0  0  0  # atno 8008 bound_to 7997
  156.0776  140.1378  156.9779 H   0  0  0  0  0  0  0  0  0  0  0  0  # atno 8009 bound_to 7997
  154.4562  140.0952  156.6739 H   0  0  0  0  0  0  0  0  0  0  0  0  # atno 8010 bound_to 7997
  140.4437  144.1150  150.6178 H   0  0  0  0  0  0  0  0  0  0  0  0  # atno 10167 bound_to 10162
  156.7198  130.9266  151.3096 H   0  0  0  0  0  0  0  0  0  0  0  0  # atno 10718 bound_to 10713
  154.0830  135.2858  155.3286 H   0  0  0  0  0  0  0  0  0  0  0  0  # atno 10763 bound_to 10752
  154.6671  135.5313  153.8094 H   0  0  0  0  0  0  0  0  0  0  0  0  # atno 10764 bound_to 10752
  153.0442  135.6548  154.1004 H   0  0  0  0  0  0  0  0  0  0  0  0  # atno 10765 bound_to 10752
  140.6660  134.4298  157.5233 H   0  0  0  0  0  0  0  0  0  0  0  0  # atno 11005 bound_to 11000
  144.7492  140.5147  143.6814 LP  0  0  0  0  0  0  0  0  0  0  0  0  # atno 17320 bound_to 7965
  145.5710  139.1483  143.3288 LP  0  0  0  0  0  0  0  0  0  0  0  0  # atno 17321 bound_to 7965
  140.4288  143.2577  151.9622 LP  0  0  0  0  0  0  0  0  0  0  0  0  # atno 17342 bound_to 10162
  139.4791  144.5763  151.8006 LP  0  0  0  0  0  0  0  0  0  0  0  0  # atno 17343 bound_to 10162
  157.6902  130.9226  150.0494 LP  0  0  0  0  0  0  0  0  0  0  0  0  # atno 17370 bound_to 10713
  156.1602  130.3644  149.9310 LP  0  0  0  0  0  0  0  0  0  0  0  0  # atno 17371 bound_to 10713
  139.8997  134.8585  156.1949 LP  0  0  0  0  0  0  0  0  0  0  0  0  # atno 17394 bound_to 11000
  141.0429  133.6928  156.1630 LP  0  0  0  0  0  0  0  0  0  0  0  0  # atno 17395 bound_to 11000

$$$$
