#       Name:                AV-unprocessed.smi:2021
#       Creating user name   scv26
#       Creation time:       Fri Mar 27 10:44:01 2020


#       File generated by GOLD software.
#

@<TRIPOS>MOLECULE
AV-unprocessed.smi:2021
    48    49     1
SMALL
NO_CHARGES


@<TRIPOS>ATOM
      1 ****        -5.2797   1.0565   1.4606 C.3            1 S1                 0.0000
      2 ****        -3.7537   1.2167   1.5200 C.3            1 S1                 0.0000
      3 ****        -3.3388   2.6124   1.0272 C.3            1 S1                 0.0000
      4 ****        -3.0635   0.0956   0.7137 C.3            1 S1                 0.0000
      5 ****        -1.6015   0.0674   0.7802 N.3            1 S1                 0.0000
      6 ****        -1.1013  -0.2777   2.1091 C.3            1 S1                 0.0000
      7 ****         0.4350  -0.3419   2.1454 C.3            1 S1                 0.0000
      8 ****         0.8958  -1.2656   1.1661 O.3            1 S1                 0.0000
      9 ****         0.4848  -0.9227  -0.1554 C.3            1 S1                 0.0000
     10 ****         1.0492  -1.9676  -1.1332 C.3            1 S1                 0.0000
     11 ****         2.5081  -1.9492  -1.1640 N.am           1 S1                 0.0000
     12 ****         3.2679  -1.0749  -1.8387 C.2            1 S1                 0.0000
     13 ****         2.7363  -0.1895  -2.5127 O.2            1 S1                 0.0000
     14 ****         4.5966  -1.2788  -1.6889 N.pl3          1 S1                -1.0000
     15 ****         5.4743  -0.4662  -2.3004 C.2            1 S1                 0.0000
     16 ****         6.0526  -0.7820  -3.4704 N.2            1 S1                 0.0000
     17 ****         6.9323   0.1913  -3.9249 N.2            1 S1                 0.0000
     18 ****         7.0014   1.2175  -3.0773 C.2            1 S1                 0.0000
     19 ****         6.0000   1.0877  -1.6468 S.3            1 S1                 0.0000
     20 ****        -1.0552  -0.8753  -0.1909 C.3            1 S1                 0.0000
     21 ****        -5.6480   1.1400   0.4378 H              1 S1                 0.0000
     22 ****        -5.7793   1.8197   2.0579 H              1 S1                 0.0000
     23 ****        -5.5878   0.0844   1.8467 H              1 S1                 0.0000
     24 ****        -3.4739   1.1312   2.5694 H              1 S1                 0.0000
     25 ****        -3.5983   2.7561  -0.0219 H              1 S1                 0.0000
     26 ****        -2.2641   2.7653   1.1281 H              1 S1                 0.0000
     27 ****        -3.8335   3.3950   1.6028 H              1 S1                 0.0000
     28 ****        -3.4538  -0.8710   1.0360 H              1 S1                 0.0000
     29 ****        -3.3674   0.2027  -0.3286 H              1 S1                 0.0000
     30 ****        -1.4319   0.4563   2.8426 H              1 S1                 0.0000
     31 ****        -1.5099  -1.2402   2.4204 H              1 S1                 0.0000
     32 ****         0.8688   0.6421   1.9601 H              1 S1                 0.0000
     33 ****         0.7783  -0.6635   3.1286 H              1 S1                 0.0000
     34 ****         0.8783   0.0634  -0.4093 H              1 S1                 0.0000
     35 ****         0.7248  -2.9667  -0.8415 H              1 S1                 0.0000
     36 ****         0.6591  -1.7981  -2.1380 H              1 S1                 0.0000
     37 ****         2.9840  -2.6539  -0.6204 H              1 S1                 0.0000
     38 ****         7.6483   2.0545  -3.2939 H              1 S1                 0.0000
     39 ****        -1.4529  -1.8734   0.0001 H              1 S1                 0.0000
     40 ****        -1.3812  -0.5979  -1.1941 H              1 S1                 0.0000
     41 ****        -1.2979   0.9959   0.5664 LP             1 S1                 0.0000
     42 ****         0.5355  -2.1718   1.3874 LP             1 S1                 0.0000
     43 ****         1.8952  -1.2883   1.1938 LP             1 S1                 0.0000
     44 ****         1.7393  -0.1243  -2.5556 LP             1 S1                 0.0000
     45 ****         3.3022   0.4632  -3.0164 LP             1 S1                 0.0000
     46 ****         4.9257  -2.0346  -1.1229 LP             1 S1                 0.0000
     47 ****         5.8684  -1.6318  -3.9642 LP             1 S1                 0.0000
     48 ****         7.4483   0.1301  -4.7794 LP             1 S1                 0.0000
@<TRIPOS>BOND
    1    1    2 1     
    2    1   21 1     
    3    1   22 1     
    4    1   23 1     
    5    2    3 1     
    6    2    4 1     
    7    2   24 1     
    8    3   25 1     
    9    3   26 1     
   10    3   27 1     
   11    4    5 1     
   12    4   28 1     
   13    4   29 1     
   14    5   20 1     
   15    5    6 1     
   16    6    7 1     
   17    6   30 1     
   18    6   31 1     
   19    7    8 1     
   20    7   32 1     
   21    7   33 1     
   22    8    9 1     
   23    9   10 1     
   24    9   20 1     
   25    9   34 1     
   26   10   11 1     
   27   10   35 1     
   28   10   36 1     
   29   11   12 am    
   30   11   37 1     
   31   12   13 2     
   32   12   14 1     
   33   14   15 1     
   34   15   19 1     
   35   15   16 2     
   36   16   17 1     
   37   17   18 2     
   38   18   19 1     
   39   18   38 1     
   40   20   39 1     
   41   20   40 1     
   42    5   41 1     
   43    8   42 1     
   44    8   43 1     
   45   13   44 1     
   46   13   45 1     
   47   14   46 1     
   48   16   47 1     
   49   17   48 1     
@<TRIPOS>SUBSTRUCTURE
      1 S1             1
@<TRIPOS>SET
LONE_PAIRS      STATIC     ATOMS    <user>   **** ""
8 41 42 43 44 45 46 47 48
DONOR_HYDROGENS      STATIC     ATOMS    <user>   **** ""
1 37
ATOM$BLUE        STATIC     ATOMS    COLORGROUP SYSTEM
8 41 42 43 44 45 46 47 48
ATOM$RED        STATIC     ATOMS    COLORGROUP SYSTEM
1 37
