AV-unprocessed.smi:557|AV-procd|sdf|2921|dock5
  -GOLD-   2262023413D 1   1.00000     0.00000
 Structure written by MMmdl.
 47 49  0  0  0  0  0  0  0  0  2 V2000
  153.2019  142.8726  160.5275 C   0  0  0  0  0  0  0  0  0  0  0  0
  152.3538  142.9204  159.3555 N   0  0  0  0  0  0  0  0  0  0  0  0
  151.6581  141.8936  158.7552 C   0  0  0  0  0  0  0  0  0  0  0  0
  150.9989  142.4186  157.6794 C   0  0  0  0  0  0  0  0  0  0  0  0
  150.1062  141.7184  156.6937 C   0  0  0  0  0  0  0  0  0  0  0  0
  150.8582  140.6119  155.9427 C   0  0  0  0  0  0  0  0  0  0  0  0
  150.1103  140.1942  154.7601 N   0  0  0  0  0  0  0  0  0  0  0  0
  148.8159  139.8392  154.7031 C   0  0  0  0  0  0  0  0  0  0  0  0
  148.0964  139.8396  155.6997 O   0  0  0  0  0  0  0  0  0  0  0  0
  148.3847  139.4977  153.4765 N   0  0  0  0  0  0  0  0  0  0  0  0
  147.0331  139.0472  153.1496 C   0  0  1  0  0  0  0  0  0  0  0  0
  146.8112  138.8393  151.6394 C   0  0  0  0  0  0  0  0  0  0  0  0
  145.9606  137.5683  151.5475 C   0  0  0  0  0  0  0  0  0  0  0  0
  146.4486  136.7695  152.6774 N   0  3  2  0  0  0  0  0  0  0  0  0
  145.7013  135.5570  153.0665 C   0  0  0  0  0  0  0  0  0  0  0  0
  146.5235  134.8029  154.1342 C   0  0  0  0  0  0  0  0  0  0  0  0
  146.9300  135.7142  155.3155 C   0  0  0  0  0  0  0  0  0  0  0  0
  147.5825  137.0283  154.8330 C   0  0  0  0  0  0  0  0  0  0  0  0
  146.6550  137.6972  153.8029 C   0  0  1  0  0  0  0  0  0  0  0  0
  151.3597  143.7960  157.7109 C   0  0  0  0  0  0  0  0  0  0  0  0
  152.1715  144.0922  158.7131 N   0  0  0  0  0  0  0  0  0  0  0  0
  153.2680  141.8499  160.8999 H   0  0  0  0  0  0  0  0  0  0  0  0
  152.7863  143.5086  161.3096 H   0  0  0  0  0  0  0  0  0  0  0  0
  154.2031  143.2224  160.2743 H   0  0  0  0  0  0  0  0  0  0  0  0
  151.6894  140.8840  159.1375 H   0  0  0  0  0  0  0  0  0  0  0  0
  149.2440  141.2876  157.2043 H   0  0  0  0  0  0  0  0  0  0  0  0
  149.6990  142.4303  155.9743 H   0  0  0  0  0  0  0  0  0  0  0  0
  151.8465  140.9672  155.6465 H   0  0  0  0  0  0  0  0  0  0  0  0
  151.0023  139.7521  156.5993 H   0  0  0  0  0  0  0  0  0  0  0  0
  150.6061  140.2471  153.8817 H   0  0  0  0  0  0  0  0  0  0  0  0
  149.0478  139.5434  152.7165 H   0  0  0  0  0  0  0  0  0  0  0  0
  146.3152  139.7986  153.4854 H   0  0  0  0  0  0  0  0  0  0  0  0
  146.3349  139.6962  151.1617 H   0  0  0  0  0  0  0  0  0  0  0  0
  147.7649  138.6697  151.1367 H   0  0  0  0  0  0  0  0  0  0  0  0
  144.9036  137.8005  151.6880 H   0  0  0  0  0  0  0  0  0  0  0  0
  146.0800  137.0485  150.5965 H   0  0  0  0  0  0  0  0  0  0  0  0
  144.7165  135.8280  153.4507 H   0  0  0  0  0  0  0  0  0  0  0  0
  145.5461  134.9227  152.1932 H   0  0  0  0  0  0  0  0  0  0  0  0
  145.9617  133.9434  154.5011 H   0  0  0  0  0  0  0  0  0  0  0  0
  147.4256  134.4017  153.6702 H   0  0  0  0  0  0  0  0  0  0  0  0
  146.0438  135.9493  155.9064 H   0  0  0  0  0  0  0  0  0  0  0  0
  147.6091  135.1816  155.9820 H   0  0  0  0  0  0  0  0  0  0  0  0
  147.7523  137.6902  155.6828 H   0  0  0  0  0  0  0  0  0  0  0  0
  148.5578  136.8217  154.3896 H   0  0  0  0  0  0  0  0  0  0  0  0
  145.6855  137.8530  154.2817 H   0  0  0  0  0  0  0  0  0  0  0  0
  151.0579  144.5845  157.0372 H   0  0  0  0  0  0  0  0  0  0  0  0
  147.3695  136.4589  152.4030 H   0  0  0  0  0  0  0  0  0  0  0  0
  1  2  1  0  0  0  0
  1 22  1  0  0  0  0
  1 23  1  0  0  0  0
  1 24  1  0  0  0  0
  2 21  1  0  0  0  0
  2  3  1  0  0  0  0
  3  4  2  0  0  0  0
  3 25  1  0  0  0  0
  4  5  1  0  0  0  0
  4 20  1  0  0  0  0
  5  6  1  0  0  0  0
  5 26  1  0  0  0  0
  5 27  1  0  0  0  0
  6  7  1  0  0  0  0
  6 28  1  0  0  0  0
  6 29  1  0  0  0  0
  7  8  1  0  0  0  0
  7 30  1  0  0  0  0
  8  9  2  0  0  0  0
  8 10  1  0  0  0  0
 10 11  1  0  0  0  0
 10 31  1  0  0  0  0
 11 19  1  0  0  0  0
 11 12  1  0  0  0  0
 11 32  1  0  0  0  0
 12 13  1  0  0  0  0
 12 33  1  0  0  0  0
 12 34  1  0  0  0  0
 13 14  1  0  0  0  0
 13 35  1  0  0  0  0
 13 36  1  0  0  0  0
 14 19  1  0  0  0  0
 14 15  1  0  0  0  0
 14 47  1  0  0  0  0
 15 16  1  0  0  0  0
 15 37  1  0  0  0  0
 15 38  1  0  0  0  0
 16 17  1  0  0  0  0
 16 39  1  0  0  0  0
 16 40  1  0  0  0  0
 17 18  1  0  0  0  0
 17 41  1  0  0  0  0
 17 42  1  0  0  0  0
 18 19  1  0  0  0  0
 18 43  1  0  0  0  0
 18 44  1  0  0  0  0
 19 45  1  0  0  0  0
 20 21  2  0  0  0  0
 20 46  1  0  0  0  0
M  CHG  1  14   1
M  END
> <s_m_source_file>
AV-unprocessed.smi

> <i_m_source_file_index>
557

> <i_lp_mmshare_version>
43012

> <i_f3d_flags>
0

> <s_epik_input>
W0NIM11uMVtjSF1jKFtjSF1uMSlbQ0gyXVtDSDJdW05IXUMoPU8pW05IXVtDQEhdKFtDSDJdW0NIMl0yKVtDQEhdKE4yMylbQ0gyXVtDSDJdW0NIMl1bQ0gyXTM=

> <s_epik_cmdline>
J2VwaWtfcHl0aG9uJywgJy1waCcsICc3LjAnLCAnLXRuJywgJzgnLCAnLW1hJywgJzIwMCcsICctbWV0YWxfYmluZGluZycsICctaW1hZScsICc8aW5maWxlLm1hZT4nLCAnLW9tYWUnLCAnPG91dGZpbGUubWFlPic=

> <r_lp_tautomer_probability>
1

> <r_epik_Ionization_Penalty>
0.000956547

> <r_epik_Ionization_Penalty_Charging>
0.000435796

> <r_epik_Ionization_Penalty_Neutral>
0.000520752

> <r_epik_State_Penalty>
-0

> <r_epik_Charging_Adjusted_Penalty>
0.000435796

> <i_epik_Tot_Q>
1

> <i_epik_Tot_abs_Q>
1

> <r_epik_Metal_State_Penalty>
-0

> <b_epik_Metal_Only>
0

> <s_lp_Force_Field>
OPLS_2005

> <r_lp_Energy>
46.7552

> <b_lp_Chiralities_Consistent>
1

> <s_lp_Variant>
AV-unprocessed.smi:557-8

> <Gold.Version>
5.8.1

> <Gold.Id.Protein>
6NUR|6NUR_protein|mol2

> <Gold.PLP.Fitness>
46.8525

> <Gold.PLP.PLP>
-35.1269

> <Gold.PLP.part.hbond>
-2.0000

> <Gold.PLP.part.metal>
0.0000

> <Gold.PLP.part.buried>
-2.0881

> <Gold.PLP.part.nonpolar>
-33.8424

> <Gold.PLP.part.repulsive>
1.2595

> <Gold.PLP.ligand.clash>
0.0000

> <Gold.PLP.ligand.torsion>
0.1238

> <Gold.PLP.Chemscore.Hbond>
3.0000

> <Gold.PLP.Chemscore.CHOScore>
0.9863

> <Gold.PLP.Chemscore.Metal>
0.0000

> <Gold.Chemscore.Hbonds>
donor molecule, donor type, donor heavy atom, donor atom, acceptor molecule, acceptor atom, score
      L1  H    10    31       P1  7957  1.00
      L1  H    14    47       P1  7948  2.00
      L1  C    20    46       P1  8028  0.95

> <Gold.PLP.Chemscore.Internal.Correction>
0.0141

> <Gold.Rescore>
     Score         DG    S(hbond)    S(metal)    S(lipo)     H(rot)  DE(clash)    DE(int)     intcor
     17.42     -18.74       2.00        0.00      91.42       1.60       1.19       0.13       ----

> <Gold.Chemscore.Fitness>
17.4245

> <Gold.Chemscore.DG>
-18.7409

> <Gold.Chemscore.ZeroCoef>
-5.4800

> <Gold.Chemscore.Hbond>
1.9955

> <Gold.Chemscore.Metal>
0.0000

> <Gold.Chemscore.Lipo>
91.4242

> <Gold.Chemscore.Internal_Hbond>
0.0000

> <Gold.Chemscore.DEClash>
1.1853

> <Gold.Chemscore.DEInternal>
0.1311

> <Gold.Chemscore.Rot>
1.6018

> <Gold.Chemscore.Internal.Correction>
   9.000000E+99

> <Gold.Chemscore.Hbonds>
donor molecule, donor type, donor heavy atom, donor atom, acceptor molecule, acceptor atom, score
      L1  H    10    31       P1  7957  0.98
      L1  H    14    47       P1  7948  1.00

> <Gold.Chemscore.Hbond.Weighted>
-6.6649

> <Gold.Chemscore.Metal.Weighted>
-0.0000

> <Gold.Chemscore.Lipo.Weighted>
-10.6966

> <Gold.Chemscore.Internal_Hbond.Weighted>
0.0000

> <Gold.Chemscore.DEClash.Weighted>
1.1853

> <Gold.Chemscore.DEInternal.Weighted>
0.1311

> <Gold.Chemscore.Rot.Weighted>
4.1006

> <Gold.Chemscore.Internal.Correction.Weighted>
   9.000000E+99

> <Gold.Protein.RotatedTorsions>
[ 6907 6896 6895 6894 ] final  160.95 input  -60.11 | X-H torsion
[ 7974 7965 7964 7962 ] final   29.52 input  175.53 | X-H torsion
[ 8008 7997 7996 7995 ] final -143.69 input   59.86 | X-H torsion
[ 10167 10162 10161 10158 ] final  119.14 input  -65.29 | X-H torsion
[ 10718 10713 10712 10709 ] final  112.76 input   66.30 | X-H torsion
[ 10763 10752 10751 10750 ] final -137.78 input  -60.55 | X-H torsion
[ 11005 11000 10999 10996 ] final   24.66 input  -57.11 | X-H torsion

> <Gold.Protein.ActiveResidues>
 VAL166  LYS551  ARG553  GLY616  TRP617  ASP618  TYR619  PRO620  LYS621  CYS622 
 ASP623  PHE694  ASN695  SER759  ASP760  ASP761  ALA762  ILE779  LEU786  VAL792 
 PHE793  MET794  SER795  GLU796  ALA797  LYS798  CYS799  TRP800  GLU811  SER814 

> <Gold.Protein.RotatedAtoms>
  151.9629  133.3701  159.4041 H   0  0  0  0  0  0  0  0  0  0  0  0  # atno 6907 bound_to 6896
  150.6961  134.4221  159.5219 H   0  0  0  0  0  0  0  0  0  0  0  0  # atno 6908 bound_to 6896
  152.1913  134.8669  160.0568 H   0  0  0  0  0  0  0  0  0  0  0  0  # atno 6909 bound_to 6896
  146.1666  139.6910  142.8996 H   0  0  0  0  0  0  0  0  0  0  0  0  # atno 7974 bound_to 7965
  155.5147  140.0586  157.2917 H   0  0  0  0  0  0  0  0  0  0  0  0  # atno 8008 bound_to 7997
  154.4539  140.1963  156.0385 H   0  0  0  0  0  0  0  0  0  0  0  0  # atno 8009 bound_to 7997
  156.0760  140.3253  155.7638 H   0  0  0  0  0  0  0  0  0  0  0  0  # atno 8010 bound_to 7997
  139.6066  144.7071  151.2940 H   0  0  0  0  0  0  0  0  0  0  0  0  # atno 10167 bound_to 10162
  157.6375  131.0973  150.6942 H   0  0  0  0  0  0  0  0  0  0  0  0  # atno 10718 bound_to 10713
  154.8653  135.3632  154.5279 H   0  0  0  0  0  0  0  0  0  0  0  0  # atno 10763 bound_to 10752
  153.5906  135.7015  153.5430 H   0  0  0  0  0  0  0  0  0  0  0  0  # atno 10764 bound_to 10752
  153.3377  135.4107  155.1508 H   0  0  0  0  0  0  0  0  0  0  0  0  # atno 10765 bound_to 10752
  140.3563  134.2174  155.7675 H   0  0  0  0  0  0  0  0  0  0  0  0  # atno 11005 bound_to 11000
  145.4450  141.0425  143.2836 LP  0  0  0  0  0  0  0  0  0  0  0  0  # atno 17320 bound_to 7965
  144.8102  139.5977  143.7033 LP  0  0  0  0  0  0  0  0  0  0  0  0  # atno 17321 bound_to 7965
  140.7289  143.6923  150.7912 LP  0  0  0  0  0  0  0  0  0  0  0  0  # atno 17342 bound_to 10162
  140.0510  143.5250  152.2674 LP  0  0  0  0  0  0  0  0  0  0  0  0  # atno 17343 bound_to 10162
  156.7271  130.4698  149.5508 LP  0  0  0  0  0  0  0  0  0  0  0  0  # atno 17370 bound_to 10713
  156.1627  130.6384  151.0739 LP  0  0  0  0  0  0  0  0  0  0  0  0  # atno 17371 bound_to 10713
  141.1997  133.8004  157.0522 LP  0  0  0  0  0  0  0  0  0  0  0  0  # atno 17394 bound_to 11000
  140.0662  134.9727  157.1390 LP  0  0  0  0  0  0  0  0  0  0  0  0  # atno 17395 bound_to 11000

$$$$
