#       Name:                AV-unprocessed.smi:3326
#       Creating user name   scv26
#       Creation time:       Fri Mar 27 19:13:25 2020


#       File generated by GOLD software.
#

@<TRIPOS>MOLECULE
AV-unprocessed.smi:3326
    33    34     1
SMALL
NO_CHARGES


@<TRIPOS>ATOM
      1 ****        -2.3174  -3.9887  -0.6139 F              1 S1                 0.0000
      2 ****        -1.4704  -2.9977  -0.8952 C.3            1 S1                 0.0000
      3 ****        -0.3835  -3.1569  -0.1394 F              1 S1                 0.0000
      4 ****        -1.1249  -3.1013  -2.1786 F              1 S1                 0.0000
      5 ****        -2.0935  -1.6290  -0.6306 C.ar           1 S1                 0.0000
      6 ****        -3.4191  -1.5281  -0.1499 C.ar           1 S1                 0.0000
      7 ****        -3.9716  -0.2571   0.0912 C.ar           1 S1                 0.0000
      8 ****        -3.1746   0.8737  -0.1589 C.ar           1 S1                 0.0000
      9 ****        -1.9089   0.7957  -0.6175 N.ar           1 S1                 0.0000
     10 ****        -1.3711  -0.4266  -0.8496 C.ar           1 S1                 0.0000
     11 ****        -0.0524  -0.4826  -1.3314 N.pl3          1 S1                 0.0000
     12 ****         0.8446   0.6609  -1.2143 C.3            1 S1                 0.0000
     13 ****         1.3464   0.8598   0.2249 C.3            1 S1                 0.0000
     14 ****         2.1804   2.1239   0.4102 C.3            1 S1                 0.0000
     15 ****         2.9666   1.7857   1.6567 C.3            1 S1                 0.0000
     16 ****         3.2456   0.2957   1.4681 C.3            1 S1                 0.0000
     17 ****         2.2302  -0.1945   0.5949 O.3            1 S1                 0.0000
     18 ****        -4.0152  -2.4088   0.0366 H              1 S1                 0.0000
     19 ****        -4.9817  -0.1525   0.4587 H              1 S1                 0.0000
     20 ****        -3.5629   1.8666   0.0129 H              1 S1                 0.0000
     21 ****         0.3716  -1.3907  -1.4557 H              1 S1                 0.0000
     22 ****         1.6916   0.5032  -1.8824 H              1 S1                 0.0000
     23 ****         0.3434   1.5616  -1.5698 H              1 S1                 0.0000
     24 ****         0.5151   0.8785   0.9317 H              1 S1                 0.0000
     25 ****         2.8580   2.2661  -0.4331 H              1 S1                 0.0000
     26 ****         1.5724   3.0225   0.5178 H              1 S1                 0.0000
     27 ****         3.8743   2.3794   1.7675 H              1 S1                 0.0000
     28 ****         2.3466   1.9415   2.5407 H              1 S1                 0.0000
     29 ****         4.2145   0.1414   0.9925 H              1 S1                 0.0000
     30 ****         3.2447  -0.2430   2.4163 H              1 S1                 0.0000
     31 ****        -1.3761   1.6256  -0.7835 LP             1 S1                 0.0000
     32 ****         2.6561  -0.5721  -0.2274 LP             1 S1                 0.0000
     33 ****         1.7119  -0.9114   1.0611 LP             1 S1                 0.0000
@<TRIPOS>BOND
    1    1    2 1     
    2    2    3 1     
    3    2    4 1     
    4    2    5 1     
    5    5   10 ar    
    6    5    6 ar    
    7    6    7 ar    
    8    6   18 1     
    9    7    8 ar    
   10    7   19 1     
   11    8    9 ar    
   12    8   20 1     
   13    9   10 ar    
   14   10   11 1     
   15   11   12 1     
   16   11   21 1     
   17   12   13 1     
   18   12   22 1     
   19   12   23 1     
   20   13   17 1     
   21   13   14 1     
   22   13   24 1     
   23   14   15 1     
   24   14   25 1     
   25   14   26 1     
   26   15   16 1     
   27   15   27 1     
   28   15   28 1     
   29   16   17 1     
   30   16   29 1     
   31   16   30 1     
   32    9   31 1     
   33   17   32 1     
   34   17   33 1     
@<TRIPOS>SUBSTRUCTURE
      1 S1             1
@<TRIPOS>SET
LONE_PAIRS      STATIC     ATOMS    <user>   **** ""
3 31 32 33
DONOR_HYDROGENS      STATIC     ATOMS    <user>   **** ""
1 21
ATOM$BLUE        STATIC     ATOMS    COLORGROUP SYSTEM
3 31 32 33
ATOM$RED        STATIC     ATOMS    COLORGROUP SYSTEM
1 21
