AV-unprocessed.smi:2723|AV-procd|sdf|10506|dock2
  -GOLD-   2272014553D 1   1.00000     0.00000
 Structure written by MMmdl.
 35 36  0  0  0  0  0  0  0  0  1 V2000
  146.4477  139.0876  151.1884 C   0  0  0  0  0  0  0  0  0  0  0  0
  146.6845  138.9081  152.6918 C   0  0  0  0  0  0  0  0  0  0  0  0
  147.1441  140.2072  153.3735 C   0  0  0  0  0  0  0  0  0  0  0  0
  148.5562  140.1538  153.7323 N   0  0  0  0  0  0  0  0  0  0  0  0
  149.0335  140.1382  154.9872 C   0  0  0  0  0  0  0  0  0  0  0  0
  148.3155  140.1838  155.9860 O   0  0  0  0  0  0  0  0  0  0  0  0
  150.5538  140.0628  155.1424 C   0  0  0  0  0  0  0  0  0  0  0  0
  151.0325  141.0801  156.1383 C   0  0  0  0  0  0  0  0  0  0  0  0
  150.8408  142.4396  156.0871 C   0  0  0  0  0  0  0  0  0  0  0  0
  151.5600  143.2535  157.4490 S   0  0  0  0  0  0  0  0  0  0  0  0
  152.1143  141.6874  158.0489 C   0  0  0  0  0  0  0  0  0  0  0  0
  152.8715  141.4559  159.2357 N   0  0  0  0  0  0  0  0  0  0  0  0
  152.9811  142.4645  160.2857 C   0  0  0  0  0  0  0  0  0  0  0  0
  153.6597  141.7666  161.4693 C   0  0  0  0  0  0  0  0  0  0  0  0
  154.2555  140.4833  160.8939 C   0  0  0  0  0  0  0  0  0  0  0  0
  153.5789  140.3530  159.5391 C   0  0  0  0  0  0  0  0  0  0  0  0
  153.7081  139.3414  158.8511 O   0  0  0  0  0  0  0  0  0  0  0  0
  151.7626  140.6677  157.2583 N   0  0  0  0  0  0  0  0  0  0  0  0
  146.1265  138.1513  150.7314 H   0  0  0  0  0  0  0  0  0  0  0  0
  147.3577  139.4105  150.6818 H   0  0  0  0  0  0  0  0  0  0  0  0
  145.6746  139.8326  150.9985 H   0  0  0  0  0  0  0  0  0  0  0  0
  145.7645  138.5502  153.1556 H   0  0  0  0  0  0  0  0  0  0  0  0
  147.4312  138.1284  152.8473 H   0  0  0  0  0  0  0  0  0  0  0  0
  146.9995  141.0512  152.6988 H   0  0  0  0  0  0  0  0  0  0  0  0
  146.5392  140.4107  154.2589 H   0  0  0  0  0  0  0  0  0  0  0  0
  149.2198  140.1125  152.9722 H   0  0  0  0  0  0  0  0  0  0  0  0
  150.8302  139.0523  155.4472 H   0  0  0  0  0  0  0  0  0  0  0  0
  151.0249  140.2304  154.1731 H   0  0  0  0  0  0  0  0  0  0  0  0
  150.3164  143.0088  155.3338 H   0  0  0  0  0  0  0  0  0  0  0  0
  153.5910  143.2935  159.9237 H   0  0  0  0  0  0  0  0  0  0  0  0
  152.0040  142.8597  160.5678 H   0  0  0  0  0  0  0  0  0  0  0  0
  154.4166  142.3996  161.9336 H   0  0  0  0  0  0  0  0  0  0  0  0
  152.9208  141.5213  162.2336 H   0  0  0  0  0  0  0  0  0  0  0  0
  155.3331  140.5736  160.7526 H   0  0  0  0  0  0  0  0  0  0  0  0
  154.0563  139.6169  161.5252 H   0  0  0  0  0  0  0  0  0  0  0  0
  1  2  1  0  0  0  0
  1 19  1  0  0  0  0
  1 20  1  0  0  0  0
  1 21  1  0  0  0  0
  2  3  1  0  0  0  0
  2 22  1  0  0  0  0
  2 23  1  0  0  0  0
  3  4  1  0  0  0  0
  3 24  1  0  0  0  0
  3 25  1  0  0  0  0
  4  5  1  0  0  0  0
  4 26  1  0  0  0  0
  5  6  2  0  0  0  0
  5  7  1  0  0  0  0
  7  8  1  0  0  0  0
  7 27  1  0  0  0  0
  7 28  1  0  0  0  0
  8 18  1  0  0  0  0
  8  9  2  0  0  0  0
  9 10  1  0  0  0  0
  9 29  1  0  0  0  0
 10 11  1  0  0  0  0
 11 12  1  0  0  0  0
 11 18  2  0  0  0  0
 12 16  1  0  0  0  0
 12 13  1  0  0  0  0
 13 14  1  0  0  0  0
 13 30  1  0  0  0  0
 13 31  1  0  0  0  0
 14 15  1  0  0  0  0
 14 32  1  0  0  0  0
 14 33  1  0  0  0  0
 15 16  1  0  0  0  0
 15 34  1  0  0  0  0
 15 35  1  0  0  0  0
 16 17  2  0  0  0  0
M  END
> <s_m_source_file>
AV-unprocessed.smi

> <i_m_source_file_index>
2723

> <i_lp_mmshare_version>
43012

> <i_f3d_flags>
0

> <s_epik_input>
W0NIM11bQ0gyXVtDSDJdW05IXUMoPU8pW0NIMl1jMVtjSF1zYyhuMSlOMltDSDJdW0NIMl1bQ0gyXUMyPU8=

> <s_epik_cmdline>
J2VwaWtfcHl0aG9uJywgJy1waCcsICc3LjAnLCAnLXRuJywgJzgnLCAnLW1hJywgJzIwMCcsICctbWV0YWxfYmluZGluZycsICctaW1hZScsICc8aW5maWxlLm1hZT4nLCAnLW9tYWUnLCAnPG91dGZpbGUubWFlPic=

> <r_lp_tautomer_probability>
1

> <r_epik_Ionization_Penalty>
2.96769e-05

> <r_epik_Ionization_Penalty_Charging>
0

> <r_epik_Ionization_Penalty_Neutral>
2.96769e-05

> <r_epik_State_Penalty>
-0

> <r_epik_Charging_Adjusted_Penalty>
0

> <i_epik_Tot_Q>
0

> <i_epik_Tot_abs_Q>
0

> <r_epik_Metal_State_Penalty>
-0

> <b_epik_Metal_Only>
0

> <s_lp_Force_Field>
OPLS_2005

> <r_lp_Energy>
15.8709

> <b_lp_Chiralities_Consistent>
1

> <s_lp_Variant>
AV-unprocessed.smi:2723-1

> <Gold.Version>
5.8.1

> <Gold.Id.Protein>
6NUR|6NUR_protein|mol2

> <Gold.PLP.Fitness>
45.4504

> <Gold.PLP.PLP>
-37.6592

> <Gold.PLP.part.hbond>
-2.0000

> <Gold.PLP.part.metal>
0.0000

> <Gold.PLP.part.buried>
0.8494

> <Gold.PLP.part.nonpolar>
-36.6381

> <Gold.PLP.part.repulsive>
0.1210

> <Gold.PLP.ligand.clash>
0.0000

> <Gold.PLP.ligand.torsion>
0.6386

> <Gold.PLP.Chemscore.Hbond>
2.0000

> <Gold.PLP.Chemscore.CHOScore>
1.0000

> <Gold.PLP.Chemscore.Metal>
0.0000

> <Gold.Chemscore.Hbonds>
donor molecule, donor type, donor heavy atom, donor atom, acceptor molecule, acceptor atom, score
      L1  H     4    26       P1  7957  1.00
      P1  H  7997  8009       L1    17  0.84
      L1  C     9    29       P1  8028  0.96

> <Gold.PLP.Chemscore.Internal.Correction>
0.0684

> <Gold.Rescore>
     Score         DG    S(hbond)    S(metal)    S(lipo)     H(rot)  DE(clash)    DE(int)     intcor
     15.04     -18.43       1.94        0.00      91.40       1.64       1.53       1.86       ----

> <Gold.Chemscore.Fitness>
15.0365

> <Gold.Chemscore.DG>
-18.4269

> <Gold.Chemscore.ZeroCoef>
-5.4800

> <Gold.Chemscore.Hbond>
1.9351

> <Gold.Chemscore.Metal>
0.0000

> <Gold.Chemscore.Lipo>
91.3953

> <Gold.Chemscore.Internal_Hbond>
0.0000

> <Gold.Chemscore.DEClash>
1.5334

> <Gold.Chemscore.DEInternal>
1.8570

> <Gold.Chemscore.Rot>
1.6444

> <Gold.Chemscore.Internal.Correction>
   9.000000E+99

> <Gold.Chemscore.Hbonds>
donor molecule, donor type, donor heavy atom, donor atom, acceptor molecule, acceptor atom, score
      L1  H     4    26       P1  7957  0.95
      P1  H  7997  8009       L1    17  0.33

> <Gold.Chemscore.Hbond.Weighted>
-6.4632

> <Gold.Chemscore.Metal.Weighted>
-0.0000

> <Gold.Chemscore.Lipo.Weighted>
-10.6933

> <Gold.Chemscore.Internal_Hbond.Weighted>
0.0000

> <Gold.Chemscore.DEClash.Weighted>
1.5334

> <Gold.Chemscore.DEInternal.Weighted>
1.8570

> <Gold.Chemscore.Rot.Weighted>
4.2096

> <Gold.Chemscore.Internal.Correction.Weighted>
   9.000000E+99

> <Gold.Protein.RotatedTorsions>
[ 6907 6896 6895 6894 ] final  -36.00 input  -60.11 | X-H torsion
[ 7974 7965 7964 7962 ] final  142.88 input  175.53 | X-H torsion
[ 8008 7997 7996 7995 ] final  143.06 input   59.86 | X-H torsion
[ 10167 10162 10161 10158 ] final -115.36 input  -65.29 | X-H torsion
[ 10718 10713 10712 10709 ] final  -70.69 input   66.30 | X-H torsion
[ 10763 10752 10751 10750 ] final -146.90 input  -60.55 | X-H torsion
[ 11005 11000 10999 10996 ] final -175.52 input  -57.11 | X-H torsion

> <Gold.Protein.ActiveResidues>
 VAL166  LYS551  ARG553  GLY616  TRP617  ASP618  TYR619  PRO620  LYS621  CYS622 
 ASP623  PHE694  ASN695  SER759  ASP760  ASP761  ALA762  ILE779  LEU786  VAL792 
 PHE793  MET794  SER795  GLU796  ALA797  LYS798  CYS799  TRP800  GLU811  SER814 

> <Gold.Protein.RotatedAtoms>
  151.0327  134.9551  159.8119 H   0  0  0  0  0  0  0  0  0  0  0  0  # atno 6907 bound_to 6896
  152.5349  134.2759  159.8999 H   0  0  0  0  0  0  0  0  0  0  0  0  # atno 6908 bound_to 6896
  151.2769  133.4186  159.2658 H   0  0  0  0  0  0  0  0  0  0  0  0  # atno 6909 bound_to 6896
  144.8969  139.5478  143.5772 H   0  0  0  0  0  0  0  0  0  0  0  0  # atno 7974 bound_to 7965
  156.2938  140.2272  156.4828 H   0  0  0  0  0  0  0  0  0  0  0  0  # atno 8008 bound_to 7997
  154.7838  140.0458  157.1169 H   0  0  0  0  0  0  0  0  0  0  0  0  # atno 8009 bound_to 7997
  154.9727  140.3068  155.4984 H   0  0  0  0  0  0  0  0  0  0  0  0  # atno 8010 bound_to 7997
  140.0909  143.4700  152.1870 H   0  0  0  0  0  0  0  0  0  0  0  0  # atno 10167 bound_to 10162
  156.0396  130.4336  150.2333 H   0  0  0  0  0  0  0  0  0  0  0  0  # atno 10718 bound_to 10713
  154.8313  135.3374  154.6734 H   0  0  0  0  0  0  0  0  0  0  0  0  # atno 10763 bound_to 10752
  153.7354  135.6949  153.4984 H   0  0  0  0  0  0  0  0  0  0  0  0  # atno 10764 bound_to 10752
  153.2282  135.4425  155.0517 H   0  0  0  0  0  0  0  0  0  0  0  0  # atno 10765 bound_to 10752
  140.4623  134.6243  157.4848 H   0  0  0  0  0  0  0  0  0  0  0  0  # atno 11005 bound_to 11000
  146.3086  139.7667  142.9037 LP  0  0  0  0  0  0  0  0  0  0  0  0  # atno 17320 bound_to 7965
  145.3684  141.0338  143.3245 LP  0  0  0  0  0  0  0  0  0  0  0  0  # atno 17321 bound_to 7965
  139.5725  144.7470  151.3852 LP  0  0  0  0  0  0  0  0  0  0  0  0  # atno 17342 bound_to 10162
  140.7029  143.7587  150.7432 LP  0  0  0  0  0  0  0  0  0  0  0  0  # atno 17343 bound_to 10162
  157.0429  131.0040  151.3278 LP  0  0  0  0  0  0  0  0  0  0  0  0  # atno 17370 bound_to 10713
  157.5196  130.7990  149.7795 LP  0  0  0  0  0  0  0  0  0  0  0  0  # atno 17371 bound_to 10713
  139.9937  134.6944  155.9645 LP  0  0  0  0  0  0  0  0  0  0  0  0  # atno 17394 bound_to 11000
  141.1615  133.6538  156.4336 LP  0  0  0  0  0  0  0  0  0  0  0  0  # atno 17395 bound_to 11000

$$$$
