AV-unprocessed.smi:160|AV-procd|sdf|1370|dock1
  -GOLD-   2262019 93D 1   1.00000     0.00000
 Structure written by MMmdl.
 28 29  0  0  0  0  0  0  0  0  2 V2000
  152.0013  137.2150  154.0685 N   0  5  0  0  0  0  0  0  0  0  0  0
  152.5190  138.3357  154.6160 C   0  0  0  0  0  0  0  0  0  0  0  0
  153.7123  138.6300  154.6828 O   0  0  0  0  0  0  0  0  0  0  0  0
  151.4894  139.2837  155.1827 C   0  0  0  0  0  0  0  0  0  0  0  0
  151.3479  139.5160  156.5256 N   0  0  0  0  0  0  0  0  0  0  0  0
  150.3506  140.3880  156.4844 C   0  0  0  0  0  0  0  0  0  0  0  0
  149.8947  140.6453  155.2528 N   0  0  0  0  0  0  0  0  0  0  0  0
  148.8479  141.6052  154.7717 C   0  0  1  0  0  0  0  0  0  0  0  0
  148.5844  141.3318  153.4242 O   0  0  0  0  0  0  0  0  0  0  0  0
  147.3797  140.5862  153.2729 C   0  0  1  0  0  0  0  0  0  0  0  0
  147.6665  139.0686  153.3650 C   0  0  0  0  0  0  0  0  0  0  0  0
  147.7915  138.5280  152.0674 O   0  0  0  0  0  0  0  0  0  0  0  0
  146.5228  141.1740  154.4026 C   0  0  1  0  0  0  0  0  0  0  0  0
  145.4716  140.3182  154.8055 O   0  0  0  0  0  0  0  0  0  0  0  0
  147.5184  141.4147  155.5316 C   0  0  2  0  0  0  0  0  0  0  0  0
  147.1547  142.5749  156.2528 O   0  0  0  0  0  0  0  0  0  0  0  0
  150.6650  139.9541  154.3762 N   0  0  0  0  0  0  0  0  0  0  0  0
  149.3067  142.5876  154.8906 H   0  0  0  0  0  0  0  0  0  0  0  0
  146.9207  140.8083  152.3086 H   0  0  0  0  0  0  0  0  0  0  0  0
  146.1024  142.1215  154.0610 H   0  0  0  0  0  0  0  0  0  0  0  0
  147.5661  140.5481  156.1919 H   0  0  0  0  0  0  0  0  0  0  0  0
  151.7096  137.2424  153.0841 H   0  0  0  0  0  0  0  0  0  0  0  0
  149.9491  140.8504  157.3739 H   0  0  0  0  0  0  0  0  0  0  0  0
  148.5514  138.8398  153.9561 H   0  0  0  0  0  0  0  0  0  0  0  0
  146.8334  138.5475  153.8358 H   0  0  0  0  0  0  0  0  0  0  0  0
  148.3861  137.7945  152.1039 H   0  0  0  0  0  0  0  0  0  0  0  0
  144.8728  140.2219  154.0806 H   0  0  0  0  0  0  0  0  0  0  0  0
  147.7965  143.2476  156.0829 H   0  0  0  0  0  0  0  0  0  0  0  0
  1  2  1  0  0  0  0
  1 22  1  0  0  0  0
  2  3  2  0  0  0  0
  2  4  1  0  0  0  0
  4 17  2  0  0  0  0
  4  5  1  0  0  0  0
  5  6  2  0  0  0  0
  6  7  1  0  0  0  0
  6 23  1  0  0  0  0
  7  8  1  0  0  0  0
  7 17  1  0  0  0  0
  8 18  1  0  0  0  0
  8 15  1  0  0  0  0
  8  9  1  0  0  0  0
  9 10  1  0  0  0  0
 10 19  1  0  0  0  0
 10 11  1  0  0  0  0
 10 13  1  0  0  0  0
 11 12  1  0  0  0  0
 11 24  1  0  0  0  0
 11 25  1  0  0  0  0
 12 26  1  0  0  0  0
 13 20  1  0  0  0  0
 13 14  1  0  0  0  0
 13 15  1  0  0  0  0
 14 27  1  0  0  0  0
 15 21  1  0  0  0  0
 15 16  1  0  0  0  0
 16 28  1  0  0  0  0
M  CHG  1   1  -1
M  END
> <s_m_source_file>
AV-unprocessed.smi

> <i_m_source_file_index>
160

> <i_lp_mmshare_version>
43012

> <i_f3d_flags>
0

> <s_epik_input>
W05IMl1DKD1PKWMxbltjSF1uKG4xKVtDQEBIXTJPW0NASF0oW0NIMl1bT0hdKVtDQEBIXShbT0hdKVtDQEhdMltPSF0=

> <s_epik_cmdline>
J2VwaWtfcHl0aG9uJywgJy1waCcsICc3LjAnLCAnLXRuJywgJzgnLCAnLW1hJywgJzIwMCcsICctbWV0YWxfYmluZGluZycsICctaW1hZScsICc8aW5maWxlLm1hZT4nLCAnLW9tYWUnLCAnPG91dGZpbGUubWFlPic=

> <r_lp_tautomer_probability>
1

> <r_epik_Ionization_Penalty>
6.6993

> <r_epik_Ionization_Penalty_Charging>
6.6993

> <r_epik_Ionization_Penalty_Neutral>
6.01698e-06

> <r_epik_State_Penalty>
6.69929

> <r_epik_Charging_Adjusted_Penalty>
13.3986

> <i_epik_Tot_Q>
-1

> <i_epik_Tot_abs_Q>
1

> <r_epik_Metal_State_Penalty>
2.62798

> <b_epik_Metal_Only>
1

> <s_epik_Chemistry_Notes>
This compound contains an acetal/aminal-like group ( X-CH(R)-Y where X, Y are N, S, or O) that may be acid/base labile, releasing an aldehyde.

> <s_lp_Force_Field>
OPLS_2005

> <r_lp_Energy>
41.818

> <b_lp_Chiralities_Consistent>
1

> <s_lp_Variant>
AV-unprocessed.smi:160-28

> <Gold.Version>
5.8.1

> <Gold.Id.Protein>
6NUR|6NUR_protein|mol2

> <Gold.PLP.Fitness>
50.3071

> <Gold.PLP.PLP>
-29.4181

> <Gold.PLP.part.hbond>
-9.3936

> <Gold.PLP.part.metal>
0.0000

> <Gold.PLP.part.buried>
-1.9160

> <Gold.PLP.part.nonpolar>
-20.2465

> <Gold.PLP.part.repulsive>
2.3869

> <Gold.PLP.ligand.clash>
0.0000

> <Gold.PLP.ligand.torsion>
2.0345

> <Gold.PLP.Chemscore.Hbond>
8.2953

> <Gold.PLP.Chemscore.CHOScore>
0.0000

> <Gold.PLP.Chemscore.Metal>
0.0000

> <Gold.Chemscore.Hbonds>
donor molecule, donor type, donor heavy atom, donor atom, acceptor molecule, acceptor atom, score
      L1  H     1    22       P1  7949  0.70
      L1  H    12    26       P1  7948  1.00
      L1  H    14    27       P1 10175  1.00
      L1  H    16    28       P1  8028  0.90
      P1  H  7989  7998       L1    17  1.00
      P1  H  7997  8008       L1     3  0.83
      P1  H  8011  8017       L1     9  0.85
      P1  H 10752 10763       L1     1  2.00

> <Gold.PLP.Chemscore.Internal.Correction>
0.0722

> <Gold.Rescore>
     Score         DG    S(hbond)    S(metal)    S(lipo)     H(rot)  DE(clash)    DE(int)     intcor
     13.07     -16.21       5.50        0.00      23.17       4.04       1.00       2.14       ----

> <Gold.Chemscore.Fitness>
13.0748

> <Gold.Chemscore.DG>
-16.2118

> <Gold.Chemscore.ZeroCoef>
-5.4800

> <Gold.Chemscore.Hbond>
5.4983

> <Gold.Chemscore.Metal>
0.0000

> <Gold.Chemscore.Lipo>
23.1672

> <Gold.Chemscore.Internal_Hbond>
0.0000

> <Gold.Chemscore.DEClash>
1.0011

> <Gold.Chemscore.DEInternal>
2.1359

> <Gold.Chemscore.Rot>
4.0403

> <Gold.Chemscore.Internal.Correction>
   9.000000E+99

> <Gold.Chemscore.Hbonds>
donor molecule, donor type, donor heavy atom, donor atom, acceptor molecule, acceptor atom, score
      L1  H     1    22       P1  7949  0.67
      L1  H    12    26       P1  7948  0.99
      L1  H    14    27       P1 10175  0.95
      L1  H    16    28       P1  8028  0.18
      P1  H  7989  7998       L1    17  0.43
      P1  H  7997  8008       L1     3  0.77
      P1  H  8011  8017       L1     9  0.58
      P1  H 10752 10763       L1     1  0.27

> <Gold.Chemscore.Hbond.Weighted>
-18.3643

> <Gold.Chemscore.Metal.Weighted>
-0.0000

> <Gold.Chemscore.Lipo.Weighted>
-2.7106

> <Gold.Chemscore.Internal_Hbond.Weighted>
0.0000

> <Gold.Chemscore.DEClash.Weighted>
1.0011

> <Gold.Chemscore.DEInternal.Weighted>
2.1359

> <Gold.Chemscore.Rot.Weighted>
10.3431

> <Gold.Chemscore.Internal.Correction.Weighted>
   9.000000E+99

> <Gold.Protein.RotatedTorsions>
[ 6907 6896 6895 6894 ] final -179.46 input  -60.11 | X-H torsion
[ 7974 7965 7964 7962 ] final   69.89 input  175.53 | X-H torsion
[ 8008 7997 7996 7995 ] final   -3.91 input   59.86 | X-H torsion
[ 10167 10162 10161 10158 ] final  151.93 input  -65.29 | X-H torsion
[ 10718 10713 10712 10709 ] final  -86.54 input   66.30 | X-H torsion
[ 10763 10752 10751 10750 ] final   30.08 input  -60.55 | X-H torsion
[ 11005 11000 10999 10996 ] final   60.53 input  -57.11 | X-H torsion

> <Gold.Protein.ActiveResidues>
 VAL166  LYS551  ARG553  GLY616  TRP617  ASP618  TYR619  PRO620  LYS621  CYS622 
 ASP623  PHE694  ASN695  SER759  ASP760  ASP761  ALA762  ILE779  LEU786  VAL792 
 PHE793  MET794  SER795  GLU796  ALA797  LYS798  CYS799  TRP800  GLU811  SER814 

> <Gold.Protein.RotatedAtoms>
  151.6537  133.3320  159.3157 H   0  0  0  0  0  0  0  0  0  0  0  0  # atno 6907 bound_to 6896
  150.7947  134.7002  159.6555 H   0  0  0  0  0  0  0  0  0  0  0  0  # atno 6908 bound_to 6896
  152.4033  134.6254  160.0113 H   0  0  0  0  0  0  0  0  0  0  0  0  # atno 6909 bound_to 6896
  145.7849  139.2905  143.1244 H   0  0  0  0  0  0  0  0  0  0  0  0  # atno 7974 bound_to 7965
  154.6199  140.2497  155.7563 H   0  0  0  0  0  0  0  0  0  0  0  0  # atno 8008 bound_to 7997
  156.2420  140.2929  156.0421 H   0  0  0  0  0  0  0  0  0  0  0  0  # atno 8009 bound_to 7997
  155.1914  140.0391  157.2891 H   0  0  0  0  0  0  0  0  0  0  0  0  # atno 8010 bound_to 7997
  139.4836  144.5400  151.7581 H   0  0  0  0  0  0  0  0  0  0  0  0  # atno 10167 bound_to 10162
  155.9989  130.4768  150.4730 H   0  0  0  0  0  0  0  0  0  0  0  0  # atno 10718 bound_to 10713
  153.0392  135.6473  154.0989 H   0  0  0  0  0  0  0  0  0  0  0  0  # atno 10763 bound_to 10752
  154.0698  135.2881  155.3311 H   0  0  0  0  0  0  0  0  0  0  0  0  # atno 10764 bound_to 10752
  154.6602  135.5394  153.8073 H   0  0  0  0  0  0  0  0  0  0  0  0  # atno 10765 bound_to 10752
  140.0225  134.6131  155.9619 H   0  0  0  0  0  0  0  0  0  0  0  0  # atno 11005 bound_to 11000
  146.0037  140.8498  143.0006 LP  0  0  0  0  0  0  0  0  0  0  0  0  # atno 17320 bound_to 7965
  144.6790  140.2388  143.7346 LP  0  0  0  0  0  0  0  0  0  0  0  0  # atno 17321 bound_to 7965
  140.4938  144.1271  150.5956 LP  0  0  0  0  0  0  0  0  0  0  0  0  # atno 17342 bound_to 10162
  140.4141  143.2643  151.9797 LP  0  0  0  0  0  0  0  0  0  0  0  0  # atno 17343 bound_to 10162
  157.2743  131.0593  151.2239 LP  0  0  0  0  0  0  0  0  0  0  0  0  # atno 17370 bound_to 10713
  157.3308  130.6984  149.6323 LP  0  0  0  0  0  0  0  0  0  0  0  0  # atno 17371 bound_to 10713
  141.1783  133.6543  156.4915 LP  0  0  0  0  0  0  0  0  0  0  0  0  # atno 17394 bound_to 11000
  140.4362  134.7057  157.4968 LP  0  0  0  0  0  0  0  0  0  0  0  0  # atno 17395 bound_to 11000

$$$$
