AV-unprocessed.smi:816|AV-procd|sdf|3826|dock9
  -GOLD-   22720 1263D 1   1.00000     0.00000
 Structure written by MMmdl.
 40 41  0  0  0  0  0  0  0  0  1 V2000
  150.9218  144.6831  159.8622 C   0  0  0  0  0  0  0  0  0  0  0  0
  151.4164  143.4236  159.2035 C   0  0  0  0  0  0  0  0  0  0  0  0
  150.9824  143.1847  158.0098 N   0  0  0  0  0  0  0  0  0  0  0  0
  151.3728  142.0570  157.3146 N   0  0  0  0  0  0  0  0  0  0  0  0
  150.7717  141.9393  155.9814 C   0  0  0  0  0  0  0  0  0  0  0  0
  150.1593  140.5388  155.7525 C   0  0  2  0  0  0  0  0  0  0  0  0
  151.0077  139.7993  154.8974 O   0  0  0  0  0  0  0  0  0  0  0  0
  148.7840  140.6072  155.0714 C   0  0  0  0  0  0  0  0  0  0  0  0
  147.8363  141.1045  156.0075 O   0  0  0  0  0  0  0  0  0  0  0  0
  146.8745  141.9840  155.5600 C   0  0  0  0  0  0  0  0  0  0  0  0
  145.9740  142.4895  156.5200 C   0  0  0  0  0  0  0  0  0  0  0  0
  144.9614  143.3969  156.1531 C   0  0  0  0  0  0  0  0  0  0  0  0
  144.8376  143.8097  154.8119 C   0  0  0  0  0  0  0  0  0  0  0  0
  143.7943  144.7464  154.4289 C   0  0  0  0  0  0  0  0  0  0  0  0
  142.9637  145.4919  154.1240 N   0  0  0  0  0  0  0  0  0  0  0  0
  145.7294  143.3095  153.8426 C   0  0  0  0  0  0  0  0  0  0  0  0
  146.7416  142.4022  154.2117 C   0  0  0  0  0  0  0  0  0  0  0  0
  152.2134  141.0989  157.7974 C   0  0  0  0  0  0  0  0  0  0  0  0
  152.5153  140.0949  157.1505 O   0  0  0  0  0  0  0  0  0  0  0  0
  152.7081  141.3790  159.1473 C   0  0  0  0  0  0  0  0  0  0  0  0
  153.6009  140.4052  159.6881 C   0  0  0  0  0  0  0  0  0  0  0  0
  154.3382  139.6202  160.1127 N   0  0  0  0  0  0  0  0  0  0  0  0
  152.3401  142.4879  159.8370 C   0  0  0  0  0  0  0  0  0  0  0  0
  152.8222  142.8230  161.2419 C   0  0  0  0  0  0  0  0  0  0  0  0
  151.7435  145.3797  160.0278 H   0  0  0  0  0  0  0  0  0  0  0  0
  150.4634  144.4637  160.8264 H   0  0  0  0  0  0  0  0  0  0  0  0
  150.1738  145.1934  159.2537 H   0  0  0  0  0  0  0  0  0  0  0  0
  149.9894  142.6967  155.9005 H   0  0  0  0  0  0  0  0  0  0  0  0
  151.4801  142.1989  155.1921 H   0  0  0  0  0  0  0  0  0  0  0  0
  150.0593  139.9978  156.6948 H   0  0  0  0  0  0  0  0  0  0  0  0
  150.5469  139.0236  154.6146 H   0  0  0  0  0  0  0  0  0  0  0  0
  148.8342  141.2476  154.1888 H   0  0  0  0  0  0  0  0  0  0  0  0
  148.4806  139.6089  154.7507 H   0  0  0  0  0  0  0  0  0  0  0  0
  146.0616  142.1791  157.5511 H   0  0  0  0  0  0  0  0  0  0  0  0
  144.2836  143.7723  156.9064 H   0  0  0  0  0  0  0  0  0  0  0  0
  145.6435  143.6181  152.8105 H   0  0  0  0  0  0  0  0  0  0  0  0
  147.4037  142.0405  153.4399 H   0  0  0  0  0  0  0  0  0  0  0  0
  153.5633  142.1113  161.6048 H   0  0  0  0  0  0  0  0  0  0  0  0
  151.9869  142.8147  161.9428 H   0  0  0  0  0  0  0  0  0  0  0  0
  153.2825  143.8112  161.2657 H   0  0  0  0  0  0  0  0  0  0  0  0
  1  2  1  0  0  0  0
  1 25  1  0  0  0  0
  1 26  1  0  0  0  0
  1 27  1  0  0  0  0
  2 23  1  0  0  0  0
  2  3  2  0  0  0  0
  3  4  1  0  0  0  0
  4  5  1  0  0  0  0
  4 18  1  0  0  0  0
  5  6  1  0  0  0  0
  5 28  1  0  0  0  0
  5 29  1  0  0  0  0
  6  7  1  0  0  0  0
  6  8  1  0  0  0  0
  6 30  1  0  0  0  0
  7 31  1  0  0  0  0
  8  9  1  0  0  0  0
  8 32  1  0  0  0  0
  8 33  1  0  0  0  0
  9 10  1  0  0  0  0
 10 17  1  0  0  0  0
 10 11  2  0  0  0  0
 11 12  1  0  0  0  0
 11 34  1  0  0  0  0
 12 13  2  0  0  0  0
 12 35  1  0  0  0  0
 13 14  1  0  0  0  0
 13 16  1  0  0  0  0
 14 15  3  0  0  0  0
 16 17  2  0  0  0  0
 16 36  1  0  0  0  0
 17 37  1  0  0  0  0
 18 19  2  0  0  0  0
 18 20  1  0  0  0  0
 20 21  1  0  0  0  0
 20 23  2  0  0  0  0
 21 22  3  0  0  0  0
 23 24  1  0  0  0  0
 24 38  1  0  0  0  0
 24 39  1  0  0  0  0
 24 40  1  0  0  0  0
M  END
> <s_m_source_file>
AV-unprocessed.smi

> <i_m_source_file_index>
816

> <i_lp_mmshare_version>
43012

> <i_f3d_flags>
0

> <s_epik_input>
TiNDYyhjMVtDSDNdKWMoPU8pbihuYzFbQ0gzXSlbQ0gyXVtDQEhdKFtPSF0pW0NIMl1PYzJbY0hdW2NIXWMoQyNOKVtjSF1bY0hdMg==

> <s_epik_cmdline>
J2VwaWtfcHl0aG9uJywgJy1waCcsICc3LjAnLCAnLXRuJywgJzgnLCAnLW1hJywgJzIwMCcsICctbWV0YWxfYmluZGluZycsICctaW1hZScsICc8aW5maWxlLm1hZT4nLCAnLW9tYWUnLCAnPG91dGZpbGUubWFlPic=

> <r_lp_tautomer_probability>
1

> <r_epik_Ionization_Penalty>
1.1732e-07

> <r_epik_Ionization_Penalty_Charging>
1.4567e-10

> <r_epik_Ionization_Penalty_Neutral>
1.17174e-07

> <r_epik_State_Penalty>
-0

> <r_epik_Charging_Adjusted_Penalty>
1.4567e-10

> <i_epik_Tot_Q>
0

> <i_epik_Tot_abs_Q>
0

> <r_epik_Metal_State_Penalty>
-0

> <b_epik_Metal_Only>
0

> <s_lp_Force_Field>
OPLS_2005

> <r_lp_Energy>
30.0039

> <b_lp_Chiralities_Consistent>
1

> <s_lp_Variant>
AV-unprocessed.smi:816-1

> <Gold.Version>
5.8.1

> <Gold.Id.Protein>
6NUR|6NUR_protein|mol2

> <Gold.PLP.Fitness>
52.2384

> <Gold.PLP.PLP>
-48.3993

> <Gold.PLP.part.hbond>
-3.0000

> <Gold.PLP.part.metal>
0.0000

> <Gold.PLP.part.buried>
-9.6076

> <Gold.PLP.part.nonpolar>
-35.7345

> <Gold.PLP.part.repulsive>
0.2942

> <Gold.PLP.ligand.clash>
0.0000

> <Gold.PLP.ligand.torsion>
1.0893

> <Gold.PLP.Chemscore.Hbond>
2.0000

> <Gold.PLP.Chemscore.CHOScore>
0.0000

> <Gold.PLP.Chemscore.Metal>
0.0000

> <Gold.Chemscore.Hbonds>
donor molecule, donor type, donor heavy atom, donor atom, acceptor molecule, acceptor atom, score
      P1  H  7989  7998       L1     7  1.00
      P1  H  7997  8008       L1    19  1.00

> <Gold.PLP.Chemscore.Internal.Correction>
0.0176

> <Gold.Rescore>
     Score         DG    S(hbond)    S(metal)    S(lipo)     H(rot)  DE(clash)    DE(int)     intcor
     11.98     -16.14       1.70        0.00      99.91       2.62       0.28       3.88       ----

> <Gold.Chemscore.Fitness>
11.9772

> <Gold.Chemscore.DG>
-16.1399

> <Gold.Chemscore.ZeroCoef>
-5.4800

> <Gold.Chemscore.Hbond>
1.7015

> <Gold.Chemscore.Metal>
0.0000

> <Gold.Chemscore.Lipo>
99.9118

> <Gold.Chemscore.Internal_Hbond>
0.0000

> <Gold.Chemscore.DEClash>
0.2789

> <Gold.Chemscore.DEInternal>
3.8838

> <Gold.Chemscore.Rot>
2.6222

> <Gold.Chemscore.Internal.Correction>
   9.000000E+99

> <Gold.Chemscore.Hbonds>
donor molecule, donor type, donor heavy atom, donor atom, acceptor molecule, acceptor atom, score
      P1  H  7989  7998       L1     7  0.69
      P1  H  7997  8008       L1    19  0.80

> <Gold.Chemscore.Hbond.Weighted>
-5.6829

> <Gold.Chemscore.Metal.Weighted>
-0.0000

> <Gold.Chemscore.Lipo.Weighted>
-11.6897

> <Gold.Chemscore.Internal_Hbond.Weighted>
0.0000

> <Gold.Chemscore.DEClash.Weighted>
0.2789

> <Gold.Chemscore.DEInternal.Weighted>
3.8838

> <Gold.Chemscore.Rot.Weighted>
6.7127

> <Gold.Chemscore.Internal.Correction.Weighted>
   9.000000E+99

> <Gold.Protein.RotatedTorsions>
[ 6907 6896 6895 6894 ] final -114.90 input  -60.11 | X-H torsion
[ 7974 7965 7964 7962 ] final -177.24 input  175.53 | X-H torsion
[ 8008 7997 7996 7995 ] final  -57.39 input   59.86 | X-H torsion
[ 10167 10162 10161 10158 ] final  -42.60 input  -65.29 | X-H torsion
[ 10718 10713 10712 10709 ] final  132.17 input   66.30 | X-H torsion
[ 10763 10752 10751 10750 ] final   97.24 input  -60.55 | X-H torsion
[ 11005 11000 10999 10996 ] final   -6.31 input  -57.11 | X-H torsion

> <Gold.Protein.ActiveResidues>
 VAL166  LYS551  ARG553  GLY616  TRP617  ASP618  TYR619  PRO620  LYS621  CYS622 
 ASP623  PHE694  ASN695  SER759  ASP760  ASP761  ALA762  ILE779  LEU786  VAL792 
 PHE793  MET794  SER795  GLU796  ALA797  LYS798  CYS799  TRP800  GLU811  SER814 

> <Gold.Protein.RotatedAtoms>
  150.7937  133.8735  159.3265 H   0  0  0  0  0  0  0  0  0  0  0  0  # atno 6907 bound_to 6896
  151.6566  135.0993  160.0181 H   0  0  0  0  0  0  0  0  0  0  0  0  # atno 6908 bound_to 6896
  152.4015  133.6786  159.6355 H   0  0  0  0  0  0  0  0  0  0  0  0  # atno 6909 bound_to 6896
  144.7127  140.1049  143.6414 H   0  0  0  0  0  0  0  0  0  0  0  0  # atno 7974 bound_to 7965
  154.4266  140.1108  156.5790 H   0  0  0  0  0  0  0  0  0  0  0  0  # atno 8008 bound_to 7997
  155.6132  140.3494  155.4610 H   0  0  0  0  0  0  0  0  0  0  0  0  # atno 8009 bound_to 7997
  156.0083  140.1213  157.0469 H   0  0  0  0  0  0  0  0  0  0  0  0  # atno 8010 bound_to 7997
  140.6963  143.3029  151.3232 H   0  0  0  0  0  0  0  0  0  0  0  0  # atno 10167 bound_to 10162
  157.4897  131.1090  150.9572 H   0  0  0  0  0  0  0  0  0  0  0  0  # atno 10718 bound_to 10713
  153.2745  135.4190  155.1019 H   0  0  0  0  0  0  0  0  0  0  0  0  # atno 10763 bound_to 10752
  154.8468  135.3480  154.6198 H   0  0  0  0  0  0  0  0  0  0  0  0  # atno 10764 bound_to 10752
  153.6618  135.7048  153.5232 H   0  0  0  0  0  0  0  0  0  0  0  0  # atno 10765 bound_to 10752
  140.7006  133.8993  155.8680 H   0  0  0  0  0  0  0  0  0  0  0  0  # atno 11005 bound_to 11000
  145.9506  139.2731  143.1215 LP  0  0  0  0  0  0  0  0  0  0  0  0  # atno 17320 bound_to 7965
  145.9327  140.9036  143.0348 LP  0  0  0  0  0  0  0  0  0  0  0  0  # atno 17321 bound_to 7965
  139.6423  144.0515  152.2564 LP  0  0  0  0  0  0  0  0  0  0  0  0  # atno 17342 bound_to 10162
  140.0025  144.6283  150.7717 LP  0  0  0  0  0  0  0  0  0  0  0  0  # atno 17343 bound_to 10162
  157.0278  130.5699  149.5339 LP  0  0  0  0  0  0  0  0  0  0  0  0  # atno 17370 bound_to 10713
  156.0167  130.5261  150.8154 LP  0  0  0  0  0  0  0  0  0  0  0  0  # atno 17371 bound_to 10713
  141.0167  134.0946  157.4165 LP  0  0  0  0  0  0  0  0  0  0  0  0  # atno 17394 bound_to 11000
  139.8898  135.0107  156.6698 LP  0  0  0  0  0  0  0  0  0  0  0  0  # atno 17395 bound_to 11000

$$$$
