#       Name:                AV-unprocessed.smi:36
#       Creating user name   scv26
#       Creation time:       Thu Mar 26 16:06:59 2020


#       File generated by GOLD software.
#

@<TRIPOS>MOLECULE
AV-unprocessed.smi:36
    73    76     1
SMALL
NO_CHARGES


@<TRIPOS>ATOM
      1 ****        -3.6604   2.6725   3.0885 C.3            1 S1                 0.0000
      2 ****        -3.1358   2.9186   1.6642 C.3            1 S1                 0.0000
      3 ****        -2.7809   1.5749   1.0044 C.3            1 S1                 0.0000
      4 ****        -4.2035   3.6464   0.8309 C.3            1 S1                 0.0000
      5 ****        -1.5598   3.9933   1.7570 Si             1 S1                 0.0000
      6 ****        -0.8559   4.3145   0.0190 C.3            1 S1                 0.0000
      7 ****        -1.9051   5.6507   2.6175 C.3            1 S1                 0.0000
      8 ****        -0.4246   3.1491   2.6886 O.3            1 S1                 0.0000
      9 ****         0.9707   3.3686   2.6503 C.3            1 S1                 0.0000
     10 ****         1.6068   2.3786   1.6658 C.3            1 S1                 0.0000
     11 ****         1.5741   1.0661   2.2146 O.3            1 S1                 0.0000
     12 ****         2.5873   0.2906   1.6467 C.3            1 S1                 0.0000
     13 ****         1.9675  -0.6877   0.6991 N.pl3          1 S1                 0.0000
     14 ****         0.8158  -0.5615   0.0100 C.2            1 S1                 0.0000
     15 ****         0.5035  -1.5923  -0.7715 N.2            1 S1                 0.0000
     16 ****         1.5647  -2.4664  -0.5605 C.2            1 S1                 0.0000
     17 ****         1.8300  -3.8056  -1.1296 C.2            1 S1                 0.0000
     18 ****         0.9660  -4.2849  -1.9724 N.2            1 S1                 0.0000
     19 ****         1.1539  -5.5461  -2.5238 C.2            1 S1                 0.0000
     20 ****         2.0583  -6.3571  -2.3051 O.2            1 S1                 0.0000
     21 ****         0.1420  -5.8921  -3.5687 C.ar           1 S1                 0.0000
     22 ****        -1.2036  -6.1195  -3.2082 C.ar           1 S1                 0.0000
     23 ****        -2.1552  -6.4413  -4.1957 C.ar           1 S1                 0.0000
     24 ****        -1.7656  -6.5376  -5.5455 C.ar           1 S1                 0.0000
     25 ****        -0.4241  -6.3112  -5.9087 C.ar           1 S1                 0.0000
     26 ****         0.5284  -5.9881  -4.9227 C.ar           1 S1                 0.0000
     27 ****         3.0305  -4.3117  -0.6141 N.pl3          1 S1                 0.0000
     28 ****         3.8737  -3.6604   0.2997 C.2            1 S1                 0.0000
     29 ****         3.6534  -2.4771   0.8074 N.2            1 S1                 0.0000
     30 ****         2.4685  -1.9326   0.3326 C.2            1 S1                 0.0000
     31 ****         3.5194   1.2420   0.8859 C.3            1 S1                 0.0000
     32 ****         3.0994   2.5963   1.4254 C.3            1 S1                 0.0000
     33 ****         3.3485   3.6164   0.4803 O.3            1 S1                 0.0000
     34 ****        -4.5515   2.0439   3.0800 H              1 S1                 0.0000
     35 ****        -3.9237   3.6075   3.5833 H              1 S1                 0.0000
     36 ****        -2.9119   2.1737   3.7049 H              1 S1                 0.0000
     37 ****        -2.0036   1.0526   1.5633 H              1 S1                 0.0000
     38 ****        -2.4147   1.7139  -0.0130 H              1 S1                 0.0000
     39 ****        -3.6485   0.9166   0.9527 H              1 S1                 0.0000
     40 ****        -5.1165   3.0552   0.7542 H              1 S1                 0.0000
     41 ****        -3.8525   3.8405  -0.1830 H              1 S1                 0.0000
     42 ****        -4.4695   4.6050   1.2768 H              1 S1                 0.0000
     43 ****        -1.5460   4.9007  -0.5871 H              1 S1                 0.0000
     44 ****        -0.6656   3.3865  -0.5190 H              1 S1                 0.0000
     45 ****         0.0834   4.8650   0.0609 H              1 S1                 0.0000
     46 ****        -2.6574   6.2303   2.0834 H              1 S1                 0.0000
     47 ****        -1.0057   6.2632   2.6777 H              1 S1                 0.0000
     48 ****        -2.2669   5.5060   3.6351 H              1 S1                 0.0000
     49 ****         1.1680   4.3959   2.3429 H              1 S1                 0.0000
     50 ****         1.3873   3.2461   3.6503 H              1 S1                 0.0000
     51 ****         1.0772   2.3780   0.7131 H              1 S1                 0.0000
     52 ****         3.0826  -0.3119   2.4087 H              1 S1                 0.0000
     53 ****         0.1819   0.3097   0.0811 H              1 S1                 0.0000
     54 ****        -1.5115  -6.0457  -2.1751 H              1 S1                 0.0000
     55 ****        -3.1844  -6.6136  -3.9175 H              1 S1                 0.0000
     56 ****        -2.4956  -6.7843  -6.3022 H              1 S1                 0.0000
     57 ****        -0.1254  -6.3854  -6.9439 H              1 S1                 0.0000
     58 ****         1.5555  -5.8150  -5.2101 H              1 S1                 0.0000
     59 ****         4.7627  -4.2329   0.5683 H              1 S1                 0.0000
     60 ****         4.5662   1.0028   1.0751 H              1 S1                 0.0000
     61 ****         3.3286   1.1705  -0.1870 H              1 S1                 0.0000
     62 ****         3.6165   2.8088   2.3622 H              1 S1                 0.0000
     63 ****         3.0394   4.4364   0.8339 H              1 S1                 0.0000
     64 ****         3.3153  -5.2267  -0.9324 H              1 S1                 0.0000
     65 ****         0.6870   0.6472   2.0206 LP             1 S1                 0.0000
     66 ****         1.7096   1.1165   3.2041 LP             1 S1                 0.0000
     67 ****        -0.2946  -1.7092  -1.3626 LP             1 S1                 0.0000
     68 ****         0.1633  -3.7447  -2.2251 LP             1 S1                 0.0000
     69 ****         2.7830  -6.1341  -1.6531 LP             1 S1                 0.0000
     70 ****         2.0663  -7.2371  -2.7799 LP             1 S1                 0.0000
     71 ****         4.2621  -2.0209   1.4566 LP             1 S1                 0.0000
     72 ****         2.8647   3.4127  -0.3708 LP             1 S1                 0.0000
     73 ****         4.3302   3.6760   0.2996 LP             1 S1                 0.0000
@<TRIPOS>BOND
    1    1    2 1     
    2    1   34 1     
    3    1   35 1     
    4    1   36 1     
    5    2    3 1     
    6    2    4 1     
    7    2    5 1     
    8    3   37 1     
    9    3   38 1     
   10    3   39 1     
   11    4   40 1     
   12    4   41 1     
   13    4   42 1     
   14    5    6 1     
   15    5    7 1     
   16    5    8 1     
   17    6   43 1     
   18    6   44 1     
   19    6   45 1     
   20    7   46 1     
   21    7   47 1     
   22    7   48 1     
   23    8    9 1     
   24    9   10 1     
   25    9   49 1     
   26    9   50 1     
   27   10   32 1     
   28   10   11 1     
   29   10   51 1     
   30   11   12 1     
   31   12   13 1     
   32   12   31 1     
   33   12   52 1     
   34   13   30 1     
   35   13   14 1     
   36   14   15 2     
   37   14   53 1     
   38   15   16 1     
   39   16   30 2     
   40   16   17 1     
   41   17   18 2     
   42   17   27 1     
   43   18   19 1     
   44   19   20 2     
   45   19   21 1     
   46   21   26 ar    
   47   21   22 ar    
   48   22   23 ar    
   49   22   54 1     
   50   23   24 ar    
   51   23   55 1     
   52   24   25 ar    
   53   24   56 1     
   54   25   26 ar    
   55   25   57 1     
   56   26   58 1     
   57   27   28 1     
   58   27   64 1     
   59   28   29 2     
   60   28   59 1     
   61   29   30 1     
   62   31   32 1     
   63   31   60 1     
   64   31   61 1     
   65   32   33 1     
   66   32   62 1     
   67   33   63 1     
   68   11   65 1     
   69   11   66 1     
   70   15   67 1     
   71   18   68 1     
   72   20   69 1     
   73   20   70 1     
   74   29   71 1     
   75   33   72 1     
   76   33   73 1     
@<TRIPOS>SUBSTRUCTURE
      1 S1             1
@<TRIPOS>SET
LONE_PAIRS      STATIC     ATOMS    <user>   **** ""
9 65 66 67 68 69 70 71 72 73
DONOR_HYDROGENS      STATIC     ATOMS    <user>   **** ""
2 64 63
ATOM$BLUE        STATIC     ATOMS    COLORGROUP SYSTEM
9 65 66 67 68 69 70 71 72 73
ATOM$RED        STATIC     ATOMS    COLORGROUP SYSTEM
2 64 63
