AV-unprocessed.smi:1283|AV-procd|sdf|5361|dock5
  -GOLD-   22720 4503D 1   1.00000     0.00000
 Structure written by MMmdl.
 30 31  0  0  0  0  0  0  0  0  1 V2000
  151.9150  137.9527  155.2726 C   0  0  0  0  0  0  0  0  0  0  0  0
  151.5217  139.3180  155.6185 N   0  0  0  0  0  0  0  0  0  0  0  0
  152.3593  139.9464  156.5157 N   0  0  0  0  0  0  0  0  0  0  0  0
  152.1004  141.1533  156.8852 C   0  0  0  0  0  0  0  0  0  0  0  0
  150.9466  141.8966  156.4004 C   0  0  0  0  0  0  0  0  0  0  0  0
  150.6649  143.1980  156.7977 N   0  0  0  0  0  0  0  0  0  0  0  0
  151.4014  144.0511  157.7185 C   0  0  0  0  0  0  0  0  0  0  0  0
  151.4591  143.4313  159.1205 C   0  0  2  0  0  0  0  0  0  0  0  0
  151.7076  144.4486  160.2328 C   0  0  0  0  0  0  0  0  0  0  0  0
  152.3699  143.6279  161.3296 C   0  0  0  0  0  0  0  0  0  0  0  0
  152.7658  142.3230  160.6328 C   0  0  0  0  0  0  0  0  0  0  0  0
  152.5837  142.5759  159.2472 O   0  0  0  0  0  0  0  0  0  0  0  0
  150.1439  141.2539  155.5091 C   0  0  0  0  0  0  0  0  0  0  0  0
  148.7463  142.0464  154.8611 Cl  0  0  0  0  0  0  0  0  0  0  0  0
  150.4091  139.8783  155.0630 C   0  0  0  0  0  0  0  0  0  0  0  0
  149.6988  139.2722  154.2598 O   0  0  0  0  0  0  0  0  0  0  0  0
  152.1187  137.8711  154.2040 H   0  0  0  0  0  0  0  0  0  0  0  0
  151.1214  137.2480  155.5247 H   0  0  0  0  0  0  0  0  0  0  0  0
  152.8145  137.6374  155.8041 H   0  0  0  0  0  0  0  0  0  0  0  0
  152.7521  141.6755  157.5841 H   0  0  0  0  0  0  0  0  0  0  0  0
  149.7432  143.5409  156.5660 H   0  0  0  0  0  0  0  0  0  0  0  0
  152.4153  144.2377  157.3666 H   0  0  0  0  0  0  0  0  0  0  0  0
  150.8949  145.0157  157.7601 H   0  0  0  0  0  0  0  0  0  0  0  0
  150.5480  142.8678  159.3322 H   0  0  0  0  0  0  0  0  0  0  0  0
  152.3977  145.2210  159.8904 H   0  0  0  0  0  0  0  0  0  0  0  0
  150.7924  144.9399  160.5637 H   0  0  0  0  0  0  0  0  0  0  0  0
  153.2396  144.1491  161.7312 H   0  0  0  0  0  0  0  0  0  0  0  0
  151.6851  143.4320  162.1553 H   0  0  0  0  0  0  0  0  0  0  0  0
  153.7926  142.0266  160.8476 H   0  0  0  0  0  0  0  0  0  0  0  0
  152.1059  141.5096  160.9378 H   0  0  0  0  0  0  0  0  0  0  0  0
  1  2  1  0  0  0  0
  1 17  1  0  0  0  0
  1 18  1  0  0  0  0
  1 19  1  0  0  0  0
  2 15  1  0  0  0  0
  2  3  1  0  0  0  0
  3  4  2  0  0  0  0
  4  5  1  0  0  0  0
  4 20  1  0  0  0  0
  5  6  1  0  0  0  0
  5 13  2  0  0  0  0
  6  7  1  0  0  0  0
  6 21  1  0  0  0  0
  7  8  1  0  0  0  0
  7 22  1  0  0  0  0
  7 23  1  0  0  0  0
  8 12  1  0  0  0  0
  8  9  1  0  0  0  0
  8 24  1  0  0  0  0
  9 10  1  0  0  0  0
  9 25  1  0  0  0  0
  9 26  1  0  0  0  0
 10 11  1  0  0  0  0
 10 27  1  0  0  0  0
 10 28  1  0  0  0  0
 11 12  1  0  0  0  0
 11 29  1  0  0  0  0
 11 30  1  0  0  0  0
 13 14  1  0  0  0  0
 13 15  1  0  0  0  0
 15 16  2  0  0  0  0
M  END
> <s_m_source_file>
AV-unprocessed.smi

> <i_m_source_file_index>
1283

> <i_lp_mmshare_version>
43012

> <i_f3d_flags>
0

> <s_epik_input>
W0NIM11uMW5bY0hdYyhjKENsKWMxPU8pW05IXVtDSDJdW0NAQEhdMltDSDJdW0NIMl1bQ0gyXU8y

> <s_epik_cmdline>
J2VwaWtfcHl0aG9uJywgJy1waCcsICc3LjAnLCAnLXRuJywgJzgnLCAnLW1hJywgJzIwMCcsICctbWV0YWxfYmluZGluZycsICctaW1hZScsICc8aW5maWxlLm1hZT4nLCAnLW9tYWUnLCAnPG91dGZpbGUubWFlPic=

> <r_lp_tautomer_probability>
1

> <r_epik_Ionization_Penalty>
2.40876e-05

> <r_epik_Ionization_Penalty_Charging>
4.17655e-09

> <r_epik_Ionization_Penalty_Neutral>
2.40834e-05

> <r_epik_State_Penalty>
-0

> <r_epik_Charging_Adjusted_Penalty>
4.17655e-09

> <i_epik_Tot_Q>
0

> <i_epik_Tot_abs_Q>
0

> <r_epik_Metal_State_Penalty>
-0

> <b_epik_Metal_Only>
0

> <s_lp_Force_Field>
OPLS_2005

> <r_lp_Energy>
38.2243

> <b_lp_Chiralities_Consistent>
1

> <s_lp_Variant>
AV-unprocessed.smi:1283-1

> <Gold.Version>
5.8.1

> <Gold.Id.Protein>
6NUR|6NUR_protein|mol2

> <Gold.PLP.Fitness>
38.0261

> <Gold.PLP.PLP>
-33.5050

> <Gold.PLP.part.hbond>
-2.0000

> <Gold.PLP.part.metal>
0.0000

> <Gold.PLP.part.buried>
-1.7572

> <Gold.PLP.part.nonpolar>
-28.9635

> <Gold.PLP.part.repulsive>
0.2155

> <Gold.PLP.ligand.clash>
0.0000

> <Gold.PLP.ligand.torsion>
0.2878

> <Gold.PLP.Chemscore.Hbond>
1.6960

> <Gold.PLP.Chemscore.CHOScore>
0.0000

> <Gold.PLP.Chemscore.Metal>
0.0000

> <Gold.Chemscore.Hbonds>
donor molecule, donor type, donor heavy atom, donor atom, acceptor molecule, acceptor atom, score
      L1  H     6    21       P1  8028  0.88
      P1  H  7997  8009       L1     3  0.90

> <Gold.PLP.Chemscore.Internal.Correction>
0.0088

> <Gold.Rescore>
     Score         DG    S(hbond)    S(metal)    S(lipo)     H(rot)  DE(clash)    DE(int)     intcor
     14.34     -16.82       0.98        0.00      95.62       1.22       1.06       1.42       ----

> <Gold.Chemscore.Fitness>
14.3407

> <Gold.Chemscore.DG>
-16.8213

> <Gold.Chemscore.ZeroCoef>
-5.4800

> <Gold.Chemscore.Hbond>
0.9816

> <Gold.Chemscore.Metal>
0.0000

> <Gold.Chemscore.Lipo>
95.6238

> <Gold.Chemscore.Internal_Hbond>
0.0000

> <Gold.Chemscore.DEClash>
1.0564

> <Gold.Chemscore.DEInternal>
1.4242

> <Gold.Chemscore.Rot>
1.2208

> <Gold.Chemscore.Internal.Correction>
   9.000000E+99

> <Gold.Chemscore.Hbonds>
donor molecule, donor type, donor heavy atom, donor atom, acceptor molecule, acceptor atom, score
      L1  H     6    21       P1  8028  0.86
      P1  H  7997  8009       L1     3  0.17

> <Gold.Chemscore.Hbond.Weighted>
-3.2786

> <Gold.Chemscore.Metal.Weighted>
-0.0000

> <Gold.Chemscore.Lipo.Weighted>
-11.1880

> <Gold.Chemscore.Internal_Hbond.Weighted>
0.0000

> <Gold.Chemscore.DEClash.Weighted>
1.0564

> <Gold.Chemscore.DEInternal.Weighted>
1.4242

> <Gold.Chemscore.Rot.Weighted>
3.1253

> <Gold.Chemscore.Internal.Correction.Weighted>
   9.000000E+99

> <Gold.Protein.RotatedTorsions>
[ 6907 6896 6895 6894 ] final   33.20 input  -60.11 | X-H torsion
[ 7974 7965 7964 7962 ] final  141.12 input  175.53 | X-H torsion
[ 8008 7997 7996 7995 ] final -164.15 input   59.86 | X-H torsion
[ 10167 10162 10161 10158 ] final  160.03 input  -65.29 | X-H torsion
[ 10718 10713 10712 10709 ] final   77.49 input   66.30 | X-H torsion
[ 10763 10752 10751 10750 ] final   23.17 input  -60.55 | X-H torsion
[ 11005 11000 10999 10996 ] final   47.56 input  -57.11 | X-H torsion

> <Gold.Protein.ActiveResidues>
 VAL166  LYS551  ARG553  GLY616  TRP617  ASP618  TYR619  PRO620  LYS621  CYS622 
 ASP623  PHE694  ASN695  SER759  ASP760  ASP761  ALA762  ILE779  LEU786  VAL792 
 PHE793  MET794  SER795  GLU796  ALA797  LYS798  CYS799  TRP800  GLU811  SER814 

> <Gold.Protein.RotatedAtoms>
  152.0852  134.9444  160.0572 H   0  0  0  0  0  0  0  0  0  0  0  0  # atno 6907 bound_to 6896
  152.0717  133.4105  159.4470 H   0  0  0  0  0  0  0  0  0  0  0  0  # atno 6908 bound_to 6896
  150.6836  134.3003  159.4747 H   0  0  0  0  0  0  0  0  0  0  0  0  # atno 6909 bound_to 6896
  144.9124  139.5275  143.5702 H   0  0  0  0  0  0  0  0  0  0  0  0  # atno 7974 bound_to 7965
  155.8315  140.0934  157.1789 H   0  0  0  0  0  0  0  0  0  0  0  0  # atno 8008 bound_to 7997
  154.3980  140.1418  156.3680 H   0  0  0  0  0  0  0  0  0  0  0  0  # atno 8009 bound_to 7997
  155.8161  140.3448  155.5488 H   0  0  0  0  0  0  0  0  0  0  0  0  # atno 8010 bound_to 7997
  139.4837  144.4673  151.8624 H   0  0  0  0  0  0  0  0  0  0  0  0  # atno 10167 bound_to 10162
  157.6712  130.9824  150.1648 H   0  0  0  0  0  0  0  0  0  0  0  0  # atno 10718 bound_to 10713
  153.0859  135.6632  153.9951 H   0  0  0  0  0  0  0  0  0  0  0  0  # atno 10763 bound_to 10752
  153.9561  135.2979  155.3437 H   0  0  0  0  0  0  0  0  0  0  0  0  # atno 10764 bound_to 10752
  154.7266  135.5141  153.8969 H   0  0  0  0  0  0  0  0  0  0  0  0  # atno 10765 bound_to 10752
  140.1268  134.4757  155.8553 H   0  0  0  0  0  0  0  0  0  0  0  0  # atno 11005 bound_to 11000
  146.3165  139.7941  142.8979 LP  0  0  0  0  0  0  0  0  0  0  0  0  # atno 17320 bound_to 7965
  145.3431  141.0292  143.3381 LP  0  0  0  0  0  0  0  0  0  0  0  0  # atno 17321 bound_to 7965
  140.4139  144.2332  150.5888 LP  0  0  0  0  0  0  0  0  0  0  0  0  # atno 17342 bound_to 10162
  140.4939  143.2338  151.8778 LP  0  0  0  0  0  0  0  0  0  0  0  0  # atno 17343 bound_to 10162
  156.2416  130.3691  149.8331 LP  0  0  0  0  0  0  0  0  0  0  0  0  # atno 17370 bound_to 10713
  156.6129  130.8594  151.3458 LP  0  0  0  0  0  0  0  0  0  0  0  0  # atno 17371 bound_to 10713
  141.2163  133.6781  156.6993 LP  0  0  0  0  0  0  0  0  0  0  0  0  # atno 17394 bound_to 11000
  140.2893  134.8253  157.4003 LP  0  0  0  0  0  0  0  0  0  0  0  0  # atno 17395 bound_to 11000

$$$$
