AV-unprocessed.smi:35|AV-procd|sdf|251|dock4
  -GOLD-   2262016 13D 1   1.00000     0.00000
 Structure written by MMmdl.
 29 30  0  0  0  0  0  0  0  0  1 V2000
  149.6771  135.8279  158.2504 O   0  0  0  0  0  0  0  0  0  0  0  0
  148.9149  136.3415  157.4346 C   0  0  0  0  0  0  0  0  0  0  0  0
  148.0178  137.3351  157.8346 N   0  0  0  0  0  0  0  0  0  0  0  0
  147.1116  137.9925  157.0005 C   0  0  0  0  0  0  0  0  0  0  0  0
  146.3492  138.8381  157.4674 O   0  0  0  0  0  0  0  0  0  0  0  0
  147.1163  137.6442  155.6301 N   0  0  0  0  0  0  0  0  0  0  0  0
  146.1189  138.3315  154.7120 C   0  0  2  0  0  0  0  0  0  0  0  0
  145.2796  137.3843  154.1252 O   0  0  0  0  0  0  0  0  0  0  0  0
  145.8126  136.9952  152.8662 C   0  0  1  0  0  0  0  0  0  0  0  0
  144.7177  136.3347  152.0165 C   0  0  0  0  0  0  0  0  0  0  0  0
  145.1297  136.2702  150.6680 O   0  0  0  0  0  0  0  0  0  0  0  0
  146.3046  138.3313  152.3087 C   0  0  2  0  0  0  0  0  0  0  0  0
  147.3425  138.1215  151.3719 O   0  0  0  0  0  0  0  0  0  0  0  0
  146.8310  139.0569  153.5454 C   0  0  1  0  0  0  0  0  0  0  0  0
  146.4886  140.4270  153.4918 O   0  0  0  0  0  0  0  0  0  0  0  0
  147.9679  136.6329  155.1954 C   0  0  0  0  0  0  0  0  0  0  0  0
  148.8365  136.0004  156.0190 C   0  0  0  0  0  0  0  0  0  0  0  0
  149.9650  134.5916  155.2021 Br  0  0  0  0  0  0  0  0  0  0  0  0
  148.0206  137.5941  158.8106 H   0  0  0  0  0  0  0  0  0  0  0  0
  145.5375  138.9816  155.3692 H   0  0  0  0  0  0  0  0  0  0  0  0
  146.6595  136.3206  153.0087 H   0  0  0  0  0  0  0  0  0  0  0  0
  144.4721  135.3394  152.3879 H   0  0  0  0  0  0  0  0  0  0  0  0
  143.8048  136.9297  152.0522 H   0  0  0  0  0  0  0  0  0  0  0  0
  144.8436  137.0565  150.2287 H   0  0  0  0  0  0  0  0  0  0  0  0
  145.4779  138.8780  151.8514 H   0  0  0  0  0  0  0  0  0  0  0  0
  147.8565  137.3813  151.6571 H   0  0  0  0  0  0  0  0  0  0  0  0
  147.9131  138.9474  153.6361 H   0  0  0  0  0  0  0  0  0  0  0  0
  145.6371  140.5054  153.0887 H   0  0  0  0  0  0  0  0  0  0  0  0
  147.9547  136.3126  154.1649 H   0  0  0  0  0  0  0  0  0  0  0  0
  1  2  2  0  0  0  0
  2 17  1  0  0  0  0
  2  3  1  0  0  0  0
  3 19  1  0  0  0  0
  3  4  1  0  0  0  0
  4  5  2  0  0  0  0
  4  6  1  0  0  0  0
  6  7  1  0  0  0  0
  6 16  1  0  0  0  0
  7 14  1  0  0  0  0
  7  8  1  0  0  0  0
  7 20  1  0  0  0  0
  8  9  1  0  0  0  0
  9 10  1  0  0  0  0
  9 12  1  0  0  0  0
  9 21  1  0  0  0  0
 10 11  1  0  0  0  0
 10 22  1  0  0  0  0
 10 23  1  0  0  0  0
 11 24  1  0  0  0  0
 12 13  1  0  0  0  0
 12 14  1  0  0  0  0
 12 25  1  0  0  0  0
 13 26  1  0  0  0  0
 14 15  1  0  0  0  0
 14 27  1  0  0  0  0
 15 28  1  0  0  0  0
 16 17  2  0  0  0  0
 16 29  1  0  0  0  0
 17 18  1  0  0  0  0
M  END
> <s_m_source_file>
AV-unprocessed.smi

> <i_m_source_file_index>
35

> <i_lp_mmshare_version>
43012

> <i_f3d_flags>
0

> <s_epik_input>
Tz1jMVtuSF1jKD1PKW4oW2NIXWMxQnIpW0NAQEhdMk9bQ0BASF0oW0NIMl1bT0hdKVtDQEBIXShbT0hdKVtDQEhdMltPSF0=

> <s_epik_cmdline>
J2VwaWtfcHl0aG9uJywgJy1waCcsICc3LjAnLCAnLXRuJywgJzgnLCAnLW1hJywgJzIwMCcsICctbWV0YWxfYmluZGluZycsICctaW1hZScsICc8aW5maWxlLm1hZT4nLCAnLW9tYWUnLCAnPG91dGZpbGUubWFlPic=

> <r_lp_tautomer_probability>
0.999537

> <r_epik_Ionization_Penalty>
0.10812

> <r_epik_Ionization_Penalty_Charging>
0.108119

> <r_epik_Ionization_Penalty_Neutral>
4.93006e-07

> <r_epik_State_Penalty>
0.0979238

> <r_epik_Charging_Adjusted_Penalty>
0.206043

> <i_epik_Tot_Q>
0

> <i_epik_Tot_abs_Q>
0

> <r_epik_Metal_State_Penalty>
3.07911

> <b_epik_Metal_Only>
0

> <s_epik_Chemistry_Notes>
This compound contains an acetal/aminal-like group ( X-CH(R)-Y where X, Y are N, S, or O) that may be acid/base labile, releasing an aldehyde.

> <s_lp_Force_Field>
OPLS_2005

> <r_lp_Energy>
25.602

> <b_lp_Chiralities_Consistent>
1

> <s_lp_Variant>
AV-unprocessed.smi:35-5

> <Gold.Version>
5.8.1

> <Gold.Id.Protein>
6NUR|6NUR_protein|mol2

> <Gold.PLP.Fitness>
33.8808

> <Gold.PLP.PLP>
-18.4759

> <Gold.PLP.part.hbond>
-5.7323

> <Gold.PLP.part.metal>
0.0000

> <Gold.PLP.part.buried>
-4.7495

> <Gold.PLP.part.nonpolar>
-9.8447

> <Gold.PLP.part.repulsive>
0.1544

> <Gold.PLP.ligand.clash>
0.0000

> <Gold.PLP.ligand.torsion>
0.0911

> <Gold.PLP.Chemscore.Hbond>
4.1838

> <Gold.PLP.Chemscore.CHOScore>
1.0000

> <Gold.PLP.Chemscore.Metal>
0.0000

> <Gold.Chemscore.Hbonds>
donor molecule, donor type, donor heavy atom, donor atom, acceptor molecule, acceptor atom, score
      L1  H    11    24       P1 10171  1.00
      L1  H    13    26       P1  7948  1.00
      L1  H    15    28       P1 10175  0.96
      P1  H  6896  6908       L1     1  0.96
      P1  H  7954  7966       L1    13  0.15
      L1  C    16    29       P1  7948  1.00

> <Gold.PLP.Chemscore.Internal.Correction>
0.0359

> <Gold.Rescore>
     Score         DG    S(hbond)    S(metal)    S(lipo)     H(rot)  DE(clash)    DE(int)     intcor
     12.76     -12.86       3.92        0.00      31.38       3.67       0.01       0.09       ----

> <Gold.Chemscore.Fitness>
12.7570

> <Gold.Chemscore.DG>
-12.8630

> <Gold.Chemscore.ZeroCoef>
-5.4800

> <Gold.Chemscore.Hbond>
3.9244

> <Gold.Chemscore.Metal>
0.0000

> <Gold.Chemscore.Lipo>
31.3752

> <Gold.Chemscore.Internal_Hbond>
0.0000

> <Gold.Chemscore.DEClash>
0.0126

> <Gold.Chemscore.DEInternal>
0.0934

> <Gold.Chemscore.Rot>
3.6701

> <Gold.Chemscore.Internal.Correction>
   9.000000E+99

> <Gold.Chemscore.Hbonds>
donor molecule, donor type, donor heavy atom, donor atom, acceptor molecule, acceptor atom, score
      L1  H    11    24       P1 10171  1.00
      L1  H    13    26       P1  7948  0.97
      L1  H    15    28       P1 10175  0.80
      P1  H  6896  6908       L1     1  0.90

> <Gold.Chemscore.Hbond.Weighted>
-13.1076

> <Gold.Chemscore.Metal.Weighted>
-0.0000

> <Gold.Chemscore.Lipo.Weighted>
-3.6709

> <Gold.Chemscore.Internal_Hbond.Weighted>
0.0000

> <Gold.Chemscore.DEClash.Weighted>
0.0126

> <Gold.Chemscore.DEInternal.Weighted>
0.0934

> <Gold.Chemscore.Rot.Weighted>
9.3955

> <Gold.Chemscore.Internal.Correction.Weighted>
   9.000000E+99

> <Gold.Protein.RotatedTorsions>
[ 6907 6896 6895 6894 ] final  177.44 input  -60.11 | X-H torsion
[ 7974 7965 7964 7962 ] final   48.66 input  175.53 | X-H torsion
[ 8008 7997 7996 7995 ] final  -45.61 input   59.86 | X-H torsion
[ 10167 10162 10161 10158 ] final  137.20 input  -65.29 | X-H torsion
[ 10718 10713 10712 10709 ] final   14.42 input   66.30 | X-H torsion
[ 10763 10752 10751 10750 ] final   71.71 input  -60.55 | X-H torsion
[ 11005 11000 10999 10996 ] final   28.63 input  -57.11 | X-H torsion

> <Gold.Protein.ActiveResidues>
 VAL166  LYS551  ARG553  GLY616  TRP617  ASP618  TYR619  PRO620  LYS621  CYS622 
 ASP623  PHE694  ASN695  SER759  ASP760  ASP761  ALA762  ILE779  LEU786  VAL792 
 PHE793  MET794  SER795  GLU796  ALA797  LYS798  CYS799  TRP800  GLU811  SER814 

> <Gold.Protein.RotatedAtoms>
  151.7040  133.3311  159.3273 H   0  0  0  0  0  0  0  0  0  0  0  0  # atno 6907 bound_to 6896
  150.7723  134.6590  159.6339 H   0  0  0  0  0  0  0  0  0  0  0  0  # atno 6908 bound_to 6896
  152.3752  134.6677  160.0214 H   0  0  0  0  0  0  0  0  0  0  0  0  # atno 6909 bound_to 6896
  146.0183  139.4622  142.9913 H   0  0  0  0  0  0  0  0  0  0  0  0  # atno 7974 bound_to 7965
  154.4002  140.1392  156.3875 H   0  0  0  0  0  0  0  0  0  0  0  0  # atno 8008 bound_to 7997
  155.7946  140.3478  155.5348 H   0  0  0  0  0  0  0  0  0  0  0  0  # atno 8009 bound_to 7997
  155.8545  140.0946  157.1644 H   0  0  0  0  0  0  0  0  0  0  0  0  # atno 8010 bound_to 7997
  139.5153  144.6423  151.5535 H   0  0  0  0  0  0  0  0  0  0  0  0  # atno 10167 bound_to 10162
  157.0388  130.6223  149.5747 H   0  0  0  0  0  0  0  0  0  0  0  0  # atno 10718 bound_to 10713
  153.0415  135.5127  154.7635 H   0  0  0  0  0  0  0  0  0  0  0  0  # atno 10763 bound_to 10752
  154.6568  135.2933  154.9919 H   0  0  0  0  0  0  0  0  0  0  0  0  # atno 10764 bound_to 10752
  154.0784  135.6667  153.4887 H   0  0  0  0  0  0  0  0  0  0  0  0  # atno 10765 bound_to 10752
  140.3135  134.2623  155.7730 H   0  0  0  0  0  0  0  0  0  0  0  0  # atno 11005 bound_to 11000
  145.7233  141.0067  143.1391 LP  0  0  0  0  0  0  0  0  0  0  0  0  # atno 17320 bound_to 7965
  144.6980  139.8897  143.7452 LP  0  0  0  0  0  0  0  0  0  0  0  0  # atno 17321 bound_to 7965
  140.6194  143.9286  150.6514 LP  0  0  0  0  0  0  0  0  0  0  0  0  # atno 17342 bound_to 10162
  140.2555  143.3562  152.1369 LP  0  0  0  0  0  0  0  0  0  0  0  0  # atno 17343 bound_to 10162
  156.0045  130.5129  150.7781 LP  0  0  0  0  0  0  0  0  0  0  0  0  # atno 17370 bound_to 10713
  157.5120  131.0926  151.0186 LP  0  0  0  0  0  0  0  0  0  0  0  0  # atno 17371 bound_to 10713
  141.2103  133.7724  156.9942 LP  0  0  0  0  0  0  0  0  0  0  0  0  # atno 17394 bound_to 11000
  140.1004  134.9539  157.1914 LP  0  0  0  0  0  0  0  0  0  0  0  0  # atno 17395 bound_to 11000

$$$$
