AV-unprocessed.smi:1554|AV-procd|sdf|6249|dock5
  -GOLD-   22720 6433D 1   1.00000     0.00000
 Structure written by MMmdl.
 48 50  0  0  0  0  0  0  0  0  2 V2000
  152.8414  143.2098  161.7117 C   0  0  0  0  0  0  0  0  0  0  0  0
  152.3130  142.8777  160.3273 C   0  0  0  0  0  0  0  0  0  0  0  0
  152.2677  141.5268  159.9150 C   0  0  0  0  0  0  0  0  0  0  0  0
  151.7875  141.1759  158.6344 C   0  0  0  0  0  0  0  0  0  0  0  0
  151.6575  139.9374  158.0296 N   0  0  0  0  0  0  0  0  0  0  0  0
  151.1563  140.2684  156.8432 C   0  0  0  0  0  0  0  0  0  0  0  0
  150.9513  141.5785  156.6053 N   0  0  0  0  0  0  0  0  0  0  0  0
  150.4247  142.1817  155.3946 C   0  0  0  0  0  0  0  0  0  0  0  0
  149.4087  141.2683  154.6831 C   0  0  1  0  0  0  0  0  0  0  0  0
  150.1026  140.2238  154.0282 O   0  0  0  0  0  0  0  0  0  0  0  0
  148.3993  140.6532  155.6724 C   0  0  0  0  0  0  0  0  0  0  0  0
  147.0603  140.4314  155.0619 N   0  3  1  0  0  0  0  0  0  0  0  0
  145.9788  140.2365  156.0582 C   0  0  0  0  0  0  0  0  0  0  0  0
  145.5338  141.5794  156.6647 C   0  0  0  0  0  0  0  0  0  0  0  0
  145.1181  142.4537  155.6225 O   0  0  0  0  0  0  0  0  0  0  0  0
  146.1680  142.7507  154.7081 C   0  0  2  0  0  0  0  0  0  0  0  0
  145.6333  143.7473  153.6738 C   0  0  0  0  0  0  0  0  0  0  0  0
  146.6557  141.4414  154.0493 C   0  0  0  0  0  0  0  0  0  0  0  0
  151.3510  142.2226  157.7707 C   0  0  0  0  0  0  0  0  0  0  0  0
  151.3883  143.5703  158.1701 C   0  0  0  0  0  0  0  0  0  0  0  0
  151.8706  143.9031  159.4531 C   0  0  0  0  0  0  0  0  0  0  0  0
  151.9094  145.3615  159.8744 C   0  0  0  0  0  0  0  0  0  0  0  0
  153.1497  142.3111  162.2467 H   0  0  0  0  0  0  0  0  0  0  0  0
  152.0732  143.7052  162.3057 H   0  0  0  0  0  0  0  0  0  0  0  0
  153.7058  143.8703  161.6414 H   0  0  0  0  0  0  0  0  0  0  0  0
  152.6036  140.7458  160.5812 H   0  0  0  0  0  0  0  0  0  0  0  0
  150.9306  139.5156  156.1018 H   0  0  0  0  0  0  0  0  0  0  0  0
  149.9706  143.1413  155.6468 H   0  0  0  0  0  0  0  0  0  0  0  0
  151.2653  142.3978  154.7338 H   0  0  0  0  0  0  0  0  0  0  0  0
  148.8891  141.8554  153.9271 H   0  0  0  0  0  0  0  0  0  0  0  0
  149.6751  140.0506  153.2025 H   0  0  0  0  0  0  0  0  0  0  0  0
  148.8018  139.7017  156.0240 H   0  0  0  0  0  0  0  0  0  0  0  0
  148.3061  141.2833  156.5567 H   0  0  0  0  0  0  0  0  0  0  0  0
  145.1299  139.7698  155.5564 H   0  0  0  0  0  0  0  0  0  0  0  0
  146.2911  139.5408  156.8379 H   0  0  0  0  0  0  0  0  0  0  0  0
  144.6974  141.4234  157.3463 H   0  0  0  0  0  0  0  0  0  0  0  0
  146.3349  142.0372  157.2469 H   0  0  0  0  0  0  0  0  0  0  0  0
  146.9857  143.2302  155.2475 H   0  0  0  0  0  0  0  0  0  0  0  0
  146.4077  144.0220  152.9573 H   0  0  0  0  0  0  0  0  0  0  0  0
  145.2882  144.6625  154.1555 H   0  0  0  0  0  0  0  0  0  0  0  0
  144.7949  143.3288  153.1162 H   0  0  0  0  0  0  0  0  0  0  0  0
  147.4627  141.6442  153.3469 H   0  0  0  0  0  0  0  0  0  0  0  0
  145.8453  141.0124  153.4582 H   0  0  0  0  0  0  0  0  0  0  0  0
  151.0495  144.3412  157.4942 H   0  0  0  0  0  0  0  0  0  0  0  0
  151.4773  146.0080  159.1100 H   0  0  0  0  0  0  0  0  0  0  0  0
  152.9378  145.6816  160.0430 H   0  0  0  0  0  0  0  0  0  0  0  0
  151.3444  145.5110  160.7946 H   0  0  0  0  0  0  0  0  0  0  0  0
  147.1461  139.5510  154.5736 H   0  0  0  0  0  0  0  0  0  0  0  0
  1  2  1  0  0  0  0
  1 23  1  0  0  0  0
  1 24  1  0  0  0  0
  1 25  1  0  0  0  0
  2 21  1  0  0  0  0
  2  3  2  0  0  0  0
  3  4  1  0  0  0  0
  3 26  1  0  0  0  0
  4 19  2  0  0  0  0
  4  5  1  0  0  0  0
  5  6  2  0  0  0  0
  6  7  1  0  0  0  0
  6 27  1  0  0  0  0
  7  8  1  0  0  0  0
  7 19  1  0  0  0  0
  8  9  1  0  0  0  0
  8 28  1  0  0  0  0
  8 29  1  0  0  0  0
  9 10  1  0  0  0  0
  9 11  1  0  0  0  0
  9 30  1  0  0  0  0
 10 31  1  0  0  0  0
 11 12  1  0  0  0  0
 11 32  1  0  0  0  0
 11 33  1  0  0  0  0
 12 18  1  0  0  0  0
 12 13  1  0  0  0  0
 12 48  1  0  0  0  0
 13 14  1  0  0  0  0
 13 34  1  0  0  0  0
 13 35  1  0  0  0  0
 14 15  1  0  0  0  0
 14 36  1  0  0  0  0
 14 37  1  0  0  0  0
 15 16  1  0  0  0  0
 16 17  1  0  0  0  0
 16 18  1  0  0  0  0
 16 38  1  0  0  0  0
 17 39  1  0  0  0  0
 17 40  1  0  0  0  0
 17 41  1  0  0  0  0
 18 42  1  0  0  0  0
 18 43  1  0  0  0  0
 19 20  1  0  0  0  0
 20 21  2  0  0  0  0
 20 44  1  0  0  0  0
 21 22  1  0  0  0  0
 22 45  1  0  0  0  0
 22 46  1  0  0  0  0
 22 47  1  0  0  0  0
M  CHG  1  12   1
M  END
> <s_m_source_file>
AV-unprocessed.smi

> <i_m_source_file_index>
1554

> <i_lp_mmshare_version>
43012

> <i_f3d_flags>
0

> <s_epik_input>
W0NIM11jKFtjSF0xKWMoW0NIM10pW2NIXWMoYzEyKW4oW2NIXW4yKVtDSDJdW0NASF0oW09IXSlbQ0gyXU4zW0NIMl1bQ0gyXU9bQ0BASF0oW0NIM10pW0NIMl0z

> <s_epik_cmdline>
J2VwaWtfcHl0aG9uJywgJy1waCcsICc3LjAnLCAnLXRuJywgJzgnLCAnLW1hJywgJzIwMCcsICctbWV0YWxfYmluZGluZycsICctaW1hZScsICc8aW5maWxlLm1hZT4nLCAnLW9tYWUnLCAnPG91dGZpbGUubWFlPic=

> <r_epik_Ionization_Penalty>
0.695251

> <r_epik_Ionization_Penalty_Charging>
0.608065

> <r_epik_Ionization_Penalty_Neutral>
0.0871863

> <r_epik_State_Penalty>
0.731955

> <r_epik_Charging_Adjusted_Penalty>
1.34002

> <i_epik_Tot_Q>
1

> <i_epik_Tot_abs_Q>
1

> <r_epik_Metal_State_Penalty>
0.652186

> <b_epik_Metal_Only>
0

> <s_lp_Force_Field>
OPLS_2005

> <r_lp_Energy>
22.2934

> <b_lp_Chiralities_Consistent>
1

> <s_lp_Variant>
AV-unprocessed.smi:1554-10

> <Gold.Version>
5.8.1

> <Gold.Id.Protein>
6NUR|6NUR_protein|mol2

> <Gold.PLP.Fitness>
48.3098

> <Gold.PLP.PLP>
-44.8046

> <Gold.PLP.part.hbond>
-2.0000

> <Gold.PLP.part.metal>
0.0000

> <Gold.PLP.part.buried>
-4.3170

> <Gold.PLP.part.nonpolar>
-38.4757

> <Gold.PLP.part.repulsive>
0.1367

> <Gold.PLP.ligand.clash>
0.0000

> <Gold.PLP.ligand.torsion>
1.1037

> <Gold.PLP.Chemscore.Hbond>
1.8713

> <Gold.PLP.Chemscore.CHOScore>
0.0000

> <Gold.PLP.Chemscore.Metal>
0.0000

> <Gold.Chemscore.Hbonds>
donor molecule, donor type, donor heavy atom, donor atom, acceptor molecule, acceptor atom, score
      L1  H    10    31       P1  7957  0.98
      P1  H  7989  7998       L1    10  0.88

> <Gold.PLP.Chemscore.Internal.Correction>
0.0987

> <Gold.Rescore>
     Score         DG    S(hbond)    S(metal)    S(lipo)     H(rot)  DE(clash)    DE(int)     intcor
     14.78     -19.04       1.25        0.00     125.11       2.05       1.78       2.47       ----

> <Gold.Chemscore.Fitness>
14.7841

> <Gold.Chemscore.DG>
-19.0373

> <Gold.Chemscore.ZeroCoef>
-5.4800

> <Gold.Chemscore.Hbond>
1.2514

> <Gold.Chemscore.Metal>
0.0000

> <Gold.Chemscore.Lipo>
125.1060

> <Gold.Chemscore.Internal_Hbond>
0.0000

> <Gold.Chemscore.DEClash>
1.7796

> <Gold.Chemscore.DEInternal>
2.4737

> <Gold.Chemscore.Rot>
2.0546

> <Gold.Chemscore.Internal.Correction>
   9.000000E+99

> <Gold.Chemscore.Hbonds>
donor molecule, donor type, donor heavy atom, donor atom, acceptor molecule, acceptor atom, score
      L1  H    10    31       P1  7957  0.88
      P1  H  7989  7998       L1    10  0.13

> <Gold.Chemscore.Hbond.Weighted>
-4.1796

> <Gold.Chemscore.Metal.Weighted>
-0.0000

> <Gold.Chemscore.Lipo.Weighted>
-14.6374

> <Gold.Chemscore.Internal_Hbond.Weighted>
0.0000

> <Gold.Chemscore.DEClash.Weighted>
1.7796

> <Gold.Chemscore.DEInternal.Weighted>
2.4737

> <Gold.Chemscore.Rot.Weighted>
5.2597

> <Gold.Chemscore.Internal.Correction.Weighted>
   9.000000E+99

> <Gold.Protein.RotatedTorsions>
[ 6907 6896 6895 6894 ] final -130.44 input  -60.11 | X-H torsion
[ 7974 7965 7964 7962 ] final   36.53 input  175.53 | X-H torsion
[ 8008 7997 7996 7995 ] final -176.07 input   59.86 | X-H torsion
[ 10167 10162 10161 10158 ] final  109.94 input  -65.29 | X-H torsion
[ 10718 10713 10712 10709 ] final  -57.16 input   66.30 | X-H torsion
[ 10763 10752 10751 10750 ] final  147.23 input  -60.55 | X-H torsion
[ 11005 11000 10999 10996 ] final  146.59 input  -57.11 | X-H torsion

> <Gold.Protein.ActiveResidues>
 VAL166  LYS551  ARG553  GLY616  TRP617  ASP618  TYR619  PRO620  LYS621  CYS622 
 ASP623  PHE694  ASN695  SER759  ASP760  ASP761  ALA762  ILE779  LEU786  VAL792 
 PHE793  MET794  SER795  GLU796  ALA797  LYS798  CYS799  TRP800  GLU811  SER814 

> <Gold.Protein.RotatedAtoms>
  150.9397  133.6670  159.2793 H   0  0  0  0  0  0  0  0  0  0  0  0  # atno 6907 bound_to 6896
  151.4064  135.0977  159.9581 H   0  0  0  0  0  0  0  0  0  0  0  0  # atno 6908 bound_to 6896
  152.5064  133.8880  159.7434 H   0  0  0  0  0  0  0  0  0  0  0  0  # atno 6909 bound_to 6896
  146.1204  139.6006  142.9293 H   0  0  0  0  0  0  0  0  0  0  0  0  # atno 7974 bound_to 7965
  155.9904  140.1200  157.0644 H   0  0  0  0  0  0  0  0  0  0  0  0  # atno 8008 bound_to 7997
  154.4210  140.1127  156.5626 H   0  0  0  0  0  0  0  0  0  0  0  0  # atno 8009 bound_to 7997
  155.6351  140.3473  155.4698 H   0  0  0  0  0  0  0  0  0  0  0  0  # atno 8010 bound_to 7997
  139.6727  144.7124  151.1658 H   0  0  0  0  0  0  0  0  0  0  0  0  # atno 10167 bound_to 10162
  156.1232  130.4164  150.0402 H   0  0  0  0  0  0  0  0  0  0  0  0  # atno 10718 bound_to 10713
  154.0349  135.2894  155.3363 H   0  0  0  0  0  0  0  0  0  0  0  0  # atno 10763 bound_to 10752
  154.6965  135.5206  153.8468 H   0  0  0  0  0  0  0  0  0  0  0  0  # atno 10764 bound_to 10752
  153.0624  135.6618  154.0559 H   0  0  0  0  0  0  0  0  0  0  0  0  # atno 10765 bound_to 10752
  140.0806  134.9099  157.1494 H   0  0  0  0  0  0  0  0  0  0  0  0  # atno 11005 bound_to 11000
  145.5477  141.0416  143.2295 LP  0  0  0  0  0  0  0  0  0  0  0  0  # atno 17320 bound_to 7965
  144.7592  139.6998  143.7241 LP  0  0  0  0  0  0  0  0  0  0  0  0  # atno 17321 bound_to 7965
  140.7624  143.5819  150.8886 LP  0  0  0  0  0  0  0  0  0  0  0  0  # atno 17342 bound_to 10162
  139.9485  143.6299  152.3035 LP  0  0  0  0  0  0  0  0  0  0  0  0  # atno 17343 bound_to 10162
  156.8335  130.9400  151.3636 LP  0  0  0  0  0  0  0  0  0  0  0  0  # atno 17370 bound_to 10713
  157.6415  130.8809  149.9457 LP  0  0  0  0  0  0  0  0  0  0  0  0  # atno 17371 bound_to 10713
  140.3493  134.2616  155.7200 LP  0  0  0  0  0  0  0  0  0  0  0  0  # atno 17394 bound_to 11000
  141.2045  133.7884  157.0282 LP  0  0  0  0  0  0  0  0  0  0  0  0  # atno 17395 bound_to 11000

$$$$
