AV-unprocessed.smi:2194|AV-procd|sdf|8902|dock2
  -GOLD-   2272012113D 1   1.00000     0.00000
 Structure written by MMmdl.
 45 47  0  0  0  0  0  0  0  0  1 V2000
  152.9420  142.4670  161.5751 C   0  0  0  0  0  0  0  0  0  0  0  0
  152.3440  142.4307  160.1838 C   0  0  0  0  0  0  0  0  0  0  0  0
  152.1475  143.6223  159.4577 C   0  0  0  0  0  0  0  0  0  0  0  0
  151.5905  143.5775  158.1651 C   0  0  0  0  0  0  0  0  0  0  0  0
  151.2242  142.3492  157.5776 C   0  0  0  0  0  0  0  0  0  0  0  0
  150.6879  142.3979  156.3091 O   0  0  0  0  0  0  0  0  0  0  0  0
  150.3666  141.1715  155.6642 C   0  0  0  0  0  0  0  0  0  0  0  0
  149.2158  141.3881  154.6678 C   0  0  2  0  0  0  0  0  0  0  0  0
  148.2984  142.3170  155.2112 O   0  0  0  0  0  0  0  0  0  0  0  0
  148.5245  140.0814  154.2271 C   0  0  0  0  0  0  0  0  0  0  0  0
  149.2825  138.8976  154.6041 N   0  0  0  0  0  0  0  0  0  0  0  0
  150.3728  138.4193  153.9708 C   0  0  0  0  0  0  0  0  0  0  0  0
  150.9018  137.3114  154.4911 N   0  0  0  0  0  0  0  0  0  0  0  0
  150.0577  137.0660  155.5682 C   0  0  0  0  0  0  0  0  0  0  0  0
  149.0827  138.0026  155.6547 C   0  0  0  0  0  0  0  0  0  0  0  0
  148.0515  137.9820  156.6963 C   0  0  0  0  0  0  0  0  0  0  0  0
  147.1707  138.8416  156.7484 O   0  0  0  0  0  0  0  0  0  0  0  0
  148.1674  136.9376  157.5745 N   0  0  0  0  0  0  0  0  0  0  0  0
  147.1491  136.8880  158.6412 C   0  0  0  0  0  0  0  0  0  0  0  0
  149.1467  135.9580  157.5275 C   0  0  0  0  0  0  0  0  0  0  0  0
  149.1822  135.0481  158.3593 O   0  0  0  0  0  0  0  0  0  0  0  0
  150.0855  136.0214  156.5254 N   0  0  0  0  0  0  0  0  0  0  0  0
  151.1520  135.0238  156.3931 C   0  0  0  0  0  0  0  0  0  0  0  0
  151.4239  141.1543  158.3143 C   0  0  0  0  0  0  0  0  0  0  0  0
  151.9794  141.1981  159.6078 C   0  0  0  0  0  0  0  0  0  0  0  0
  153.2271  143.4803  161.8599 H   0  0  0  0  0  0  0  0  0  0  0  0
  153.8316  141.8381  161.6206 H   0  0  0  0  0  0  0  0  0  0  0  0
  152.2217  142.0973  162.3053 H   0  0  0  0  0  0  0  0  0  0  0  0
  152.4229  144.5743  159.8870 H   0  0  0  0  0  0  0  0  0  0  0  0
  151.4449  144.4969  157.6170 H   0  0  0  0  0  0  0  0  0  0  0  0
  151.2369  140.7564  155.1525 H   0  0  0  0  0  0  0  0  0  0  0  0
  150.0468  140.4477  156.4157 H   0  0  0  0  0  0  0  0  0  0  0  0
  149.6344  141.8685  153.7826 H   0  0  0  0  0  0  0  0  0  0  0  0
  148.6863  143.1780  155.1779 H   0  0  0  0  0  0  0  0  0  0  0  0
  147.5406  140.0137  154.6931 H   0  0  0  0  0  0  0  0  0  0  0  0
  148.3445  140.0685  153.1533 H   0  0  0  0  0  0  0  0  0  0  0  0
  150.7900  138.8981  153.0969 H   0  0  0  0  0  0  0  0  0  0  0  0
  147.2379  136.0464  159.3283 H   0  0  0  0  0  0  0  0  0  0  0  0
  146.1483  136.8278  158.2100 H   0  0  0  0  0  0  0  0  0  0  0  0
  147.1955  137.7912  159.2520 H   0  0  0  0  0  0  0  0  0  0  0  0
  151.1482  134.2531  157.1642 H   0  0  0  0  0  0  0  0  0  0  0  0
  152.1258  135.5132  156.4315 H   0  0  0  0  0  0  0  0  0  0  0  0
  151.0698  134.5193  155.4299 H   0  0  0  0  0  0  0  0  0  0  0  0
  151.1579  140.1897  157.9101 H   0  0  0  0  0  0  0  0  0  0  0  0
  152.1256  140.2802  160.1578 H   0  0  0  0  0  0  0  0  0  0  0  0
  1  2  1  0  0  0  0
  1 26  1  0  0  0  0
  1 27  1  0  0  0  0
  1 28  1  0  0  0  0
  2 25  1  0  0  0  0
  2  3  2  0  0  0  0
  3  4  1  0  0  0  0
  3 29  1  0  0  0  0
  4  5  2  0  0  0  0
  4 30  1  0  0  0  0
  5  6  1  0  0  0  0
  5 24  1  0  0  0  0
  6  7  1  0  0  0  0
  7  8  1  0  0  0  0
  7 31  1  0  0  0  0
  7 32  1  0  0  0  0
  8  9  1  0  0  0  0
  8 10  1  0  0  0  0
  8 33  1  0  0  0  0
  9 34  1  0  0  0  0
 10 11  1  0  0  0  0
 10 35  1  0  0  0  0
 10 36  1  0  0  0  0
 11 15  1  0  0  0  0
 11 12  1  0  0  0  0
 12 13  2  0  0  0  0
 12 37  1  0  0  0  0
 13 14  1  0  0  0  0
 14 22  1  0  0  0  0
 14 15  2  0  0  0  0
 15 16  1  0  0  0  0
 16 17  2  0  0  0  0
 16 18  1  0  0  0  0
 18 19  1  0  0  0  0
 18 20  1  0  0  0  0
 19 38  1  0  0  0  0
 19 39  1  0  0  0  0
 19 40  1  0  0  0  0
 20 21  2  0  0  0  0
 20 22  1  0  0  0  0
 22 23  1  0  0  0  0
 23 41  1  0  0  0  0
 23 42  1  0  0  0  0
 23 43  1  0  0  0  0
 24 25  2  0  0  0  0
 24 44  1  0  0  0  0
 25 45  1  0  0  0  0
M  END
> <s_m_source_file>
AV-unprocessed.smi

> <i_m_source_file_index>
2194

> <i_lp_mmshare_version>
43012

> <i_f3d_flags>
0

> <s_epik_input>
W0NIM11jMVtjSF1bY0hdYyhbY0hdW2NIXTEpT1tDSDJdW0NASF0oW09IXSlbQ0gyXW4oW2NIXW4yKWMoYzIzKWMoPU8pbihbQ0gzXSljKD1PKW4zW0NIM10=

> <s_epik_cmdline>
J2VwaWtfcHl0aG9uJywgJy1waCcsICc3LjAnLCAnLXRuJywgJzgnLCAnLW1hJywgJzIwMCcsICctbWV0YWxfYmluZGluZycsICctaW1hZScsICc8aW5maWxlLm1hZT4nLCAnLW9tYWUnLCAnPG91dGZpbGUubWFlPic=

> <r_lp_tautomer_probability>
1

> <r_epik_Ionization_Penalty>
1.06124e-06

> <r_epik_Ionization_Penalty_Charging>
3.25921e-09

> <r_epik_Ionization_Penalty_Neutral>
1.05798e-06

> <r_epik_State_Penalty>
-0

> <r_epik_Charging_Adjusted_Penalty>
3.25921e-09

> <i_epik_Tot_Q>
0

> <i_epik_Tot_abs_Q>
0

> <r_epik_Metal_State_Penalty>
-0

> <b_epik_Metal_Only>
0

> <s_lp_Force_Field>
OPLS_2005

> <r_lp_Energy>
41.6396

> <b_lp_Chiralities_Consistent>
1

> <s_lp_Variant>
AV-unprocessed.smi:2194-1

> <Gold.Version>
5.8.1

> <Gold.Id.Protein>
6NUR|6NUR_protein|mol2

> <Gold.PLP.Fitness>
48.2166

> <Gold.PLP.PLP>
-41.6950

> <Gold.PLP.part.hbond>
-1.9552

> <Gold.PLP.part.metal>
0.0000

> <Gold.PLP.part.buried>
-6.4015

> <Gold.PLP.part.nonpolar>
-35.0582

> <Gold.PLP.part.repulsive>
1.0800

> <Gold.PLP.ligand.clash>
0.0000

> <Gold.PLP.ligand.torsion>
1.2494

> <Gold.PLP.Chemscore.Hbond>
2.0000

> <Gold.PLP.Chemscore.CHOScore>
1.0000

> <Gold.PLP.Chemscore.Metal>
0.0000

> <Gold.Chemscore.Hbonds>
donor molecule, donor type, donor heavy atom, donor atom, acceptor molecule, acceptor atom, score
      L1  H     9    34       P1  8028  1.00
      P1  H  6896  6909       L1    21  1.00
      L1  C    12    37       P1  7957  1.00

> <Gold.PLP.Chemscore.Internal.Correction>
0.0204

> <Gold.Rescore>
     Score         DG    S(hbond)    S(metal)    S(lipo)     H(rot)  DE(clash)    DE(int)     intcor
     14.50     -16.93       1.95        0.00     101.05       2.69       1.33       1.09       ----

> <Gold.Chemscore.Fitness>
14.4974

> <Gold.Chemscore.DG>
-16.9261

> <Gold.Chemscore.ZeroCoef>
-5.4800

> <Gold.Chemscore.Hbond>
1.9477

> <Gold.Chemscore.Metal>
0.0000

> <Gold.Chemscore.Lipo>
101.0522

> <Gold.Chemscore.Internal_Hbond>
0.0000

> <Gold.Chemscore.DEClash>
1.3343

> <Gold.Chemscore.DEInternal>
1.0944

> <Gold.Chemscore.Rot>
2.6885

> <Gold.Chemscore.Internal.Correction>
   9.000000E+99

> <Gold.Chemscore.Hbonds>
donor molecule, donor type, donor heavy atom, donor atom, acceptor molecule, acceptor atom, score
      L1  H     9    34       P1  8028  0.97
      P1  H  6896  6909       L1    21  0.97

> <Gold.Chemscore.Hbond.Weighted>
-6.5055

> <Gold.Chemscore.Metal.Weighted>
-0.0000

> <Gold.Chemscore.Lipo.Weighted>
-11.8231

> <Gold.Chemscore.Internal_Hbond.Weighted>
0.0000

> <Gold.Chemscore.DEClash.Weighted>
1.3343

> <Gold.Chemscore.DEInternal.Weighted>
1.0944

> <Gold.Chemscore.Rot.Weighted>
6.8825

> <Gold.Chemscore.Internal.Correction.Weighted>
   9.000000E+99

> <Gold.Protein.RotatedTorsions>
[ 6907 6896 6895 6894 ] final   25.09 input  -60.11 | X-H torsion
[ 7974 7965 7964 7962 ] final -133.58 input  175.53 | X-H torsion
[ 8008 7997 7996 7995 ] final -148.95 input   59.86 | X-H torsion
[ 10167 10162 10161 10158 ] final  159.17 input  -65.29 | X-H torsion
[ 10718 10713 10712 10709 ] final  -68.10 input   66.30 | X-H torsion
[ 10763 10752 10751 10750 ] final  134.50 input  -60.55 | X-H torsion
[ 11005 11000 10999 10996 ] final  122.09 input  -57.11 | X-H torsion

> <Gold.Protein.ActiveResidues>
 VAL166  LYS551  ARG553  GLY616  TRP617  ASP618  TYR619  PRO620  LYS621  CYS622 
 ASP623  PHE694  ASN695  SER759  ASP760  ASP761  ALA762  ILE779  LEU786  VAL792 
 PHE793  MET794  SER795  GLU796  ALA797  LYS798  CYS799  TRP800  GLU811  SER814 

> <Gold.Protein.RotatedAtoms>
  151.9673  135.0094  160.0550 H   0  0  0  0  0  0  0  0  0  0  0  0  # atno 6907 bound_to 6896
  152.1815  133.4706  159.4969 H   0  0  0  0  0  0  0  0  0  0  0  0  # atno 6908 bound_to 6896
  150.6918  134.1745  159.4268 H   0  0  0  0  0  0  0  0  0  0  0  0  # atno 6909 bound_to 6896
  144.9180  140.6979  143.4983 H   0  0  0  0  0  0  0  0  0  0  0  0  # atno 7974 bound_to 7965
  155.5998  140.0661  157.2736 H   0  0  0  0  0  0  0  0  0  0  0  0  # atno 8008 bound_to 7997
  154.4282  140.1820  156.1209 H   0  0  0  0  0  0  0  0  0  0  0  0  # atno 8009 bound_to 7997
  156.0168  140.3321  155.7000 H   0  0  0  0  0  0  0  0  0  0  0  0  # atno 8010 bound_to 7997
  139.4831  144.4756  151.8516 H   0  0  0  0  0  0  0  0  0  0  0  0  # atno 10167 bound_to 10162
  156.0523  130.4289  150.1951 H   0  0  0  0  0  0  0  0  0  0  0  0  # atno 10718 bound_to 10713
  153.8246  135.3111  155.3413 H   0  0  0  0  0  0  0  0  0  0  0  0  # atno 10763 bound_to 10752
  154.7998  135.4733  154.0252 H   0  0  0  0  0  0  0  0  0  0  0  0  # atno 10764 bound_to 10752
  153.1672  135.6871  153.8749 H   0  0  0  0  0  0  0  0  0  0  0  0  # atno 10765 bound_to 10752
  139.9253  134.9640  156.8057 H   0  0  0  0  0  0  0  0  0  0  0  0  # atno 11005 bound_to 11000
  145.3342  139.1750  143.4520 LP  0  0  0  0  0  0  0  0  0  0  0  0  # atno 17320 bound_to 7965
  146.3191  140.3376  142.8645 LP  0  0  0  0  0  0  0  0  0  0  0  0  # atno 17321 bound_to 7965
  140.4228  144.2221  150.5887 LP  0  0  0  0  0  0  0  0  0  0  0  0  # atno 17342 bound_to 10162
  140.4857  143.2364  151.8891 LP  0  0  0  0  0  0  0  0  0  0  0  0  # atno 17343 bound_to 10162
  157.0032  130.9929  151.3385 LP  0  0  0  0  0  0  0  0  0  0  0  0  # atno 17370 bound_to 10713
  157.5460  130.8151  149.8087 LP  0  0  0  0  0  0  0  0  0  0  0  0  # atno 17371 bound_to 10713
  140.6353  133.9868  155.7681 LP  0  0  0  0  0  0  0  0  0  0  0  0  # atno 17394 bound_to 11000
  141.0806  134.0067  157.3391 LP  0  0  0  0  0  0  0  0  0  0  0  0  # atno 17395 bound_to 11000

$$$$
