#       Name:                AV-unprocessed.smi:3112
#       Creating user name   scv26
#       Creation time:       Fri Mar 27 17:21:29 2020


#       File generated by GOLD software.
#

@<TRIPOS>MOLECULE
AV-unprocessed.smi:3112
    40    40     1
SMALL
NO_CHARGES


@<TRIPOS>ATOM
      1 ****        -4.2511   2.8172  -0.5978 C.3            1 S1                 0.0000
      2 ****        -3.5817   1.4845  -0.9611 C.3            1 S1                 0.0000
      3 ****        -2.1488   1.3499  -0.4146 C.3            1 S1                 0.0000
      4 ****        -1.3225   2.3000  -1.0585 O.3            1 S1                 0.0000
      5 ****        -1.5646  -0.0500  -0.6685 C.3            1 S1                 0.0000
      6 ****        -0.2645  -0.2142   0.0153 N.4            1 S1                 1.0000
      7 ****         0.3727  -1.5457  -0.1193 C.3            1 S1                 0.0000
      8 ****         0.9290  -1.7494  -1.5422 C.3            1 S1                 0.0000
      9 ****         1.4623  -1.7525   0.9661 C.3            1 S1                 0.0000
     10 ****         0.9070  -1.6741   2.4010 C.3            1 S1                 0.0000
     11 ****         2.6231  -0.8853   0.7862 N.pl3          1 S1                 0.0000
     12 ****         3.8777  -1.2286   0.3240 C.2            1 S1                 0.0000
     13 ****         4.6337  -0.0918   0.3053 C.2            1 S1                 0.0000
     14 ****         3.7445   0.9131   0.7761 C.2            1 S1                 0.0000
     15 ****         2.5430   0.4373   1.0593 N.2            1 S1                 0.0000
     16 ****        -5.2743   2.8504  -0.9726 H              1 S1                 0.0000
     17 ****        -3.7160   3.6641  -1.0276 H              1 S1                 0.0000
     18 ****        -4.2895   2.9574   0.4828 H              1 S1                 0.0000
     19 ****        -4.1943   0.6757  -0.5612 H              1 S1                 0.0000
     20 ****        -3.5826   1.3572  -2.0446 H              1 S1                 0.0000
     21 ****        -2.1515   1.5552   0.6571 H              1 S1                 0.0000
     22 ****        -1.6760   3.1628  -0.9012 H              1 S1                 0.0000
     23 ****        -2.2500  -0.8086  -0.2886 H              1 S1                 0.0000
     24 ****        -1.4589  -0.2216  -1.7398 H              1 S1                 0.0000
     25 ****         0.3769   0.4889  -0.3238 H              1 S1                 0.0000
     26 ****        -0.3976  -2.2991   0.0527 H              1 S1                 0.0000
     27 ****         1.4519  -2.7028  -1.6227 H              1 S1                 0.0000
     28 ****         1.6322  -0.9624  -1.8168 H              1 S1                 0.0000
     29 ****         0.1361  -1.7584  -2.2895 H              1 S1                 0.0000
     30 ****         1.8294  -2.7731   0.8455 H              1 S1                 0.0000
     31 ****         0.0978  -2.3902   2.5462 H              1 S1                 0.0000
     32 ****         0.5180  -0.6833   2.6368 H              1 S1                 0.0000
     33 ****         1.6828  -1.9048   3.1318 H              1 S1                 0.0000
     34 ****         4.1267  -2.2430   0.0485 H              1 S1                 0.0000
     35 ****         5.6650   0.0072   0.0005 H              1 S1                 0.0000
     36 ****         3.9343   1.9669   0.9177 H              1 S1                 0.0000
     37 ****        -0.4191  -0.0484   0.9993 H              1 S1                 0.0000
     38 ****        -1.3027   2.1181  -2.0417 LP             1 S1                 0.0000
     39 ****        -0.3944   2.2439  -0.6904 LP             1 S1                 0.0000
     40 ****         1.7506   0.9434   1.3999 LP             1 S1                 0.0000
@<TRIPOS>BOND
    1    1    2 1     
    2    1   16 1     
    3    1   17 1     
    4    1   18 1     
    5    2    3 1     
    6    2   19 1     
    7    2   20 1     
    8    3    4 1     
    9    3    5 1     
   10    3   21 1     
   11    4   22 1     
   12    5    6 1     
   13    5   23 1     
   14    5   24 1     
   15    6    7 1     
   16    6   25 1     
   17    6   37 1     
   18    7    8 1     
   19    7    9 1     
   20    7   26 1     
   21    8   27 1     
   22    8   28 1     
   23    8   29 1     
   24    9   10 1     
   25    9   11 1     
   26    9   30 1     
   27   10   31 1     
   28   10   32 1     
   29   10   33 1     
   30   11   15 1     
   31   11   12 1     
   32   12   13 2     
   33   12   34 1     
   34   13   14 1     
   35   13   35 1     
   36   14   15 2     
   37   14   36 1     
   38    4   38 1     
   39    4   39 1     
   40   15   40 1     
@<TRIPOS>SUBSTRUCTURE
      1 S1             1
@<TRIPOS>SET
LONE_PAIRS      STATIC     ATOMS    <user>   **** ""
3 38 39 40
DONOR_HYDROGENS      STATIC     ATOMS    <user>   **** ""
3 22 25 37
ATOM$BLUE        STATIC     ATOMS    COLORGROUP SYSTEM
3 38 39 40
ATOM$RED        STATIC     ATOMS    COLORGROUP SYSTEM
3 22 25 37
