AV-unprocessed.smi:100|AV-procd|sdf|903|dock7
  -GOLD-   2262017403D 1   1.00000     0.00000
 Structure written by MMmdl.
 31 33  0  0  0  0  0  0  0  0  1 V2000
  149.8446  138.6523  153.4470 N   0  0  0  0  0  0  0  0  0  0  0  0
  150.2034  138.5573  154.7347 C   0  0  0  0  0  0  0  0  0  0  0  0
  150.1780  137.3376  155.3215 N   0  0  0  0  0  0  0  0  0  0  0  0
  150.5279  137.2169  156.6065 C   0  0  0  0  0  0  0  0  0  0  0  0
  150.9266  138.1671  157.4570 N   0  0  0  0  0  0  0  0  0  0  0  0
  150.9565  139.3949  156.8604 C   0  0  0  0  0  0  0  0  0  0  0  0
  150.6064  139.6733  155.5107 C   0  0  0  0  0  0  0  0  0  0  0  0
  150.7426  141.0314  155.2585 N   0  0  0  0  0  0  0  0  0  0  0  0
  151.1441  141.5243  156.3997 C   0  0  0  0  0  0  0  0  0  0  0  0
  151.3240  140.6038  157.4127 N   0  0  0  0  0  0  0  0  0  0  0  0
  151.7521  140.8294  158.8306 C   0  0  2  0  0  0  0  0  0  0  0  0
  150.9740  141.8691  159.3559 O   0  0  0  0  0  0  0  0  0  0  0  0
  151.7481  143.0558  159.5395 C   0  0  2  0  0  0  0  0  0  0  0  0
  151.7149  143.9493  158.2830 C   0  0  0  0  0  0  0  0  0  0  0  0
  150.4076  144.4361  158.0703 O   0  0  0  0  0  0  0  0  0  0  0  0
  153.1346  142.4868  159.8353 C   0  0  1  0  0  0  0  0  0  0  0  0
  153.1423  142.0896  161.1110 F   0  0  0  0  0  0  0  0  0  0  0  0
  153.2169  141.2981  158.8895 C   0  0  1  0  0  0  0  0  0  0  0  0
  154.1122  140.3216  159.3838 O   0  0  0  0  0  0  0  0  0  0  0  0
  149.8544  139.5517  152.9876 H   0  0  0  0  0  0  0  0  0  0  0  0
  149.5646  137.8257  152.9394 H   0  0  0  0  0  0  0  0  0  0  0  0
  150.4834  136.2164  157.0104 H   0  0  0  0  0  0  0  0  0  0  0  0
  151.3268  142.5817  156.5272 H   0  0  0  0  0  0  0  0  0  0  0  0
  151.5465  139.8888  159.3437 H   0  0  0  0  0  0  0  0  0  0  0  0
  151.3792  143.6198  160.3976 H   0  0  0  0  0  0  0  0  0  0  0  0
  152.3605  144.8159  158.4284 H   0  0  0  0  0  0  0  0  0  0  0  0
  152.0757  143.4351  157.3933 H   0  0  0  0  0  0  0  0  0  0  0  0
  150.2463  144.4692  157.1396 H   0  0  0  0  0  0  0  0  0  0  0  0
  153.9457  143.2044  159.7087 H   0  0  0  0  0  0  0  0  0  0  0  0
  153.5407  141.6340  157.9031 H   0  0  0  0  0  0  0  0  0  0  0  0
  153.7309  139.9335  160.1572 H   0  0  0  0  0  0  0  0  0  0  0  0
  1  2  1  0  0  0  0
  1 20  1  0  0  0  0
  1 21  1  0  0  0  0
  2  7  1  0  0  0  0
  2  3  2  0  0  0  0
  3  4  1  0  0  0  0
  4  5  2  0  0  0  0
  4 22  1  0  0  0  0
  5  6  1  0  0  0  0
  6 10  1  0  0  0  0
  6  7  2  0  0  0  0
  7  8  1  0  0  0  0
  8  9  2  0  0  0  0
  9 10  1  0  0  0  0
  9 23  1  0  0  0  0
 10 11  1  0  0  0  0
 11 18  1  0  0  0  0
 11 12  1  0  0  0  0
 11 24  1  0  0  0  0
 12 13  1  0  0  0  0
 13 14  1  0  0  0  0
 13 16  1  0  0  0  0
 13 25  1  0  0  0  0
 14 15  1  0  0  0  0
 14 26  1  0  0  0  0
 14 27  1  0  0  0  0
 15 28  1  0  0  0  0
 16 17  1  0  0  0  0
 16 18  1  0  0  0  0
 16 29  1  0  0  0  0
 18 19  1  0  0  0  0
 18 30  1  0  0  0  0
 19 31  1  0  0  0  0
M  END
> <s_m_source_file>
AV-unprocessed.smi

> <i_m_source_file_index>
100

> <i_lp_mmshare_version>
43012

> <i_f3d_flags>
0

> <s_epik_input>
bjFbY0hdbmMoW05IMl0pYyhjMTIpbltjSF1uMltDQEBIXTNPW0NAQEhdKFtDSDJdW09IXSlbQ0BIXShGKVtDQEhdM1tPSF0=

> <s_epik_cmdline>
J2VwaWtfcHl0aG9uJywgJy1waCcsICc3LjAnLCAnLXRuJywgJzgnLCAnLW1hJywgJzIwMCcsICctbWV0YWxfYmluZGluZycsICctaW1hZScsICc8aW5maWxlLm1hZT4nLCAnLW9tYWUnLCAnPG91dGZpbGUubWFlPic=

> <r_lp_tautomer_probability>
1

> <r_epik_Ionization_Penalty>
0.000750324

> <r_epik_Ionization_Penalty_Charging>
0

> <r_epik_Ionization_Penalty_Neutral>
0.000750324

> <r_epik_State_Penalty>
-0

> <r_epik_Charging_Adjusted_Penalty>
0

> <i_epik_Tot_Q>
0

> <i_epik_Tot_abs_Q>
0

> <r_epik_Metal_State_Penalty>
-0

> <b_epik_Metal_Only>
0

> <s_epik_Chemistry_Notes>
This compound contains an acetal/aminal-like group ( X-CH(R)-Y where X, Y are N, S, or O) that may be acid/base labile, releasing an aldehyde.

> <s_lp_Force_Field>
OPLS_2005

> <r_lp_Energy>
31.6472

> <b_lp_Chiralities_Consistent>
1

> <s_lp_Variant>
AV-unprocessed.smi:100-7

> <Gold.Version>
5.8.1

> <Gold.Id.Protein>
6NUR|6NUR_protein|mol2

> <Gold.PLP.Fitness>
44.6002

> <Gold.PLP.PLP>
-33.7492

> <Gold.PLP.part.hbond>
-6.8242

> <Gold.PLP.part.metal>
0.0000

> <Gold.PLP.part.buried>
-3.7969

> <Gold.PLP.part.nonpolar>
-23.3514

> <Gold.PLP.part.repulsive>
0.2599

> <Gold.PLP.ligand.clash>
0.0000

> <Gold.PLP.ligand.torsion>
0.1325

> <Gold.PLP.Chemscore.Hbond>
3.6943

> <Gold.PLP.Chemscore.CHOScore>
0.0000

> <Gold.PLP.Chemscore.Metal>
0.0000

> <Gold.Chemscore.Hbonds>
donor molecule, donor type, donor heavy atom, donor atom, acceptor molecule, acceptor atom, score
      L1  H     1    20       P1  7957  0.62
      L1  H     1    21       P1  7948  1.00
      L1  H    15    28       P1  8028  0.93
      P1  H  7989  7998       L1     8  0.63
      P1  H  7997  8008       L1    19  0.19

> <Gold.PLP.Chemscore.Internal.Correction>
0.0332

> <Gold.Rescore>
     Score         DG    S(hbond)    S(metal)    S(lipo)     H(rot)  DE(clash)    DE(int)     intcor
     13.38     -14.15       3.30        0.00      49.76       3.19       0.74       0.03       ----

> <Gold.Chemscore.Fitness>
13.3819

> <Gold.Chemscore.DG>
-14.1544

> <Gold.Chemscore.ZeroCoef>
-5.4800

> <Gold.Chemscore.Hbond>
3.2991

> <Gold.Chemscore.Metal>
0.0000

> <Gold.Chemscore.Lipo>
49.7604

> <Gold.Chemscore.Internal_Hbond>
0.0000

> <Gold.Chemscore.DEClash>
0.7395

> <Gold.Chemscore.DEInternal>
0.0330

> <Gold.Chemscore.Rot>
3.1901

> <Gold.Chemscore.Internal.Correction>
   9.000000E+99

> <Gold.Chemscore.Hbonds>
donor molecule, donor type, donor heavy atom, donor atom, acceptor molecule, acceptor atom, score
      L1  H     1    20       P1  7957  0.62
      L1  H     1    21       P1  7948  0.77
      L1  H    15    28       P1  8028  0.57
      P1  H  7989  7998       L1     8  0.12
      P1  H  7997  8008       L1    19  0.01

> <Gold.Chemscore.Hbond.Weighted>
-11.0191

> <Gold.Chemscore.Metal.Weighted>
-0.0000

> <Gold.Chemscore.Lipo.Weighted>
-5.8220

> <Gold.Chemscore.Internal_Hbond.Weighted>
0.0000

> <Gold.Chemscore.DEClash.Weighted>
0.7395

> <Gold.Chemscore.DEInternal.Weighted>
0.0330

> <Gold.Chemscore.Rot.Weighted>
8.1667

> <Gold.Chemscore.Internal.Correction.Weighted>
   9.000000E+99

> <Gold.Protein.RotatedTorsions>
[ 6907 6896 6895 6894 ] final   42.86 input  -60.11 | X-H torsion
[ 7974 7965 7964 7962 ] final  154.68 input  175.53 | X-H torsion
[ 8008 7997 7996 7995 ] final -118.71 input   59.86 | X-H torsion
[ 10167 10162 10161 10158 ] final  -96.56 input  -65.29 | X-H torsion
[ 10718 10713 10712 10709 ] final   81.78 input   66.30 | X-H torsion
[ 10763 10752 10751 10750 ] final  -27.36 input  -60.55 | X-H torsion
[ 11005 11000 10999 10996 ] final  -70.82 input  -57.11 | X-H torsion

> <Gold.Protein.ActiveResidues>
 VAL166  LYS551  ARG553  GLY616  TRP617  ASP618  TYR619  PRO620  LYS621  CYS622 
 ASP623  PHE694  ASN695  SER759  ASP760  ASP761  ALA762  ILE779  LEU786  VAL792 
 PHE793  MET794  SER795  GLU796  ALA797  LYS798  CYS799  TRP800  GLU811  SER814 

> <Gold.Protein.RotatedAtoms>
  152.2131  134.8483  160.0494 H   0  0  0  0  0  0  0  0  0  0  0  0  # atno 6907 bound_to 6896
  151.9294  133.3602  159.3933 H   0  0  0  0  0  0  0  0  0  0  0  0  # atno 6908 bound_to 6896
  150.6981  134.4478  159.5366 H   0  0  0  0  0  0  0  0  0  0  0  0  # atno 6909 bound_to 6896
  144.8073  139.6966  143.6156 H   0  0  0  0  0  0  0  0  0  0  0  0  # atno 7974 bound_to 7965
  155.1040  140.0396  157.2705 H   0  0  0  0  0  0  0  0  0  0  0  0  # atno 8008 bound_to 7997
  154.6736  140.2617  155.6956 H   0  0  0  0  0  0  0  0  0  0  0  0  # atno 8009 bound_to 7997
  156.2668  140.2792  156.1254 H   0  0  0  0  0  0  0  0  0  0  0  0  # atno 8010 bound_to 7997
  140.2926  143.3212  152.0331 H   0  0  0  0  0  0  0  0  0  0  0  0  # atno 10167 bound_to 10162
  157.6841  131.0019  150.2277 H   0  0  0  0  0  0  0  0  0  0  0  0  # atno 10718 bound_to 10713
  153.7308  135.6939  153.4990 H   0  0  0  0  0  0  0  0  0  0  0  0  # atno 10763 bound_to 10752
  153.2137  135.4394  155.0409 H   0  0  0  0  0  0  0  0  0  0  0  0  # atno 10764 bound_to 10752
  154.8254  135.3443  154.6838 H   0  0  0  0  0  0  0  0  0  0  0  0  # atno 10765 bound_to 10752
  141.1581  133.6800  156.6811 H   0  0  0  0  0  0  0  0  0  0  0  0  # atno 11005 bound_to 11000
  146.2366  139.5918  142.9519 LP  0  0  0  0  0  0  0  0  0  0  0  0  # atno 17320 bound_to 7965
  145.5407  141.0421  143.2332 LP  0  0  0  0  0  0  0  0  0  0  0  0  # atno 17321 bound_to 7965
  139.4934  144.6514  151.6667 LP  0  0  0  0  0  0  0  0  0  0  0  0  # atno 17342 bound_to 10162
  140.5720  144.0093  150.6221 LP  0  0  0  0  0  0  0  0  0  0  0  0  # atno 17343 bound_to 10162
  156.2916  130.3746  149.7836 LP  0  0  0  0  0  0  0  0  0  0  0  0  # atno 17370 bound_to 10713
  156.5493  130.8335  151.3294 LP  0  0  0  0  0  0  0  0  0  0  0  0  # atno 17371 bound_to 10713
  140.3102  134.8092  157.4170 LP  0  0  0  0  0  0  0  0  0  0  0  0  # atno 17394 bound_to 11000
  140.1185  134.5250  155.8204 LP  0  0  0  0  0  0  0  0  0  0  0  0  # atno 17395 bound_to 11000

$$$$
