AV-unprocessed.smi:3031|AV-procd|sdf|11552|dock9
  -GOLD-   2272016513D 1   1.00000     0.00000
 Structure written by MMmdl.
 48 49  0  0  0  0  0  0  0  0  3 V2000
  151.7252  143.4155  158.8374 C   0  0  0  0  0  0  0  0  0  0  0  0
  151.3885  142.1878  158.0409 C   0  0  0  0  0  0  0  0  0  0  0  0
  151.4384  140.8315  158.4687 C   0  0  0  0  0  0  0  0  0  0  0  0
  151.0753  139.9816  157.5224 N   0  0  0  0  0  0  0  0  0  0  0  0
  150.7928  140.7599  156.4550 N   0  0  0  0  0  0  0  0  0  0  0  0
  150.3307  140.1609  155.2124 C   0  0  0  0  0  0  0  0  0  0  0  0
  148.8087  140.3054  154.9547 C   0  0  1  0  0  0  0  0  0  0  0  0
  148.4713  141.7514  154.5654 C   0  0  0  0  0  0  0  0  0  0  0  0
  148.3106  139.3998  153.8904 N   0  3  0  0  0  0  0  0  0  0  0  0
  146.9191  139.6197  153.4381 C   0  0  0  0  0  0  0  0  0  0  0  0
  146.4457  138.5110  152.4811 C   0  0  1  0  0  0  0  0  0  0  0  0
  147.4533  138.2986  151.5128 O   0  0  0  0  0  0  0  0  0  0  0  0
  146.2104  137.1688  153.2067 C   0  0  0  0  0  0  0  0  0  0  0  0
  146.1706  136.0039  152.2851 N   0  3  0  0  0  0  0  0  0  0  0  0
  146.0763  134.6960  152.9799 C   0  0  0  0  0  0  0  0  0  0  0  0
  146.0712  133.5432  151.9607 C   0  0  0  0  0  0  0  0  0  0  0  0
  145.0023  133.7224  151.0402 O   0  0  0  0  0  0  0  0  0  0  0  0
  145.1335  134.9301  150.3016 C   0  0  0  0  0  0  0  0  0  0  0  0
  145.1017  136.1279  151.2655 C   0  0  0  0  0  0  0  0  0  0  0  0
  150.9545  142.0980  156.7486 C   0  0  0  0  0  0  0  0  0  0  0  0
  151.2975  143.3740  159.8394 H   0  0  0  0  0  0  0  0  0  0  0  0
  151.3468  144.3228  158.3658 H   0  0  0  0  0  0  0  0  0  0  0  0
  152.8024  143.5374  158.9517 H   0  0  0  0  0  0  0  0  0  0  0  0
  151.7243  140.4420  159.4346 H   0  0  0  0  0  0  0  0  0  0  0  0
  150.8874  140.6421  154.4070 H   0  0  0  0  0  0  0  0  0  0  0  0
  150.6202  139.1092  155.1974 H   0  0  0  0  0  0  0  0  0  0  0  0
  148.2551  140.0939  155.8703 H   0  0  0  0  0  0  0  0  0  0  0  0
  148.7703  142.4499  155.3477 H   0  0  0  0  0  0  0  0  0  0  0  0
  147.3997  141.8780  154.4085 H   0  0  0  0  0  0  0  0  0  0  0  0
  148.9798  142.0454  153.6462 H   0  0  0  0  0  0  0  0  0  0  0  0
  148.9076  139.5383  153.0876 H   0  0  0  0  0  0  0  0  0  0  0  0
  146.2538  139.6685  154.2994 H   0  0  0  0  0  0  0  0  0  0  0  0
  146.8645  140.5838  152.9317 H   0  0  0  0  0  0  0  0  0  0  0  0
  145.5433  138.8272  151.9578 H   0  0  0  0  0  0  0  0  0  0  0  0
  148.2097  138.8198  151.7380 H   0  0  0  0  0  0  0  0  0  0  0  0
  146.9778  137.0003  153.9645 H   0  0  0  0  0  0  0  0  0  0  0  0
  145.2627  137.2322  153.7443 H   0  0  0  0  0  0  0  0  0  0  0  0
  146.9134  134.5660  153.6651 H   0  0  0  0  0  0  0  0  0  0  0  0
  145.1647  134.6640  153.5789 H   0  0  0  0  0  0  0  0  0  0  0  0
  147.0215  133.4893  151.4270 H   0  0  0  0  0  0  0  0  0  0  0  0
  145.9393  132.5896  152.4725 H   0  0  0  0  0  0  0  0  0  0  0  0
  146.0586  134.9194  149.7231 H   0  0  0  0  0  0  0  0  0  0  0  0
  144.3125  135.0000  149.5880 H   0  0  0  0  0  0  0  0  0  0  0  0
  144.1298  136.1864  151.7583 H   0  0  0  0  0  0  0  0  0  0  0  0
  145.2326  137.0524  150.7017 H   0  0  0  0  0  0  0  0  0  0  0  0
  150.7563  142.8694  156.0185 H   0  0  0  0  0  0  0  0  0  0  0  0
  148.4104  138.4408  154.1925 H   0  0  0  0  0  0  0  0  0  0  0  0
  147.0418  136.0053  151.7741 H   0  0  0  0  0  0  0  0  0  0  0  0
  1  2  1  0  0  0  0
  1 21  1  0  0  0  0
  1 22  1  0  0  0  0
  1 23  1  0  0  0  0
  2 20  2  0  0  0  0
  2  3  1  0  0  0  0
  3  4  2  0  0  0  0
  3 24  1  0  0  0  0
  4  5  1  0  0  0  0
  5  6  1  0  0  0  0
  5 20  1  0  0  0  0
  6  7  1  0  0  0  0
  6 25  1  0  0  0  0
  6 26  1  0  0  0  0
  7  8  1  0  0  0  0
  7  9  1  0  0  0  0
  7 27  1  0  0  0  0
  8 28  1  0  0  0  0
  8 29  1  0  0  0  0
  8 30  1  0  0  0  0
  9 10  1  0  0  0  0
  9 31  1  0  0  0  0
  9 47  1  0  0  0  0
 10 11  1  0  0  0  0
 10 32  1  0  0  0  0
 10 33  1  0  0  0  0
 11 12  1  0  0  0  0
 11 13  1  0  0  0  0
 11 34  1  0  0  0  0
 12 35  1  0  0  0  0
 13 14  1  0  0  0  0
 13 36  1  0  0  0  0
 13 37  1  0  0  0  0
 14 19  1  0  0  0  0
 14 15  1  0  0  0  0
 14 48  1  0  0  0  0
 15 16  1  0  0  0  0
 15 38  1  0  0  0  0
 15 39  1  0  0  0  0
 16 17  1  0  0  0  0
 16 40  1  0  0  0  0
 16 41  1  0  0  0  0
 17 18  1  0  0  0  0
 18 19  1  0  0  0  0
 18 42  1  0  0  0  0
 18 43  1  0  0  0  0
 19 44  1  0  0  0  0
 19 45  1  0  0  0  0
 20 46  1  0  0  0  0
M  CHG  1   9   1
M  CHG  1  14   1
M  END
> <s_m_source_file>
AV-unprocessed.smi

> <i_m_source_file_index>
3031

> <i_lp_mmshare_version>
43012

> <i_f3d_flags>
0

> <s_epik_input>
W0NIM11jMVtjSF1ubihbY0hdMSlbQ0gyXVtDQEhdKFtDSDNdKVtOSF1bQ0gyXVtDQEhdKFtPSF0pW0NIMl1OMltDSDJdW0NIMl1PW0NIMl1bQ0gyXTI=

> <s_epik_cmdline>
J2VwaWtfcHl0aG9uJywgJy1waCcsICc3LjAnLCAnLXRuJywgJzgnLCAnLW1hJywgJzIwMCcsICctbWV0YWxfYmluZGluZycsICctaW1hZScsICc8aW5maWxlLm1hZT4nLCAnLW9tYWUnLCAnPG91dGZpbGUubWFlPic=

> <r_lp_tautomer_probability>
1

> <r_epik_Ionization_Penalty>
1.76542

> <r_epik_Ionization_Penalty_Charging>
1.76348

> <r_epik_Ionization_Penalty_Neutral>
0.00194017

> <r_epik_State_Penalty>
1.49348

> <r_epik_Charging_Adjusted_Penalty>
3.25696

> <i_epik_Tot_Q>
2

> <i_epik_Tot_abs_Q>
2

> <r_epik_Metal_State_Penalty>
1.49349

> <b_epik_Metal_Only>
0

> <s_lp_Force_Field>
OPLS_2005

> <r_lp_Energy>
29.0022

> <b_lp_Chiralities_Consistent>
1

> <s_lp_Variant>
AV-unprocessed.smi:3031-12

> <Gold.Version>
5.8.1

> <Gold.Id.Protein>
6NUR|6NUR_protein|mol2

> <Gold.PLP.Fitness>
53.0049

> <Gold.PLP.PLP>
-37.7064

> <Gold.PLP.part.hbond>
-4.9357

> <Gold.PLP.part.metal>
0.0000

> <Gold.PLP.part.buried>
-0.5209

> <Gold.PLP.part.nonpolar>
-32.3137

> <Gold.PLP.part.repulsive>
0.1814

> <Gold.PLP.ligand.clash>
0.0000

> <Gold.PLP.ligand.torsion>
0.5949

> <Gold.PLP.Chemscore.Hbond>
4.4500

> <Gold.PLP.Chemscore.CHOScore>
0.9859

> <Gold.PLP.Chemscore.Metal>
0.0000

> <Gold.Chemscore.Hbonds>
donor molecule, donor type, donor heavy atom, donor atom, acceptor molecule, acceptor atom, score
      L1  H     9    31       P1  7957  0.80
      L1  H    12    35       P1  7957  0.93
      L1  H    14    48       P1  7948  1.92
      P1  H  7954  7966       L1    12  0.55
      L1  C    20    46       P1  8028  0.70

> <Gold.PLP.Chemscore.Internal.Correction>
0.1807

> <Gold.Rescore>
     Score         DG    S(hbond)    S(metal)    S(lipo)     H(rot)  DE(clash)    DE(int)     intcor
     17.81     -18.56       2.69        0.00      94.94       2.74       0.16       0.59       ----

> <Gold.Chemscore.Fitness>
17.8097

> <Gold.Chemscore.DG>
-18.5631

> <Gold.Chemscore.ZeroCoef>
-5.4800

> <Gold.Chemscore.Hbond>
2.6941

> <Gold.Chemscore.Metal>
0.0000

> <Gold.Chemscore.Lipo>
94.9402

> <Gold.Chemscore.Internal_Hbond>
0.0000

> <Gold.Chemscore.DEClash>
0.1641

> <Gold.Chemscore.DEInternal>
0.5894

> <Gold.Chemscore.Rot>
2.7434

> <Gold.Chemscore.Internal.Correction>
   9.000000E+99

> <Gold.Chemscore.Hbonds>
donor molecule, donor type, donor heavy atom, donor atom, acceptor molecule, acceptor atom, score
      L1  H     9    31       P1  7957  0.78
      L1  H    12    35       P1  7957  0.74
      L1  H    14    48       P1  7948  0.92
      P1  H  7954  7966       L1    12  0.03

> <Gold.Chemscore.Hbond.Weighted>
-8.9982

> <Gold.Chemscore.Metal.Weighted>
-0.0000

> <Gold.Chemscore.Lipo.Weighted>
-11.1080

> <Gold.Chemscore.Internal_Hbond.Weighted>
0.0000

> <Gold.Chemscore.DEClash.Weighted>
0.1641

> <Gold.Chemscore.DEInternal.Weighted>
0.5894

> <Gold.Chemscore.Rot.Weighted>
7.0231

> <Gold.Chemscore.Internal.Correction.Weighted>
   9.000000E+99

> <Gold.Protein.RotatedTorsions>
[ 6907 6896 6895 6894 ] final -128.49 input  -60.11 | X-H torsion
[ 7974 7965 7964 7962 ] final   14.31 input  175.53 | X-H torsion
[ 8008 7997 7996 7995 ] final  117.63 input   59.86 | X-H torsion
[ 10167 10162 10161 10158 ] final   19.85 input  -65.29 | X-H torsion
[ 10718 10713 10712 10709 ] final    6.89 input   66.30 | X-H torsion
[ 10763 10752 10751 10750 ] final  177.76 input  -60.55 | X-H torsion
[ 11005 11000 10999 10996 ] final   60.49 input  -57.11 | X-H torsion

> <Gold.Protein.ActiveResidues>
 VAL166  LYS551  ARG553  GLY616  TRP617  ASP618  TYR619  PRO620  LYS621  CYS622 
 ASP623  PHE694  ASN695  SER759  ASP760  ASP761  ALA762  ILE779  LEU786  VAL792 
 PHE793  MET794  SER795  GLU796  ALA797  LYS798  CYS799  TRP800  GLU811  SER814 

> <Gold.Protein.RotatedAtoms>
  150.9185  133.6909  159.2837 H   0  0  0  0  0  0  0  0  0  0  0  0  # atno 6907 bound_to 6896
  151.4372  135.1015  159.9669 H   0  0  0  0  0  0  0  0  0  0  0  0  # atno 6908 bound_to 6896
  152.4967  133.8602  159.7301 H   0  0  0  0  0  0  0  0  0  0  0  0  # atno 6909 bound_to 6896
  146.2308  139.9060  142.8532 H   0  0  0  0  0  0  0  0  0  0  0  0  # atno 7974 bound_to 7965
  156.2504  140.2892  156.0708 H   0  0  0  0  0  0  0  0  0  0  0  0  # atno 8008 bound_to 7997
  155.1673  140.0401  157.2873 H   0  0  0  0  0  0  0  0  0  0  0  0  # atno 8009 bound_to 7997
  154.6350  140.2508  155.7395 H   0  0  0  0  0  0  0  0  0  0  0  0  # atno 8010 bound_to 7997
  140.5548  143.9444  150.6602 H   0  0  0  0  0  0  0  0  0  0  0  0  # atno 10167 bound_to 10162
  156.9288  130.5818  149.5649 H   0  0  0  0  0  0  0  0  0  0  0  0  # atno 10718 bound_to 10713
  154.4987  135.2782  155.1438 H   0  0  0  0  0  0  0  0  0  0  0  0  # atno 10763 bound_to 10752
  154.3081  135.6234  153.5457 H   0  0  0  0  0  0  0  0  0  0  0  0  # atno 10764 bound_to 10752
  152.9899  135.5713  154.5425 H   0  0  0  0  0  0  0  0  0  0  0  0  # atno 10765 bound_to 10752
  140.0228  134.6128  155.9615 H   0  0  0  0  0  0  0  0  0  0  0  0  # atno 11005 bound_to 11000
  145.2276  140.9960  143.4009 LP  0  0  0  0  0  0  0  0  0  0  0  0  # atno 17320 bound_to 7965
  144.9557  139.4034  143.6380 LP  0  0  0  0  0  0  0  0  0  0  0  0  # atno 17321 bound_to 7965
  140.2879  143.3344  152.1090 LP  0  0  0  0  0  0  0  0  0  0  0  0  # atno 17342 bound_to 10162
  139.5043  144.6773  151.6097 LP  0  0  0  0  0  0  0  0  0  0  0  0  # atno 17343 bound_to 10162
  156.0456  130.5533  150.8874 LP  0  0  0  0  0  0  0  0  0  0  0  0  # atno 17370 bound_to 10713
  157.5860  131.0945  150.9195 LP  0  0  0  0  0  0  0  0  0  0  0  0  # atno 17371 bound_to 10713
  141.1784  133.6543  156.4921 LP  0  0  0  0  0  0  0  0  0  0  0  0  # atno 17394 bound_to 11000
  140.4358  134.7060  157.4966 LP  0  0  0  0  0  0  0  0  0  0  0  0  # atno 17395 bound_to 11000

$$$$
