AV-unprocessed.smi:251|AV-procd|sdf|1935|dock6
  -GOLD-   2262021 53D 1   1.00000     0.00000
 Structure written by MMmdl.
 50 54  0  0  0  0  0  0  0  0  1 V2000
  146.6751  140.9241  154.7593 O   0  0  0  0  0  0  0  0  0  0  0  0
  147.5953  140.2758  153.9040 C   0  0  0  0  0  0  0  0  0  0  0  0
  148.7400  139.5819  154.6887 C   0  0  0  0  0  0  0  0  0  0  0  0
  148.1704  138.4622  155.6180 C   0  0  0  0  0  0  0  0  0  0  0  0
  147.7941  137.2283  154.9403 N   0  0  0  0  0  0  0  0  0  0  0  0
  148.3474  135.9836  155.1360 C   0  0  0  0  0  0  0  0  0  0  0  0
  147.8389  135.0279  154.4098 N   0  0  0  0  0  0  0  0  0  0  0  0
  146.8364  135.6478  153.6720 C   0  0  0  0  0  0  0  0  0  0  0  0
  145.8904  135.2066  152.6982 C   0  0  0  0  0  0  0  0  0  0  0  0
  145.7850  133.9287  152.2477 N   0  0  0  0  0  0  0  0  0  0  0  0
  144.4854  133.3303  151.9456 C   0  0  0  0  0  0  0  0  0  0  0  0
  144.7657  131.8674  151.7027 C   0  0  1  0  0  0  0  0  0  0  0  0
  145.7671  131.4073  150.6623 C   0  0  0  0  0  0  0  0  0  0  0  0
  146.1823  131.5978  152.1061 C   0  0  2  0  0  0  0  0  0  0  0  0
  146.5999  130.4059  152.9572 C   0  0  0  0  0  0  0  0  0  0  0  0
  146.3442  130.6608  154.2399 F   0  0  0  0  0  0  0  0  0  0  0  0
  145.9268  129.3159  152.5882 F   0  0  0  0  0  0  0  0  0  0  0  0
  147.9032  130.1575  152.8257 F   0  0  0  0  0  0  0  0  0  0  0  0
  146.7852  132.9118  152.5588 C   0  0  0  0  0  0  0  0  0  0  0  0
  145.0499  136.1430  152.1830 N   0  0  0  0  0  0  0  0  0  0  0  0
  145.1122  137.4126  152.5923 C   0  0  0  0  0  0  0  0  0  0  0  0
  145.9331  137.9590  153.4891 N   0  0  0  0  0  0  0  0  0  0  0  0
  146.7918  137.0338  154.0037 C   0  0  0  0  0  0  0  0  0  0  0  0
  149.7498  139.0263  153.6523 C   0  0  0  0  0  0  0  0  0  0  0  0
  151.0663  138.5618  154.2995 C   0  0  0  0  0  0  0  0  0  0  0  0
  151.6590  139.6432  155.0062 O   0  0  0  0  0  0  0  0  0  0  0  0
  150.8466  140.1179  156.0724 C   0  0  0  0  0  0  0  0  0  0  0  0
  149.5026  140.6383  155.5277 C   0  0  0  0  0  0  0  0  0  0  0  0
  146.4585  141.7648  154.3862 H   0  0  0  0  0  0  0  0  0  0  0  0
  147.0558  139.5606  153.2832 H   0  0  0  0  0  0  0  0  0  0  0  0
  147.9963  141.0269  153.2225 H   0  0  0  0  0  0  0  0  0  0  0  0
  148.8892  138.1940  156.3908 H   0  0  0  0  0  0  0  0  0  0  0  0
  147.2979  138.8296  156.1591 H   0  0  0  0  0  0  0  0  0  0  0  0
  149.1531  135.8049  155.8327 H   0  0  0  0  0  0  0  0  0  0  0  0
  143.8053  133.4387  152.7913 H   0  0  0  0  0  0  0  0  0  0  0  0
  144.0322  133.7808  151.0621 H   0  0  0  0  0  0  0  0  0  0  0  0
  143.9888  131.1632  151.9931 H   0  0  0  0  0  0  0  0  0  0  0  0
  145.6649  130.3922  150.2849 H   0  0  0  0  0  0  0  0  0  0  0  0
  146.1163  132.1368  149.9341 H   0  0  0  0  0  0  0  0  0  0  0  0
  147.7170  133.0938  152.0232 H   0  0  0  0  0  0  0  0  0  0  0  0
  146.9872  132.8945  153.6301 H   0  0  0  0  0  0  0  0  0  0  0  0
  144.4048  138.0874  152.1338 H   0  0  0  0  0  0  0  0  0  0  0  0
  149.3121  138.2211  153.0634 H   0  0  0  0  0  0  0  0  0  0  0  0
  149.9948  139.8077  152.9316 H   0  0  0  0  0  0  0  0  0  0  0  0
  150.9115  137.7141  154.9673 H   0  0  0  0  0  0  0  0  0  0  0  0
  151.7608  138.2288  153.5282 H   0  0  0  0  0  0  0  0  0  0  0  0
  150.7034  139.3323  156.8144 H   0  0  0  0  0  0  0  0  0  0  0  0
  151.3773  140.9254  156.5770 H   0  0  0  0  0  0  0  0  0  0  0  0
  149.7051  141.5149  154.9107 H   0  0  0  0  0  0  0  0  0  0  0  0
  148.8852  140.9893  156.3553 H   0  0  0  0  0  0  0  0  0  0  0  0
  1  2  1  0  0  0  0
  1 29  1  0  0  0  0
  2  3  1  0  0  0  0
  2 30  1  0  0  0  0
  2 31  1  0  0  0  0
  3 28  1  0  0  0  0
  3  4  1  0  0  0  0
  3 24  1  0  0  0  0
  4  5  1  0  0  0  0
  4 32  1  0  0  0  0
  4 33  1  0  0  0  0
  5 23  1  0  0  0  0
  5  6  1  0  0  0  0
  6  7  2  0  0  0  0
  6 34  1  0  0  0  0
  7  8  1  0  0  0  0
  8 23  2  0  0  0  0
  8  9  1  0  0  0  0
  9 10  1  0  0  0  0
  9 20  2  0  0  0  0
 10 19  1  0  0  0  0
 10 11  1  0  0  0  0
 11 12  1  0  0  0  0
 11 35  1  0  0  0  0
 11 36  1  0  0  0  0
 12 14  1  0  0  0  0
 12 13  1  0  0  0  0
 12 37  1  0  0  0  0
 13 14  1  0  0  0  0
 13 38  1  0  0  0  0
 13 39  1  0  0  0  0
 14 15  1  0  0  0  0
 14 19  1  0  0  0  0
 15 16  1  0  0  0  0
 15 17  1  0  0  0  0
 15 18  1  0  0  0  0
 19 40  1  0  0  0  0
 19 41  1  0  0  0  0
 20 21  1  0  0  0  0
 21 22  2  0  0  0  0
 21 42  1  0  0  0  0
 22 23  1  0  0  0  0
 24 25  1  0  0  0  0
 24 43  1  0  0  0  0
 24 44  1  0  0  0  0
 25 26  1  0  0  0  0
 25 45  1  0  0  0  0
 25 46  1  0  0  0  0
 26 27  1  0  0  0  0
 27 28  1  0  0  0  0
 27 47  1  0  0  0  0
 27 48  1  0  0  0  0
 28 49  1  0  0  0  0
 28 50  1  0  0  0  0
M  END
> <s_m_source_file>
AV-unprocessed.smi

> <i_m_source_file_index>
251

> <i_lp_mmshare_version>
43012

> <i_f3d_flags>
0

> <s_epik_input>
W0NIMl0xW0NIMl1PW0NIMl1bQ0gyXUMxKFtDSDJdW09IXSlbQ0gyXW4oW2NIXW4yKWMoYzIzKW5bY0hdbmMzTihbQ0gyXTQpW0NIMl1bQ0BIXShbQ0gyXTUpW0NAQF00NUMoRikoRilG

> <s_epik_cmdline>
J2VwaWtfcHl0aG9uJywgJy1waCcsICc3LjAnLCAnLXRuJywgJzgnLCAnLW1hJywgJzIwMCcsICctbWV0YWxfYmluZGluZycsICctaW1hZScsICc8aW5maWxlLm1hZT4nLCAnLW9tYWUnLCAnPG91dGZpbGUubWFlPic=

> <r_lp_tautomer_probability>
1

> <r_epik_Ionization_Penalty>
0.00226625

> <r_epik_Ionization_Penalty_Charging>
0

> <r_epik_Ionization_Penalty_Neutral>
0.00226625

> <r_epik_State_Penalty>
0.00138204

> <r_epik_Charging_Adjusted_Penalty>
0.00138204

> <i_epik_Tot_Q>
0

> <i_epik_Tot_abs_Q>
0

> <r_epik_Metal_State_Penalty>
-0

> <b_epik_Metal_Only>
0

> <s_lp_Force_Field>
OPLS_2005

> <r_lp_Energy>
66.9276

> <b_lp_Chiralities_Consistent>
1

> <s_lp_Variant>
AV-unprocessed.smi:251-2

> <Gold.Version>
5.8.1

> <Gold.Id.Protein>
6NUR|6NUR_protein|mol2

> <Gold.PLP.Fitness>
36.4679

> <Gold.PLP.PLP>
-28.9598

> <Gold.PLP.part.hbond>
-1.0000

> <Gold.PLP.part.metal>
0.0000

> <Gold.PLP.part.buried>
3.2997

> <Gold.PLP.part.nonpolar>
-32.5390

> <Gold.PLP.part.repulsive>
1.2275

> <Gold.PLP.ligand.clash>
0.0000

> <Gold.PLP.ligand.torsion>
1.3318

> <Gold.PLP.Chemscore.Hbond>
0.8000

> <Gold.PLP.Chemscore.CHOScore>
2.0000

> <Gold.PLP.Chemscore.Metal>
0.0000

> <Gold.Chemscore.Hbonds>
donor molecule, donor type, donor heavy atom, donor atom, acceptor molecule, acceptor atom, score
      P1  H  7989  7998       L1    26  0.75
      L1  C    21    42       P1 10171  1.00
      L1  C    21    42       P1 10175  1.00

> <Gold.PLP.Chemscore.Internal.Correction>
1.7717

> <Gold.Rescore>
     Score         DG    S(hbond)    S(metal)    S(lipo)     H(rot)  DE(clash)    DE(int)     intcor
      7.56     -10.80       1.05        0.00      64.35       2.23       0.01       3.22       ----

> <Gold.Chemscore.Fitness>
7.5578

> <Gold.Chemscore.DG>
-10.7967

> <Gold.Chemscore.ZeroCoef>
-5.4800

> <Gold.Chemscore.Hbond>
1.0504

> <Gold.Chemscore.Metal>
0.0000

> <Gold.Chemscore.Lipo>
64.3459

> <Gold.Chemscore.Internal_Hbond>
0.0000

> <Gold.Chemscore.DEClash>
0.0147

> <Gold.Chemscore.DEInternal>
3.2242

> <Gold.Chemscore.Rot>
2.2344

> <Gold.Chemscore.Internal.Correction>
   9.000000E+99

> <Gold.Chemscore.Hbonds>
donor molecule, donor type, donor heavy atom, donor atom, acceptor molecule, acceptor atom, score
      P1  H  7989  7998       L1    26  0.08

> <Gold.Chemscore.Hbond.Weighted>
-3.5083

> <Gold.Chemscore.Metal.Weighted>
-0.0000

> <Gold.Chemscore.Lipo.Weighted>
-7.5285

> <Gold.Chemscore.Internal_Hbond.Weighted>
0.0000

> <Gold.Chemscore.DEClash.Weighted>
0.0147

> <Gold.Chemscore.DEInternal.Weighted>
3.2242

> <Gold.Chemscore.Rot.Weighted>
5.7200

> <Gold.Chemscore.Internal.Correction.Weighted>
   9.000000E+99

> <Gold.Protein.RotatedTorsions>
[ 6907 6896 6895 6894 ] final  133.68 input  -60.11 | X-H torsion
[ 7974 7965 7964 7962 ] final  113.89 input  175.53 | X-H torsion
[ 8008 7997 7996 7995 ] final   53.09 input   59.86 | X-H torsion
[ 10167 10162 10161 10158 ] final  -93.52 input  -65.29 | X-H torsion
[ 10718 10713 10712 10709 ] final  -35.85 input   66.30 | X-H torsion
[ 10763 10752 10751 10750 ] final   75.05 input  -60.55 | X-H torsion
[ 11005 11000 10999 10996 ] final -177.88 input  -57.11 | X-H torsion

> <Gold.Protein.ActiveResidues>
 VAL166  LYS551  ARG553  GLY616  TRP617  ASP618  TYR619  PRO620  LYS621  CYS622 
 ASP623  PHE694  ASN695  SER759  ASP760  ASP761  ALA762  ILE779  LEU786  VAL792 
 PHE793  MET794  SER795  GLU796  ALA797  LYS798  CYS799  TRP800  GLU811  SER814 

> <Gold.Protein.RotatedAtoms>
  152.3194  133.5837  159.5733 H   0  0  0  0  0  0  0  0  0  0  0  0  # atno 6907 bound_to 6896
  150.7363  134.0034  159.3654 H   0  0  0  0  0  0  0  0  0  0  0  0  # atno 6908 bound_to 6896
  151.7920  135.0733  160.0439 H   0  0  0  0  0  0  0  0  0  0  0  0  # atno 6909 bound_to 6896
  145.2112  139.2905  143.4267 H   0  0  0  0  0  0  0  0  0  0  0  0  # atno 7974 bound_to 7965
  155.4625  140.3462  155.4314 H   0  0  0  0  0  0  0  0  0  0  0  0  # atno 8008 bound_to 7997
  156.1151  140.1471  156.9313 H   0  0  0  0  0  0  0  0  0  0  0  0  # atno 8009 bound_to 7997
  154.4784  140.0878  156.7296 H   0  0  0  0  0  0  0  0  0  0  0  0  # atno 8010 bound_to 7997
  140.3238  143.3033  152.0017 H   0  0  0  0  0  0  0  0  0  0  0  0  # atno 10167 bound_to 10162
  156.3337  130.4283  149.7849 H   0  0  0  0  0  0  0  0  0  0  0  0  # atno 10718 bound_to 10713
  153.0628  135.5003  154.8132 H   0  0  0  0  0  0  0  0  0  0  0  0  # atno 10763 bound_to 10752
  154.6908  135.2984  154.9484 H   0  0  0  0  0  0  0  0  0  0  0  0  # atno 10764 bound_to 10752
  154.0239  135.6738  153.4827 H   0  0  0  0  0  0  0  0  0  0  0  0  # atno 10765 bound_to 10752
  140.4360  134.6475  157.4735 H   0  0  0  0  0  0  0  0  0  0  0  0  # atno 11005 bound_to 11000
  146.3397  140.2389  142.8595 LP  0  0  0  0  0  0  0  0  0  0  0  0  # atno 17320 bound_to 7965
  144.9854  140.8498  143.5372 LP  0  0  0  0  0  0  0  0  0  0  0  0  # atno 17321 bound_to 7965
  139.4869  144.6290  151.7108 LP  0  0  0  0  0  0  0  0  0  0  0  0  # atno 17342 bound_to 10162
  140.5459  144.0504  150.6107 LP  0  0  0  0  0  0  0  0  0  0  0  0  # atno 17343 bound_to 10162
  156.5111  130.8172  151.3169 LP  0  0  0  0  0  0  0  0  0  0  0  0  # atno 17370 bound_to 10713
  157.7435  130.9913  150.2597 LP  0  0  0  0  0  0  0  0  0  0  0  0  # atno 17371 bound_to 10713
  140.0102  134.6702  155.9392 LP  0  0  0  0  0  0  0  0  0  0  0  0  # atno 17394 bound_to 11000
  141.1726  133.6538  156.4707 LP  0  0  0  0  0  0  0  0  0  0  0  0  # atno 17395 bound_to 11000

$$$$
