AV-unprocessed.smi:670|AV-procd|sdf|3269|dock7
  -GOLD-   22720 0223D 1   1.00000     0.00000
 Structure written by MMmdl.
 45 46  0  0  0  0  0  0  0  0  1 V2000
  153.1509  140.9922  160.2165 C   0  0  0  0  0  0  0  0  0  0  0  0
  152.7774  142.1097  159.2288 C   0  0  2  0  0  0  0  0  0  0  0  0
  152.8794  143.4908  159.9069 C   0  0  0  0  0  0  0  0  0  0  0  0
  152.5110  144.6277  158.9419 C   0  0  0  0  0  0  0  0  0  0  0  0
  151.1087  144.4173  158.3553 C   0  0  0  0  0  0  0  0  0  0  0  0
  150.9984  143.0486  157.6675 C   0  0  0  0  0  0  0  0  0  0  0  0
  151.3690  141.8975  158.6278 C   0  0  1  0  0  0  0  0  0  0  0  0
  151.3864  140.6658  157.9179 O   0  0  0  0  0  0  0  0  0  0  0  0
  150.5210  139.6648  158.4337 C   0  0  0  0  0  0  0  0  0  0  0  0
  150.5626  138.4376  157.5127 C   0  0  0  0  0  0  0  0  0  0  0  0
  149.4074  137.5718  157.7248 N   0  0  0  0  0  0  0  0  0  0  0  0
  149.1551  136.8796  158.8461 C   0  0  0  0  0  0  0  0  0  0  0  0
  149.8868  136.9082  159.8369 O   0  0  0  0  0  0  0  0  0  0  0  0
  147.8928  136.0052  158.8271 C   0  0  0  0  0  0  0  0  0  0  0  0
  147.5959  135.3846  160.1263 N   0  0  0  0  0  0  0  0  0  0  0  0
  147.5809  133.9980  160.1024 N   0  0  0  0  0  0  0  0  0  0  0  0
  147.3492  133.3370  161.1859 C   0  0  0  0  0  0  0  0  0  0  0  0
  147.3471  131.9651  161.1194 O   0  0  0  0  0  0  0  0  0  0  0  0
  147.0972  134.0162  162.4380 C   0  0  0  0  0  0  0  0  0  0  0  0
  147.1071  135.3672  162.4497 C   0  0  0  0  0  0  0  0  0  0  0  0
  147.3672  136.1481  161.2389 C   0  0  0  0  0  0  0  0  0  0  0  0
  147.3802  137.3789  161.2205 O   0  0  0  0  0  0  0  0  0  0  0  0
  148.2260  131.7009  161.3436 H   0  0  0  0  0  0  0  0  0  0  0  0
  152.4504  140.9501  161.0508 H   0  0  0  0  0  0  0  0  0  0  0  0
  154.1489  141.1487  160.6268 H   0  0  0  0  0  0  0  0  0  0  0  0
  153.1493  140.0159  159.7310 H   0  0  0  0  0  0  0  0  0  0  0  0
  153.5010  142.0843  158.4122 H   0  0  0  0  0  0  0  0  0  0  0  0
  152.2197  143.5248  160.7750 H   0  0  0  0  0  0  0  0  0  0  0  0
  153.8910  143.6480  160.2828 H   0  0  0  0  0  0  0  0  0  0  0  0
  152.5581  145.5857  159.4601 H   0  0  0  0  0  0  0  0  0  0  0  0
  153.2432  144.6756  158.1349 H   0  0  0  0  0  0  0  0  0  0  0  0
  150.3642  144.4892  159.1492 H   0  0  0  0  0  0  0  0  0  0  0  0
  150.8806  145.2108  157.6434 H   0  0  0  0  0  0  0  0  0  0  0  0
  149.9851  142.9233  157.2875 H   0  0  0  0  0  0  0  0  0  0  0  0
  151.6579  143.0249  156.7989 H   0  0  0  0  0  0  0  0  0  0  0  0
  150.6457  141.8508  159.4443 H   0  0  0  0  0  0  0  0  0  0  0  0
  150.8521  139.3797  159.4332 H   0  0  0  0  0  0  0  0  0  0  0  0
  149.4977  140.0300  158.5218 H   0  0  0  0  0  0  0  0  0  0  0  0
  150.6407  138.7430  156.4678 H   0  0  0  0  0  0  0  0  0  0  0  0
  151.4566  137.8528  157.7294 H   0  0  0  0  0  0  0  0  0  0  0  0
  148.7560  137.4855  156.9583 H   0  0  0  0  0  0  0  0  0  0  0  0
  147.0395  136.5992  158.4941 H   0  0  0  0  0  0  0  0  0  0  0  0
  148.0286  135.2361  158.0645 H   0  0  0  0  0  0  0  0  0  0  0  0
  146.9054  133.4492  163.3371 H   0  0  0  0  0  0  0  0  0  0  0  0
  146.9197  135.8877  163.3773 H   0  0  0  0  0  0  0  0  0  0  0  0
  1  2  1  0  0  0  0
  1 24  1  0  0  0  0
  1 25  1  0  0  0  0
  1 26  1  0  0  0  0
  2  7  1  0  0  0  0
  2  3  1  0  0  0  0
  2 27  1  0  0  0  0
  3  4  1  0  0  0  0
  3 28  1  0  0  0  0
  3 29  1  0  0  0  0
  4  5  1  0  0  0  0
  4 30  1  0  0  0  0
  4 31  1  0  0  0  0
  5  6  1  0  0  0  0
  5 32  1  0  0  0  0
  5 33  1  0  0  0  0
  6  7  1  0  0  0  0
  6 34  1  0  0  0  0
  6 35  1  0  0  0  0
  7  8  1  0  0  0  0
  7 36  1  0  0  0  0
  8  9  1  0  0  0  0
  9 10  1  0  0  0  0
  9 37  1  0  0  0  0
  9 38  1  0  0  0  0
 10 11  1  0  0  0  0
 10 39  1  0  0  0  0
 10 40  1  0  0  0  0
 11 12  1  0  0  0  0
 11 41  1  0  0  0  0
 12 13  2  0  0  0  0
 12 14  1  0  0  0  0
 14 42  1  0  0  0  0
 14 43  1  0  0  0  0
 14 15  1  0  0  0  0
 15 16  1  0  0  0  0
 15 21  1  0  0  0  0
 16 17  2  0  0  0  0
 17 18  1  0  0  0  0
 17 19  1  0  0  0  0
 18 23  1  0  0  0  0
 19 44  1  0  0  0  0
 19 20  2  0  0  0  0
 20 45  1  0  0  0  0
 20 21  1  0  0  0  0
 21 22  2  0  0  0  0
M  END
> <s_m_source_file>
AV-unprocessed.smi

> <i_m_source_file_index>
670

> <i_lp_mmshare_version>
43012

> <i_f3d_flags>
0

> <s_epik_input>
W0NIM11bQ0BASF0xW0NIMl1bQ0gyXVtDSDJdW0NIMl1bQ0BIXTFPW0NIMl1bQ0gyXVtOSF1DKD1PKVtDSDJdbjJbbkhdYyg9TylbY0hdW2NIXWMyPU8=

> <s_epik_cmdline>
J2VwaWtfcHl0aG9uJywgJy1waCcsICc3LjAnLCAnLXRuJywgJzgnLCAnLW1hJywgJzIwMCcsICctbWV0YWxfYmluZGluZycsICctaW1hZScsICc8aW5maWxlLm1hZT4nLCAnLW9tYWUnLCAnPG91dGZpbGUubWFlPic=

> <r_lp_tautomer_probability>
0.9996

> <r_epik_Ionization_Penalty>
2.12726

> <r_epik_Ionization_Penalty_Charging>
3.83395e-08

> <r_epik_Ionization_Penalty_Neutral>
2.12726

> <r_epik_State_Penalty>
1.70432

> <r_epik_Charging_Adjusted_Penalty>
1.70432

> <i_epik_Tot_Q>
0

> <i_epik_Tot_abs_Q>
0

> <r_epik_Metal_State_Penalty>
1.70432

> <b_epik_Metal_Only>
0

> <s_lp_Force_Field>
OPLS_2005

> <r_lp_Energy>
21.1157

> <b_lp_Chiralities_Consistent>
1

> <s_lp_Variant>
AV-unprocessed.smi:670-5

> <Gold.Version>
5.8.1

> <Gold.Id.Protein>
6NUR|6NUR_protein|mol2

> <Gold.PLP.Fitness>
53.7221

> <Gold.PLP.PLP>
-47.1393

> <Gold.PLP.part.hbond>
-3.4964

> <Gold.PLP.part.metal>
0.0000

> <Gold.PLP.part.buried>
-5.9988

> <Gold.PLP.part.nonpolar>
-38.7947

> <Gold.PLP.part.repulsive>
0.0697

> <Gold.PLP.ligand.clash>
0.0000

> <Gold.PLP.ligand.torsion>
0.8937

> <Gold.PLP.Chemscore.Hbond>
2.7830

> <Gold.PLP.Chemscore.CHOScore>
0.0000

> <Gold.PLP.Chemscore.Metal>
0.0000

> <Gold.Chemscore.Hbonds>
donor molecule, donor type, donor heavy atom, donor atom, acceptor molecule, acceptor atom, score
      P1  H  6896  6908       L1    13  0.59
      P1  H  6931  6943       L1    22  0.78
      P1  H  6934  6947       L1    22  0.98

> <Gold.PLP.Chemscore.Internal.Correction>
0.0212

> <Gold.Rescore>
     Score         DG    S(hbond)    S(metal)    S(lipo)     H(rot)  DE(clash)    DE(int)     intcor
     17.77     -18.81       2.75        0.00     103.01       3.09       0.02       1.02       ----

> <Gold.Chemscore.Fitness>
17.7701

> <Gold.Chemscore.DG>
-18.8135

> <Gold.Chemscore.ZeroCoef>
-5.4800

> <Gold.Chemscore.Hbond>
2.7522

> <Gold.Chemscore.Metal>
0.0000

> <Gold.Chemscore.Lipo>
103.0067

> <Gold.Chemscore.Internal_Hbond>
0.0000

> <Gold.Chemscore.DEClash>
0.0187

> <Gold.Chemscore.DEInternal>
1.0247

> <Gold.Chemscore.Rot>
3.0901

> <Gold.Chemscore.Internal.Correction>
   9.000000E+99

> <Gold.Chemscore.Hbonds>
donor molecule, donor type, donor heavy atom, donor atom, acceptor molecule, acceptor atom, score
      P1  H  6896  6908       L1    13  0.38
      P1  H  6931  6943       L1    22  0.71
      P1  H  6934  6947       L1    22  0.93

> <Gold.Chemscore.Hbond.Weighted>
-9.1923

> <Gold.Chemscore.Metal.Weighted>
-0.0000

> <Gold.Chemscore.Lipo.Weighted>
-12.0518

> <Gold.Chemscore.Internal_Hbond.Weighted>
0.0000

> <Gold.Chemscore.DEClash.Weighted>
0.0187

> <Gold.Chemscore.DEInternal.Weighted>
1.0247

> <Gold.Chemscore.Rot.Weighted>
7.9106

> <Gold.Chemscore.Internal.Correction.Weighted>
   9.000000E+99

> <Gold.Protein.RotatedTorsions>
[ 6907 6896 6895 6894 ] final -150.06 input  -60.11 | X-H torsion
[ 7974 7965 7964 7962 ] final   80.46 input  175.53 | X-H torsion
[ 8008 7997 7996 7995 ] final  141.22 input   59.86 | X-H torsion
[ 10167 10162 10161 10158 ] final    4.25 input  -65.29 | X-H torsion
[ 10718 10713 10712 10709 ] final  159.06 input   66.30 | X-H torsion
[ 10763 10752 10751 10750 ] final -146.35 input  -60.55 | X-H torsion
[ 11005 11000 10999 10996 ] final    4.29 input  -57.11 | X-H torsion

> <Gold.Protein.ActiveResidues>
 VAL166  LYS551  ARG553  GLY616  TRP617  ASP618  TYR619  PRO620  LYS621  CYS622 
 ASP623  PHE694  ASN695  SER759  ASP760  ASP761  ALA762  ILE779  LEU786  VAL792 
 PHE793  MET794  SER795  GLU796  ALA797  LYS798  CYS799  TRP800  GLU811  SER814 

> <Gold.Protein.RotatedAtoms>
  151.1930  133.4656  159.2594 H   0  0  0  0  0  0  0  0  0  0  0  0  # atno 6907 bound_to 6896
  151.1144  135.0045  159.8519 H   0  0  0  0  0  0  0  0  0  0  0  0  # atno 6908 bound_to 6896
  152.5452  134.1847  159.8702 H   0  0  0  0  0  0  0  0  0  0  0  0  # atno 6909 bound_to 6896
  145.6509  139.2447  143.1977 H   0  0  0  0  0  0  0  0  0  0  0  0  # atno 7974 bound_to 7965
  156.2969  140.2321  156.4528 H   0  0  0  0  0  0  0  0  0  0  0  0  # atno 8008 bound_to 7997
  154.8086  140.0444  157.1347 H   0  0  0  0  0  0  0  0  0  0  0  0  # atno 8009 bound_to 7997
  154.9449  140.3034  155.5106 H   0  0  0  0  0  0  0  0  0  0  0  0  # atno 8010 bound_to 7997
  140.6544  143.7463  150.7629 H   0  0  0  0  0  0  0  0  0  0  0  0  # atno 10167 bound_to 10162
  157.1693  131.0606  151.2191 H   0  0  0  0  0  0  0  0  0  0  0  0  # atno 10718 bound_to 10713
  154.8340  135.3389  154.6648 H   0  0  0  0  0  0  0  0  0  0  0  0  # atno 10763 bound_to 10752
  153.7265  135.6955  153.5004 H   0  0  0  0  0  0  0  0  0  0  0  0  # atno 10764 bound_to 10752
  153.2343  135.4406  155.0582 H   0  0  0  0  0  0  0  0  0  0  0  0  # atno 10765 bound_to 10752
  140.5836  133.9990  155.8058 H   0  0  0  0  0  0  0  0  0  0  0  0  # atno 11005 bound_to 11000
  146.1204  140.7316  142.9460 LP  0  0  0  0  0  0  0  0  0  0  0  0  # atno 17320 bound_to 7965
  144.7123  140.4084  143.7071 LP  0  0  0  0  0  0  0  0  0  0  0  0  # atno 17321 bound_to 7965
  140.1120  143.4690  152.2364 LP  0  0  0  0  0  0  0  0  0  0  0  0  # atno 17342 bound_to 10162
  139.5765  144.7490  151.3753 LP  0  0  0  0  0  0  0  0  0  0  0  0  # atno 17343 bound_to 10162
  157.4058  130.7358  149.6801 LP  0  0  0  0  0  0  0  0  0  0  0  0  # atno 17370 bound_to 10713
  155.9741  130.4108  150.3951 LP  0  0  0  0  0  0  0  0  0  0  0  0  # atno 17371 bound_to 10713
  141.0980  133.9812  157.3127 LP  0  0  0  0  0  0  0  0  0  0  0  0  # atno 17394 bound_to 11000
  139.9306  135.0200  156.8387 LP  0  0  0  0  0  0  0  0  0  0  0  0  # atno 17395 bound_to 11000

$$$$
