#       Name:                AV-unprocessed.smi:240
#       Creating user name   scv26
#       Creation time:       Thu Mar 26 20:43:34 2020


#       File generated by GOLD software.
#

@<TRIPOS>MOLECULE
AV-unprocessed.smi:240
    67    71     1
SMALL
NO_CHARGES


@<TRIPOS>ATOM
      1 ****        -1.8786  -2.7459  -2.4969 O.3            1 S1                 0.0000
      2 ****        -2.5319  -3.1276  -1.3036 C.3            1 S1                 0.0000
      3 ****        -2.1007  -4.5227  -0.8533 C.3            1 S1                 0.0000
      4 ****        -2.4377  -4.5617   0.6406 C.3            1 S1                 0.0000
      5 ****        -2.4227  -3.1023   1.1248 C.3            1 S1                 0.0000
      6 ****        -2.1381  -2.2362  -0.1177 C.3            1 S1                 0.0000
      7 ****        -2.7489  -0.8017  -0.1087 C.3            1 S1                 0.0000
      8 ****        -4.2991  -0.7834  -0.1181 C.3            1 S1                 0.0000
      9 ****        -4.7767   0.5570  -0.1293 O.3            1 S1                 0.0000
     10 ****        -4.3755   1.2720   1.0312 C.3            1 S1                 0.0000
     11 ****        -2.8440   1.3518   1.0604 C.3            1 S1                 0.0000
     12 ****        -2.2641   0.0146   1.0135 N.3            1 S1                 0.0000
     13 ****        -0.9266   0.0728   1.2059 C.ar           1 S1                 0.0000
     14 ****        -0.4745  -0.1937   2.4559 N.ar           1 S1                 0.0000
     15 ****         0.8363  -0.1588   2.7135 C.ar           1 S1                 0.0000
     16 ****         1.8432   0.1222   1.8835 N.ar           1 S1                 0.0000
     17 ****         1.3895   0.4050   0.6283 C.ar           1 S1                 0.0000
     18 ****         0.0311   0.4031   0.2045 C.ar           1 S1                 0.0000
     19 ****        -0.0445   0.7364  -1.1425 N.2            1 S1                 0.0000
     20 ****         1.1984   0.9168  -1.4963 C.2            1 S1                 0.0000
     21 ****         2.1255   0.7510  -0.4919 N.pl3          1 S1                 0.0000
     22 ****         3.5694   0.8964  -0.6007 C.3            1 S1                 0.0000
     23 ****         4.0733   2.3290  -0.3036 C.3            1 S1                 0.0000
     24 ****         3.6938   2.6936   1.0125 O.3            1 S1                 0.0000
     25 ****         5.5877   2.4566  -0.4168 C.3            1 S1                 0.0000
     26 ****         5.7740   3.9100  -0.8303 C.3            1 S1                 0.0000
     27 ****         4.7096   4.1153  -1.7431 O.3            1 S1                 0.0000
     28 ****         3.5617   3.4114  -1.2777 C.3            1 S1                 0.0000
     29 ****        -2.1410  -1.8646  -2.7153 H              1 S1                 0.0000
     30 ****        -3.6093  -3.1291  -1.4634 H              1 S1                 0.0000
     31 ****        -2.5901  -5.3181  -1.4162 H              1 S1                 0.0000
     32 ****        -1.0234  -4.6409  -0.9819 H              1 S1                 0.0000
     33 ****        -3.4329  -4.9839   0.7850 H              1 S1                 0.0000
     34 ****        -1.7354  -5.1855   1.1945 H              1 S1                 0.0000
     35 ****        -3.3812  -2.8625   1.5825 H              1 S1                 0.0000
     36 ****        -1.6600  -2.9442   1.8882 H              1 S1                 0.0000
     37 ****        -1.0523  -2.1453  -0.1778 H              1 S1                 0.0000
     38 ****        -2.4330  -0.3089  -1.0280 H              1 S1                 0.0000
     39 ****        -4.6902  -1.2699  -1.0099 H              1 S1                 0.0000
     40 ****        -4.7200  -1.3068   0.7404 H              1 S1                 0.0000
     41 ****        -4.8040   2.2738   0.9990 H              1 S1                 0.0000
     42 ****        -4.7608   0.7867   1.9295 H              1 S1                 0.0000
     43 ****        -2.4871   1.9345   0.2097 H              1 S1                 0.0000
     44 ****        -2.5204   1.8699   1.9645 H              1 S1                 0.0000
     45 ****         1.1191  -0.3900   3.7299 H              1 S1                 0.0000
     46 ****         1.4723   1.1817  -2.5071 H              1 S1                 0.0000
     47 ****         4.0374   0.1850   0.0809 H              1 S1                 0.0000
     48 ****         3.8653   0.5944  -1.6063 H              1 S1                 0.0000
     49 ****         4.0070   3.5684   1.1837 H              1 S1                 0.0000
     50 ****         6.1207   2.1985   0.4994 H              1 S1                 0.0000
     51 ****         5.9640   1.8111  -1.2117 H              1 S1                 0.0000
     52 ****         5.6602   4.5794   0.0237 H              1 S1                 0.0000
     53 ****         6.7434   4.0984  -1.2922 H              1 S1                 0.0000
     54 ****         3.0561   2.9859  -2.1439 H              1 S1                 0.0000
     55 ****         2.8658   4.1031  -0.8001 H              1 S1                 0.0000
     56 ****        -2.1372  -3.3675  -3.2363 LP             1 S1                 0.0000
     57 ****        -0.8880  -2.7795  -2.3643 LP             1 S1                 0.0000
     58 ****        -5.7757   0.5439  -0.1718 LP             1 S1                 0.0000
     59 ****        -4.4148   1.0224  -0.9371 LP             1 S1                 0.0000
     60 ****        -2.6077  -0.5172   1.7875 LP             1 S1                 0.0000
     61 ****        -1.1217  -0.4164   3.1849 LP             1 S1                 0.0000
     62 ****         2.8076   0.1250   2.1481 LP             1 S1                 0.0000
     63 ****        -0.8635   0.8190  -1.7103 LP             1 S1                 0.0000
     64 ****         4.0978   2.0563   1.6687 LP             1 S1                 0.0000
     65 ****         2.6975   2.6699   1.0949 LP             1 S1                 0.0000
     66 ****         4.9704   3.7729  -2.6457 LP             1 S1                 0.0000
     67 ****         4.5030   5.0918  -1.8040 LP             1 S1                 0.0000
@<TRIPOS>BOND
    1    1    2 1     
    2    1   29 1     
    3    2    6 1     
    4    2    3 1     
    5    2   30 1     
    6    3    4 1     
    7    3   31 1     
    8    3   32 1     
    9    4    5 1     
   10    4   33 1     
   11    4   34 1     
   12    5    6 1     
   13    5   35 1     
   14    5   36 1     
   15    6    7 1     
   16    6   37 1     
   17    7   12 1     
   18    7    8 1     
   19    7   38 1     
   20    8    9 1     
   21    8   39 1     
   22    8   40 1     
   23    9   10 1     
   24   10   11 1     
   25   10   41 1     
   26   10   42 1     
   27   11   12 1     
   28   11   43 1     
   29   11   44 1     
   30   12   13 1     
   31   13   18 ar    
   32   13   14 ar    
   33   14   15 ar    
   34   15   16 ar    
   35   15   45 1     
   36   16   17 ar    
   37   17   21 1     
   38   17   18 ar    
   39   18   19 1     
   40   19   20 2     
   41   20   21 1     
   42   20   46 1     
   43   21   22 1     
   44   22   23 1     
   45   22   47 1     
   46   22   48 1     
   47   23   28 1     
   48   23   24 1     
   49   23   25 1     
   50   24   49 1     
   51   25   26 1     
   52   25   50 1     
   53   25   51 1     
   54   26   27 1     
   55   26   52 1     
   56   26   53 1     
   57   27   28 1     
   58   28   54 1     
   59   28   55 1     
   60    1   56 1     
   61    1   57 1     
   62    9   58 1     
   63    9   59 1     
   64   12   60 1     
   65   14   61 1     
   66   16   62 1     
   67   19   63 1     
   68   24   64 1     
   69   24   65 1     
   70   27   66 1     
   71   27   67 1     
@<TRIPOS>SUBSTRUCTURE
      1 S1             1
@<TRIPOS>SET
LONE_PAIRS      STATIC     ATOMS    <user>   **** ""
12 56 57 58 59 60 61 62 63 64 65 66 67
DONOR_HYDROGENS      STATIC     ATOMS    <user>   **** ""
2 29 49
ATOM$BLUE        STATIC     ATOMS    COLORGROUP SYSTEM
12 56 57 58 59 60 61 62 63 64 65 66 67
ATOM$RED        STATIC     ATOMS    COLORGROUP SYSTEM
2 29 49
