AV-unprocessed.smi:741|AV-procd|sdf|3556|dock4
  -GOLD-   22720 0553D 1   1.00000     0.00000
 Structure written by MMmdl.
 43 44  0  0  0  0  0  0  0  0  3 V2000
  147.1259  140.6340  153.4018 C   0  0  0  0  0  0  0  0  0  0  0  0
  147.0460  139.2874  152.6681 C   0  0  0  0  0  0  0  0  0  0  0  0
  146.6504  138.1066  153.5756 C   0  0  2  0  0  0  0  0  0  0  0  0
  147.6493  137.9453  154.7434 C   0  0  0  0  0  0  0  0  0  0  0  0
  149.0603  137.8671  154.2928 N   0  3  0  0  0  0  0  0  0  0  0  0
  149.7331  139.1787  154.1428 C   0  0  0  0  0  0  0  0  0  0  0  0
  151.1715  139.0047  154.6504 C   0  0  0  0  0  0  0  0  0  0  0  0
  151.3499  137.4982  154.8141 C   0  0  0  0  0  0  0  0  0  0  0  0
  149.9374  137.0177  155.1256 C   0  0  0  0  0  0  0  0  0  0  0  0
  146.5752  136.8785  152.7799 N   0  0  0  0  0  0  0  0  0  0  0  0
  145.4687  136.1620  152.5319 C   0  0  0  0  0  0  0  0  0  0  0  0
  144.3670  136.4292  153.0096 O   0  0  0  0  0  0  0  0  0  0  0  0
  145.7342  135.1182  151.7270 N   0  0  0  0  0  0  0  0  0  0  0  0
  144.8364  134.1426  151.2122 C   0  0  0  0  0  0  0  0  0  0  0  0
  143.6207  133.9445  151.9042 C   0  0  0  0  0  0  0  0  0  0  0  0
  142.7056  132.9769  151.4415 C   0  0  0  0  0  0  0  0  0  0  0  0
  143.0006  132.2413  150.3484 N   0  3  0  0  0  0  0  0  0  0  0  0
  144.1546  132.3839  149.6624 C   0  0  0  0  0  0  0  0  0  0  0  0
  145.1082  133.3359  150.0776 C   0  0  0  0  0  0  0  0  0  0  0  0
  147.4556  141.4225  152.7251 H   0  0  0  0  0  0  0  0  0  0  0  0
  147.8357  140.5898  154.2284 H   0  0  0  0  0  0  0  0  0  0  0  0
  146.1580  140.9319  153.8052 H   0  0  0  0  0  0  0  0  0  0  0  0
  146.3425  139.3700  151.8386 H   0  0  0  0  0  0  0  0  0  0  0  0
  148.0187  139.0833  152.2190 H   0  0  0  0  0  0  0  0  0  0  0  0
  145.6654  138.3369  153.9860 H   0  0  0  0  0  0  0  0  0  0  0  0
  147.5410  138.7998  155.4136 H   0  0  0  0  0  0  0  0  0  0  0  0
  147.4115  137.0607  155.3361 H   0  0  0  0  0  0  0  0  0  0  0  0
  149.7142  139.4688  153.0920 H   0  0  0  0  0  0  0  0  0  0  0  0
  149.2268  139.9604  154.7115 H   0  0  0  0  0  0  0  0  0  0  0  0
  151.9096  139.4405  153.9768 H   0  0  0  0  0  0  0  0  0  0  0  0
  151.2793  139.4935  155.6196 H   0  0  0  0  0  0  0  0  0  0  0  0
  151.6918  137.0595  153.8758 H   0  0  0  0  0  0  0  0  0  0  0  0
  152.0689  137.2374  155.5913 H   0  0  0  0  0  0  0  0  0  0  0  0
  149.7205  137.1813  156.1825 H   0  0  0  0  0  0  0  0  0  0  0  0
  149.8052  135.9566  154.9156 H   0  0  0  0  0  0  0  0  0  0  0  0
  147.4367  136.5744  152.3495 H   0  0  0  0  0  0  0  0  0  0  0  0
  146.7047  134.9814  151.4846 H   0  0  0  0  0  0  0  0  0  0  0  0
  143.3844  134.5299  152.7811 H   0  0  0  0  0  0  0  0  0  0  0  0
  141.7551  132.7687  151.9109 H   0  0  0  0  0  0  0  0  0  0  0  0
  144.2836  131.7317  148.8109 H   0  0  0  0  0  0  0  0  0  0  0  0
  146.0318  133.4161  149.5254 H   0  0  0  0  0  0  0  0  0  0  0  0
  149.0582  137.4543  153.3708 H   0  0  0  0  0  0  0  0  0  0  0  0
  142.3258  131.5446  150.0308 H   0  0  0  0  0  0  0  0  0  0  0  0
  1  2  1  0  0  0  0
  1 20  1  0  0  0  0
  1 21  1  0  0  0  0
  1 22  1  0  0  0  0
  2  3  1  0  0  0  0
  2 23  1  0  0  0  0
  2 24  1  0  0  0  0
  3  4  1  0  0  0  0
  3 10  1  0  0  0  0
  3 25  1  0  0  0  0
  4  5  1  0  0  0  0
  4 26  1  0  0  0  0
  4 27  1  0  0  0  0
  5  9  1  0  0  0  0
  5  6  1  0  0  0  0
  5 42  1  0  0  0  0
  6  7  1  0  0  0  0
  6 28  1  0  0  0  0
  6 29  1  0  0  0  0
  7  8  1  0  0  0  0
  7 30  1  0  0  0  0
  7 31  1  0  0  0  0
  8  9  1  0  0  0  0
  8 32  1  0  0  0  0
  8 33  1  0  0  0  0
  9 34  1  0  0  0  0
  9 35  1  0  0  0  0
 10 11  1  0  0  0  0
 10 36  1  0  0  0  0
 11 12  2  0  0  0  0
 11 13  1  0  0  0  0
 13 14  1  0  0  0  0
 13 37  1  0  0  0  0
 14 19  1  0  0  0  0
 14 15  2  0  0  0  0
 15 16  1  0  0  0  0
 15 38  1  0  0  0  0
 16 17  2  0  0  0  0
 16 39  1  0  0  0  0
 17 18  1  0  0  0  0
 17 43  1  0  0  0  0
 18 19  2  0  0  0  0
 18 40  1  0  0  0  0
 19 41  1  0  0  0  0
M  CHG  1   5   1
M  CHG  1  17   1
M  END
> <s_m_source_file>
AV-unprocessed.smi

> <i_m_source_file_index>
741

> <i_lp_mmshare_version>
43012

> <i_f3d_flags>
0

> <s_epik_input>
W0NIMl0xW0NIMl1bQ0gyXVtDSDJdTjFbQ0gyXVtDQEBIXShbQ0gyXVtDSDNdKVtOSF1DKD1PKVtOSF1jMltjSF1bY0hdbltjSF1bY0hdMg==

> <s_epik_cmdline>
J2VwaWtfcHl0aG9uJywgJy1waCcsICc3LjAnLCAnLXRuJywgJzgnLCAnLW1hJywgJzIwMCcsICctbWV0YWxfYmluZGluZycsICctaW1hZScsICc8aW5maWxlLm1hZT4nLCAnLW9tYWUnLCAnPG91dGZpbGUubWFlPic=

> <r_epik_Ionization_Penalty>
1.10771

> <r_epik_Ionization_Penalty_Charging>
1.10769

> <r_epik_Ionization_Penalty_Neutral>
1.91663e-05

> <r_epik_State_Penalty>
1.16347

> <r_epik_Charging_Adjusted_Penalty>
2.27116

> <i_epik_Tot_Q>
2

> <i_epik_Tot_abs_Q>
2

> <r_epik_Metal_State_Penalty>
1.24871

> <b_epik_Metal_Only>
0

> <s_lp_Force_Field>
OPLS_2005

> <r_lp_Energy>
49.4114

> <b_lp_Chiralities_Consistent>
1

> <s_lp_Variant>
AV-unprocessed.smi:741-3

> <Gold.Version>
5.8.1

> <Gold.Id.Protein>
6NUR|6NUR_protein|mol2

> <Gold.PLP.Fitness>
43.3425

> <Gold.PLP.PLP>
-32.3277

> <Gold.PLP.part.hbond>
-4.0000

> <Gold.PLP.part.metal>
0.0000

> <Gold.PLP.part.buried>
-0.4173

> <Gold.PLP.part.nonpolar>
-28.2078

> <Gold.PLP.part.repulsive>
0.2643

> <Gold.PLP.ligand.clash>
0.0000

> <Gold.PLP.ligand.torsion>
0.5244

> <Gold.PLP.Chemscore.Hbond>
4.0000

> <Gold.PLP.Chemscore.CHOScore>
0.0000

> <Gold.PLP.Chemscore.Metal>
0.0000

> <Gold.Chemscore.Hbonds>
donor molecule, donor type, donor heavy atom, donor atom, acceptor molecule, acceptor atom, score
      L1  H     5    42       P1  7948  2.00
      L1  H    10    36       P1  7948  1.00
      L1  H    17    43       P1 10952  1.00

> <Gold.PLP.Chemscore.Internal.Correction>
0.0636

> <Gold.Rescore>
     Score         DG    S(hbond)    S(metal)    S(lipo)     H(rot)  DE(clash)    DE(int)     intcor
     18.70     -20.91       2.81        0.00      87.39       1.63       0.32       1.90       ----

> <Gold.Chemscore.Fitness>
18.6983

> <Gold.Chemscore.DG>
-20.9136

> <Gold.Chemscore.ZeroCoef>
-5.4800

> <Gold.Chemscore.Hbond>
2.8060

> <Gold.Chemscore.Metal>
0.0000

> <Gold.Chemscore.Lipo>
87.3852

> <Gold.Chemscore.Internal_Hbond>
0.0000

> <Gold.Chemscore.DEClash>
0.3190

> <Gold.Chemscore.DEInternal>
1.8962

> <Gold.Chemscore.Rot>
1.6260

> <Gold.Chemscore.Internal.Correction>
   9.000000E+99

> <Gold.Chemscore.Hbonds>
donor molecule, donor type, donor heavy atom, donor atom, acceptor molecule, acceptor atom, score
      L1  H     5    42       P1  7948  0.99
      L1  H    10    36       P1  7948  0.99
      L1  H    17    43       P1 10952  0.89

> <Gold.Chemscore.Hbond.Weighted>
-9.3721

> <Gold.Chemscore.Metal.Weighted>
-0.0000

> <Gold.Chemscore.Lipo.Weighted>
-10.2241

> <Gold.Chemscore.Internal_Hbond.Weighted>
0.0000

> <Gold.Chemscore.DEClash.Weighted>
0.3190

> <Gold.Chemscore.DEInternal.Weighted>
1.8962

> <Gold.Chemscore.Rot.Weighted>
4.1626

> <Gold.Chemscore.Internal.Correction.Weighted>
   9.000000E+99

> <Gold.Protein.RotatedTorsions>
[ 6907 6896 6895 6894 ] final   94.51 input  -60.11 | X-H torsion
[ 7974 7965 7964 7962 ] final   -1.24 input  175.53 | X-H torsion
[ 8008 7997 7996 7995 ] final  163.95 input   59.86 | X-H torsion
[ 10167 10162 10161 10158 ] final -102.17 input  -65.29 | X-H torsion
[ 10718 10713 10712 10709 ] final   19.34 input   66.30 | X-H torsion
[ 10763 10752 10751 10750 ] final -108.05 input  -60.55 | X-H torsion
[ 11005 11000 10999 10996 ] final  129.81 input  -57.11 | X-H torsion

> <Gold.Protein.ActiveResidues>
 VAL166  LYS551  ARG553  GLY616  TRP617  ASP618  TYR619  PRO620  LYS621  CYS622 
 ASP623  PHE694  ASN695  SER759  ASP760  ASP761  ALA762  ILE779  LEU786  VAL792 
 PHE793  MET794  SER795  GLU796  ALA797  LYS798  CYS799  TRP800  GLU811  SER814 

> <Gold.Protein.RotatedAtoms>
  152.5449  134.1182  159.8387 H   0  0  0  0  0  0  0  0  0  0  0  0  # atno 6907 bound_to 6896
  151.1241  133.5076  159.2608 H   0  0  0  0  0  0  0  0  0  0  0  0  # atno 6908 bound_to 6896
  151.1747  135.0343  159.8821 H   0  0  0  0  0  0  0  0  0  0  0  0  # atno 6909 bound_to 6896
  146.2419  140.1391  142.8336 H   0  0  0  0  0  0  0  0  0  0  0  0  # atno 7974 bound_to 7965
  156.1918  140.1710  156.8078 H   0  0  0  0  0  0  0  0  0  0  0  0  # atno 8008 bound_to 7997
  154.5480  140.0723  156.8653 H   0  0  0  0  0  0  0  0  0  0  0  0  # atno 8009 bound_to 7997
  155.3084  140.3366  155.4247 H   0  0  0  0  0  0  0  0  0  0  0  0  # atno 8010 bound_to 7997
  140.2335  143.3590  152.0866 H   0  0  0  0  0  0  0  0  0  0  0  0  # atno 10167 bound_to 10162
  157.1091  130.6501  149.5892 H   0  0  0  0  0  0  0  0  0  0  0  0  # atno 10718 bound_to 10713
  154.8112  135.4652  154.0522 H   0  0  0  0  0  0  0  0  0  0  0  0  # atno 10763 bound_to 10752
  153.1951  135.6861  153.8309 H   0  0  0  0  0  0  0  0  0  0  0  0  # atno 10764 bound_to 10752
  153.7813  135.3256  155.3343 H   0  0  0  0  0  0  0  0  0  0  0  0  # atno 10765 bound_to 10752
  139.9636  134.9596  156.9203 H   0  0  0  0  0  0  0  0  0  0  0  0  # atno 11005 bound_to 11000
  145.0261  140.8833  143.5137 LP  0  0  0  0  0  0  0  0  0  0  0  0  # atno 17320 bound_to 7965
  145.1448  139.2550  143.5471 LP  0  0  0  0  0  0  0  0  0  0  0  0  # atno 17321 bound_to 7965
  139.5102  144.6879  151.5837 LP  0  0  0  0  0  0  0  0  0  0  0  0  # atno 17342 bound_to 10162
  140.6167  143.9335  150.6494 LP  0  0  0  0  0  0  0  0  0  0  0  0  # atno 17343 bound_to 10162
  155.9855  130.4885  150.7033 LP  0  0  0  0  0  0  0  0  0  0  0  0  # atno 17370 bound_to 10713
  157.4575  131.0879  151.0781 LP  0  0  0  0  0  0  0  0  0  0  0  0  # atno 17371 bound_to 10713
  140.5445  134.0688  155.7351 LP  0  0  0  0  0  0  0  0  0  0  0  0  # atno 17394 bound_to 11000
  141.1315  133.9294  157.2525 LP  0  0  0  0  0  0  0  0  0  0  0  0  # atno 17395 bound_to 11000

$$$$
