AV-unprocessed.smi:1815|AV-procd|sdf|7362|dock7
  -GOLD-   22720 9 23D 1   1.00000     0.00000
 Structure written by MMmdl.
 39 40  0  0  0  0  0  0  0  0  3 V2000
  148.9223  140.8255  154.5929 C   0  0  0  0  0  0  0  0  0  0  0  0
  149.5484  139.4836  154.1968 C   0  0  2  0  0  0  0  0  0  0  0  0
  148.7140  138.2860  154.6887 C   0  0  0  0  0  0  0  0  0  0  0  0
  149.3883  137.0077  154.3597 N   0  3  2  0  0  0  0  0  0  0  0  0
  148.5852  135.8281  154.7670 C   0  0  0  0  0  0  0  0  0  0  0  0
  148.9973  135.2802  156.1420 C   0  0  0  0  0  0  0  0  0  0  0  0
  148.4782  136.1350  157.2001 N   0  0  0  0  0  0  0  0  0  0  0  0
  148.0364  135.7099  158.3907 C   0  0  0  0  0  0  0  0  0  0  0  0
  148.0475  134.5057  158.6554 O   0  0  0  0  0  0  0  0  0  0  0  0
  147.6108  136.7078  159.1972 N   0  5  0  0  0  0  0  0  0  0  0  0
  146.9781  136.4218  160.3467 C   0  0  0  0  0  0  0  0  0  0  0  0
  146.7378  137.3377  161.2919 N   0  0  0  0  0  0  0  0  0  0  0  0
  146.0578  136.8277  162.3995 C   0  0  0  0  0  0  0  0  0  0  0  0
  145.7652  135.4940  162.2909 C   0  0  0  0  0  0  0  0  0  0  0  0
  146.3411  134.8343  160.7866 S   0  0  0  0  0  0  0  0  0  0  0  0
  150.7714  137.0021  154.8969 C   0  0  0  0  0  0  0  0  0  0  0  0
  151.5497  138.2338  154.3967 C   0  0  2  0  0  0  0  0  0  0  0  0
  152.9608  138.3061  154.9909 C   0  0  0  0  0  0  0  0  0  0  0  0
  150.8477  139.4132  154.7735 O   0  0  0  0  0  0  0  0  0  0  0  0
  147.9256  140.9366  154.1654 H   0  0  0  0  0  0  0  0  0  0  0  0
  149.5295  141.6587  154.2381 H   0  0  0  0  0  0  0  0  0  0  0  0
  148.8338  140.9167  155.6760 H   0  0  0  0  0  0  0  0  0  0  0  0
  149.6356  139.4498  153.1094 H   0  0  0  0  0  0  0  0  0  0  0  0
  148.5619  138.3484  155.7679 H   0  0  0  0  0  0  0  0  0  0  0  0
  147.7276  138.3120  154.2236 H   0  0  0  0  0  0  0  0  0  0  0  0
  147.5238  136.0812  154.7539 H   0  0  0  0  0  0  0  0  0  0  0  0
  148.7234  135.0346  154.0307 H   0  0  0  0  0  0  0  0  0  0  0  0
  148.6132  134.2681  156.2784 H   0  0  0  0  0  0  0  0  0  0  0  0
  150.0828  135.2324  156.2314 H   0  0  0  0  0  0  0  0  0  0  0  0
  148.4519  137.1286  157.0228 H   0  0  0  0  0  0  0  0  0  0  0  0
  145.8202  137.4878  163.2204 H   0  0  0  0  0  0  0  0  0  0  0  0
  145.2486  134.8632  162.9984 H   0  0  0  0  0  0  0  0  0  0  0  0
  150.7385  136.9938  155.9877 H   0  0  0  0  0  0  0  0  0  0  0  0
  151.2961  136.0991  154.5869 H   0  0  0  0  0  0  0  0  0  0  0  0
  151.6343  138.1985  153.3091 H   0  0  0  0  0  0  0  0  0  0  0  0
  153.5445  137.4245  154.7246 H   0  0  0  0  0  0  0  0  0  0  0  0
  152.9287  138.3705  156.0788 H   0  0  0  0  0  0  0  0  0  0  0  0
  153.4950  139.1817  154.6212 H   0  0  0  0  0  0  0  0  0  0  0  0
  149.4596  136.9731  153.3527 H   0  0  0  0  0  0  0  0  0  0  0  0
  1  2  1  0  0  0  0
  1 20  1  0  0  0  0
  1 21  1  0  0  0  0
  1 22  1  0  0  0  0
  2 19  1  0  0  0  0
  2  3  1  0  0  0  0
  2 23  1  0  0  0  0
  3  4  1  0  0  0  0
  3 24  1  0  0  0  0
  3 25  1  0  0  0  0
  4  5  1  0  0  0  0
  4 16  1  0  0  0  0
  4 39  1  0  0  0  0
  5  6  1  0  0  0  0
  5 26  1  0  0  0  0
  5 27  1  0  0  0  0
  6  7  1  0  0  0  0
  6 28  1  0  0  0  0
  6 29  1  0  0  0  0
  7  8  1  0  0  0  0
  7 30  1  0  0  0  0
  8  9  2  0  0  0  0
  8 10  1  0  0  0  0
 10 11  1  0  0  0  0
 11 15  1  0  0  0  0
 11 12  2  0  0  0  0
 12 13  1  0  0  0  0
 13 14  2  0  0  0  0
 13 31  1  0  0  0  0
 14 15  1  0  0  0  0
 14 32  1  0  0  0  0
 16 17  1  0  0  0  0
 16 33  1  0  0  0  0
 16 34  1  0  0  0  0
 17 18  1  0  0  0  0
 17 19  1  0  0  0  0
 17 35  1  0  0  0  0
 18 36  1  0  0  0  0
 18 37  1  0  0  0  0
 18 38  1  0  0  0  0
M  CHG  1   4   1
M  CHG  1  10  -1
M  END
> <s_m_source_file>
AV-unprocessed.smi

> <i_m_source_file_index>
1815

> <i_lp_mmshare_version>
43012

> <i_f3d_flags>
0

> <s_epik_input>
W0NIM11bQ0BASF0xW0NIMl1OKFtDSDJdW0NASF0oTzEpW0NIM10pW0NIMl1bQ0gyXVtOSF1DKD1PKVtOSF1jMm5bY0hdW2NIXXMy

> <s_epik_cmdline>
J2VwaWtfcHl0aG9uJywgJy1waCcsICc3LjAnLCAnLXRuJywgJzgnLCAnLW1hJywgJzIwMCcsICctbWV0YWxfYmluZGluZycsICctaW1hZScsICc8aW5maWxlLm1hZT4nLCAnLW9tYWUnLCAnPG91dGZpbGUubWFlPic=

> <r_lp_tautomer_probability>
0.999

> <r_epik_Ionization_Penalty>
6.71699

> <r_epik_Ionization_Penalty_Charging>
5.88592

> <r_epik_Ionization_Penalty_Neutral>
0.831074

> <r_epik_State_Penalty>
6.08365

> <r_epik_Charging_Adjusted_Penalty>
11.9696

> <i_epik_Tot_Q>
0

> <i_epik_Tot_abs_Q>
2

> <r_epik_Metal_State_Penalty>
2.0947

> <b_epik_Metal_Only>
1

> <s_lp_Force_Field>
OPLS_2005

> <r_lp_Energy>
4.96906

> <b_lp_Chiralities_Consistent>
1

> <s_lp_Variant>
AV-unprocessed.smi:1815-13

> <Gold.Version>
5.8.1

> <Gold.Id.Protein>
6NUR|6NUR_protein|mol2

> <Gold.PLP.Fitness>
50.6215

> <Gold.PLP.PLP>
-34.9266

> <Gold.PLP.part.hbond>
-5.0000

> <Gold.PLP.part.metal>
0.0000

> <Gold.PLP.part.buried>
-3.2787

> <Gold.PLP.part.nonpolar>
-26.9152

> <Gold.PLP.part.repulsive>
0.1500

> <Gold.PLP.ligand.clash>
0.0038

> <Gold.PLP.ligand.torsion>
0.7148

> <Gold.PLP.Chemscore.Hbond>
5.6860

> <Gold.PLP.Chemscore.CHOScore>
0.0000

> <Gold.PLP.Chemscore.Metal>
0.0000

> <Gold.Chemscore.Hbonds>
donor molecule, donor type, donor heavy atom, donor atom, acceptor molecule, acceptor atom, score
      L1  H     4    39       P1  7948  1.98
      P1  H  6934  6947       L1    12  1.00
      P1  H  7989  7998       L1    19  0.60

> <Gold.PLP.Chemscore.Internal.Correction>
0.0703

> <Gold.Rescore>
     Score         DG    S(hbond)    S(metal)    S(lipo)     H(rot)  DE(clash)    DE(int)     intcor
     18.25     -20.57       3.15        0.00      74.04       1.61       0.22       2.10       ----

> <Gold.Chemscore.Fitness>
18.2546

> <Gold.Chemscore.DG>
-20.5685

> <Gold.Chemscore.ZeroCoef>
-5.4800

> <Gold.Chemscore.Hbond>
3.1548

> <Gold.Chemscore.Metal>
0.0000

> <Gold.Chemscore.Lipo>
74.0414

> <Gold.Chemscore.Internal_Hbond>
0.0000

> <Gold.Chemscore.DEClash>
0.2173

> <Gold.Chemscore.DEInternal>
2.0966

> <Gold.Chemscore.Rot>
1.6060

> <Gold.Chemscore.Internal.Correction>
   9.000000E+99

> <Gold.Chemscore.Hbonds>
donor molecule, donor type, donor heavy atom, donor atom, acceptor molecule, acceptor atom, score
      L1  H     4    39       P1  7948  0.82
      P1  H  6934  6947       L1    12  0.95
      P1  H  7989  7998       L1    19  0.02

> <Gold.Chemscore.Hbond.Weighted>
-10.5369

> <Gold.Chemscore.Metal.Weighted>
-0.0000

> <Gold.Chemscore.Lipo.Weighted>
-8.6628

> <Gold.Chemscore.Internal_Hbond.Weighted>
0.0000

> <Gold.Chemscore.DEClash.Weighted>
0.2173

> <Gold.Chemscore.DEInternal.Weighted>
2.0966

> <Gold.Chemscore.Rot.Weighted>
4.1112

> <Gold.Chemscore.Internal.Correction.Weighted>
   9.000000E+99

> <Gold.Protein.RotatedTorsions>
[ 6907 6896 6895 6894 ] final   14.88 input  -60.11 | X-H torsion
[ 7974 7965 7964 7962 ] final  155.70 input  175.53 | X-H torsion
[ 8008 7997 7996 7995 ] final -152.30 input   59.86 | X-H torsion
[ 10167 10162 10161 10158 ] final   85.88 input  -65.29 | X-H torsion
[ 10718 10713 10712 10709 ] final  -22.72 input   66.30 | X-H torsion
[ 10763 10752 10751 10750 ] final  149.60 input  -60.55 | X-H torsion
[ 11005 11000 10999 10996 ] final -131.71 input  -57.11 | X-H torsion

> <Gold.Protein.ActiveResidues>
 VAL166  LYS551  ARG553  GLY616  TRP617  ASP618  TYR619  PRO620  LYS621  CYS622 
 ASP623  PHE694  ASN695  SER759  ASP760  ASP761  ALA762  ILE779  LEU786  VAL792 
 PHE793  MET794  SER795  GLU796  ALA797  LYS798  CYS799  TRP800  GLU811  SER814 

> <Gold.Protein.RotatedAtoms>
  151.8092  135.0686  160.0410 H   0  0  0  0  0  0  0  0  0  0  0  0  # atno 6907 bound_to 6896
  152.3033  133.5673  159.5641 H   0  0  0  0  0  0  0  0  0  0  0  0  # atno 6908 bound_to 6896
  150.7284  134.0176  159.3732 H   0  0  0  0  0  0  0  0  0  0  0  0  # atno 6909 bound_to 6896
  144.8008  139.7104  143.6182 H   0  0  0  0  0  0  0  0  0  0  0  0  # atno 7974 bound_to 7965
  155.6530  140.0714  157.2580 H   0  0  0  0  0  0  0  0  0  0  0  0  # atno 8008 bound_to 7997
  154.4158  140.1730  156.1745 H   0  0  0  0  0  0  0  0  0  0  0  0  # atno 8009 bound_to 7997
  155.9761  140.3358  155.6623 H   0  0  0  0  0  0  0  0  0  0  0  0  # atno 8010 bound_to 7997
  139.8932  144.6373  150.8716 H   0  0  0  0  0  0  0  0  0  0  0  0  # atno 10167 bound_to 10162
  156.5007  130.4587  149.6703 H   0  0  0  0  0  0  0  0  0  0  0  0  # atno 10718 bound_to 10713
  154.0738  135.2864  155.3303 H   0  0  0  0  0  0  0  0  0  0  0  0  # atno 10763 bound_to 10752
  154.6729  135.5293  153.8165 H   0  0  0  0  0  0  0  0  0  0  0  0  # atno 10764 bound_to 10752
  153.0475  135.6562  154.0918 H   0  0  0  0  0  0  0  0  0  0  0  0  # atno 10765 bound_to 10752
  140.9235  134.1413  157.4295 H   0  0  0  0  0  0  0  0  0  0  0  0  # atno 11005 bound_to 11000
  146.2289  139.5775  142.9568 LP  0  0  0  0  0  0  0  0  0  0  0  0  # atno 17320 bound_to 7965
  145.5558  141.0409  143.2253 LP  0  0  0  0  0  0  0  0  0  0  0  0  # atno 17321 bound_to 7965
  140.7722  143.3494  151.2045 LP  0  0  0  0  0  0  0  0  0  0  0  0  # atno 17342 bound_to 10162
  139.7091  143.9406  152.2939 LP  0  0  0  0  0  0  0  0  0  0  0  0  # atno 17343 bound_to 10162
  156.3335  130.7344  151.2278 LP  0  0  0  0  0  0  0  0  0  0  0  0  # atno 17370 bound_to 10713
  157.7463  131.0423  150.4688 LP  0  0  0  0  0  0  0  0  0  0  0  0  # atno 17371 bound_to 10713
  139.8780  134.9980  156.5875 LP  0  0  0  0  0  0  0  0  0  0  0  0  # atno 17394 bound_to 11000
  140.7957  133.8546  155.8683 LP  0  0  0  0  0  0  0  0  0  0  0  0  # atno 17395 bound_to 11000

$$$$
