AV-unprocessed.smi:92|AV-procd|sdf|848|dock8
  -GOLD-   2262017283D 1   1.00000     0.00000
 Structure written by MMmdl.
 61 64  0  0  0  0  0  0  0  0  2 V2000
  151.4318  145.1841  158.8388 C   0  0  0  0  0  0  0  0  0  0  0  0
  152.1964  144.2086  159.7451 C   0  0  0  0  0  0  0  0  0  0  0  0
  152.2502  142.8352  159.1836 N   0  3  1  0  0  0  0  0  0  0  0  0
  153.0353  141.9097  160.0401 C   0  0  0  0  0  0  0  0  0  0  0  0
  153.2041  140.5380  159.3682 C   0  0  0  0  0  0  0  0  0  0  0  0
  151.8336  139.9337  159.0064 C   0  0  2  0  0  0  0  0  0  0  0  0
  151.9174  138.5633  158.4761 N   0  0  0  0  0  0  0  0  0  0  0  0
  153.0221  138.1446  157.6104 C   0  0  0  0  0  0  0  0  0  0  0  0
  150.7292  137.9306  158.2841 C   0  0  0  0  0  0  0  0  0  0  0  0
  149.9315  137.6778  159.3562 N   0  0  0  0  0  0  0  0  0  0  0  0
  148.7722  137.0334  159.1997 C   0  0  0  0  0  0  0  0  0  0  0  0
  148.2269  136.5614  158.0784 N   0  0  0  0  0  0  0  0  0  0  0  0
  149.0146  136.8162  156.9947 C   0  0  0  0  0  0  0  0  0  0  0  0
  150.2696  137.4903  157.0090 C   0  0  0  0  0  0  0  0  0  0  0  0
  150.7711  137.5759  155.7156 N   0  0  0  0  0  0  0  0  0  0  0  0
  149.8723  136.9794  154.9821 C   0  0  0  0  0  0  0  0  0  0  0  0
  148.7836  136.4894  155.6675 N   0  0  0  0  0  0  0  0  0  0  0  0
  147.6598  135.7971  155.0992 C   0  0  0  0  0  0  0  0  0  0  0  0
  146.5648  135.1950  155.9840 C   0  0  0  0  0  0  0  0  0  0  0  0
  146.3829  134.0494  154.9604 C   0  0  0  0  0  0  0  0  0  0  0  0
  146.1681  132.6374  155.5412 C   0  0  0  0  0  0  0  0  0  0  0  0
  144.9064  132.4915  156.1624 O   0  0  0  0  0  0  0  0  0  0  0  0
  145.2584  134.2980  153.9379 C   0  0  0  0  0  0  0  0  0  0  0  0
  143.9865  134.3140  154.5541 O   0  0  0  0  0  0  0  0  0  0  0  0
  147.8089  134.4061  154.4768 C   0  0  0  0  0  0  0  0  0  0  0  0
  151.0034  140.9205  158.1416 C   0  0  2  0  0  0  0  0  0  0  0  0
  151.4904  141.1001  156.6912 C   0  0  0  0  0  0  0  0  0  0  0  0
  150.9066  142.2791  158.8670 C   0  0  0  0  0  0  0  0  0  0  0  0
  151.4872  146.1981  159.2354 H   0  0  0  0  0  0  0  0  0  0  0  0
  150.3758  144.9289  158.7570 H   0  0  0  0  0  0  0  0  0  0  0  0
  151.8534  145.2002  157.8333 H   0  0  0  0  0  0  0  0  0  0  0  0
  153.2115  144.5912  159.8590 H   0  0  0  0  0  0  0  0  0  0  0  0
  151.7612  144.1881  160.7454 H   0  0  0  0  0  0  0  0  0  0  0  0
  154.0214  142.3326  160.2361 H   0  0  0  0  0  0  0  0  0  0  0  0
  152.5408  141.7987  161.0066 H   0  0  0  0  0  0  0  0  0  0  0  0
  153.8256  140.6520  158.4797 H   0  0  0  0  0  0  0  0  0  0  0  0
  153.7423  139.8683  160.0401 H   0  0  0  0  0  0  0  0  0  0  0  0
  151.3123  139.8606  159.9589 H   0  0  0  0  0  0  0  0  0  0  0  0
  153.0270  137.0596  157.4968 H   0  0  0  0  0  0  0  0  0  0  0  0
  153.9857  138.4167  158.0388 H   0  0  0  0  0  0  0  0  0  0  0  0
  152.9545  138.5823  156.6163 H   0  0  0  0  0  0  0  0  0  0  0  0
  148.2001  136.8712  160.1012 H   0  0  0  0  0  0  0  0  0  0  0  0
  149.9812  136.8821  153.9116 H   0  0  0  0  0  0  0  0  0  0  0  0
  147.2135  136.4782  154.3722 H   0  0  0  0  0  0  0  0  0  0  0  0
  146.9399  134.8648  156.9532 H   0  0  0  0  0  0  0  0  0  0  0  0
  145.6919  135.8361  156.1110 H   0  0  0  0  0  0  0  0  0  0  0  0
  146.2447  131.8811  154.7595 H   0  0  0  0  0  0  0  0  0  0  0  0
  146.9283  132.3988  156.2857 H   0  0  0  0  0  0  0  0  0  0  0  0
  144.2757  132.2365  155.5066 H   0  0  0  0  0  0  0  0  0  0  0  0
  145.4063  135.2440  153.4157 H   0  0  0  0  0  0  0  0  0  0  0  0
  145.2452  133.5249  153.1691 H   0  0  0  0  0  0  0  0  0  0  0  0
  143.6512  133.4306  154.5750 H   0  0  0  0  0  0  0  0  0  0  0  0
  147.9390  134.4142  153.3944 H   0  0  0  0  0  0  0  0  0  0  0  0
  148.5898  133.8103  154.9500 H   0  0  0  0  0  0  0  0  0  0  0  0
  149.9854  140.5337  158.0766 H   0  0  0  0  0  0  0  0  0  0  0  0
  152.5431  141.3771  156.6407 H   0  0  0  0  0  0  0  0  0  0  0  0
  150.9218  141.8795  156.1834 H   0  0  0  0  0  0  0  0  0  0  0  0
  151.3486  140.1897  156.1112 H   0  0  0  0  0  0  0  0  0  0  0  0
  150.3438  142.1618  159.7947 H   0  0  0  0  0  0  0  0  0  0  0  0
  150.3376  142.9752  158.2519 H   0  0  0  0  0  0  0  0  0  0  0  0
  152.7534  142.9044  158.3104 H   0  0  0  0  0  0  0  0  0  0  0  0
  1  2  1  0  0  0  0
  1 29  1  0  0  0  0
  1 30  1  0  0  0  0
  1 31  1  0  0  0  0
  2  3  1  0  0  0  0
  2 32  1  0  0  0  0
  2 33  1  0  0  0  0
  3 28  1  0  0  0  0
  3  4  1  0  0  0  0
  3 61  1  0  0  0  0
  4  5  1  0  0  0  0
  4 34  1  0  0  0  0
  4 35  1  0  0  0  0
  5  6  1  0  0  0  0
  5 36  1  0  0  0  0
  5 37  1  0  0  0  0
  6  7  1  0  0  0  0
  6 26  1  0  0  0  0
  6 38  1  0  0  0  0
  7  8  1  0  0  0  0
  7  9  1  0  0  0  0
  8 39  1  0  0  0  0
  8 40  1  0  0  0  0
  8 41  1  0  0  0  0
  9 14  1  0  0  0  0
  9 10  2  0  0  0  0
 10 11  1  0  0  0  0
 11 12  2  0  0  0  0
 11 42  1  0  0  0  0
 12 13  1  0  0  0  0
 13 17  1  0  0  0  0
 13 14  2  0  0  0  0
 14 15  1  0  0  0  0
 15 16  2  0  0  0  0
 16 17  1  0  0  0  0
 16 43  1  0  0  0  0
 17 18  1  0  0  0  0
 18 25  1  0  0  0  0
 18 19  1  0  0  0  0
 18 44  1  0  0  0  0
 19 20  1  0  0  0  0
 19 45  1  0  0  0  0
 19 46  1  0  0  0  0
 20 21  1  0  0  0  0
 20 23  1  0  0  0  0
 20 25  1  0  0  0  0
 21 22  1  0  0  0  0
 21 47  1  0  0  0  0
 21 48  1  0  0  0  0
 22 49  1  0  0  0  0
 23 24  1  0  0  0  0
 23 50  1  0  0  0  0
 23 51  1  0  0  0  0
 24 52  1  0  0  0  0
 25 53  1  0  0  0  0
 25 54  1  0  0  0  0
 26 27  1  0  0  0  0
 26 28  1  0  0  0  0
 26 55  1  0  0  0  0
 27 56  1  0  0  0  0
 27 57  1  0  0  0  0
 27 58  1  0  0  0  0
 28 59  1  0  0  0  0
 28 60  1  0  0  0  0
M  CHG  1   3   1
M  END
> <s_m_source_file>
AV-unprocessed.smi

> <i_m_source_file_index>
92

> <i_lp_mmshare_version>
43012

> <i_f3d_flags>
0

> <s_epik_input>
W0NIM11bQ0gyXU4xW0NIMl1bQ0gyXVtDQEhdKFtDQEBIXShbQ0gzXSlbQ0gyXTEpTihbQ0gzXSljKG5bY0hdbjIpYyhjMjMpbltjSF1uM1tDSF0oW0NIMl00KVtDSDJdQzQoW0NIMl1bT0hdKVtDSDJdW09IXQ==

> <s_epik_cmdline>
J2VwaWtfcHl0aG9uJywgJy1waCcsICc3LjAnLCAnLXRuJywgJzgnLCAnLW1hJywgJzIwMCcsICctbWV0YWxfYmluZGluZycsICctaW1hZScsICc8aW5maWxlLm1hZT4nLCAnLW9tYWUnLCAnPG91dGZpbGUubWFlPic=

> <r_lp_tautomer_probability>
1

> <r_epik_Ionization_Penalty>
0.00235514

> <r_epik_Ionization_Penalty_Charging>
0.00137877

> <r_epik_Ionization_Penalty_Neutral>
0.000976366

> <r_epik_State_Penalty>
-0

> <r_epik_Charging_Adjusted_Penalty>
0.00137877

> <i_epik_Tot_Q>
1

> <i_epik_Tot_abs_Q>
1

> <r_epik_Metal_State_Penalty>
-0

> <b_epik_Metal_Only>
0

> <s_lp_Force_Field>
OPLS_2005

> <r_lp_Energy>
56.4815

> <b_lp_Chiralities_Consistent>
1

> <s_lp_Variant>
AV-unprocessed.smi:92-8

> <Gold.Version>
5.8.1

> <Gold.Id.Protein>
6NUR|6NUR_protein|mol2

> <Gold.PLP.Fitness>
43.3959

> <Gold.PLP.PLP>
-35.7233

> <Gold.PLP.part.hbond>
-3.0000

> <Gold.PLP.part.metal>
0.0000

> <Gold.PLP.part.buried>
-7.5887

> <Gold.PLP.part.nonpolar>
-25.4760

> <Gold.PLP.part.repulsive>
0.0914

> <Gold.PLP.ligand.clash>
0.0000

> <Gold.PLP.ligand.torsion>
1.4309

> <Gold.PLP.Chemscore.Hbond>
2.0000

> <Gold.PLP.Chemscore.CHOScore>
1.0587

> <Gold.PLP.Chemscore.Metal>
0.0000

> <Gold.Chemscore.Hbonds>
donor molecule, donor type, donor heavy atom, donor atom, acceptor molecule, acceptor atom, score
      L1  H    22    49       P1 10957  1.00
      L1  H    24    52       P1 10957  1.00
      L1  C    16    43       P1  7948  1.00
      L1  C    16    43       P1  7949  0.01

> <Gold.PLP.Chemscore.Internal.Correction>
1.3583

> <Gold.Rescore>
     Score         DG    S(hbond)    S(metal)    S(lipo)     H(rot)  DE(clash)    DE(int)     intcor
     10.21     -13.81       1.97        0.00      85.53       3.22       0.07       3.53       ----

> <Gold.Chemscore.Fitness>
10.2059

> <Gold.Chemscore.DG>
-13.8070

> <Gold.Chemscore.ZeroCoef>
-5.4800

> <Gold.Chemscore.Hbond>
1.9666

> <Gold.Chemscore.Metal>
0.0000

> <Gold.Chemscore.Lipo>
85.5268

> <Gold.Chemscore.Internal_Hbond>
0.0000

> <Gold.Chemscore.DEClash>
0.0693

> <Gold.Chemscore.DEInternal>
3.5318

> <Gold.Chemscore.Rot>
3.2219

> <Gold.Chemscore.Internal.Correction>
   9.000000E+99

> <Gold.Chemscore.Hbonds>
donor molecule, donor type, donor heavy atom, donor atom, acceptor molecule, acceptor atom, score
      L1  H    22    49       P1 10957  0.94
      L1  H    24    52       P1 10957  0.99

> <Gold.Chemscore.Hbond.Weighted>
-6.5686

> <Gold.Chemscore.Metal.Weighted>
-0.0000

> <Gold.Chemscore.Lipo.Weighted>
-10.0066

> <Gold.Chemscore.Internal_Hbond.Weighted>
0.0000

> <Gold.Chemscore.DEClash.Weighted>
0.0693

> <Gold.Chemscore.DEInternal.Weighted>
3.5318

> <Gold.Chemscore.Rot.Weighted>
8.2482

> <Gold.Chemscore.Internal.Correction.Weighted>
   9.000000E+99

> <Gold.Protein.RotatedTorsions>
[ 6907 6896 6895 6894 ] final   79.73 input  -60.11 | X-H torsion
[ 7974 7965 7964 7962 ] final  140.82 input  175.53 | X-H torsion
[ 8008 7997 7996 7995 ] final   80.72 input   59.86 | X-H torsion
[ 10167 10162 10161 10158 ] final   21.45 input  -65.29 | X-H torsion
[ 10718 10713 10712 10709 ] final  114.80 input   66.30 | X-H torsion
[ 10763 10752 10751 10750 ] final  173.01 input  -60.55 | X-H torsion
[ 11005 11000 10999 10996 ] final   16.34 input  -57.11 | X-H torsion

> <Gold.Protein.ActiveResidues>
 VAL166  LYS551  ARG553  GLY616  TRP617  ASP618  TYR619  PRO620  LYS621  CYS622 
 ASP623  PHE694  ASN695  SER759  ASP760  ASP761  ALA762  ILE779  LEU786  VAL792 
 PHE793  MET794  SER795  GLU796  ALA797  LYS798  CYS799  TRP800  GLU811  SER814 

> <Gold.Protein.RotatedAtoms>
  152.5209  134.3466  159.9235 H   0  0  0  0  0  0  0  0  0  0  0  0  # atno 6907 bound_to 6896
  151.3417  133.3953  159.2679 H   0  0  0  0  0  0  0  0  0  0  0  0  # atno 6908 bound_to 6896
  150.9798  134.9174  159.7895 H   0  0  0  0  0  0  0  0  0  0  0  0  # atno 6909 bound_to 6896
  144.9152  139.5240  143.5689 H   0  0  0  0  0  0  0  0  0  0  0  0  # atno 7974 bound_to 7965
  155.8873  140.3441  155.5931 H   0  0  0  0  0  0  0  0  0  0  0  0  # atno 8008 bound_to 7997
  155.7651  140.0838  157.2155 H   0  0  0  0  0  0  0  0  0  0  0  0  # atno 8009 bound_to 7997
  154.4030  140.1528  156.2865 H   0  0  0  0  0  0  0  0  0  0  0  0  # atno 8010 bound_to 7997
  140.5425  143.9652  150.6528 H   0  0  0  0  0  0  0  0  0  0  0  0  # atno 10167 bound_to 10162
  157.6260  131.1003  150.7238 H   0  0  0  0  0  0  0  0  0  0  0  0  # atno 10718 bound_to 10713
  154.4341  135.2760  155.1893 H   0  0  0  0  0  0  0  0  0  0  0  0  # atno 10763 bound_to 10752
  154.3786  135.6092  153.5782 H   0  0  0  0  0  0  0  0  0  0  0  0  # atno 10764 bound_to 10752
  152.9837  135.5875  154.4657 H   0  0  0  0  0  0  0  0  0  0  0  0  # atno 10765 bound_to 10752
  140.4482  134.1251  155.7699 H   0  0  0  0  0  0  0  0  0  0  0  0  # atno 11005 bound_to 11000
  146.3178  139.7989  142.8969 LP  0  0  0  0  0  0  0  0  0  0  0  0  # atno 17320 bound_to 7965
  145.3387  141.0283  143.3404 LP  0  0  0  0  0  0  0  0  0  0  0  0  # atno 17321 bound_to 7965
  140.3056  143.3231  152.0929 LP  0  0  0  0  0  0  0  0  0  0  0  0  # atno 17342 bound_to 10162
  139.4994  144.6669  151.6335 LP  0  0  0  0  0  0  0  0  0  0  0  0  # atno 17343 bound_to 10162
  156.7586  130.4791  149.5441 LP  0  0  0  0  0  0  0  0  0  0  0  0  # atno 17370 bound_to 10713
  156.1432  130.6259  151.0496 LP  0  0  0  0  0  0  0  0  0  0  0  0  # atno 17371 bound_to 10713
  141.1676  133.8673  157.1669 LP  0  0  0  0  0  0  0  0  0  0  0  0  # atno 17394 bound_to 11000
  140.0024  135.0022  157.0219 LP  0  0  0  0  0  0  0  0  0  0  0  0  # atno 17395 bound_to 11000

$$$$
