AV-unprocessed.smi:2158|AV-procd|sdf|8790|dock6
  -GOLD-   2272011573D 1   1.00000     0.00000
 Structure written by MMmdl.
 30 30  0  0  0  0  0  0  0  0  2 V2000
  152.6570  144.0785  158.7338 C   0  0  0  0  0  0  0  0  0  0  0  0
  152.2567  143.6104  160.1406 C   0  0  0  0  0  0  0  0  0  0  0  0
  153.0774  142.4109  160.6494 C   0  0  1  0  0  0  0  0  0  0  0  0
  153.2898  142.4732  162.1702 C   0  0  0  0  0  0  0  0  0  0  0  0
  152.4147  141.1605  160.2878 N   0  0  0  0  0  0  0  0  0  0  0  0
  152.9348  140.1978  159.5117 C   0  0  0  0  0  0  0  0  0  0  0  0
  154.0679  140.2535  159.0319 O   0  0  0  0  0  0  0  0  0  0  0  0
  152.0421  138.9732  159.2710 C   0  0  0  0  0  0  0  0  0  0  0  0
  152.0074  138.5608  157.8592 N   0  0  0  0  0  0  0  0  0  0  0  0
  151.7344  139.5477  156.8955 C   0  0  0  0  0  0  0  0  0  0  0  0
  151.6792  139.2607  155.5810 C   0  0  0  0  0  0  0  0  0  0  0  0
  151.9110  137.8831  155.1649 C   0  0  0  0  0  0  0  0  0  0  0  0
  151.8677  137.6039  153.9683 O   0  0  0  0  0  0  0  0  0  0  0  0
  152.1680  136.9606  156.1381 N   0  5  0  0  0  0  0  0  0  0  0  0
  152.2185  137.2666  157.4719 C   0  0  0  0  0  0  0  0  0  0  0  0
  152.4488  136.4181  158.3346 O   0  0  0  0  0  0  0  0  0  0  0  0
  152.0811  144.9561  158.4401 H   0  0  0  0  0  0  0  0  0  0  0  0
  152.4811  143.3042  157.9865 H   0  0  0  0  0  0  0  0  0  0  0  0
  153.7132  144.3464  158.6955 H   0  0  0  0  0  0  0  0  0  0  0  0
  152.3776  144.4458  160.8310 H   0  0  0  0  0  0  0  0  0  0  0  0
  151.1945  143.3621  160.1491 H   0  0  0  0  0  0  0  0  0  0  0  0
  154.0564  142.4498  160.1674 H   0  0  0  0  0  0  0  0  0  0  0  0
  153.8009  143.3925  162.4566 H   0  0  0  0  0  0  0  0  0  0  0  0
  153.8999  141.6391  162.5186 H   0  0  0  0  0  0  0  0  0  0  0  0
  152.3406  142.4389  162.7059 H   0  0  0  0  0  0  0  0  0  0  0  0
  151.4778  141.0256  160.6386 H   0  0  0  0  0  0  0  0  0  0  0  0
  152.4096  138.1590  159.8969 H   0  0  0  0  0  0  0  0  0  0  0  0
  151.0300  139.1739  159.6276 H   0  0  0  0  0  0  0  0  0  0  0  0
  151.5677  140.5401  157.2876 H   0  0  0  0  0  0  0  0  0  0  0  0
  151.4654  140.0298  154.8536 H   0  0  0  0  0  0  0  0  0  0  0  0
  1  2  1  0  0  0  0
  1 17  1  0  0  0  0
  1 18  1  0  0  0  0
  1 19  1  0  0  0  0
  2  3  1  0  0  0  0
  2 20  1  0  0  0  0
  2 21  1  0  0  0  0
  3  4  1  0  0  0  0
  3  5  1  0  0  0  0
  3 22  1  0  0  0  0
  4 23  1  0  0  0  0
  4 24  1  0  0  0  0
  4 25  1  0  0  0  0
  5  6  1  0  0  0  0
  5 26  1  0  0  0  0
  6  7  2  0  0  0  0
  6  8  1  0  0  0  0
  8  9  1  0  0  0  0
  8 27  1  0  0  0  0
  8 28  1  0  0  0  0
  9 15  1  0  0  0  0
  9 10  1  0  0  0  0
 10 11  2  0  0  0  0
 10 29  1  0  0  0  0
 11 12  1  0  0  0  0
 11 30  1  0  0  0  0
 12 13  2  0  0  0  0
 12 14  1  0  0  0  0
 14 15  1  0  0  0  0
 15 16  2  0  0  0  0
M  CHG  1  14  -1
M  END
> <s_m_source_file>
AV-unprocessed.smi

> <i_m_source_file_index>
2158

> <i_lp_mmshare_version>
43012

> <i_f3d_flags>
0

> <s_epik_input>
W0NIM11bQ0gyXVtDQEhdKFtDSDNdKVtOSF1DKD1PKVtDSDJdbjFbY0hdW2NIXWMoPU8pW25IXWMxPU8=

> <s_epik_cmdline>
J2VwaWtfcHl0aG9uJywgJy1waCcsICc3LjAnLCAnLXRuJywgJzgnLCAnLW1hJywgJzIwMCcsICctbWV0YWxfYmluZGluZycsICctaW1hZScsICc8aW5maWxlLm1hZT4nLCAnLW9tYWUnLCAnPG91dGZpbGUubWFlPic=

> <r_lp_tautomer_probability>
0.999537

> <r_epik_Ionization_Penalty>
3.08395

> <r_epik_Ionization_Penalty_Charging>
2.76809e-08

> <r_epik_Ionization_Penalty_Neutral>
3.08395

> <r_epik_State_Penalty>
3.08299

> <r_epik_Charging_Adjusted_Penalty>
3.08299

> <i_epik_Tot_Q>
-1

> <i_epik_Tot_abs_Q>
1

> <r_epik_Metal_State_Penalty>
0.460296

> <b_epik_Metal_Only>
1

> <s_lp_Force_Field>
OPLS_2005

> <r_lp_Energy>
11.8207

> <b_lp_Chiralities_Consistent>
1

> <s_lp_Variant>
AV-unprocessed.smi:2158-4

> <Gold.Version>
5.8.1

> <Gold.Id.Protein>
6NUR|6NUR_protein|mol2

> <Gold.PLP.Fitness>
38.9919

> <Gold.PLP.PLP>
-30.9008

> <Gold.PLP.part.hbond>
-4.0000

> <Gold.PLP.part.metal>
0.0000

> <Gold.PLP.part.buried>
-2.8412

> <Gold.PLP.part.nonpolar>
-26.0276

> <Gold.PLP.part.repulsive>
0.8952

> <Gold.PLP.ligand.clash>
0.0000

> <Gold.PLP.ligand.torsion>
0.6681

> <Gold.PLP.Chemscore.Hbond>
3.1379

> <Gold.PLP.Chemscore.CHOScore>
0.0000

> <Gold.PLP.Chemscore.Metal>
0.0000

> <Gold.Chemscore.Hbonds>
donor molecule, donor type, donor heavy atom, donor atom, acceptor molecule, acceptor atom, score
      P1  H  6896  6908       L1    16  0.29
      P1  H  7997  8009       L1     7  0.88
      P1  H 10752 10764       L1    14  1.79

> <Gold.PLP.Chemscore.Internal.Correction>
0.0136

> <Gold.Rescore>
     Score         DG    S(hbond)    S(metal)    S(lipo)     H(rot)  DE(clash)    DE(int)     intcor
     12.83     -13.59       1.52        0.00      68.41       1.94       0.03       0.73       ----

> <Gold.Chemscore.Fitness>
12.8259

> <Gold.Chemscore.DG>
-13.5875

> <Gold.Chemscore.ZeroCoef>
-5.4800

> <Gold.Chemscore.Hbond>
1.5218

> <Gold.Chemscore.Metal>
0.0000

> <Gold.Chemscore.Lipo>
68.4091

> <Gold.Chemscore.Internal_Hbond>
0.0000

> <Gold.Chemscore.DEClash>
0.0327

> <Gold.Chemscore.DEInternal>
0.7290

> <Gold.Chemscore.Rot>
1.9449

> <Gold.Chemscore.Internal.Correction>
   9.000000E+99

> <Gold.Chemscore.Hbonds>
donor molecule, donor type, donor heavy atom, donor atom, acceptor molecule, acceptor atom, score
      P1  H  6896  6908       L1    16  0.29
      P1  H  7997  8009       L1     7  0.85
      P1  H 10752 10764       L1    14  0.21

> <Gold.Chemscore.Hbond.Weighted>
-5.0827

> <Gold.Chemscore.Metal.Weighted>
-0.0000

> <Gold.Chemscore.Lipo.Weighted>
-8.0039

> <Gold.Chemscore.Internal_Hbond.Weighted>
0.0000

> <Gold.Chemscore.DEClash.Weighted>
0.0327

> <Gold.Chemscore.DEInternal.Weighted>
0.7290

> <Gold.Chemscore.Rot.Weighted>
4.9791

> <Gold.Chemscore.Internal.Correction.Weighted>
   9.000000E+99

> <Gold.Protein.RotatedTorsions>
[ 6907 6896 6895 6894 ] final -109.74 input  -60.11 | X-H torsion
[ 7974 7965 7964 7962 ] final  159.55 input  175.53 | X-H torsion
[ 8008 7997 7996 7995 ] final  124.78 input   59.86 | X-H torsion
[ 10167 10162 10161 10158 ] final  117.49 input  -65.29 | X-H torsion
[ 10718 10713 10712 10709 ] final   97.90 input   66.30 | X-H torsion
[ 10763 10752 10751 10750 ] final  -32.83 input  -60.55 | X-H torsion
[ 11005 11000 10999 10996 ] final  -60.85 input  -57.11 | X-H torsion

> <Gold.Protein.ActiveResidues>
 VAL166  LYS551  ARG553  GLY616  TRP617  ASP618  TYR619  PRO620  LYS621  CYS622 
 ASP623  PHE694  ASN695  SER759  ASP760  ASP761  ALA762  ILE779  LEU786  VAL792 
 PHE793  MET794  SER795  GLU796  ALA797  LYS798  CYS799  TRP800  GLU811  SER814 

> <Gold.Protein.RotatedAtoms>
  150.7581  133.9485  159.3477 H   0  0  0  0  0  0  0  0  0  0  0  0  # atno 6907 bound_to 6896
  151.7399  135.0854  160.0323 H   0  0  0  0  0  0  0  0  0  0  0  0  # atno 6908 bound_to 6896
  152.3535  133.6171  159.5998 H   0  0  0  0  0  0  0  0  0  0  0  0  # atno 6909 bound_to 6896
  144.7784  139.7633  143.6269 H   0  0  0  0  0  0  0  0  0  0  0  0  # atno 7974 bound_to 7965
  156.2813  140.2731  156.1844 H   0  0  0  0  0  0  0  0  0  0  0  0  # atno 8008 bound_to 7997
  155.0523  140.0386  157.2566 H   0  0  0  0  0  0  0  0  0  0  0  0  # atno 8009 bound_to 7997
  154.7185  140.2683  155.6569 H   0  0  0  0  0  0  0  0  0  0  0  0  # atno 8010 bound_to 7997
  139.6175  144.7095  151.2707 H   0  0  0  0  0  0  0  0  0  0  0  0  # atno 10167 bound_to 10162
  157.6905  131.0624  150.4714 H   0  0  0  0  0  0  0  0  0  0  0  0  # atno 10718 bound_to 10713
  153.8203  135.6875  153.4828 H   0  0  0  0  0  0  0  0  0  0  0  0  # atno 10763 bound_to 10752
  153.1573  135.4594  154.9721 H   0  0  0  0  0  0  0  0  0  0  0  0  # atno 10764 bound_to 10752
  154.7930  135.3309  154.7676 H   0  0  0  0  0  0  0  0  0  0  0  0  # atno 10765 bound_to 10752
  141.1303  133.6625  156.5286 H   0  0  0  0  0  0  0  0  0  0  0  0  # atno 11005 bound_to 11000
  146.1978  139.5254  142.9763 LP  0  0  0  0  0  0  0  0  0  0  0  0  # atno 17320 bound_to 7965
  145.6120  141.0338  143.1961 LP  0  0  0  0  0  0  0  0  0  0  0  0  # atno 17321 bound_to 7965
  140.7360  143.6719  150.8074 LP  0  0  0  0  0  0  0  0  0  0  0  0  # atno 17342 bound_to 10162
  140.0324  143.5429  152.2754 LP  0  0  0  0  0  0  0  0  0  0  0  0  # atno 17343 bound_to 10162
  156.5052  130.4126  149.6331 LP  0  0  0  0  0  0  0  0  0  0  0  0  # atno 17370 bound_to 10713
  156.3291  130.7322  151.2248 LP  0  0  0  0  0  0  0  0  0  0  0  0  # atno 17371 bound_to 10713
  140.4234  134.7167  157.4902 LP  0  0  0  0  0  0  0  0  0  0  0  0  # atno 17394 bound_to 11000
  140.0344  134.6359  155.9063 LP  0  0  0  0  0  0  0  0  0  0  0  0  # atno 17395 bound_to 11000

$$$$
