AV-unprocessed.smi:1033|AV-procd|sdf|4501|dock8
  -GOLD-   22720 2503D 1   1.00000     0.00000
 Structure written by MMmdl.
 57 59  0  0  0  0  0  0  0  0  3 V2000
  152.4862  144.1011  160.2298 C   0  0  0  0  0  0  0  0  0  0  0  0
  151.9894  143.0148  159.2908 C   0  0  0  0  0  0  0  0  0  0  0  0
  151.1412  143.3836  158.2221 C   0  0  0  0  0  0  0  0  0  0  0  0
  150.7044  142.3682  157.3797 C   0  0  0  0  0  0  0  0  0  0  0  0
  149.8717  142.4024  156.2591 N   0  3  0  0  0  0  0  0  0  0  0  0
  149.7276  141.1432  155.7609 C   0  0  0  0  0  0  0  0  0  0  0  0
  150.4668  140.3069  156.5403 N   0  0  0  0  0  0  0  0  0  0  0  0
  150.6607  138.8538  156.4515 C   0  0  0  0  0  0  0  0  0  0  0  0
  150.7880  138.3420  155.0016 C   0  0  1  0  0  0  0  0  0  0  0  0
  151.7985  139.1076  154.3771 O   0  0  0  0  0  0  0  0  0  0  0  0
  151.1577  136.8444  154.9135 C   0  0  0  0  0  0  0  0  0  0  0  0
  149.9818  135.9670  154.6812 N   0  3  0  0  0  0  0  0  0  0  0  0
  148.8397  136.2466  155.5932 C   0  0  0  0  0  0  0  0  0  0  0  0
  147.6480  135.3264  155.2578 C   0  0  0  0  0  0  0  0  0  0  0  0
  147.9817  133.9005  155.3089 N   0  0  0  0  0  0  0  0  0  0  0  0
  148.2140  133.3723  156.6583 C   0  0  0  0  0  0  0  0  0  0  0  0
  147.0161  133.4675  157.6239 C   0  0  1  0  0  0  0  0  0  0  0  0
  145.7725  132.7265  157.1119 C   0  0  0  0  0  0  0  0  0  0  0  0
  147.3971  132.8881  158.8535 O   0  0  0  0  0  0  0  0  0  0  0  0
  149.1044  133.6553  154.4048 C   0  0  0  0  0  0  0  0  0  0  0  0
  150.3391  134.5251  154.7173 C   0  0  0  0  0  0  0  0  0  0  0  0
  151.0840  141.0254  157.5697 C   0  0  0  0  0  0  0  0  0  0  0  0
  151.9146  140.6436  158.6204 C   0  0  0  0  0  0  0  0  0  0  0  0
  152.3695  141.6619  159.4885 C   0  0  0  0  0  0  0  0  0  0  0  0
  153.2777  141.2764  160.6438 C   0  0  0  0  0  0  0  0  0  0  0  0
  152.1348  145.0865  159.9219 H   0  0  0  0  0  0  0  0  0  0  0  0
  153.5760  144.1268  160.2443 H   0  0  0  0  0  0  0  0  0  0  0  0
  152.1296  143.9221  161.2443 H   0  0  0  0  0  0  0  0  0  0  0  0
  150.8442  144.4111  158.0690 H   0  0  0  0  0  0  0  0  0  0  0  0
  149.1367  140.8610  154.9012 H   0  0  0  0  0  0  0  0  0  0  0  0
  151.5430  138.5926  157.0379 H   0  0  0  0  0  0  0  0  0  0  0  0
  149.8100  138.3821  156.9461 H   0  0  0  0  0  0  0  0  0  0  0  0
  149.8516  138.5369  154.4812 H   0  0  0  0  0  0  0  0  0  0  0  0
  152.4920  138.5323  154.0927 H   0  0  0  0  0  0  0  0  0  0  0  0
  151.8778  136.7155  154.1038 H   0  0  0  0  0  0  0  0  0  0  0  0
  151.6624  136.5114  155.8210 H   0  0  0  0  0  0  0  0  0  0  0  0
  149.1482  136.1190  156.6315 H   0  0  0  0  0  0  0  0  0  0  0  0
  148.5204  137.2830  155.4905 H   0  0  0  0  0  0  0  0  0  0  0  0
  146.8088  135.5484  155.9156 H   0  0  0  0  0  0  0  0  0  0  0  0
  147.2953  135.5677  154.2540 H   0  0  0  0  0  0  0  0  0  0  0  0
  148.4950  132.3210  156.5802 H   0  0  0  0  0  0  0  0  0  0  0  0
  149.0718  133.8692  157.1107 H   0  0  0  0  0  0  0  0  0  0  0  0
  146.7661  134.5077  157.8284 H   0  0  0  0  0  0  0  0  0  0  0  0
  145.4159  133.1577  156.1763 H   0  0  0  0  0  0  0  0  0  0  0  0
  144.9553  132.7862  157.8313 H   0  0  0  0  0  0  0  0  0  0  0  0
  145.9822  131.6716  156.9325 H   0  0  0  0  0  0  0  0  0  0  0  0
  148.3365  132.9496  158.9386 H   0  0  0  0  0  0  0  0  0  0  0  0
  149.3779  132.5999  154.4312 H   0  0  0  0  0  0  0  0  0  0  0  0
  148.7846  133.8516  153.3804 H   0  0  0  0  0  0  0  0  0  0  0  0
  151.1146  134.3231  153.9773 H   0  0  0  0  0  0  0  0  0  0  0  0
  150.7607  134.2698  155.6905 H   0  0  0  0  0  0  0  0  0  0  0  0
  152.2007  139.6134  158.7730 H   0  0  0  0  0  0  0  0  0  0  0  0
  153.4458  140.1996  160.6783 H   0  0  0  0  0  0  0  0  0  0  0  0
  152.8353  141.5739  161.5949 H   0  0  0  0  0  0  0  0  0  0  0  0
  154.2489  141.7621  160.5453 H   0  0  0  0  0  0  0  0  0  0  0  0
  149.6628  136.1498  153.7406 H   0  0  0  0  0  0  0  0  0  0  0  0
  149.4283  143.2228  155.8652 H   0  0  0  0  0  0  0  0  0  0  0  0
  1  2  1  0  0  0  0
  1 26  1  0  0  0  0
  1 27  1  0  0  0  0
  1 28  1  0  0  0  0
  2 24  1  0  0  0  0
  2  3  2  0  0  0  0
  3  4  1  0  0  0  0
  3 29  1  0  0  0  0
  4 22  2  0  0  0  0
  4  5  1  0  0  0  0
  5  6  2  0  0  0  0
  5 57  1  0  0  0  0
  6  7  1  0  0  0  0
  6 30  1  0  0  0  0
  7  8  1  0  0  0  0
  7 22  1  0  0  0  0
  8  9  1  0  0  0  0
  8 31  1  0  0  0  0
  8 32  1  0  0  0  0
  9 10  1  0  0  0  0
  9 11  1  0  0  0  0
  9 33  1  0  0  0  0
 10 34  1  0  0  0  0
 11 12  1  0  0  0  0
 11 35  1  0  0  0  0
 11 36  1  0  0  0  0
 12 21  1  0  0  0  0
 12 13  1  0  0  0  0
 12 56  1  0  0  0  0
 13 14  1  0  0  0  0
 13 37  1  0  0  0  0
 13 38  1  0  0  0  0
 14 15  1  0  0  0  0
 14 39  1  0  0  0  0
 14 40  1  0  0  0  0
 15 16  1  0  0  0  0
 15 20  1  0  0  0  0
 16 17  1  0  0  0  0
 16 41  1  0  0  0  0
 16 42  1  0  0  0  0
 17 18  1  0  0  0  0
 17 19  1  0  0  0  0
 17 43  1  0  0  0  0
 18 44  1  0  0  0  0
 18 45  1  0  0  0  0
 18 46  1  0  0  0  0
 19 47  1  0  0  0  0
 20 21  1  0  0  0  0
 20 48  1  0  0  0  0
 20 49  1  0  0  0  0
 21 50  1  0  0  0  0
 21 51  1  0  0  0  0
 22 23  1  0  0  0  0
 23 24  2  0  0  0  0
 23 52  1  0  0  0  0
 24 25  1  0  0  0  0
 25 53  1  0  0  0  0
 25 54  1  0  0  0  0
 25 55  1  0  0  0  0
M  CHG  1   5   1
M  CHG  1  12   1
M  END
> <s_m_source_file>
AV-unprocessed.smi

> <i_m_source_file_index>
1033

> <i_lp_mmshare_version>
43012

> <i_f3d_flags>
0

> <s_epik_input>
W0NIM11jKFtjSF0xKWMoW0NIM10pW2NIXWMoYzEyKW4oW2NIXW4yKVtDSDJdW0NASF0oW09IXSlbQ0gyXU4zW0NIMl1bQ0gyXU4oW0NIMl1bQ0gyXTMpW0NIMl1bQ0BIXShbQ0gzXSlbT0hd

> <s_epik_cmdline>
J2VwaWtfcHl0aG9uJywgJy1waCcsICc3LjAnLCAnLXRuJywgJzgnLCAnLW1hJywgJzIwMCcsICctbWV0YWxfYmluZGluZycsICctaW1hZScsICc8aW5maWxlLm1hZT4nLCAnLW9tYWUnLCAnPG91dGZpbGUubWFlPic=

> <r_epik_Ionization_Penalty>
1.22049

> <r_epik_Ionization_Penalty_Charging>
1.17952

> <r_epik_Ionization_Penalty_Neutral>
0.0409743

> <r_epik_State_Penalty>
1.61468

> <r_epik_Charging_Adjusted_Penalty>
2.7942

> <i_epik_Tot_Q>
2

> <i_epik_Tot_abs_Q>
2

> <r_epik_Metal_State_Penalty>
5.63169

> <b_epik_Metal_Only>
0

> <s_lp_Force_Field>
OPLS_2005

> <r_lp_Energy>
46.1755

> <b_lp_Chiralities_Consistent>
1

> <s_lp_Variant>
AV-unprocessed.smi:1033-12

> <Gold.Version>
5.8.1

> <Gold.Id.Protein>
6NUR|6NUR_protein|mol2

> <Gold.PLP.Fitness>
50.0197

> <Gold.PLP.PLP>
-36.7153

> <Gold.PLP.part.hbond>
-2.9744

> <Gold.PLP.part.metal>
0.0000

> <Gold.PLP.part.buried>
-5.2613

> <Gold.PLP.part.nonpolar>
-30.2793

> <Gold.PLP.part.repulsive>
0.1750

> <Gold.PLP.ligand.clash>
0.0000

> <Gold.PLP.ligand.torsion>
0.9054

> <Gold.PLP.Chemscore.Hbond>
5.0000

> <Gold.PLP.Chemscore.CHOScore>
0.0000

> <Gold.PLP.Chemscore.Metal>
0.0000

> <Gold.Chemscore.Hbonds>
donor molecule, donor type, donor heavy atom, donor atom, acceptor molecule, acceptor atom, score
      L1  H     5    57       P1  8028  2.00
      L1  H    12    56       P1  7948  2.00
      P1  H  7989  7998       L1    10  0.96

> <Gold.PLP.Chemscore.Internal.Correction>
0.1153

> <Gold.Rescore>
     Score         DG    S(hbond)    S(metal)    S(lipo)     H(rot)  DE(clash)    DE(int)     intcor
     17.80     -18.94       2.79        0.00     104.18       3.15       0.29       0.84       ----

> <Gold.Chemscore.Fitness>
17.8047

> <Gold.Chemscore.DG>
-18.9378

> <Gold.Chemscore.ZeroCoef>
-5.4800

> <Gold.Chemscore.Hbond>
2.7930

> <Gold.Chemscore.Metal>
0.0000

> <Gold.Chemscore.Lipo>
104.1786

> <Gold.Chemscore.Internal_Hbond>
0.0000

> <Gold.Chemscore.DEClash>
0.2946

> <Gold.Chemscore.DEInternal>
0.8385

> <Gold.Chemscore.Rot>
3.1483

> <Gold.Chemscore.Internal.Correction>
   9.000000E+99

> <Gold.Chemscore.Hbonds>
donor molecule, donor type, donor heavy atom, donor atom, acceptor molecule, acceptor atom, score
      L1  H     5    57       P1  8028  0.98
      L1  H    12    56       P1  7948  0.39
      P1  H  7989  7998       L1    10  0.86

> <Gold.Chemscore.Hbond.Weighted>
-9.3286

> <Gold.Chemscore.Metal.Weighted>
-0.0000

> <Gold.Chemscore.Lipo.Weighted>
-12.1889

> <Gold.Chemscore.Internal_Hbond.Weighted>
0.0000

> <Gold.Chemscore.DEClash.Weighted>
0.2946

> <Gold.Chemscore.DEInternal.Weighted>
0.8385

> <Gold.Chemscore.Rot.Weighted>
8.0597

> <Gold.Chemscore.Internal.Correction.Weighted>
   9.000000E+99

> <Gold.Protein.RotatedTorsions>
[ 6907 6896 6895 6894 ] final -139.74 input  -60.11 | X-H torsion
[ 7974 7965 7964 7962 ] final   12.66 input  175.53 | X-H torsion
[ 8008 7997 7996 7995 ] final -101.07 input   59.86 | X-H torsion
[ 10167 10162 10161 10158 ] final -128.24 input  -65.29 | X-H torsion
[ 10718 10713 10712 10709 ] final   32.97 input   66.30 | X-H torsion
[ 10763 10752 10751 10750 ] final  -91.05 input  -60.55 | X-H torsion
[ 11005 11000 10999 10996 ] final  118.82 input  -57.11 | X-H torsion

> <Gold.Protein.ActiveResidues>
 VAL166  LYS551  ARG553  GLY616  TRP617  ASP618  TYR619  PRO620  LYS621  CYS622 
 ASP623  PHE694  ASN695  SER759  ASP760  ASP761  ALA762  ILE779  LEU786  VAL792 
 PHE793  MET794  SER795  GLU796  ALA797  LYS798  CYS799  TRP800  GLU811  SER814 

> <Gold.Protein.RotatedAtoms>
  151.0517  133.5618  159.2641 H   0  0  0  0  0  0  0  0  0  0  0  0  # atno 6907 bound_to 6896
  151.2627  135.0658  159.9114 H   0  0  0  0  0  0  0  0  0  0  0  0  # atno 6908 bound_to 6896
  152.5383  134.0260  159.8057 H   0  0  0  0  0  0  0  0  0  0  0  0  # atno 6909 bound_to 6896
  146.2346  139.9303  142.8497 H   0  0  0  0  0  0  0  0  0  0  0  0  # atno 7974 bound_to 7965
  154.8374  140.0437  157.1518 H   0  0  0  0  0  0  0  0  0  0  0  0  # atno 8008 bound_to 7997
  154.9084  140.3010  155.5259 H   0  0  0  0  0  0  0  0  0  0  0  0  # atno 8009 bound_to 7997
  156.2990  140.2363  156.4121 H   0  0  0  0  0  0  0  0  0  0  0  0  # atno 8010 bound_to 7997
  139.9524  143.6041  152.2471 H   0  0  0  0  0  0  0  0  0  0  0  0  # atno 10167 bound_to 10162
  157.2920  130.7307  149.6616 H   0  0  0  0  0  0  0  0  0  0  0  0  # atno 10718 bound_to 10713
  154.6721  135.5282  153.8152 H   0  0  0  0  0  0  0  0  0  0  0  0  # atno 10763 bound_to 10752
  153.0508  135.6531  154.0708 H   0  0  0  0  0  0  0  0  0  0  0  0  # atno 10764 bound_to 10752
  154.0606  135.2962  155.3305 H   0  0  0  0  0  0  0  0  0  0  0  0  # atno 10765 bound_to 10752
  139.9123  134.9623  156.7561 H   0  0  0  0  0  0  0  0  0  0  0  0  # atno 11005 bound_to 11000
  145.2050  140.9871  143.4133 LP  0  0  0  0  0  0  0  0  0  0  0  0  # atno 17320 bound_to 7965
  144.9740  139.3851  143.6295 LP  0  0  0  0  0  0  0  0  0  0  0  0  # atno 17321 bound_to 7965
  139.6618  144.7662  151.1948 LP  0  0  0  0  0  0  0  0  0  0  0  0  # atno 17342 bound_to 10162
  140.7579  143.5998  150.8711 LP  0  0  0  0  0  0  0  0  0  0  0  0  # atno 17343 bound_to 10162
  155.9667  130.4306  150.4883 LP  0  0  0  0  0  0  0  0  0  0  0  0  # atno 17370 bound_to 10713
  157.2848  131.0614  151.2174 LP  0  0  0  0  0  0  0  0  0  0  0  0  # atno 17371 bound_to 10713
  140.6735  133.9538  155.7869 LP  0  0  0  0  0  0  0  0  0  0  0  0  # atno 17394 bound_to 11000
  141.0561  134.0414  157.3720 LP  0  0  0  0  0  0  0  0  0  0  0  0  # atno 17395 bound_to 11000

$$$$
