AV-unprocessed.smi:866|AV-procd|sdf|3993|dock5
  -GOLD-   22720 1473D 1   1.00000     0.00000
 Structure written by MMmdl.
 34 34  0  0  0  0  0  0  0  0  2 V2000
  153.0658  142.6807  162.4406 C   0  0  0  0  0  0  0  0  0  0  0  0
  152.4926  143.2611  161.1797 C   0  0  0  0  0  0  0  0  0  0  0  0
  151.8092  144.5001  161.0191 C   0  0  0  0  0  0  0  0  0  0  0  0
  151.4288  144.7193  159.7708 N   0  0  0  0  0  0  0  0  0  0  0  0
  151.8518  143.6314  159.0936 N   0  0  0  0  0  0  0  0  0  0  0  0
  151.6070  143.5321  157.6680 C   0  0  0  0  0  0  0  0  0  0  0  0
  150.7527  142.3048  157.3193 C   0  0  0  0  0  0  0  0  0  0  0  0
  150.0964  142.4776  156.0063 N   0  3  0  0  0  0  0  0  0  0  0  0
  149.3788  141.2895  155.4905 C   0  0  1  0  0  0  0  0  0  0  0  0
  148.3895  141.6813  154.3745 C   0  0  0  0  0  0  0  0  0  0  0  0
  150.4116  140.2417  155.0150 C   0  0  0  0  0  0  0  0  0  0  0  0
  149.7986  138.9010  154.5915 C   0  0  0  0  0  0  0  0  0  0  0  0
  149.6178  138.7038  153.2835 N   0  0  0  0  0  0  0  0  0  0  0  0
  149.4970  138.0523  155.4282 O   0  0  0  0  0  0  0  0  0  0  0  0
  152.4990  142.7361  159.9185 C   0  0  0  0  0  0  0  0  0  0  0  0
  153.2117  143.4420  163.2071 H   0  0  0  0  0  0  0  0  0  0  0  0
  154.0350  142.2131  162.2657 H   0  0  0  0  0  0  0  0  0  0  0  0
  152.4121  141.9187  162.8651 H   0  0  0  0  0  0  0  0  0  0  0  0
  151.5802  145.2429  161.7692 H   0  0  0  0  0  0  0  0  0  0  0  0
  151.1155  144.4484  157.3377 H   0  0  0  0  0  0  0  0  0  0  0  0
  152.5681  143.4844  157.1538 H   0  0  0  0  0  0  0  0  0  0  0  0
  151.3803  141.4128  157.2961 H   0  0  0  0  0  0  0  0  0  0  0  0
  149.9983  142.1495  158.0903 H   0  0  0  0  0  0  0  0  0  0  0  0
  149.4515  143.2533  156.0568 H   0  0  0  0  0  0  0  0  0  0  0  0
  148.8169  140.8638  156.3237 H   0  0  0  0  0  0  0  0  0  0  0  0
  147.8542  140.8125  153.9913 H   0  0  0  0  0  0  0  0  0  0  0  0
  148.9051  142.1473  153.5342 H   0  0  0  0  0  0  0  0  0  0  0  0
  147.6331  142.3808  154.7295 H   0  0  0  0  0  0  0  0  0  0  0  0
  151.0044  140.6513  154.1952 H   0  0  0  0  0  0  0  0  0  0  0  0
  151.1131  140.0279  155.8225 H   0  0  0  0  0  0  0  0  0  0  0  0
  149.2144  137.8403  152.9493 H   0  0  0  0  0  0  0  0  0  0  0  0
  149.8835  139.4254  152.6282 H   0  0  0  0  0  0  0  0  0  0  0  0
  152.9069  141.8084  159.5448 H   0  0  0  0  0  0  0  0  0  0  0  0
  150.8204  142.7069  155.3405 H   0  0  0  0  0  0  0  0  0  0  0  0
  1  2  1  0  0  0  0
  1 16  1  0  0  0  0
  1 17  1  0  0  0  0
  1 18  1  0  0  0  0
  2 15  2  0  0  0  0
  2  3  1  0  0  0  0
  3  4  2  0  0  0  0
  3 19  1  0  0  0  0
  4  5  1  0  0  0  0
  5  6  1  0  0  0  0
  5 15  1  0  0  0  0
  6  7  1  0  0  0  0
  6 20  1  0  0  0  0
  6 21  1  0  0  0  0
  7  8  1  0  0  0  0
  7 22  1  0  0  0  0
  7 23  1  0  0  0  0
  8  9  1  0  0  0  0
  8 24  1  0  0  0  0
  8 34  1  0  0  0  0
  9 10  1  0  0  0  0
  9 11  1  0  0  0  0
  9 25  1  0  0  0  0
 10 26  1  0  0  0  0
 10 27  1  0  0  0  0
 10 28  1  0  0  0  0
 11 12  1  0  0  0  0
 11 29  1  0  0  0  0
 11 30  1  0  0  0  0
 12 13  1  0  0  0  0
 12 14  2  0  0  0  0
 13 31  1  0  0  0  0
 13 32  1  0  0  0  0
 15 33  1  0  0  0  0
M  CHG  1   8   1
M  END
> <s_m_source_file>
AV-unprocessed.smi

> <i_m_source_file_index>
866

> <i_lp_mmshare_version>
43012

> <i_f3d_flags>
0

> <s_epik_input>
W0NIM11jMVtjSF1ubihbY0hdMSlbQ0gyXVtDSDJdW05IXVtDQEhdKFtDSDNdKVtDSDJdQyg9TylbTkgyXQ==

> <s_epik_cmdline>
J2VwaWtfcHl0aG9uJywgJy1waCcsICc3LjAnLCAnLXRuJywgJzgnLCAnLW1hJywgJzIwMCcsICctbWV0YWxfYmluZGluZycsICctaW1hZScsICc8aW5maWxlLm1hZT4nLCAnLW9tYWUnLCAnPG91dGZpbGUubWFlPic=

> <r_lp_tautomer_probability>
1

> <r_epik_Ionization_Penalty>
0.0061413

> <r_epik_Ionization_Penalty_Charging>
0.00613574

> <r_epik_Ionization_Penalty_Neutral>
5.56035e-06

> <r_epik_State_Penalty>
0.00452343

> <r_epik_Charging_Adjusted_Penalty>
0.0106592

> <i_epik_Tot_Q>
1

> <i_epik_Tot_abs_Q>
1

> <r_epik_Metal_State_Penalty>
-0

> <b_epik_Metal_Only>
0

> <s_lp_Force_Field>
OPLS_2005

> <r_lp_Energy>
3.04196

> <b_lp_Chiralities_Consistent>
1

> <s_lp_Variant>
AV-unprocessed.smi:866-2

> <Gold.Version>
5.8.1

> <Gold.Id.Protein>
6NUR|6NUR_protein|mol2

> <Gold.PLP.Fitness>
50.7633

> <Gold.PLP.PLP>
-39.9007

> <Gold.PLP.part.hbond>
-3.0000

> <Gold.PLP.part.metal>
0.0000

> <Gold.PLP.part.buried>
-4.4635

> <Gold.PLP.part.nonpolar>
-33.0453

> <Gold.PLP.part.repulsive>
0.3721

> <Gold.PLP.ligand.clash>
0.0000

> <Gold.PLP.ligand.torsion>
0.5517

> <Gold.PLP.Chemscore.Hbond>
3.9600

> <Gold.PLP.Chemscore.CHOScore>
0.0000

> <Gold.PLP.Chemscore.Metal>
0.0000

> <Gold.Chemscore.Hbonds>
donor molecule, donor type, donor heavy atom, donor atom, acceptor molecule, acceptor atom, score
      L1  H     8    24       P1  8028  2.00
      L1  H    13    31       P1  7948  1.00
      L1  H    13    32       P1  7957  0.90

> <Gold.PLP.Chemscore.Internal.Correction>
0.0860

> <Gold.Rescore>
     Score         DG    S(hbond)    S(metal)    S(lipo)     H(rot)  DE(clash)    DE(int)     intcor
     17.52     -18.14       2.85        0.00      87.46       2.77       0.04       0.57       ----

> <Gold.Chemscore.Fitness>
17.5192

> <Gold.Chemscore.DG>
-18.1353

> <Gold.Chemscore.ZeroCoef>
-5.4800

> <Gold.Chemscore.Hbond>
2.8515

> <Gold.Chemscore.Metal>
0.0000

> <Gold.Chemscore.Lipo>
87.4594

> <Gold.Chemscore.Internal_Hbond>
0.0000

> <Gold.Chemscore.DEClash>
0.0442

> <Gold.Chemscore.DEInternal>
0.5719

> <Gold.Chemscore.Rot>
2.7740

> <Gold.Chemscore.Internal.Correction>
   9.000000E+99

> <Gold.Chemscore.Hbonds>
donor molecule, donor type, donor heavy atom, donor atom, acceptor molecule, acceptor atom, score
      L1  H     8    24       P1  8028  0.97
      L1  H    13    31       P1  7948  0.97
      L1  H    13    32       P1  7957  0.84

> <Gold.Chemscore.Hbond.Weighted>
-9.5240

> <Gold.Chemscore.Metal.Weighted>
-0.0000

> <Gold.Chemscore.Lipo.Weighted>
-10.2327

> <Gold.Chemscore.Internal_Hbond.Weighted>
0.0000

> <Gold.Chemscore.DEClash.Weighted>
0.0442

> <Gold.Chemscore.DEInternal.Weighted>
0.5719

> <Gold.Chemscore.Rot.Weighted>
7.1014

> <Gold.Chemscore.Internal.Correction.Weighted>
   9.000000E+99

> <Gold.Protein.RotatedTorsions>
[ 6907 6896 6895 6894 ] final   75.20 input  -60.11 | X-H torsion
[ 7974 7965 7964 7962 ] final -114.76 input  175.53 | X-H torsion
[ 8008 7997 7996 7995 ] final   -0.94 input   59.86 | X-H torsion
[ 10167 10162 10161 10158 ] final  -36.42 input  -65.29 | X-H torsion
[ 10718 10713 10712 10709 ] final   68.70 input   66.30 | X-H torsion
[ 10763 10752 10751 10750 ] final  -74.37 input  -60.55 | X-H torsion
[ 11005 11000 10999 10996 ] final   50.06 input  -57.11 | X-H torsion

> <Gold.Protein.ActiveResidues>
 VAL166  LYS551  ARG553  GLY616  TRP617  ASP618  TYR619  PRO620  LYS621  CYS622 
 ASP623  PHE694  ASN695  SER759  ASP760  ASP761  ALA762  ILE779  LEU786  VAL792 
 PHE793  MET794  SER795  GLU796  ALA797  LYS798  CYS799  TRP800  GLU811  SER814 

> <Gold.Protein.RotatedAtoms>
  152.5014  134.4156  159.9463 H   0  0  0  0  0  0  0  0  0  0  0  0  # atno 6907 bound_to 6896
  151.4126  133.3716  159.2753 H   0  0  0  0  0  0  0  0  0  0  0  0  # atno 6908 bound_to 6896
  150.9280  134.8718  159.7592 H   0  0  0  0  0  0  0  0  0  0  0  0  # atno 6909 bound_to 6896
  145.1164  140.8643  143.3839 H   0  0  0  0  0  0  0  0  0  0  0  0  # atno 7974 bound_to 7965
  154.6524  140.2572  155.7199 H   0  0  0  0  0  0  0  0  0  0  0  0  # atno 8008 bound_to 7997
  156.2581  140.2865  156.0884 H   0  0  0  0  0  0  0  0  0  0  0  0  # atno 8009 bound_to 7997
  155.1431  140.0380  157.2793 H   0  0  0  0  0  0  0  0  0  0  0  0  # atno 8010 bound_to 7997
  140.7143  143.3410  151.2358 H   0  0  0  0  0  0  0  0  0  0  0  0  # atno 10167 bound_to 10162
  157.6304  130.9387  150.0413 H   0  0  0  0  0  0  0  0  0  0  0  0  # atno 10718 bound_to 10713
  154.4722  135.5866  153.6329 H   0  0  0  0  0  0  0  0  0  0  0  0  # atno 10763 bound_to 10752
  152.9836  135.6069  154.3353 H   0  0  0  0  0  0  0  0  0  0  0  0  # atno 10764 bound_to 10752
  154.3235  135.2843  155.2486 H   0  0  0  0  0  0  0  0  0  0  0  0  # atno 10765 bound_to 10752
  140.1050  134.5031  155.8728 H   0  0  0  0  0  0  0  0  0  0  0  0  # atno 11005 bound_to 11000
  145.0789  139.2975  143.5794 LP  0  0  0  0  0  0  0  0  0  0  0  0  # atno 17320 bound_to 7965
  146.3523  140.0289  142.8652 LP  0  0  0  0  0  0  0  0  0  0  0  0  # atno 17321 bound_to 7965
  139.6917  143.9681  152.2862 LP  0  0  0  0  0  0  0  0  0  0  0  0  # atno 17342 bound_to 10162
  139.9345  144.6721  150.8329 LP  0  0  0  0  0  0  0  0  0  0  0  0  # atno 17343 bound_to 10162
  156.1504  130.3642  149.9447 LP  0  0  0  0  0  0  0  0  0  0  0  0  # atno 17370 bound_to 10713
  156.7468  130.9100  151.3635 LP  0  0  0  0  0  0  0  0  0  0  0  0  # atno 17371 bound_to 10713
  141.2115  133.6708  156.6592 LP  0  0  0  0  0  0  0  0  0  0  0  0  # atno 17394 bound_to 11000
  140.3169  134.8040  157.4221 LP  0  0  0  0  0  0  0  0  0  0  0  0  # atno 17395 bound_to 11000

$$$$
