AV-unprocessed.smi:565|AV-procd|sdf|2954|dock5
  -GOLD-   2262023453D 1   1.00000     0.00000
 Structure written by MMmdl.
 50 51  0  0  0  0  0  0  0  0  2 V2000
  148.4802  137.0328  158.5689 C   0  0  0  0  0  0  0  0  0  0  0  0
  148.0584  136.3991  159.8638 C   0  0  0  0  0  0  0  0  0  0  0  0
  147.9443  137.1506  160.9461 N   0  0  0  0  0  0  0  0  0  0  0  0
  147.5599  136.2997  161.9180 N   0  0  0  0  0  0  0  0  0  0  0  0
  147.3428  136.8051  163.2596 C   0  0  0  0  0  0  0  0  0  0  0  0
  147.4263  135.0076  161.4480 C   0  0  0  0  0  0  0  0  0  0  0  0
  147.0131  133.8771  162.3346 C   0  0  0  0  0  0  0  0  0  0  0  0
  147.7467  135.0307  160.1162 C   0  0  0  0  0  0  0  0  0  0  0  0
  147.7794  133.8895  159.1307 C   0  0  0  0  0  0  0  0  0  0  0  0
  146.9548  134.2605  157.8985 C   0  0  0  0  0  0  0  0  0  0  0  0
  146.0236  135.0595  157.9955 O   0  0  0  0  0  0  0  0  0  0  0  0
  147.3188  133.6886  156.7400 N   0  0  0  0  0  0  0  0  0  0  0  0
  146.7122  133.9688  155.4453 C   0  0  0  0  0  0  0  0  0  0  0  0
  147.7815  134.0629  154.3397 C   0  0  0  0  0  0  0  0  0  0  0  0
  147.1995  134.3871  153.0133 N   0  3  2  0  0  0  0  0  0  0  0  0
  146.0698  135.3463  153.1168 C   0  0  0  0  0  0  0  0  0  0  0  0
  145.5765  135.7727  151.7253 C   0  0  0  0  0  0  0  0  0  0  0  0
  145.1771  134.5519  150.8872 C   0  0  0  0  0  0  0  0  0  0  0  0
  146.3434  133.5519  150.8125 C   0  0  2  0  0  0  0  0  0  0  0  0
  145.9609  132.3053  150.0023 C   0  0  0  0  0  0  0  0  0  0  0  0
  146.8193  133.1794  152.2314 C   0  0  0  0  0  0  0  0  0  0  0  0
  149.1830  136.3963  158.0313 H   0  0  0  0  0  0  0  0  0  0  0  0
  148.9669  137.9954  158.7304 H   0  0  0  0  0  0  0  0  0  0  0  0
  147.6203  137.1996  157.9202 H   0  0  0  0  0  0  0  0  0  0  0  0
  147.8733  136.1809  163.9790 H   0  0  0  0  0  0  0  0  0  0  0  0
  146.2770  136.7867  163.4886 H   0  0  0  0  0  0  0  0  0  0  0  0
  147.7071  137.8296  163.3489 H   0  0  0  0  0  0  0  0  0  0  0  0
  146.7548  132.9919  161.7540 H   0  0  0  0  0  0  0  0  0  0  0  0
  146.1419  134.1470  162.9321 H   0  0  0  0  0  0  0  0  0  0  0  0
  147.8205  133.6076  163.0154 H   0  0  0  0  0  0  0  0  0  0  0  0
  148.7974  133.6478  158.8247 H   0  0  0  0  0  0  0  0  0  0  0  0
  147.3738  132.9767  159.5686 H   0  0  0  0  0  0  0  0  0  0  0  0
  148.0921  133.0393  156.7548 H   0  0  0  0  0  0  0  0  0  0  0  0
  146.0127  133.1641  155.2180 H   0  0  0  0  0  0  0  0  0  0  0  0
  146.1223  134.8830  155.5156 H   0  0  0  0  0  0  0  0  0  0  0  0
  148.5466  134.7990  154.5911 H   0  0  0  0  0  0  0  0  0  0  0  0
  148.2914  133.0999  154.2855 H   0  0  0  0  0  0  0  0  0  0  0  0
  145.2556  134.8922  153.6839 H   0  0  0  0  0  0  0  0  0  0  0  0
  146.3857  136.2326  153.6686 H   0  0  0  0  0  0  0  0  0  0  0  0
  144.7286  136.4515  151.8223 H   0  0  0  0  0  0  0  0  0  0  0  0
  146.3616  136.3296  151.2119 H   0  0  0  0  0  0  0  0  0  0  0  0
  144.3027  134.0732  151.3306 H   0  0  0  0  0  0  0  0  0  0  0  0
  144.8846  134.8692  149.8856 H   0  0  0  0  0  0  0  0  0  0  0  0
  147.1729  134.0372  150.2954 H   0  0  0  0  0  0  0  0  0  0  0  0
  145.1330  131.7686  150.4668 H   0  0  0  0  0  0  0  0  0  0  0  0
  146.8014  131.6154  149.9211 H   0  0  0  0  0  0  0  0  0  0  0  0
  145.6571  132.5730  148.9898 H   0  0  0  0  0  0  0  0  0  0  0  0
  147.6690  132.5022  152.1524 H   0  0  0  0  0  0  0  0  0  0  0  0
  146.0348  132.6363  152.7616 H   0  0  0  0  0  0  0  0  0  0  0  0
  147.9227  134.8616  152.4919 H   0  0  0  0  0  0  0  0  0  0  0  0
  1  2  1  0  0  0  0
  1 22  1  0  0  0  0
  1 23  1  0  0  0  0
  1 24  1  0  0  0  0
  2  8  1  0  0  0  0
  2  3  2  0  0  0  0
  3  4  1  0  0  0  0
  4  5  1  0  0  0  0
  4  6  1  0  0  0  0
  5 25  1  0  0  0  0
  5 26  1  0  0  0  0
  5 27  1  0  0  0  0
  6  7  1  0  0  0  0
  6  8  2  0  0  0  0
  7 28  1  0  0  0  0
  7 29  1  0  0  0  0
  7 30  1  0  0  0  0
  8  9  1  0  0  0  0
  9 10  1  0  0  0  0
  9 31  1  0  0  0  0
  9 32  1  0  0  0  0
 10 11  2  0  0  0  0
 10 12  1  0  0  0  0
 12 13  1  0  0  0  0
 12 33  1  0  0  0  0
 13 14  1  0  0  0  0
 13 34  1  0  0  0  0
 13 35  1  0  0  0  0
 14 15  1  0  0  0  0
 14 36  1  0  0  0  0
 14 37  1  0  0  0  0
 15 21  1  0  0  0  0
 15 16  1  0  0  0  0
 15 50  1  0  0  0  0
 16 17  1  0  0  0  0
 16 38  1  0  0  0  0
 16 39  1  0  0  0  0
 17 18  1  0  0  0  0
 17 40  1  0  0  0  0
 17 41  1  0  0  0  0
 18 19  1  0  0  0  0
 18 42  1  0  0  0  0
 18 43  1  0  0  0  0
 19 20  1  0  0  0  0
 19 21  1  0  0  0  0
 19 44  1  0  0  0  0
 20 45  1  0  0  0  0
 20 46  1  0  0  0  0
 20 47  1  0  0  0  0
 21 48  1  0  0  0  0
 21 49  1  0  0  0  0
M  CHG  1  15   1
M  END
> <s_m_source_file>
AV-unprocessed.smi

> <i_m_source_file_index>
565

> <i_lp_mmshare_version>
43012

> <i_f3d_flags>
0

> <s_epik_input>
W0NIM11jMW5uKFtDSDNdKWMoW0NIM10pYzFbQ0gyXUMoPU8pW05IXVtDSDJdW0NIMl1OMltDSDJdW0NIMl1bQ0gyXVtDQEBIXShbQ0gzXSlbQ0gyXTI=

> <s_epik_cmdline>
J2VwaWtfcHl0aG9uJywgJy1waCcsICc3LjAnLCAnLXRuJywgJzgnLCAnLW1hJywgJzIwMCcsICctbWV0YWxfYmluZGluZycsICctaW1hZScsICc8aW5maWxlLm1hZT4nLCAnLW9tYWUnLCAnPG91dGZpbGUubWFlPic=

> <r_lp_tautomer_probability>
1

> <r_epik_Ionization_Penalty>
0.00411138

> <r_epik_Ionization_Penalty_Charging>
0.0019503

> <r_epik_Ionization_Penalty_Neutral>
0.00216107

> <r_epik_State_Penalty>
-0

> <r_epik_Charging_Adjusted_Penalty>
0.0019503

> <i_epik_Tot_Q>
1

> <i_epik_Tot_abs_Q>
1

> <r_epik_Metal_State_Penalty>
-0

> <b_epik_Metal_Only>
0

> <s_lp_Force_Field>
OPLS_2005

> <r_lp_Energy>
10.1844

> <b_lp_Chiralities_Consistent>
1

> <s_lp_Variant>
AV-unprocessed.smi:565-4

> <Gold.Version>
5.8.1

> <Gold.Id.Protein>
6NUR|6NUR_protein|mol2

> <Gold.PLP.Fitness>
45.8904

> <Gold.PLP.PLP>
-36.5279

> <Gold.PLP.part.hbond>
-3.0000

> <Gold.PLP.part.metal>
0.0000

> <Gold.PLP.part.buried>
-4.2753

> <Gold.PLP.part.nonpolar>
-29.7434

> <Gold.PLP.part.repulsive>
0.0000

> <Gold.PLP.ligand.clash>
0.0000

> <Gold.PLP.ligand.torsion>
0.8685

> <Gold.PLP.Chemscore.Hbond>
3.6894

> <Gold.PLP.Chemscore.CHOScore>
0.0000

> <Gold.PLP.Chemscore.Metal>
0.0000

> <Gold.Chemscore.Hbonds>
donor molecule, donor type, donor heavy atom, donor atom, acceptor molecule, acceptor atom, score
      L1  H    15    50       P1  7948  2.00
      P1  H  6931  6943       L1     3  0.93
      P1  H  6934  6947       L1     3  0.78

> <Gold.PLP.Chemscore.Internal.Correction>
0.0313

> <Gold.Rescore>
     Score         DG    S(hbond)    S(metal)    S(lipo)     H(rot)  DE(clash)    DE(int)     intcor
     17.82     -19.06       2.46        0.00      81.30       1.61       0.61       0.64       ----

> <Gold.Chemscore.Fitness>
17.8172

> <Gold.Chemscore.DG>
-19.0642

> <Gold.Chemscore.ZeroCoef>
-5.4800

> <Gold.Chemscore.Hbond>
2.4564

> <Gold.Chemscore.Metal>
0.0000

> <Gold.Chemscore.Lipo>
81.3004

> <Gold.Chemscore.Internal_Hbond>
0.0000

> <Gold.Chemscore.DEClash>
0.6085

> <Gold.Chemscore.DEInternal>
0.6384

> <Gold.Chemscore.Rot>
1.6142

> <Gold.Chemscore.Internal.Correction>
   9.000000E+99

> <Gold.Chemscore.Hbonds>
donor molecule, donor type, donor heavy atom, donor atom, acceptor molecule, acceptor atom, score
      L1  H    15    50       P1  7948  0.82
      P1  H  6931  6943       L1     3  0.23
      P1  H  6934  6947       L1     3  0.71

> <Gold.Chemscore.Hbond.Weighted>
-8.2045

> <Gold.Chemscore.Metal.Weighted>
-0.0000

> <Gold.Chemscore.Lipo.Weighted>
-9.5121

> <Gold.Chemscore.Internal_Hbond.Weighted>
0.0000

> <Gold.Chemscore.DEClash.Weighted>
0.6085

> <Gold.Chemscore.DEInternal.Weighted>
0.6384

> <Gold.Chemscore.Rot.Weighted>
4.1324

> <Gold.Chemscore.Internal.Correction.Weighted>
   9.000000E+99

> <Gold.Protein.RotatedTorsions>
[ 6907 6896 6895 6894 ] final  -87.21 input  -60.11 | X-H torsion
[ 7974 7965 7964 7962 ] final   17.42 input  175.53 | X-H torsion
[ 8008 7997 7996 7995 ] final  126.62 input   59.86 | X-H torsion
[ 10167 10162 10161 10158 ] final    6.72 input  -65.29 | X-H torsion
[ 10718 10713 10712 10709 ] final   73.16 input   66.30 | X-H torsion
[ 10763 10752 10751 10750 ] final -123.99 input  -60.55 | X-H torsion
[ 11005 11000 10999 10996 ] final   37.72 input  -57.11 | X-H torsion

> <Gold.Protein.ActiveResidues>
 VAL166  LYS551  ARG553  GLY616  TRP617  ASP618  TYR619  PRO620  LYS621  CYS622 
 ASP623  PHE694  ASN695  SER759  ASP760  ASP761  ALA762  ILE779  LEU786  VAL792 
 PHE793  MET794  SER795  GLU796  ALA797  LYS798  CYS799  TRP800  GLU811  SER814 

> <Gold.Protein.RotatedAtoms>
  150.6866  134.2931  159.4674 H   0  0  0  0  0  0  0  0  0  0  0  0  # atno 6907 bound_to 6896
  152.0834  134.9453  160.0582 H   0  0  0  0  0  0  0  0  0  0  0  0  # atno 6908 bound_to 6896
  152.0797  133.4112  159.4532 H   0  0  0  0  0  0  0  0  0  0  0  0  # atno 6909 bound_to 6896
  146.2219  139.8604  142.8606 H   0  0  0  0  0  0  0  0  0  0  0  0  # atno 7974 bound_to 7965
  156.2869  140.2688  156.2140 H   0  0  0  0  0  0  0  0  0  0  0  0  # atno 8008 bound_to 7997
  155.0236  140.0386  157.2465 H   0  0  0  0  0  0  0  0  0  0  0  0  # atno 8009 bound_to 7997
  154.7415  140.2726  155.6374 H   0  0  0  0  0  0  0  0  0  0  0  0  # atno 8010 bound_to 7997
  140.6412  143.7769  150.7431 H   0  0  0  0  0  0  0  0  0  0  0  0  # atno 10167 bound_to 10162
  157.6535  130.9614  150.1030 H   0  0  0  0  0  0  0  0  0  0  0  0  # atno 10718 bound_to 10713
  154.8716  135.4079  154.3033 H   0  0  0  0  0  0  0  0  0  0  0  0  # atno 10763 bound_to 10752
  153.3889  135.7014  153.6515 H   0  0  0  0  0  0  0  0  0  0  0  0  # atno 10764 bound_to 10752
  153.5306  135.3668  155.2645 H   0  0  0  0  0  0  0  0  0  0  0  0  # atno 10765 bound_to 10752
  140.2198  134.3655  155.8010 H   0  0  0  0  0  0  0  0  0  0  0  0  # atno 11005 bound_to 11000
  145.2710  141.0108  143.3772 LP  0  0  0  0  0  0  0  0  0  0  0  0  # atno 17320 bound_to 7965
  144.9223  139.4396  143.6535 LP  0  0  0  0  0  0  0  0  0  0  0  0  # atno 17321 bound_to 7965
  140.1401  143.4449  152.2199 LP  0  0  0  0  0  0  0  0  0  0  0  0  # atno 17342 bound_to 10162
  139.5621  144.7412  151.4124 LP  0  0  0  0  0  0  0  0  0  0  0  0  # atno 17343 bound_to 10162
  156.1947  130.3656  149.8864 LP  0  0  0  0  0  0  0  0  0  0  0  0  # atno 17370 bound_to 10713
  156.6783  130.8848  151.3572 LP  0  0  0  0  0  0  0  0  0  0  0  0  # atno 17371 bound_to 10713
  141.2223  133.7187  156.8556 LP  0  0  0  0  0  0  0  0  0  0  0  0  # atno 17394 bound_to 11000
  140.1862  134.8998  157.3007 LP  0  0  0  0  0  0  0  0  0  0  0  0  # atno 17395 bound_to 11000

$$$$
