#       Name:                AV-unprocessed.smi:2799
#       Creating user name   scv26
#       Creation time:       Fri Mar 27 15:22:16 2020


#       File generated by GOLD software.
#

@<TRIPOS>MOLECULE
AV-unprocessed.smi:2799
    56    57     1
SMALL
NO_CHARGES


@<TRIPOS>ATOM
      1 ****        -0.9581   3.7478   2.3245 C.3            1 S1                 0.0000
      2 ****        -0.8624   4.6141   1.0577 C.3            1 S1                 0.0000
      3 ****        -2.0436   5.5935   0.9875 C.3            1 S1                 0.0000
      4 ****        -0.7875   3.7566  -0.2213 C.3            1 S1                 0.0000
      5 ****         0.4784   2.9699  -0.2848 N.4            1 S1                 1.0000
      6 ****         1.5007   3.7152  -1.0725 C.3            1 S1                 0.0000
      7 ****         2.8616   3.0147  -1.0783 C.3            1 S1                 0.0000
      8 ****         2.7111   1.6125  -1.6601 C.3            1 S1                 0.0000
      9 ****         1.6928   0.8332  -0.8270 C.3            1 S1                 0.0000
     10 ****         0.3143   1.5400  -0.7136 C.3            1 S1                 0.0000
     11 ****        -0.5911   0.7437   0.2704 C.3            1 S1                 0.0000
     12 ****        -0.7982  -0.6428  -0.1426 N.am           1 S1                 0.0000
     13 ****        -0.2275  -1.7185   0.4194 C.2            1 S1                 0.0000
     14 ****         0.5736  -1.6471   1.3508 O.2            1 S1                 0.0000
     15 ****        -0.6601  -2.8506  -0.1658 N.am           1 S1                 0.0000
     16 ****        -0.3049  -4.1853   0.0981 C.2            1 S1                 0.0000
     17 ****         0.7816  -4.5685   0.8149 C.2            1 S1                 0.0000
     18 ****         1.0734  -5.9655   1.0299 C.2            1 S1                 0.0000
     19 ****         0.2529  -6.8784   0.4920 C.2            1 S1                 0.0000
     20 ****        -0.8697  -6.5050  -0.2658 N.am           1 S1                 0.0000
     21 ****        -1.7060  -7.5776  -0.8108 C.3            1 S1                 0.0000
     22 ****        -1.2004  -5.1990  -0.4937 C.2            1 S1                 0.0000
     23 ****        -2.1953  -4.8991  -1.1584 O.2            1 S1                 0.0000
     24 ****        -1.8439   3.1121   2.3040 H              1 S1                 0.0000
     25 ****        -1.0152   4.3675   3.2199 H              1 S1                 0.0000
     26 ****        -0.0869   3.1019   2.4344 H              1 S1                 0.0000
     27 ****         0.0472   5.2119   1.1283 H              1 S1                 0.0000
     28 ****        -2.9947   5.0642   0.9189 H              1 S1                 0.0000
     29 ****        -1.9629   6.2476   0.1189 H              1 S1                 0.0000
     30 ****        -2.0807   6.2297   1.8724 H              1 S1                 0.0000
     31 ****        -1.6772   3.1361  -0.2868 H              1 S1                 0.0000
     32 ****        -0.8581   4.4015  -1.0989 H              1 S1                 0.0000
     33 ****         1.1517   3.8374  -2.0994 H              1 S1                 0.0000
     34 ****         1.6185   4.7176  -0.6593 H              1 S1                 0.0000
     35 ****         3.5755   3.5894  -1.6692 H              1 S1                 0.0000
     36 ****         3.2626   2.9631  -0.0650 H              1 S1                 0.0000
     37 ****         2.3829   1.6678  -2.6989 H              1 S1                 0.0000
     38 ****         3.6723   1.0978  -1.6597 H              1 S1                 0.0000
     39 ****         1.5785  -0.1564  -1.2696 H              1 S1                 0.0000
     40 ****         2.1031   0.6742   0.1716 H              1 S1                 0.0000
     41 ****        -0.1519   1.5451  -1.7004 H              1 S1                 0.0000
     42 ****        -0.1762   0.7919   1.2785 H              1 S1                 0.0000
     43 ****        -1.5906   1.1639   0.3479 H              1 S1                 0.0000
     44 ****        -1.4452  -0.7971  -0.9024 H              1 S1                 0.0000
     45 ****        -1.3690  -2.7431  -0.8769 H              1 S1                 0.0000
     46 ****         1.4700  -3.8533   1.2344 H              1 S1                 0.0000
     47 ****         1.9311  -6.2676   1.6124 H              1 S1                 0.0000
     48 ****         0.4020  -7.9419   0.6095 H              1 S1                 0.0000
     49 ****        -1.8389  -7.4582  -1.8872 H              1 S1                 0.0000
     50 ****        -2.6913  -7.5652  -0.3428 H              1 S1                 0.0000
     51 ****        -1.2784  -8.5678  -0.6491 H              1 S1                 0.0000
     52 ****         0.8279   2.9237   0.6618 H              1 S1                 0.0000
     53 ****         0.8277  -0.7550   1.7246 LP             1 S1                 0.0000
     54 ****         0.9706  -2.4811   1.7340 LP             1 S1                 0.0000
     55 ****        -2.4214  -3.9375  -1.3139 LP             1 S1                 0.0000
     56 ****        -2.7757  -5.6175  -1.5416 LP             1 S1                 0.0000
@<TRIPOS>BOND
    1    1    2 1     
    2    1   24 1     
    3    1   25 1     
    4    1   26 1     
    5    2    3 1     
    6    2    4 1     
    7    2   27 1     
    8    3   28 1     
    9    3   29 1     
   10    3   30 1     
   11    4    5 1     
   12    4   31 1     
   13    4   32 1     
   14    5   10 1     
   15    5    6 1     
   16    5   52 1     
   17    6    7 1     
   18    6   33 1     
   19    6   34 1     
   20    7    8 1     
   21    7   35 1     
   22    7   36 1     
   23    8    9 1     
   24    8   37 1     
   25    8   38 1     
   26    9   10 1     
   27    9   39 1     
   28    9   40 1     
   29   10   11 1     
   30   10   41 1     
   31   11   12 1     
   32   11   42 1     
   33   11   43 1     
   34   12   13 am    
   35   12   44 1     
   36   13   14 2     
   37   13   15 am    
   38   15   16 1     
   39   15   45 1     
   40   16   22 1     
   41   16   17 2     
   42   17   18 1     
   43   17   46 1     
   44   18   19 2     
   45   18   47 1     
   46   19   20 1     
   47   19   48 1     
   48   20   21 1     
   49   20   22 am    
   50   21   49 1     
   51   21   50 1     
   52   21   51 1     
   53   22   23 2     
   54   14   53 1     
   55   14   54 1     
   56   23   55 1     
   57   23   56 1     
@<TRIPOS>SUBSTRUCTURE
      1 S1             1
@<TRIPOS>SET
LONE_PAIRS      STATIC     ATOMS    <user>   **** ""
4 53 54 55 56
DONOR_HYDROGENS      STATIC     ATOMS    <user>   **** ""
3 52 44 45
ATOM$BLUE        STATIC     ATOMS    COLORGROUP SYSTEM
4 53 54 55 56
ATOM$RED        STATIC     ATOMS    COLORGROUP SYSTEM
3 52 44 45
