AV-unprocessed.smi:98|AV-procd|sdf|863|dock9
  -GOLD-   2262017313D 1   1.00000     0.00000
 Structure written by MMmdl.
 56 59  0  0  0  0  0  0  0  0  1 V2000
  151.4357  137.0815  159.8700 O   0  0  0  0  0  0  0  0  0  0  0  0
  151.1556  137.5625  158.7714 C   0  0  0  0  0  0  0  0  0  0  0  0
  152.2062  138.3544  157.9763 C   0  0  0  0  0  0  0  0  0  0  0  0
  152.7606  139.5111  158.7140 N   0  0  0  0  0  0  0  0  0  0  0  0
  154.0877  139.4262  159.2042 C   0  0  0  0  0  0  0  0  0  0  0  0
  154.7635  138.4088  159.0439 O   0  0  0  0  0  0  0  0  0  0  0  0
  154.5844  140.6154  159.8864 C   0  0  0  0  0  0  0  0  0  0  0  0
  155.8383  140.6317  160.3691 F   0  0  0  0  0  0  0  0  0  0  0  0
  153.8045  141.7055  160.0372 C   0  0  0  0  0  0  0  0  0  0  0  0
  152.5043  141.7673  159.5763 N   0  0  0  0  0  0  0  0  0  0  0  0
  151.7197  143.0469  159.7516 C   0  0  2  0  0  0  0  0  0  0  0  0
  150.9821  143.4973  158.4765 C   0  0  0  0  0  0  0  0  0  0  0  0
  151.5494  144.8854  158.2281 C   0  0  0  0  0  0  0  0  0  0  0  0
  152.0881  145.2828  159.5980 C   0  0  0  0  0  0  0  0  0  0  0  0
  152.6014  144.0646  160.1139 O   0  0  0  0  0  0  0  0  0  0  0  0
  151.9618  140.6698  158.8685 C   0  0  0  0  0  0  0  0  0  0  0  0
  150.8271  140.7207  158.3915 O   0  0  0  0  0  0  0  0  0  0  0  0
  149.9507  137.4641  158.1804 N   0  0  0  0  0  0  0  0  0  0  0  0
  148.7753  136.8199  158.6535 C   0  0  0  0  0  0  0  0  0  0  0  0
  148.9432  135.8086  159.6237 C   0  0  0  0  0  0  0  0  0  0  0  0
  147.8280  135.1325  160.1541 C   0  0  0  0  0  0  0  0  0  0  0  0
  146.5331  135.4814  159.7241 C   0  0  0  0  0  0  0  0  0  0  0  0
  145.1114  134.6232  160.3931 S   0  0  0  0  0  0  0  0  0  0  0  0
  143.9430  135.5112  160.2867 O   0  0  0  0  0  0  0  0  0  0  0  0
  145.0643  133.2759  159.8032 O   0  0  0  0  0  0  0  0  0  0  0  0
  145.4959  134.4512  162.0813 N   0  0  0  0  0  0  0  0  0  0  0  0
  145.7962  135.6483  162.8861 C   0  0  0  0  0  0  0  0  0  0  0  0
  147.3115  135.8000  163.1091 C   0  0  0  0  0  0  0  0  0  0  0  0
  147.8444  134.6058  163.6637 O   0  0  0  0  0  0  0  0  0  0  0  0
  147.6772  133.4979  162.7909 C   0  0  0  0  0  0  0  0  0  0  0  0
  146.1796  133.2345  162.5532 C   0  0  0  0  0  0  0  0  0  0  0  0
  146.3495  136.4929  158.7617 C   0  0  0  0  0  0  0  0  0  0  0  0
  147.4671  137.1676  158.2341 C   0  0  0  0  0  0  0  0  0  0  0  0
  152.9945  137.6650  157.6704 H   0  0  0  0  0  0  0  0  0  0  0  0
  151.7614  138.6793  157.0341 H   0  0  0  0  0  0  0  0  0  0  0  0
  154.2228  142.5625  160.5448 H   0  0  0  0  0  0  0  0  0  0  0  0
  151.0262  142.8645  160.5739 H   0  0  0  0  0  0  0  0  0  0  0  0
  151.1376  142.8168  157.6388 H   0  0  0  0  0  0  0  0  0  0  0  0
  149.9139  143.5419  158.6912 H   0  0  0  0  0  0  0  0  0  0  0  0
  152.3669  144.8341  157.5086 H   0  0  0  0  0  0  0  0  0  0  0  0
  150.8077  145.5863  157.8447 H   0  0  0  0  0  0  0  0  0  0  0  0
  152.8573  146.0532  159.5418 H   0  0  0  0  0  0  0  0  0  0  0  0
  151.2844  145.6423  160.2426 H   0  0  0  0  0  0  0  0  0  0  0  0
  149.8437  137.9777  157.3177 H   0  0  0  0  0  0  0  0  0  0  0  0
  149.9340  135.5423  159.9628 H   0  0  0  0  0  0  0  0  0  0  0  0
  147.9708  134.3579  160.8930 H   0  0  0  0  0  0  0  0  0  0  0  0
  145.3855  136.5414  162.4158 H   0  0  0  0  0  0  0  0  0  0  0  0
  145.2974  135.5473  163.8504 H   0  0  0  0  0  0  0  0  0  0  0  0
  147.8284  136.0410  162.1803 H   0  0  0  0  0  0  0  0  0  0  0  0
  147.5051  136.6233  163.7967 H   0  0  0  0  0  0  0  0  0  0  0  0
  148.2023  133.6798  161.8532 H   0  0  0  0  0  0  0  0  0  0  0  0
  148.1410  132.6217  163.2442 H   0  0  0  0  0  0  0  0  0  0  0  0
  145.7149  132.9214  163.4887 H   0  0  0  0  0  0  0  0  0  0  0  0
  146.0398  132.4162  161.8475 H   0  0  0  0  0  0  0  0  0  0  0  0
  145.3562  136.7646  158.4360 H   0  0  0  0  0  0  0  0  0  0  0  0
  147.2939  137.9565  157.5190 H   0  0  0  0  0  0  0  0  0  0  0  0
  1  2  2  0  0  0  0
  2  3  1  0  0  0  0
  2 18  1  0  0  0  0
  3  4  1  0  0  0  0
  3 34  1  0  0  0  0
  3 35  1  0  0  0  0
  4 16  1  0  0  0  0
  4  5  1  0  0  0  0
  5  6  2  0  0  0  0
  5  7  1  0  0  0  0
  7  8  1  0  0  0  0
  7  9  2  0  0  0  0
  9 10  1  0  0  0  0
  9 36  1  0  0  0  0
 10 11  1  0  0  0  0
 10 16  1  0  0  0  0
 11 15  1  0  0  0  0
 11 12  1  0  0  0  0
 11 37  1  0  0  0  0
 12 13  1  0  0  0  0
 12 38  1  0  0  0  0
 12 39  1  0  0  0  0
 13 14  1  0  0  0  0
 13 40  1  0  0  0  0
 13 41  1  0  0  0  0
 14 15  1  0  0  0  0
 14 42  1  0  0  0  0
 14 43  1  0  0  0  0
 16 17  2  0  0  0  0
 18 19  1  0  0  0  0
 18 44  1  0  0  0  0
 19 33  1  0  0  0  0
 19 20  2  0  0  0  0
 20 21  1  0  0  0  0
 20 45  1  0  0  0  0
 21 22  2  0  0  0  0
 21 46  1  0  0  0  0
 22 23  1  0  0  0  0
 22 32  1  0  0  0  0
 23 24  2  0  0  0  0
 23 25  2  0  0  0  0
 23 26  1  0  0  0  0
 26 31  1  0  0  0  0
 26 27  1  0  0  0  0
 27 28  1  0  0  0  0
 27 47  1  0  0  0  0
 27 48  1  0  0  0  0
 28 29  1  0  0  0  0
 28 49  1  0  0  0  0
 28 50  1  0  0  0  0
 29 30  1  0  0  0  0
 30 31  1  0  0  0  0
 30 51  1  0  0  0  0
 30 52  1  0  0  0  0
 31 53  1  0  0  0  0
 31 54  1  0  0  0  0
 32 33  2  0  0  0  0
 32 55  1  0  0  0  0
 33 56  1  0  0  0  0
M  END
> <s_m_source_file>
AV-unprocessed.smi

> <i_m_source_file_index>
98

> <i_lp_mmshare_version>
43012

> <i_f3d_flags>
0

> <s_epik_input>
TzFbQ0gyXVtDSDJdW0NIMl1bQ0BIXTFuKGMyPU8pW2NIXWMoRiljKD1PKW4yW0NIMl1DKD1PKVtOSF1jM1tjSF1bY0hdYyhbY0hdW2NIXTMpUyg9TykoPU8pTjRbQ0gyXVtDSDJdT1tDSDJdW0NIMl00

> <s_epik_cmdline>
J2VwaWtfcHl0aG9uJywgJy1waCcsICc3LjAnLCAnLXRuJywgJzgnLCAnLW1hJywgJzIwMCcsICctbWV0YWxfYmluZGluZycsICctaW1hZScsICc8aW5maWxlLm1hZT4nLCAnLW9tYWUnLCAnPG91dGZpbGUubWFlPic=

> <r_lp_tautomer_probability>
1

> <r_epik_Ionization_Penalty>
1.9271e-06

> <r_epik_Ionization_Penalty_Charging>
3.88729e-08

> <r_epik_Ionization_Penalty_Neutral>
1.88823e-06

> <r_epik_State_Penalty>
-0

> <r_epik_Charging_Adjusted_Penalty>
3.88729e-08

> <i_epik_Tot_Q>
0

> <i_epik_Tot_abs_Q>
0

> <r_epik_Metal_State_Penalty>
-0

> <b_epik_Metal_Only>
0

> <s_epik_Chemistry_Notes>
This compound contains an acetal/aminal-like group ( X-CH(R)-Y where X, Y are N, S, or O) that may be acid/base labile, releasing an aldehyde.

> <s_lp_Force_Field>
OPLS_2005

> <r_lp_Energy>
27.1293

> <b_lp_Chiralities_Consistent>
1

> <s_lp_Variant>
AV-unprocessed.smi:98-1

> <Gold.Version>
5.8.1

> <Gold.Id.Protein>
6NUR|6NUR_protein|mol2

> <Gold.PLP.Fitness>
52.9444

> <Gold.PLP.PLP>
-51.5348

> <Gold.PLP.part.hbond>
-2.3747

> <Gold.PLP.part.metal>
0.0000

> <Gold.PLP.part.buried>
-6.9260

> <Gold.PLP.part.nonpolar>
-41.0962

> <Gold.PLP.part.repulsive>
0.1416

> <Gold.PLP.ligand.clash>
0.0000

> <Gold.PLP.ligand.torsion>
2.8578

> <Gold.PLP.Chemscore.Hbond>
1.0000

> <Gold.PLP.Chemscore.CHOScore>
0.0000

> <Gold.PLP.Chemscore.Metal>
0.0000

> <Gold.Chemscore.Hbonds>
donor molecule, donor type, donor heavy atom, donor atom, acceptor molecule, acceptor atom, score
      P1  H  6896  6908       L1     1  1.00

> <Gold.PLP.Chemscore.Internal.Correction>
4.1252

> <Gold.Rescore>
     Score         DG    S(hbond)    S(metal)    S(lipo)     H(rot)  DE(clash)    DE(int)     intcor
     11.15     -16.68       0.99        0.00     104.17       1.67       0.03       5.50       ----

> <Gold.Chemscore.Fitness>
11.1468

> <Gold.Chemscore.DG>
-16.6848

> <Gold.Chemscore.ZeroCoef>
-5.4800

> <Gold.Chemscore.Hbond>
0.9890

> <Gold.Chemscore.Metal>
0.0000

> <Gold.Chemscore.Lipo>
104.1709

> <Gold.Chemscore.Internal_Hbond>
0.0000

> <Gold.Chemscore.DEClash>
0.0331

> <Gold.Chemscore.DEInternal>
5.5049

> <Gold.Chemscore.Rot>
1.6744

> <Gold.Chemscore.Internal.Correction>
   9.000000E+99

> <Gold.Chemscore.Hbonds>
donor molecule, donor type, donor heavy atom, donor atom, acceptor molecule, acceptor atom, score
      P1  H  6888  6897       L1    29  0.01
      P1  H  6896  6908       L1     1  0.84

> <Gold.Chemscore.Hbond.Weighted>
-3.3032

> <Gold.Chemscore.Metal.Weighted>
-0.0000

> <Gold.Chemscore.Lipo.Weighted>
-12.1880

> <Gold.Chemscore.Internal_Hbond.Weighted>
0.0000

> <Gold.Chemscore.DEClash.Weighted>
0.0331

> <Gold.Chemscore.DEInternal.Weighted>
5.5049

> <Gold.Chemscore.Rot.Weighted>
4.2865

> <Gold.Chemscore.Internal.Correction.Weighted>
   9.000000E+99

> <Gold.Protein.RotatedTorsions>
[ 6907 6896 6895 6894 ] final -137.65 input  -60.11 | X-H torsion
[ 7974 7965 7964 7962 ] final  134.58 input  175.53 | X-H torsion
[ 8008 7997 7996 7995 ] final    2.49 input   59.86 | X-H torsion
[ 10167 10162 10161 10158 ] final -100.15 input  -65.29 | X-H torsion
[ 10718 10713 10712 10709 ] final   91.50 input   66.30 | X-H torsion
[ 10763 10752 10751 10750 ] final -150.09 input  -60.55 | X-H torsion
[ 11005 11000 10999 10996 ] final   -8.46 input  -57.11 | X-H torsion

> <Gold.Protein.ActiveResidues>
 VAL166  LYS551  ARG553  GLY616  TRP617  ASP618  TYR619  PRO620  LYS621  CYS622 
 ASP623  PHE694  ASN695  SER759  ASP760  ASP761  ALA762  ILE779  LEU786  VAL792 
 PHE793  MET794  SER795  GLU796  ALA797  LYS798  CYS799  TRP800  GLU811  SER814 

> <Gold.Protein.RotatedAtoms>
  151.0251  133.5841  159.2666 H   0  0  0  0  0  0  0  0  0  0  0  0  # atno 6907 bound_to 6896
  151.2943  135.0750  159.9225 H   0  0  0  0  0  0  0  0  0  0  0  0  # atno 6908 bound_to 6896
  152.5332  133.9944  159.7920 H   0  0  0  0  0  0  0  0  0  0  0  0  # atno 6909 bound_to 6896
  144.9749  139.4566  143.5415 H   0  0  0  0  0  0  0  0  0  0  0  0  # atno 7974 bound_to 7965
  154.6923  140.2655  155.6801 H   0  0  0  0  0  0  0  0  0  0  0  0  # atno 8008 bound_to 7997
  156.2736  140.2789  156.1428 H   0  0  0  0  0  0  0  0  0  0  0  0  # atno 8009 bound_to 7997
  155.0880  140.0373  157.2650 H   0  0  0  0  0  0  0  0  0  0  0  0  # atno 8010 bound_to 7997
  140.2549  143.3447  152.0680 H   0  0  0  0  0  0  0  0  0  0  0  0  # atno 10167 bound_to 10162
  157.6960  131.0409  150.3739 H   0  0  0  0  0  0  0  0  0  0  0  0  # atno 10718 bound_to 10713
  154.8139  135.3293  154.7228 H   0  0  0  0  0  0  0  0  0  0  0  0  # atno 10763 bound_to 10752
  153.7873  135.6914  153.4882 H   0  0  0  0  0  0  0  0  0  0  0  0  # atno 10764 bound_to 10752
  153.1940  135.4540  155.0132 H   0  0  0  0  0  0  0  0  0  0  0  0  # atno 10765 bound_to 10752
  140.7237  133.8807  155.8840 H   0  0  0  0  0  0  0  0  0  0  0  0  # atno 11005 bound_to 11000
  146.3392  139.8985  142.8798 LP  0  0  0  0  0  0  0  0  0  0  0  0  # atno 17320 bound_to 7965
  145.2505  141.0042  143.3884 LP  0  0  0  0  0  0  0  0  0  0  0  0  # atno 17321 bound_to 7965
  139.5034  144.6756  151.6137 LP  0  0  0  0  0  0  0  0  0  0  0  0  # atno 17342 bound_to 10162
  140.6011  143.9607  150.6387 LP  0  0  0  0  0  0  0  0  0  0  0  0  # atno 17343 bound_to 10162
  156.4161  130.3943  149.6857 LP  0  0  0  0  0  0  0  0  0  0  0  0  # atno 17370 bound_to 10713
  156.4125  130.7729  151.2742 LP  0  0  0  0  0  0  0  0  0  0  0  0  # atno 17371 bound_to 10713
  140.9981  134.1187  157.4344 LP  0  0  0  0  0  0  0  0  0  0  0  0  # atno 17394 bound_to 11000
  139.8842  135.0060  156.6353 LP  0  0  0  0  0  0  0  0  0  0  0  0  # atno 17395 bound_to 11000

$$$$
