AV-unprocessed.smi:2539|AV-procd|sdf|9985|dock1
  -GOLD-   2272014 33D 1   1.00000     0.00000
 Structure written by MMmdl.
 40 41  0  0  0  0  0  0  0  0  1 V2000
  152.4544  138.2483  157.5401 O   0  0  0  0  0  0  0  0  0  0  0  0
  152.1303  139.4230  157.3594 C   0  0  0  0  0  0  0  0  0  0  0  0
  152.2150  140.3484  158.3317 N   0  0  0  0  0  0  0  0  0  0  0  0
  152.7826  140.1392  159.6614 C   0  0  0  0  0  0  0  0  0  0  0  0
  153.7047  141.3000  160.0850 C   0  0  0  0  0  0  0  0  0  0  0  0
  153.0166  142.6546  160.0867 C   0  0  0  0  0  0  0  0  0  0  0  0
  152.9600  143.4441  158.9189 C   0  0  0  0  0  0  0  0  0  0  0  0
  152.3404  144.7067  158.9835 C   0  0  0  0  0  0  0  0  0  0  0  0
  151.8000  145.1262  160.2153 C   0  0  0  0  0  0  0  0  0  0  0  0
  151.8429  144.3770  161.3379 N   0  0  0  0  0  0  0  0  0  0  0  0
  152.4402  143.1681  161.2681 C   0  0  0  0  0  0  0  0  0  0  0  0
  151.7269  139.9035  156.1567 N   0  0  0  0  0  0  0  0  0  0  0  0
  151.6340  139.1457  154.8998 C   0  0  0  0  0  0  0  0  0  0  0  0
  150.1496  138.8449  154.6173 C   0  0  0  0  0  0  0  0  0  0  0  0
  149.2843  140.1325  154.5862 C   0  0  0  0  0  0  0  0  0  0  0  0
  149.6193  140.8468  153.4092 O   0  0  0  0  0  0  0  0  0  0  0  0
  147.7750  139.8003  154.5025 C   0  0  0  0  0  0  0  0  0  0  0  0
  147.3922  139.1270  155.5877 F   0  0  0  0  0  0  0  0  0  0  0  0
  147.0516  140.9185  154.4308 F   0  0  0  0  0  0  0  0  0  0  0  0
  147.5172  139.0445  153.4341 F   0  0  0  0  0  0  0  0  0  0  0  0
  149.6034  141.0490  155.7973 C   0  0  0  0  0  0  0  0  0  0  0  0
  151.1193  141.2301  156.0141 C   0  0  0  0  0  0  0  0  0  0  0  0
  151.9319  141.2904  158.1049 H   0  0  0  0  0  0  0  0  0  0  0  0
  151.9610  140.0482  160.3719 H   0  0  0  0  0  0  0  0  0  0  0  0
  153.3255  139.1934  159.7040 H   0  0  0  0  0  0  0  0  0  0  0  0
  154.1058  141.1048  161.0805 H   0  0  0  0  0  0  0  0  0  0  0  0
  154.5652  141.3467  159.4168 H   0  0  0  0  0  0  0  0  0  0  0  0
  153.3934  143.0964  157.9928 H   0  0  0  0  0  0  0  0  0  0  0  0
  152.2825  145.3401  158.1110 H   0  0  0  0  0  0  0  0  0  0  0  0
  151.3189  146.0893  160.3010 H   0  0  0  0  0  0  0  0  0  0  0  0
  152.4691  142.5980  162.1851 H   0  0  0  0  0  0  0  0  0  0  0  0
  152.0565  139.7414  154.0894 H   0  0  0  0  0  0  0  0  0  0  0  0
  152.2128  138.2220  154.9020 H   0  0  0  0  0  0  0  0  0  0  0  0
  150.0538  138.2996  153.6777 H   0  0  0  0  0  0  0  0  0  0  0  0
  149.7788  138.1752  155.3942 H   0  0  0  0  0  0  0  0  0  0  0  0
  149.5198  140.2666  152.6697 H   0  0  0  0  0  0  0  0  0  0  0  0
  149.1271  142.0225  155.6758 H   0  0  0  0  0  0  0  0  0  0  0  0
  149.1753  140.6161  156.7026 H   0  0  0  0  0  0  0  0  0  0  0  0
  151.2955  141.8711  156.8791 H   0  0  0  0  0  0  0  0  0  0  0  0
  151.5675  141.7511  155.1669 H   0  0  0  0  0  0  0  0  0  0  0  0
  1  2  2  0  0  0  0
  2  3  1  0  0  0  0
  2 12  1  0  0  0  0
  3  4  1  0  0  0  0
  3 23  1  0  0  0  0
  4  5  1  0  0  0  0
  4 24  1  0  0  0  0
  4 25  1  0  0  0  0
  5  6  1  0  0  0  0
  5 26  1  0  0  0  0
  5 27  1  0  0  0  0
  6 11  1  0  0  0  0
  6  7  2  0  0  0  0
  7  8  1  0  0  0  0
  7 28  1  0  0  0  0
  8  9  2  0  0  0  0
  8 29  1  0  0  0  0
  9 10  1  0  0  0  0
  9 30  1  0  0  0  0
 10 11  2  0  0  0  0
 11 31  1  0  0  0  0
 12 22  1  0  0  0  0
 12 13  1  0  0  0  0
 13 14  1  0  0  0  0
 13 32  1  0  0  0  0
 13 33  1  0  0  0  0
 14 15  1  0  0  0  0
 14 34  1  0  0  0  0
 14 35  1  0  0  0  0
 15 16  1  0  0  0  0
 15 17  1  0  0  0  0
 15 21  1  0  0  0  0
 16 36  1  0  0  0  0
 17 18  1  0  0  0  0
 17 19  1  0  0  0  0
 17 20  1  0  0  0  0
 21 22  1  0  0  0  0
 21 37  1  0  0  0  0
 21 38  1  0  0  0  0
 22 39  1  0  0  0  0
 22 40  1  0  0  0  0
M  END
> <s_m_source_file>
AV-unprocessed.smi

> <i_m_source_file_index>
2539

> <i_lp_mmshare_version>
43012

> <i_f3d_flags>
0

> <s_epik_input>
RkMoRikoRilDMShbT0hdKVtDSDJdW0NIMl1OKFtDSDJdW0NIMl0xKUMoPU8pW05IXVtDSDJdW0NIMl1jMltjSF1bY0hdW2NIXW5bY0hdMg==

> <s_epik_cmdline>
J2VwaWtfcHl0aG9uJywgJy1waCcsICc3LjAnLCAnLXRuJywgJzgnLCAnLW1hJywgJzIwMCcsICctbWV0YWxfYmluZGluZycsICctaW1hZScsICc8aW5maWxlLm1hZT4nLCAnLW9tYWUnLCAnPG91dGZpbGUubWFlPic=

> <r_epik_Ionization_Penalty>
0.0144431

> <r_epik_Ionization_Penalty_Charging>
0

> <r_epik_Ionization_Penalty_Neutral>
0.0144431

> <r_epik_State_Penalty>
0.0112443

> <r_epik_Charging_Adjusted_Penalty>
0.0112443

> <i_epik_Tot_Q>
0

> <i_epik_Tot_abs_Q>
0

> <r_epik_Metal_State_Penalty>
0.0109773

> <b_epik_Metal_Only>
0

> <s_lp_Force_Field>
OPLS_2005

> <r_lp_Energy>
34.3491

> <b_lp_Chiralities_Consistent>
1

> <s_lp_Variant>
AV-unprocessed.smi:2539-1

> <Gold.Version>
5.8.1

> <Gold.Id.Protein>
6NUR|6NUR_protein|mol2

> <Gold.PLP.Fitness>
54.8475

> <Gold.PLP.PLP>
-51.2837

> <Gold.PLP.part.hbond>
-2.4917

> <Gold.PLP.part.metal>
0.0000

> <Gold.PLP.part.buried>
-6.5047

> <Gold.PLP.part.nonpolar>
-43.2684

> <Gold.PLP.part.repulsive>
0.2832

> <Gold.PLP.ligand.clash>
1.4107

> <Gold.PLP.ligand.torsion>
0.5121

> <Gold.PLP.Chemscore.Hbond>
1.9828

> <Gold.PLP.Chemscore.CHOScore>
0.0000

> <Gold.PLP.Chemscore.Metal>
0.0000

> <Gold.Chemscore.Hbonds>
donor molecule, donor type, donor heavy atom, donor atom, acceptor molecule, acceptor atom, score
      L1  H    16    36       P1  7957  0.97
      P1  H  7989  7998       L1    16  0.26
      P1  H  8011  8017       L1    16  0.70

> <Gold.PLP.Chemscore.Internal.Correction>
0.0503

> <Gold.Rescore>
     Score         DG    S(hbond)    S(metal)    S(lipo)     H(rot)  DE(clash)    DE(int)     intcor
     17.56     -18.07       1.00        0.00     122.26       1.97       0.04       0.46       ----

> <Gold.Chemscore.Fitness>
17.5642

> <Gold.Chemscore.DG>
-18.0694

> <Gold.Chemscore.ZeroCoef>
-5.4800

> <Gold.Chemscore.Hbond>
0.9993

> <Gold.Chemscore.Metal>
0.0000

> <Gold.Chemscore.Lipo>
122.2611

> <Gold.Chemscore.Internal_Hbond>
0.0000

> <Gold.Chemscore.DEClash>
0.0423

> <Gold.Chemscore.DEInternal>
0.4629

> <Gold.Chemscore.Rot>
1.9737

> <Gold.Chemscore.Internal.Correction>
   9.000000E+99

> <Gold.Chemscore.Hbonds>
donor molecule, donor type, donor heavy atom, donor atom, acceptor molecule, acceptor atom, score
      L1  H    16    36       P1  7957  0.86
      P1  H  7989  7998       L1    16  0.02
      P1  H  8011  8017       L1    16  0.07

> <Gold.Chemscore.Hbond.Weighted>
-3.3376

> <Gold.Chemscore.Metal.Weighted>
-0.0000

> <Gold.Chemscore.Lipo.Weighted>
-14.3046

> <Gold.Chemscore.Internal_Hbond.Weighted>
0.0000

> <Gold.Chemscore.DEClash.Weighted>
0.0423

> <Gold.Chemscore.DEInternal.Weighted>
0.4629

> <Gold.Chemscore.Rot.Weighted>
5.0528

> <Gold.Chemscore.Internal.Correction.Weighted>
   9.000000E+99

> <Gold.Protein.RotatedTorsions>
[ 6907 6896 6895 6894 ] final  152.52 input  -60.11 | X-H torsion
[ 7974 7965 7964 7962 ] final  100.55 input  175.53 | X-H torsion
[ 8008 7997 7996 7995 ] final -154.59 input   59.86 | X-H torsion
[ 10167 10162 10161 10158 ] final   44.12 input  -65.29 | X-H torsion
[ 10718 10713 10712 10709 ] final  179.75 input   66.30 | X-H torsion
[ 10763 10752 10751 10750 ] final -173.36 input  -60.55 | X-H torsion
[ 11005 11000 10999 10996 ] final  121.10 input  -57.11 | X-H torsion

> <Gold.Protein.ActiveResidues>
 VAL166  LYS551  ARG553  GLY616  TRP617  ASP618  TYR619  PRO620  LYS621  CYS622 
 ASP623  PHE694  ASN695  SER759  ASP760  ASP761  ALA762  ILE779  LEU786  VAL792 
 PHE793  MET794  SER795  GLU796  ALA797  LYS798  CYS799  TRP800  GLU811  SER814 

> <Gold.Protein.RotatedAtoms>
  152.0856  133.4174  159.4520 H   0  0  0  0  0  0  0  0  0  0  0  0  # atno 6907 bound_to 6896
  150.6862  134.2932  159.4684 H   0  0  0  0  0  0  0  0  0  0  0  0  # atno 6908 bound_to 6896
  152.0778  134.9491  160.0624 H   0  0  0  0  0  0  0  0  0  0  0  0  # atno 6909 bound_to 6896
  145.3841  139.2374  143.3388 H   0  0  0  0  0  0  0  0  0  0  0  0  # atno 7974 bound_to 7965
  155.6887  140.0753  157.2457 H   0  0  0  0  0  0  0  0  0  0  0  0  # atno 8008 bound_to 7997
  154.4092  140.1668  156.2114 H   0  0  0  0  0  0  0  0  0  0  0  0  # atno 8009 bound_to 7997
  155.9471  140.3380  155.6379 H   0  0  0  0  0  0  0  0  0  0  0  0  # atno 8010 bound_to 7997
  140.3375  144.2511  150.6160 H   0  0  0  0  0  0  0  0  0  0  0  0  # atno 10167 bound_to 10162
  156.8711  130.9784  151.3073 H   0  0  0  0  0  0  0  0  0  0  0  0  # atno 10718 bound_to 10713
  154.6088  135.2862  155.0455 H   0  0  0  0  0  0  0  0  0  0  0  0  # atno 10763 bound_to 10752
  154.1693  135.6475  153.5009 H   0  0  0  0  0  0  0  0  0  0  0  0  # atno 10764 bound_to 10752
  153.0186  135.5397  154.6833 H   0  0  0  0  0  0  0  0  0  0  0  0  # atno 10765 bound_to 10752
  139.9212  134.9637  156.7907 H   0  0  0  0  0  0  0  0  0  0  0  0  # atno 11005 bound_to 11000
  146.2828  140.4513  142.8769 LP  0  0  0  0  0  0  0  0  0  0  0  0  # atno 17320 bound_to 7965
  144.8487  140.6968  143.6182 LP  0  0  0  0  0  0  0  0  0  0  0  0  # atno 17321 bound_to 7965
  140.5340  143.2237  151.8193 LP  0  0  0  0  0  0  0  0  0  0  0  0  # atno 17342 bound_to 10162
  139.4846  144.4685  151.9454 LP  0  0  0  0  0  0  0  0  0  0  0  0  # atno 17343 bound_to 10162
  157.6195  130.8644  149.9084 LP  0  0  0  0  0  0  0  0  0  0  0  0  # atno 17370 bound_to 10713
  156.0726  130.3683  150.0744 LP  0  0  0  0  0  0  0  0  0  0  0  0  # atno 17371 bound_to 10713
  140.6469  133.9767  155.7735 LP  0  0  0  0  0  0  0  0  0  0  0  0  # atno 17394 bound_to 11000
  141.0734  134.0171  157.3493 LP  0  0  0  0  0  0  0  0  0  0  0  0  # atno 17395 bound_to 11000

$$$$
