AV-unprocessed.smi:1492|AV-procd|sdf|6043|dock2
  -GOLD-   22720 6153D 1   1.00000     0.00000
 Structure written by MMmdl.
 53 54  0  0  0  0  0  0  0  0  2 V2000
  143.3523  136.0936  153.3008 C   0  0  0  0  0  0  0  0  0  0  0  0
  143.9571  135.1078  154.3149 C   0  0  0  0  0  0  0  0  0  0  0  0
  145.1554  134.2539  153.7884 C   0  0  2  0  0  0  0  0  0  0  0  0
  145.8835  133.6590  155.0210 C   0  0  0  0  0  0  0  0  0  0  0  0
  146.1603  135.1744  153.0232 C   0  0  0  0  0  0  0  0  0  0  0  0
  146.9312  136.0360  153.9142 N   0  0  0  0  0  0  0  0  0  0  0  0
  146.6880  137.3327  154.1537 C   0  0  0  0  0  0  0  0  0  0  0  0
  145.8796  138.0072  153.5172 O   0  0  0  0  0  0  0  0  0  0  0  0
  147.4428  137.9440  155.3328 C   0  0  0  0  0  0  0  0  0  0  0  0
  148.9332  138.1658  155.0763 C   0  0  0  0  0  0  0  0  0  0  0  0
  149.8476  137.1648  155.1438 C   0  0  0  0  0  0  0  0  0  0  0  0
  149.5166  135.7236  155.4902 C   0  0  0  0  0  0  0  0  0  0  0  0
  151.1853  137.3980  154.8791 N   0  0  0  0  0  0  0  0  0  0  0  0
  151.5635  138.6847  154.5342 C   0  0  0  0  0  0  0  0  0  0  0  0
  153.0443  138.8289  154.2586 C   0  0  0  0  0  0  0  0  0  0  0  0
  150.7657  139.7044  154.4376 N   0  0  0  0  0  0  0  0  0  0  0  0
  149.3983  139.5218  154.6985 C   0  0  0  0  0  0  0  0  0  0  0  0
  148.6153  140.4654  154.5971 O   0  0  0  0  0  0  0  0  0  0  0  0
  144.6567  133.1552  152.8783 N   0  3  0  0  0  0  0  0  0  0  0  0
  143.8310  133.5898  151.7144 C   0  0  0  0  0  0  0  0  0  0  0  0
  143.2466  132.3752  150.9726 C   0  0  0  0  0  0  0  0  0  0  0  0
  144.2934  131.5107  150.5577 O   0  0  0  0  0  0  0  0  0  0  0  0
  145.0227  131.0076  151.6668 C   0  0  0  0  0  0  0  0  0  0  0  0
  145.6825  132.1743  152.4184 C   0  0  0  0  0  0  0  0  0  0  0  0
  151.8325  136.6252  154.9434 H   0  0  0  0  0  0  0  0  0  0  0  0
  142.5292  136.6466  153.7537 H   0  0  0  0  0  0  0  0  0  0  0  0
  142.9566  135.5802  152.4245 H   0  0  0  0  0  0  0  0  0  0  0  0
  144.0832  136.8264  152.9612 H   0  0  0  0  0  0  0  0  0  0  0  0
  144.2585  135.6742  155.1959 H   0  0  0  0  0  0  0  0  0  0  0  0
  143.1642  134.4663  154.6967 H   0  0  0  0  0  0  0  0  0  0  0  0
  146.2425  134.4435  155.6879 H   0  0  0  0  0  0  0  0  0  0  0  0
  146.7517  133.0649  154.7366 H   0  0  0  0  0  0  0  0  0  0  0  0
  145.2312  133.0266  155.6220 H   0  0  0  0  0  0  0  0  0  0  0  0
  146.9039  134.5812  152.4920 H   0  0  0  0  0  0  0  0  0  0  0  0
  145.6360  135.7571  152.2643 H   0  0  0  0  0  0  0  0  0  0  0  0
  147.6344  135.5833  154.4806 H   0  0  0  0  0  0  0  0  0  0  0  0
  146.9531  138.8745  155.6224 H   0  0  0  0  0  0  0  0  0  0  0  0
  147.3271  137.2892  156.1969 H   0  0  0  0  0  0  0  0  0  0  0  0
  149.0703  135.6606  156.4829 H   0  0  0  0  0  0  0  0  0  0  0  0
  150.4073  135.0940  155.4841 H   0  0  0  0  0  0  0  0  0  0  0  0
  148.8134  135.3102  154.7671 H   0  0  0  0  0  0  0  0  0  0  0  0
  153.3142  139.8755  154.1125 H   0  0  0  0  0  0  0  0  0  0  0  0
  153.3171  138.2769  153.3587 H   0  0  0  0  0  0  0  0  0  0  0  0
  153.6282  138.4412  155.0941 H   0  0  0  0  0  0  0  0  0  0  0  0
  142.9885  134.2049  152.0232 H   0  0  0  0  0  0  0  0  0  0  0  0
  144.4330  134.1842  151.0267 H   0  0  0  0  0  0  0  0  0  0  0  0
  142.5412  131.8352  151.6063 H   0  0  0  0  0  0  0  0  0  0  0  0
  142.6936  132.7045  150.0928 H   0  0  0  0  0  0  0  0  0  0  0  0
  144.3668  130.4377  152.3271 H   0  0  0  0  0  0  0  0  0  0  0  0
  145.7846  130.3176  151.3031 H   0  0  0  0  0  0  0  0  0  0  0  0
  146.4034  132.6594  151.7600 H   0  0  0  0  0  0  0  0  0  0  0  0
  146.2401  131.7506  153.2506 H   0  0  0  0  0  0  0  0  0  0  0  0
  144.0250  132.6206  153.4575 H   0  0  0  0  0  0  0  0  0  0  0  0
  1  2  1  0  0  0  0
  1 26  1  0  0  0  0
  1 27  1  0  0  0  0
  1 28  1  0  0  0  0
  2  3  1  0  0  0  0
  2 29  1  0  0  0  0
  2 30  1  0  0  0  0
  3  4  1  0  0  0  0
  3  5  1  0  0  0  0
  3 19  1  0  0  0  0
  4 31  1  0  0  0  0
  4 32  1  0  0  0  0
  4 33  1  0  0  0  0
  5  6  1  0  0  0  0
  5 34  1  0  0  0  0
  5 35  1  0  0  0  0
  6  7  1  0  0  0  0
  6 36  1  0  0  0  0
  7  8  2  0  0  0  0
  7  9  1  0  0  0  0
  9 37  1  0  0  0  0
  9 38  1  0  0  0  0
  9 10  1  0  0  0  0
 10 17  1  0  0  0  0
 10 11  2  0  0  0  0
 11 12  1  0  0  0  0
 11 13  1  0  0  0  0
 12 39  1  0  0  0  0
 12 40  1  0  0  0  0
 12 41  1  0  0  0  0
 13 25  1  0  0  0  0
 13 14  1  0  0  0  0
 14 15  1  0  0  0  0
 14 16  2  0  0  0  0
 15 42  1  0  0  0  0
 15 43  1  0  0  0  0
 15 44  1  0  0  0  0
 16 17  1  0  0  0  0
 17 18  2  0  0  0  0
 19 24  1  0  0  0  0
 19 20  1  0  0  0  0
 19 53  1  0  0  0  0
 20 21  1  0  0  0  0
 20 45  1  0  0  0  0
 20 46  1  0  0  0  0
 21 22  1  0  0  0  0
 21 47  1  0  0  0  0
 21 48  1  0  0  0  0
 22 23  1  0  0  0  0
 23 24  1  0  0  0  0
 23 49  1  0  0  0  0
 23 50  1  0  0  0  0
 24 51  1  0  0  0  0
 24 52  1  0  0  0  0
M  CHG  1  19   1
M  END
> <s_m_source_file>
AV-unprocessed.smi

> <i_m_source_file_index>
1492

> <i_lp_mmshare_version>
43012

> <i_f3d_flags>
0

> <s_epik_input>
W0NIMl0xW0NIMl1PW0NIMl1bQ0gyXU4xW0NAQF0oW0NIM10pKFtDSDJdW0NIM10pW0NIMl1bTkhdQyg9TylbQ0gyXWMyYyhbQ0gzXSluYyhbQ0gzXSlbbkhdYzI9Tw==

> <s_epik_cmdline>
J2VwaWtfcHl0aG9uJywgJy1waCcsICc3LjAnLCAnLXRuJywgJzgnLCAnLW1hJywgJzIwMCcsICctbWV0YWxfYmluZGluZycsICctaW1hZScsICc8aW5maWxlLm1hZT4nLCAnLW9tYWUnLCAnPG91dGZpbGUubWFlPic=

> <r_lp_tautomer_probability>
0.156392

> <r_epik_Ionization_Penalty>
0.523233

> <r_epik_Ionization_Penalty_Charging>
0.523147

> <r_epik_Ionization_Penalty_Neutral>
8.52784e-05

> <r_epik_State_Penalty>
1.66677

> <r_epik_Charging_Adjusted_Penalty>
2.18991

> <i_epik_Tot_Q>
1

> <i_epik_Tot_abs_Q>
1

> <r_epik_Metal_State_Penalty>
1.84524

> <b_epik_Metal_Only>
0

> <s_lp_Force_Field>
OPLS_2005

> <r_lp_Energy>
32.5308

> <b_lp_Chiralities_Consistent>
1

> <s_lp_Variant>
AV-unprocessed.smi:1492-8

> <Gold.Version>
5.8.1

> <Gold.Id.Protein>
6NUR|6NUR_protein|mol2

> <Gold.PLP.Fitness>
37.2455

> <Gold.PLP.PLP>
-30.1567

> <Gold.PLP.part.hbond>
-3.1510

> <Gold.PLP.part.metal>
0.0000

> <Gold.PLP.part.buried>
-7.7623

> <Gold.PLP.part.nonpolar>
-20.5521

> <Gold.PLP.part.repulsive>
0.6304

> <Gold.PLP.ligand.clash>
0.0000

> <Gold.PLP.ligand.torsion>
0.9056

> <Gold.PLP.Chemscore.Hbond>
2.8200

> <Gold.PLP.Chemscore.CHOScore>
0.0000

> <Gold.PLP.Chemscore.Metal>
0.0000

> <Gold.Chemscore.Hbonds>
donor molecule, donor type, donor heavy atom, donor atom, acceptor molecule, acceptor atom, score
      L1  H    19    53       P1 10957  1.79
      P1  H  7989  7998       L1    16  1.00

> <Gold.PLP.Chemscore.Internal.Correction>
0.4401

> <Gold.Rescore>
     Score         DG    S(hbond)    S(metal)    S(lipo)     H(rot)  DE(clash)    DE(int)     intcor
     11.04     -12.22       1.64        0.00      58.79       2.19       0.01       1.17       ----

> <Gold.Chemscore.Fitness>
11.0430

> <Gold.Chemscore.DG>
-12.2157

> <Gold.Chemscore.ZeroCoef>
-5.4800

> <Gold.Chemscore.Hbond>
1.6377

> <Gold.Chemscore.Metal>
0.0000

> <Gold.Chemscore.Lipo>
58.7927

> <Gold.Chemscore.Internal_Hbond>
0.0000

> <Gold.Chemscore.DEClash>
0.0057

> <Gold.Chemscore.DEInternal>
1.1670

> <Gold.Chemscore.Rot>
2.1926

> <Gold.Chemscore.Internal.Correction>
   9.000000E+99

> <Gold.Chemscore.Hbonds>
donor molecule, donor type, donor heavy atom, donor atom, acceptor molecule, acceptor atom, score
      L1  H    19    53       P1 10957  0.35
      P1  H  7989  7998       L1    16  0.50

> <Gold.Chemscore.Hbond.Weighted>
-5.4699

> <Gold.Chemscore.Metal.Weighted>
-0.0000

> <Gold.Chemscore.Lipo.Weighted>
-6.8787

> <Gold.Chemscore.Internal_Hbond.Weighted>
0.0000

> <Gold.Chemscore.DEClash.Weighted>
0.0057

> <Gold.Chemscore.DEInternal.Weighted>
1.1670

> <Gold.Chemscore.Rot.Weighted>
5.6129

> <Gold.Chemscore.Internal.Correction.Weighted>
   9.000000E+99

> <Gold.Protein.RotatedTorsions>
[ 6907 6896 6895 6894 ] final  139.58 input  -60.11 | X-H torsion
[ 7974 7965 7964 7962 ] final -144.46 input  175.53 | X-H torsion
[ 8008 7997 7996 7995 ] final  147.26 input   59.86 | X-H torsion
[ 10167 10162 10161 10158 ] final -132.01 input  -65.29 | X-H torsion
[ 10718 10713 10712 10709 ] final  -63.66 input   66.30 | X-H torsion
[ 10763 10752 10751 10750 ] final  174.80 input  -60.55 | X-H torsion
[ 11005 11000 10999 10996 ] final -111.64 input  -57.11 | X-H torsion

> <Gold.Protein.ActiveResidues>
 VAL166  LYS551  ARG553  GLY616  TRP617  ASP618  TYR619  PRO620  LYS621  CYS622 
 ASP623  PHE694  ASN695  SER759  ASP760  ASP761  ALA762  ILE779  LEU786  VAL792 
 PHE793  MET794  SER795  GLU796  ALA797  LYS798  CYS799  TRP800  GLU811  SER814 

> <Gold.Protein.RotatedAtoms>
  152.2532  133.5233  159.5337 H   0  0  0  0  0  0  0  0  0  0  0  0  # atno 6907 bound_to 6896
  150.7100  134.0932  159.3948 H   0  0  0  0  0  0  0  0  0  0  0  0  # atno 6908 bound_to 6896
  151.8851  135.0438  160.0543 H   0  0  0  0  0  0  0  0  0  0  0  0  # atno 6909 bound_to 6896
  144.8296  140.5707  143.5524 H   0  0  0  0  0  0  0  0  0  0  0  0  # atno 7974 bound_to 7965
  156.2830  140.2160  156.5509 H   0  0  0  0  0  0  0  0  0  0  0  0  # atno 8008 bound_to 7997
  154.7292  140.0497  157.0733 H   0  0  0  0  0  0  0  0  0  0  0  0  # atno 8009 bound_to 7997
  155.0376  140.3142  155.4739 H   0  0  0  0  0  0  0  0  0  0  0  0  # atno 8010 bound_to 7997
  139.9129  143.6472  152.2571 H   0  0  0  0  0  0  0  0  0  0  0  0  # atno 10167 bound_to 10162
  156.0777  130.4223  150.1309 H   0  0  0  0  0  0  0  0  0  0  0  0  # atno 10718 bound_to 10713
  154.4588  135.2767  155.1728 H   0  0  0  0  0  0  0  0  0  0  0  0  # atno 10763 bound_to 10752
  154.3524  135.6147  153.5653 H   0  0  0  0  0  0  0  0  0  0  0  0  # atno 10764 bound_to 10752
  152.9853  135.5814  154.4947 H   0  0  0  0  0  0  0  0  0  0  0  0  # atno 10765 bound_to 10752
  141.0722  133.9360  157.2462 H   0  0  0  0  0  0  0  0  0  0  0  0  # atno 11005 bound_to 11000
  145.4925  139.1488  143.3702 LP  0  0  0  0  0  0  0  0  0  0  0  0  # atno 17320 bound_to 7965
  146.2599  140.5063  142.8858 LP  0  0  0  0  0  0  0  0  0  0  0  0  # atno 17321 bound_to 7965
  139.6927  144.7645  151.1411 LP  0  0  0  0  0  0  0  0  0  0  0  0  # atno 17342 bound_to 10162
  140.7681  143.5567  150.9144 LP  0  0  0  0  0  0  0  0  0  0  0  0  # atno 17343 bound_to 10162
  156.9347  130.9725  151.3527 LP  0  0  0  0  0  0  0  0  0  0  0  0  # atno 17370 bound_to 10713
  157.5880  130.8423  149.8617 LP  0  0  0  0  0  0  0  0  0  0  0  0  # atno 17371 bound_to 10713
  139.9535  135.0170  156.9062 LP  0  0  0  0  0  0  0  0  0  0  0  0  # atno 17394 bound_to 11000
  140.5649  134.0499  155.7411 LP  0  0  0  0  0  0  0  0  0  0  0  0  # atno 17395 bound_to 11000

$$$$
