#       Name:                AV-unprocessed.smi:21
#       Creating user name   scv26
#       Creation time:       Thu Mar 26 15:34:19 2020


#       File generated by GOLD software.
#

@<TRIPOS>MOLECULE
AV-unprocessed.smi:21
    71    74     1
SMALL
NO_CHARGES


@<TRIPOS>ATOM
      1 ****        -3.7648  -1.7483  -5.4593 C.3            1 S1                 0.0000
      2 ****        -3.1990  -1.6475  -4.1626 O.3            1 S1                 0.0000
      3 ****        -3.8177  -0.6607  -3.3510 C.3            1 S1                 0.0000
      4 ****        -3.0282  -0.4549  -2.0662 C.3            1 S1                 0.0000
      5 ****        -4.0643   0.1613  -1.1215 C.3            1 S1                 0.0000
      6 ****        -3.7341  -0.0118   0.3746 C.3            1 S1                 0.0000
      7 ****        -2.5463   0.7453   0.7801 N.pl3          1 S1                 0.0000
      8 ****        -2.6845   2.1890   0.9302 C.3            1 S1                 0.0000
      9 ****        -1.3067   0.1704   0.7717 C.ar           1 S1                 0.0000
     10 ****        -1.2261  -1.1868   0.7180 N.ar           1 S1                 0.0000
     11 ****        -0.0452  -1.8092   0.7053 C.ar           1 S1                 0.0000
     12 ****         1.1752  -1.2771   0.7414 N.ar           1 S1                 0.0000
     13 ****         1.1157   0.0830   0.7989 C.ar           1 S1                 0.0000
     14 ****        -0.0659   0.8823   0.8161 C.ar           1 S1                 0.0000
     15 ****         0.2948   2.2265   0.8663 N.2            1 S1                 0.0000
     16 ****         1.5988   2.2199   0.8834 C.2            1 S1                 0.0000
     17 ****         2.1740   0.9719   0.8536 N.pl3          1 S1                 0.0000
     18 ****         3.5929   0.6641   0.8632 C.3            1 S1                 0.0000
     19 ****         4.0870   0.0704   2.2113 C.3            1 S1                 0.0000
     20 ****         3.9520   1.0679   3.3875 C.3            1 S1                 0.0000
     21 ****         2.6138   1.2021   3.8197 O.3            1 S1                 0.0000
     22 ****         5.5349  -0.4853   2.1464 C.3            1 S1                 0.0000
     23 ****         6.6133   0.4615   1.6516 C.3            1 S1                 0.0000
     24 ****         7.7637  -0.5055   1.3914 C.3            1 S1                 0.0000
     25 ****         7.1558  -1.7195   0.9582 O.3            1 S1                 0.0000
     26 ****         5.7592  -1.7043   1.2459 C.3            1 S1                 0.0000
     27 ****        -5.3418  -0.5016  -1.4767 N.4            1 S1                 1.0000
     28 ****        -6.5362   0.3558  -1.3132 C.3            1 S1                 0.0000
     29 ****        -5.2011  -1.0781  -2.8355 C.3            1 S1                 0.0000
     30 ****        -3.8832   0.2931  -3.8784 H              1 S1                 0.0000
     31 ****        -4.1506   1.2229  -1.3616 H              1 S1                 0.0000
     32 ****        -3.2310  -2.5071  -6.0315 H              1 S1                 0.0000
     33 ****        -3.6842  -0.8038  -5.9989 H              1 S1                 0.0000
     34 ****        -4.8149  -2.0394  -5.4178 H              1 S1                 0.0000
     35 ****        -2.6938  -1.4201  -1.6827 H              1 S1                 0.0000
     36 ****        -2.1492   0.1753  -2.2048 H              1 S1                 0.0000
     37 ****        -4.5707   0.3563   0.9690 H              1 S1                 0.0000
     38 ****        -3.6591  -1.0691   0.6284 H              1 S1                 0.0000
     39 ****        -2.2448   2.7095   0.0790 H              1 S1                 0.0000
     40 ****        -2.2007   2.5314   1.8453 H              1 S1                 0.0000
     41 ****        -3.7342   2.4778   0.9880 H              1 S1                 0.0000
     42 ****        -0.0839  -2.8878   0.6609 H              1 S1                 0.0000
     43 ****         2.1793   3.1300   0.9262 H              1 S1                 0.0000
     44 ****         3.7733  -0.0225   0.0381 H              1 S1                 0.0000
     45 ****         4.1383   1.5776   0.6259 H              1 S1                 0.0000
     46 ****         3.4582  -0.7897   2.4475 H              1 S1                 0.0000
     47 ****         4.5254   0.7260   4.2494 H              1 S1                 0.0000
     48 ****         4.3479   2.0468   3.1148 H              1 S1                 0.0000
     49 ****         2.5917   1.8011   4.5503 H              1 S1                 0.0000
     50 ****         5.8173  -0.8000   3.1528 H              1 S1                 0.0000
     51 ****         6.3265   0.9408   0.7159 H              1 S1                 0.0000
     52 ****         6.8686   1.2388   2.3723 H              1 S1                 0.0000
     53 ****         8.4704  -0.1261   0.6529 H              1 S1                 0.0000
     54 ****         8.3113  -0.7009   2.3143 H              1 S1                 0.0000
     55 ****         5.4463  -2.6324   1.7246 H              1 S1                 0.0000
     56 ****         5.2268  -1.6245   0.2998 H              1 S1                 0.0000
     57 ****        -6.5008   1.2126  -1.9875 H              1 S1                 0.0000
     58 ****        -6.6079   0.7270  -0.2905 H              1 S1                 0.0000
     59 ****        -7.4429  -0.2110  -1.5276 H              1 S1                 0.0000
     60 ****        -5.9947  -0.7661  -3.5162 H              1 S1                 0.0000
     61 ****        -5.2591  -2.1631  -2.7403 H              1 S1                 0.0000
     62 ****        -5.4465  -1.2861  -0.8489 H              1 S1                 0.0000
     63 ****        -2.2302  -1.4182  -4.2567 LP             1 S1                 0.0000
     64 ****        -3.2892  -2.5336  -3.7079 LP             1 S1                 0.0000
     65 ****        -2.0666  -1.7277   0.6875 LP             1 S1                 0.0000
     66 ****         2.0237  -1.8062   0.7281 LP             1 S1                 0.0000
     67 ****        -0.3120   3.0212   0.8851 LP             1 S1                 0.0000
     68 ****         2.2606   0.3108   4.1040 LP             1 S1                 0.0000
     69 ****         2.0530   1.5603   3.0733 LP             1 S1                 0.0000
     70 ****         7.5820  -2.4895   1.4330 LP             1 S1                 0.0000
     71 ****         7.2884  -1.8212  -0.0277 LP             1 S1                 0.0000
@<TRIPOS>BOND
    1    1    2 1     
    2    1   32 1     
    3    1   33 1     
    4    1   34 1     
    5    2    3 1     
    6    3   30 1     
    7    3   29 1     
    8    3    4 1     
    9    4    5 1     
   10    4   35 1     
   11    4   36 1     
   12    5   31 1     
   13    5    6 1     
   14    5   27 1     
   15    6    7 1     
   16    6   37 1     
   17    6   38 1     
   18    7    8 1     
   19    7    9 1     
   20    8   39 1     
   21    8   40 1     
   22    8   41 1     
   23    9   14 ar    
   24    9   10 ar    
   25   10   11 ar    
   26   11   12 ar    
   27   11   42 1     
   28   12   13 ar    
   29   13   17 1     
   30   13   14 ar    
   31   14   15 1     
   32   15   16 2     
   33   16   17 1     
   34   16   43 1     
   35   17   18 1     
   36   18   19 1     
   37   18   44 1     
   38   18   45 1     
   39   19   20 1     
   40   19   22 1     
   41   19   46 1     
   42   20   21 1     
   43   20   47 1     
   44   20   48 1     
   45   21   49 1     
   46   22   26 1     
   47   22   23 1     
   48   22   50 1     
   49   23   24 1     
   50   23   51 1     
   51   23   52 1     
   52   24   25 1     
   53   24   53 1     
   54   24   54 1     
   55   25   26 1     
   56   26   55 1     
   57   26   56 1     
   58   27   28 1     
   59   27   29 1     
   60   27   62 1     
   61   28   57 1     
   62   28   58 1     
   63   28   59 1     
   64   29   60 1     
   65   29   61 1     
   66    2   63 1     
   67    2   64 1     
   68   10   65 1     
   69   12   66 1     
   70   15   67 1     
   71   21   68 1     
   72   21   69 1     
   73   25   70 1     
   74   25   71 1     
@<TRIPOS>SUBSTRUCTURE
      1 S1             1
@<TRIPOS>SET
LONE_PAIRS      STATIC     ATOMS    <user>   **** ""
9 63 64 65 66 67 68 69 70 71
DONOR_HYDROGENS      STATIC     ATOMS    <user>   **** ""
2 49 62
ATOM$BLUE        STATIC     ATOMS    COLORGROUP SYSTEM
9 63 64 65 66 67 68 69 70 71
ATOM$RED        STATIC     ATOMS    COLORGROUP SYSTEM
2 49 62
