#       Name:                AV-unprocessed.smi:78
#       Creating user name   scv26
#       Creation time:       Thu Mar 26 17:13:05 2020


#       File generated by GOLD software.
#

@<TRIPOS>MOLECULE
AV-unprocessed.smi:78
    66    69     1
SMALL
NO_CHARGES


@<TRIPOS>ATOM
      1 ****        -4.2444  -2.8128   1.1061 C.3            1 S1                 0.0000
      2 ****        -2.8444  -2.4878   1.6529 C.3            1 S1                 0.0000
      3 ****        -2.1539  -3.7658   2.1517 C.3            1 S1                 0.0000
      4 ****        -2.8770  -1.4188   2.7709 C.3            1 S1                 0.0000
      5 ****        -3.3956  -0.0150   2.3469 C.3            1 S1                 0.0000
      6 ****        -3.5267   0.9909   3.5126 C.2            1 S1                 0.0000
      7 ****        -3.7313   0.5959   4.6589 O.2            1 S1                 0.0000
      8 ****        -3.4297   2.3025   3.2300 N.am           1 S1                 0.0000
      9 ****        -3.1638   2.8793   1.9092 C.3            1 S1                 0.0000
     10 ****        -3.2167   1.8493   0.7597 C.3            1 S1                 0.0000
     11 ****        -2.6909   0.5563   1.1870 N.3            1 S1                 0.0000
     12 ****        -1.3355   0.5047   1.1146 C.ar           1 S1                 0.0000
     13 ****        -0.5686   0.7368   2.2129 N.ar           1 S1                 0.0000
     14 ****         0.7639   0.6977   2.1220 C.ar           1 S1                 0.0000
     15 ****         1.5206   0.4597   1.0485 N.ar           1 S1                 0.0000
     16 ****         0.7543   0.2375  -0.0577 C.ar           1 S1                 0.0000
     17 ****        -0.6673   0.2391  -0.1102 C.ar           1 S1                 0.0000
     18 ****        -1.0976  -0.0438  -1.4000 N.2            1 S1                 0.0000
     19 ****         0.0090  -0.2091  -2.0724 C.2            1 S1                 0.0000
     20 ****         1.1685  -0.0299  -1.3505 N.pl3          1 S1                 0.0000
     21 ****         2.5140  -0.1769  -1.8227 C.3            1 S1                 0.0000
     22 ****         3.5624   0.9051  -1.5482 C.3            1 S1                 0.0000
     23 ****         4.2444   0.5682  -2.8948 C.3            1 S1                 0.0000
     24 ****         4.7759   1.7472  -3.7340 C.3            1 S1                 0.0000
     25 ****         3.8079   2.7600  -3.9241 O.3            1 S1                 0.0000
     26 ****         5.3705  -0.4808  -2.8203 C.3            1 S1                 0.0000
     27 ****         6.4735  -0.0079  -2.0738 O.3            1 S1                 0.0000
     28 ****         2.8690  -0.0081  -3.3042 C.3            1 S1                 0.0000
     29 ****        -4.9137  -3.1447   1.9003 H              1 S1                 0.0000
     30 ****        -4.1987  -3.6052   0.3587 H              1 S1                 0.0000
     31 ****        -4.6984  -1.9473   0.6240 H              1 S1                 0.0000
     32 ****        -2.2453  -2.1146   0.8227 H              1 S1                 0.0000
     33 ****        -2.6989  -4.2111   2.9846 H              1 S1                 0.0000
     34 ****        -1.1385  -3.5580   2.4907 H              1 S1                 0.0000
     35 ****        -2.0876  -4.5124   1.3598 H              1 S1                 0.0000
     36 ****        -3.5006  -1.7985   3.5816 H              1 S1                 0.0000
     37 ****        -1.8811  -1.3267   3.2043 H              1 S1                 0.0000
     38 ****        -4.4244  -0.1565   2.0158 H              1 S1                 0.0000
     39 ****        -3.5278   2.9527   3.9964 H              1 S1                 0.0000
     40 ****        -3.8587   3.6974   1.7194 H              1 S1                 0.0000
     41 ****        -2.1679   3.3217   1.9502 H              1 S1                 0.0000
     42 ****        -4.2523   1.7016   0.4513 H              1 S1                 0.0000
     43 ****        -2.6951   2.2297  -0.1203 H              1 S1                 0.0000
     44 ****         1.3003   0.8870   3.0401 H              1 S1                 0.0000
     45 ****         0.0063  -0.4616  -3.1226 H              1 S1                 0.0000
     46 ****         2.8561  -1.1450  -1.4530 H              1 S1                 0.0000
     47 ****         3.1249   1.9041  -1.5173 H              1 S1                 0.0000
     48 ****         4.1717   0.7239  -0.6623 H              1 S1                 0.0000
     49 ****         5.6422   2.2084  -3.2591 H              1 S1                 0.0000
     50 ****         5.1004   1.4074  -4.7182 H              1 S1                 0.0000
     51 ****         4.1943   3.4513  -4.4399 H              1 S1                 0.0000
     52 ****         5.0244  -1.4027  -2.3527 H              1 S1                 0.0000
     53 ****         5.7152  -0.7568  -3.8173 H              1 S1                 0.0000
     54 ****         7.1274  -0.6894  -2.0394 H              1 S1                 0.0000
     55 ****         2.9124  -0.9423  -3.8650 H              1 S1                 0.0000
     56 ****         2.2224   0.7133  -3.8062 H              1 S1                 0.0000
     57 ****        -3.8142  -0.3835   4.8430 LP             1 S1                 0.0000
     58 ****        -3.8148   1.2541   5.4072 LP             1 S1                 0.0000
     59 ****        -2.9330  -0.1434   0.5149 LP             1 S1                 0.0000
     60 ****        -1.0029   0.9373   3.0911 LP             1 S1                 0.0000
     61 ****         2.5205   0.4461   1.0546 LP             1 S1                 0.0000
     62 ****        -2.0374  -0.1064  -1.7358 LP             1 S1                 0.0000
     63 ****         3.5195   3.1216  -3.0375 LP             1 S1                 0.0000
     64 ****         3.0156   2.3835  -4.4042 LP             1 S1                 0.0000
     65 ****         6.1788   0.2237  -1.1467 LP             1 S1                 0.0000
     66 ****         6.8558   0.8042  -2.5146 LP             1 S1                 0.0000
@<TRIPOS>BOND
    1    1    2 1     
    2    1   29 1     
    3    1   30 1     
    4    1   31 1     
    5    2    3 1     
    6    2    4 1     
    7    2   32 1     
    8    3   33 1     
    9    3   34 1     
   10    3   35 1     
   11    4    5 1     
   12    4   36 1     
   13    4   37 1     
   14    5   11 1     
   15    5    6 1     
   16    5   38 1     
   17    6    7 2     
   18    6    8 am    
   19    8    9 1     
   20    8   39 1     
   21    9   10 1     
   22    9   40 1     
   23    9   41 1     
   24   10   11 1     
   25   10   42 1     
   26   10   43 1     
   27   11   12 1     
   28   12   17 ar    
   29   12   13 ar    
   30   13   14 ar    
   31   14   15 ar    
   32   14   44 1     
   33   15   16 ar    
   34   16   20 1     
   35   16   17 ar    
   36   17   18 1     
   37   18   19 2     
   38   19   20 1     
   39   19   45 1     
   40   20   21 1     
   41   21   28 1     
   42   21   22 1     
   43   21   46 1     
   44   22   23 1     
   45   22   47 1     
   46   22   48 1     
   47   23   24 1     
   48   23   26 1     
   49   23   28 1     
   50   24   25 1     
   51   24   49 1     
   52   24   50 1     
   53   25   51 1     
   54   26   27 1     
   55   26   52 1     
   56   26   53 1     
   57   27   54 1     
   58   28   55 1     
   59   28   56 1     
   60    7   57 1     
   61    7   58 1     
   62   11   59 1     
   63   13   60 1     
   64   15   61 1     
   65   18   62 1     
   66   25   63 1     
   67   25   64 1     
   68   27   65 1     
   69   27   66 1     
@<TRIPOS>SUBSTRUCTURE
      1 S1             1
@<TRIPOS>SET
LONE_PAIRS      STATIC     ATOMS    <user>   **** ""
10 57 58 59 60 61 62 63 64 65 66
DONOR_HYDROGENS      STATIC     ATOMS    <user>   **** ""
3 39 51 54
ATOM$BLUE        STATIC     ATOMS    COLORGROUP SYSTEM
10 57 58 59 60 61 62 63 64 65 66
ATOM$RED        STATIC     ATOMS    COLORGROUP SYSTEM
3 39 51 54
