AV-unprocessed.smi:232|AV-procd|sdf|1776|dock4
  -GOLD-   2262020323D 1   1.00000     0.00000
 Structure written by MMmdl.
 52 55  0  0  0  0  0  0  0  0  1 V2000
  153.4600  138.6684  160.3854 C   0  0  0  0  0  0  0  0  0  0  0  0
  153.3409  139.4964  159.1001 C   0  0  0  0  0  0  0  0  0  0  0  0
  152.2946  140.6273  159.1997 C   0  0  1  0  0  0  0  0  0  0  0  0
  152.5758  141.6364  160.3242 C   0  0  0  0  0  0  0  0  0  0  0  0
  152.0764  142.9820  159.7844 C   0  0  0  0  0  0  0  0  0  0  0  0
  151.5069  142.6548  158.4003 C   0  0  1  0  0  0  0  0  0  0  0  0
  151.6552  143.8025  157.3884 C   0  0  0  0  0  0  0  0  0  0  0  0
  152.2060  141.4416  157.9926 N   0  0  0  0  0  0  0  0  0  0  0  0
  151.7153  140.7963  156.9076 C   0  0  0  0  0  0  0  0  0  0  0  0
  152.4646  139.8677  156.2557 N   0  0  0  0  0  0  0  0  0  0  0  0
  151.9732  139.2522  155.1756 C   0  0  0  0  0  0  0  0  0  0  0  0
  150.7858  139.4176  154.5873 N   0  0  0  0  0  0  0  0  0  0  0  0
  150.0361  140.3522  155.2397 C   0  0  0  0  0  0  0  0  0  0  0  0
  150.4209  141.0797  156.3996 C   0  0  0  0  0  0  0  0  0  0  0  0
  149.4027  141.9426  156.7843 N   0  0  0  0  0  0  0  0  0  0  0  0
  148.4664  141.7390  155.8980 C   0  0  0  0  0  0  0  0  0  0  0  0
  148.7647  140.8032  154.9331 N   0  0  0  0  0  0  0  0  0  0  0  0
  147.9113  140.3942  153.8323 C   0  0  0  0  0  0  0  0  0  0  0  0
  147.4723  138.9210  153.9440 C   0  0  2  0  0  0  0  0  0  0  0  0
  148.6021  138.0855  153.7784 O   0  0  0  0  0  0  0  0  0  0  0  0
  146.4146  138.5466  152.8895 C   0  0  1  0  0  0  0  0  0  0  0  0
  146.8788  138.7134  151.4414 C   0  0  0  0  0  0  0  0  0  0  0  0
  145.9531  137.7663  150.7137 C   0  0  0  0  0  0  0  0  0  0  0  0
  145.8589  136.6051  151.6988 C   0  0  0  0  0  0  0  0  0  0  0  0
  146.0759  137.1650  152.9918 O   0  0  0  0  0  0  0  0  0  0  0  0
  154.1812  137.8607  160.2592 H   0  0  0  0  0  0  0  0  0  0  0  0
  152.5029  138.2198  160.6526 H   0  0  0  0  0  0  0  0  0  0  0  0
  153.7925  139.2787  161.2251 H   0  0  0  0  0  0  0  0  0  0  0  0
  154.3149  139.9133  158.8412 H   0  0  0  0  0  0  0  0  0  0  0  0
  153.0766  138.8176  158.2888 H   0  0  0  0  0  0  0  0  0  0  0  0
  151.3131  140.1824  159.3753 H   0  0  0  0  0  0  0  0  0  0  0  0
  152.0745  141.3509  161.2492 H   0  0  0  0  0  0  0  0  0  0  0  0
  153.6442  141.7028  160.5343 H   0  0  0  0  0  0  0  0  0  0  0  0
  151.3258  143.4381  160.4307 H   0  0  0  0  0  0  0  0  0  0  0  0
  152.9135  143.6771  159.7066 H   0  0  0  0  0  0  0  0  0  0  0  0
  150.4461  142.4296  158.5222 H   0  0  0  0  0  0  0  0  0  0  0  0
  151.1570  144.7032  157.7474 H   0  0  0  0  0  0  0  0  0  0  0  0
  151.2124  143.5439  156.4262 H   0  0  0  0  0  0  0  0  0  0  0  0
  152.7043  144.0455  157.2169 H   0  0  0  0  0  0  0  0  0  0  0  0
  152.6264  138.5263  154.7143 H   0  0  0  0  0  0  0  0  0  0  0  0
  147.5260  142.2701  155.9223 H   0  0  0  0  0  0  0  0  0  0  0  0
  147.0399  141.0497  153.8229 H   0  0  0  0  0  0  0  0  0  0  0  0
  148.4387  140.5674  152.8934 H   0  0  0  0  0  0  0  0  0  0  0  0
  147.0649  138.7417  154.9398 H   0  0  0  0  0  0  0  0  0  0  0  0
  148.4905  137.5844  152.9848 H   0  0  0  0  0  0  0  0  0  0  0  0
  145.5021  139.1251  153.0437 H   0  0  0  0  0  0  0  0  0  0  0  0
  146.8041  139.7413  151.0849 H   0  0  0  0  0  0  0  0  0  0  0  0
  147.9131  138.3853  151.3273 H   0  0  0  0  0  0  0  0  0  0  0  0
  144.9739  138.2290  150.5820 H   0  0  0  0  0  0  0  0  0  0  0  0
  146.3257  137.4664  149.7339 H   0  0  0  0  0  0  0  0  0  0  0  0
  144.8979  136.0936  151.6430 H   0  0  0  0  0  0  0  0  0  0  0  0
  146.6433  135.8730  151.5037 H   0  0  0  0  0  0  0  0  0  0  0  0
  1  2  1  0  0  0  0
  1 26  1  0  0  0  0
  1 27  1  0  0  0  0
  1 28  1  0  0  0  0
  2  3  1  0  0  0  0
  2 29  1  0  0  0  0
  2 30  1  0  0  0  0
  3  8  1  0  0  0  0
  3  4  1  0  0  0  0
  3 31  1  0  0  0  0
  4  5  1  0  0  0  0
  4 32  1  0  0  0  0
  4 33  1  0  0  0  0
  5  6  1  0  0  0  0
  5 34  1  0  0  0  0
  5 35  1  0  0  0  0
  6  7  1  0  0  0  0
  6  8  1  0  0  0  0
  6 36  1  0  0  0  0
  7 37  1  0  0  0  0
  7 38  1  0  0  0  0
  7 39  1  0  0  0  0
  8  9  1  0  0  0  0
  9 14  1  0  0  0  0
  9 10  2  0  0  0  0
 10 11  1  0  0  0  0
 11 12  2  0  0  0  0
 11 40  1  0  0  0  0
 12 13  1  0  0  0  0
 13 17  1  0  0  0  0
 13 14  2  0  0  0  0
 14 15  1  0  0  0  0
 15 16  2  0  0  0  0
 16 17  1  0  0  0  0
 16 41  1  0  0  0  0
 17 18  1  0  0  0  0
 18 19  1  0  0  0  0
 18 42  1  0  0  0  0
 18 43  1  0  0  0  0
 19 20  1  0  0  0  0
 19 21  1  0  0  0  0
 19 44  1  0  0  0  0
 20 45  1  0  0  0  0
 21 25  1  0  0  0  0
 21 22  1  0  0  0  0
 21 46  1  0  0  0  0
 22 23  1  0  0  0  0
 22 47  1  0  0  0  0
 22 48  1  0  0  0  0
 23 24  1  0  0  0  0
 23 49  1  0  0  0  0
 23 50  1  0  0  0  0
 24 25  1  0  0  0  0
 24 51  1  0  0  0  0
 24 52  1  0  0  0  0
M  END
> <s_m_source_file>
AV-unprocessed.smi

> <i_m_source_file_index>
232

> <i_lp_mmshare_version>
43012

> <i_f3d_flags>
0

> <s_epik_input>
W0NIM11bQ0gyXVtDQEBIXTFbQ0gyXVtDSDJdW0NAQEhdKFtDSDNdKU4xYyhuW2NIXW4yKWMoYzIzKW5bY0hdbjNbQ0gyXVtDQEhdKFtPSF0pW0NAQEhdNFtDSDJdW0NIMl1bQ0gyXU80

> <s_epik_cmdline>
J2VwaWtfcHl0aG9uJywgJy1waCcsICc3LjAnLCAnLXRuJywgJzgnLCAnLW1hJywgJzIwMCcsICctbWV0YWxfYmluZGluZycsICctaW1hZScsICc8aW5maWxlLm1hZT4nLCAnLW9tYWUnLCAnPG91dGZpbGUubWFlPic=

> <r_lp_tautomer_probability>
1

> <r_epik_Ionization_Penalty>
0.00258048

> <r_epik_Ionization_Penalty_Charging>
0

> <r_epik_Ionization_Penalty_Neutral>
0.00258048

> <r_epik_State_Penalty>
0.00168551

> <r_epik_Charging_Adjusted_Penalty>
0.00168551

> <i_epik_Tot_Q>
0

> <i_epik_Tot_abs_Q>
0

> <r_epik_Metal_State_Penalty>
-0

> <b_epik_Metal_Only>
0

> <s_lp_Force_Field>
OPLS_2005

> <r_lp_Energy>
51.3027

> <b_lp_Chiralities_Consistent>
1

> <s_lp_Variant>
AV-unprocessed.smi:232-10

> <Gold.Version>
5.8.1

> <Gold.Id.Protein>
6NUR|6NUR_protein|mol2

> <Gold.PLP.Fitness>
47.0951

> <Gold.PLP.PLP>
-41.3018

> <Gold.PLP.part.hbond>
-3.0000

> <Gold.PLP.part.metal>
0.0000

> <Gold.PLP.part.buried>
6.1731

> <Gold.PLP.part.nonpolar>
-44.8085

> <Gold.PLP.part.repulsive>
0.8466

> <Gold.PLP.ligand.clash>
0.1078

> <Gold.PLP.ligand.torsion>
0.3994

> <Gold.PLP.Chemscore.Hbond>
2.1500

> <Gold.PLP.Chemscore.CHOScore>
0.0387

> <Gold.PLP.Chemscore.Metal>
0.0000

> <Gold.Chemscore.Hbonds>
donor molecule, donor type, donor heavy atom, donor atom, acceptor molecule, acceptor atom, score
      L1  H    20    45       P1  7948  1.00
      P1  H  7989  7998       L1    12  0.18
      P1  H  7997  8008       L1    10  1.00
      L1  C    16    41       P1  8028  0.08

> <Gold.PLP.Chemscore.Internal.Correction>
0.1337

> <Gold.Rescore>
     Score         DG    S(hbond)    S(metal)    S(lipo)     H(rot)  DE(clash)    DE(int)     intcor
     13.58     -18.28       1.85        0.00     109.59       2.43       1.82       2.88       ----

> <Gold.Chemscore.Fitness>
13.5812

> <Gold.Chemscore.DG>
-18.2846

> <Gold.Chemscore.ZeroCoef>
-5.4800

> <Gold.Chemscore.Hbond>
1.8544

> <Gold.Chemscore.Metal>
0.0000

> <Gold.Chemscore.Lipo>
109.5864

> <Gold.Chemscore.Internal_Hbond>
0.0000

> <Gold.Chemscore.DEClash>
1.8249

> <Gold.Chemscore.DEInternal>
2.8785

> <Gold.Chemscore.Rot>
2.4260

> <Gold.Chemscore.Internal.Correction>
   9.000000E+99

> <Gold.Chemscore.Hbonds>
donor molecule, donor type, donor heavy atom, donor atom, acceptor molecule, acceptor atom, score
      L1  H    20    45       P1  7948  0.96
      P1  H  7997  8008       L1    10  0.85

> <Gold.Chemscore.Hbond.Weighted>
-6.1937

> <Gold.Chemscore.Metal.Weighted>
-0.0000

> <Gold.Chemscore.Lipo.Weighted>
-12.8216

> <Gold.Chemscore.Internal_Hbond.Weighted>
0.0000

> <Gold.Chemscore.DEClash.Weighted>
1.8249

> <Gold.Chemscore.DEInternal.Weighted>
2.8785

> <Gold.Chemscore.Rot.Weighted>
6.2107

> <Gold.Chemscore.Internal.Correction.Weighted>
   9.000000E+99

> <Gold.Protein.RotatedTorsions>
[ 6907 6896 6895 6894 ] final  -16.77 input  -60.11 | X-H torsion
[ 7974 7965 7964 7962 ] final  -44.54 input  175.53 | X-H torsion
[ 8008 7997 7996 7995 ] final  -42.14 input   59.86 | X-H torsion
[ 10167 10162 10161 10158 ] final  152.09 input  -65.29 | X-H torsion
[ 10718 10713 10712 10709 ] final  116.81 input   66.30 | X-H torsion
[ 10763 10752 10751 10750 ] final   93.89 input  -60.55 | X-H torsion
[ 11005 11000 10999 10996 ] final   63.32 input  -57.11 | X-H torsion

> <Gold.Protein.ActiveResidues>
 VAL166  LYS551  ARG553  GLY616  TRP617  ASP618  TYR619  PRO620  LYS621  CYS622 
 ASP623  PHE694  ASN695  SER759  ASP760  ASP761  ALA762  ILE779  LEU786  VAL792 
 PHE793  MET794  SER795  GLU796  ALA797  LYS798  CYS799  TRP800  GLU811  SER814 

> <Gold.Protein.RotatedAtoms>
  151.3036  135.0775  159.9246 H   0  0  0  0  0  0  0  0  0  0  0  0  # atno 6907 bound_to 6896
  152.5292  133.9808  159.7816 H   0  0  0  0  0  0  0  0  0  0  0  0  # atno 6908 bound_to 6896
  151.0099  133.5923  159.2714 H   0  0  0  0  0  0  0  0  0  0  0  0  # atno 6909 bound_to 6896
  145.9910  140.7180  142.9317 H   0  0  0  0  0  0  0  0  0  0  0  0  # atno 7974 bound_to 7965
  154.4000  140.1481  156.3306 H   0  0  0  0  0  0  0  0  0  0  0  0  # atno 8008 bound_to 7997
  155.8446  140.3460  155.5633 H   0  0  0  0  0  0  0  0  0  0  0  0  # atno 8009 bound_to 7997
  155.8050  140.0875  157.1926 H   0  0  0  0  0  0  0  0  0  0  0  0  # atno 8010 bound_to 7997
  139.4835  144.5386  151.7602 H   0  0  0  0  0  0  0  0  0  0  0  0  # atno 10167 bound_to 10162
  157.6137  131.1030  150.7526 H   0  0  0  0  0  0  0  0  0  0  0  0  # atno 10718 bound_to 10713
  153.2355  135.4309  155.0641 H   0  0  0  0  0  0  0  0  0  0  0  0  # atno 10763 bound_to 10752
  154.8316  135.3390  154.6726 H   0  0  0  0  0  0  0  0  0  0  0  0  # atno 10764 bound_to 10752
  153.7151  135.7020  153.5083 H   0  0  0  0  0  0  0  0  0  0  0  0  # atno 10765 bound_to 10752
  140.0033  134.6409  155.9896 H   0  0  0  0  0  0  0  0  0  0  0  0  # atno 11005 bound_to 11000
  144.6889  140.3070  143.7254 LP  0  0  0  0  0  0  0  0  0  0  0  0  # atno 17320 bound_to 7965
  145.7629  139.1831  143.2256 LP  0  0  0  0  0  0  0  0  0  0  0  0  # atno 17321 bound_to 7965
  140.4923  144.1292  150.5953 LP  0  0  0  0  0  0  0  0  0  0  0  0  # atno 17342 bound_to 10162
  140.4157  143.2635  151.9777 LP  0  0  0  0  0  0  0  0  0  0  0  0  # atno 17343 bound_to 10162
  156.7898  130.4886  149.5387 LP  0  0  0  0  0  0  0  0  0  0  0  0  # atno 17370 bound_to 10713
  156.1250  130.6137  151.0249 LP  0  0  0  0  0  0  0  0  0  0  0  0  # atno 17371 bound_to 10713
  141.1658  133.6537  156.4474 LP  0  0  0  0  0  0  0  0  0  0  0  0  # atno 17394 bound_to 11000
  140.4688  134.6772  157.5120 LP  0  0  0  0  0  0  0  0  0  0  0  0  # atno 17395 bound_to 11000

$$$$
