AV-unprocessed.smi:1792|AV-procd|sdf|7223|dock4
  -GOLD-   22720 8463D 1   1.00000     0.00000
 Structure written by MMmdl.
 43 44  0  0  0  0  0  0  0  0  2 V2000
  147.5049  140.1534  153.5543 C   0  0  0  0  0  0  0  0  0  0  0  0
  146.5062  140.0614  154.7345 C   0  0  0  0  0  0  0  0  0  0  0  0
  145.7411  138.7246  154.5990 C   0  0  0  0  0  0  0  0  0  0  0  0
  147.3336  140.0202  156.0545 C   0  0  0  0  0  0  0  0  0  0  0  0
  148.1614  141.2077  156.2734 N   0  0  0  0  0  0  0  0  0  0  0  0
  149.0745  141.3529  157.2448 C   0  0  0  0  0  0  0  0  0  0  0  0
  149.3390  140.4717  158.0626 O   0  0  0  0  0  0  0  0  0  0  0  0
  149.6478  142.5684  157.1973 N   0  0  0  0  0  0  0  0  0  0  0  0
  150.6597  143.0938  158.0447 C   0  0  0  0  0  0  0  0  0  0  0  0
  151.4343  142.1262  158.7240 C   0  0  0  0  0  0  0  0  0  0  0  0
  152.4657  142.5454  159.5866 C   0  0  0  0  0  0  0  0  0  0  0  0
  152.6951  143.9232  159.7493 C   0  0  0  0  0  0  0  0  0  0  0  0
  151.8763  144.8202  159.0390 C   0  0  0  0  0  0  0  0  0  0  0  0
  150.8875  144.4206  158.2116 N   0  0  0  0  0  0  0  0  0  0  0  0
  145.5699  141.2433  154.7239 N   0  3  0  0  0  0  0  0  0  0  0  0
  144.7220  141.4160  155.9374 C   0  0  0  0  0  0  0  0  0  0  0  0
  143.7010  142.5475  155.7285 C   0  0  0  0  0  0  0  0  0  0  0  0
  144.3753  143.7542  155.4013 O   0  0  0  0  0  0  0  0  0  0  0  0
  145.1158  143.6314  154.1956 C   0  0  0  0  0  0  0  0  0  0  0  0
  146.1932  142.5479  154.3635 C   0  0  0  0  0  0  0  0  0  0  0  0
  148.3073  139.4217  153.6556 H   0  0  0  0  0  0  0  0  0  0  0  0
  147.9686  141.1381  153.4908 H   0  0  0  0  0  0  0  0  0  0  0  0
  147.0310  139.9484  152.5944 H   0  0  0  0  0  0  0  0  0  0  0  0
  146.4338  137.8825  154.5768 H   0  0  0  0  0  0  0  0  0  0  0  0
  145.1560  138.6765  153.6806 H   0  0  0  0  0  0  0  0  0  0  0  0
  145.0631  138.5494  155.4339 H   0  0  0  0  0  0  0  0  0  0  0  0
  146.6710  139.9320  156.9153 H   0  0  0  0  0  0  0  0  0  0  0  0
  147.9469  139.1180  156.0930 H   0  0  0  0  0  0  0  0  0  0  0  0
  148.0016  141.9910  155.6571 H   0  0  0  0  0  0  0  0  0  0  0  0
  149.3198  143.1943  156.4769 H   0  0  0  0  0  0  0  0  0  0  0  0
  151.2461  141.0712  158.5869 H   0  0  0  0  0  0  0  0  0  0  0  0
  153.0700  141.8219  160.1136 H   0  0  0  0  0  0  0  0  0  0  0  0
  153.4773  144.2829  160.4012 H   0  0  0  0  0  0  0  0  0  0  0  0
  152.0183  145.8864  159.1373 H   0  0  0  0  0  0  0  0  0  0  0  0
  144.1634  140.5111  156.1690 H   0  0  0  0  0  0  0  0  0  0  0  0
  145.3455  141.6418  156.8028 H   0  0  0  0  0  0  0  0  0  0  0  0
  142.9892  142.2891  154.9426 H   0  0  0  0  0  0  0  0  0  0  0  0
  143.1235  142.7036  156.6397 H   0  0  0  0  0  0  0  0  0  0  0  0
  144.4504  143.3956  153.3634 H   0  0  0  0  0  0  0  0  0  0  0  0
  145.5809  144.5910  153.9689 H   0  0  0  0  0  0  0  0  0  0  0  0
  146.8947  142.8574  155.1388 H   0  0  0  0  0  0  0  0  0  0  0  0
  146.7532  142.4799  153.4329 H   0  0  0  0  0  0  0  0  0  0  0  0
  144.9195  141.0424  153.9779 H   0  0  0  0  0  0  0  0  0  0  0  0
  1  2  1  0  0  0  0
  1 21  1  0  0  0  0
  1 22  1  0  0  0  0
  1 23  1  0  0  0  0
  2  3  1  0  0  0  0
  2  4  1  0  0  0  0
  2 15  1  0  0  0  0
  3 24  1  0  0  0  0
  3 25  1  0  0  0  0
  3 26  1  0  0  0  0
  4  5  1  0  0  0  0
  4 27  1  0  0  0  0
  4 28  1  0  0  0  0
  5  6  1  0  0  0  0
  5 29  1  0  0  0  0
  6  7  2  0  0  0  0
  6  8  1  0  0  0  0
  8  9  1  0  0  0  0
  8 30  1  0  0  0  0
  9 14  1  0  0  0  0
  9 10  2  0  0  0  0
 10 11  1  0  0  0  0
 10 31  1  0  0  0  0
 11 12  2  0  0  0  0
 11 32  1  0  0  0  0
 12 13  1  0  0  0  0
 12 33  1  0  0  0  0
 13 14  2  0  0  0  0
 13 34  1  0  0  0  0
 15 20  1  0  0  0  0
 15 16  1  0  0  0  0
 15 43  1  0  0  0  0
 16 17  1  0  0  0  0
 16 35  1  0  0  0  0
 16 36  1  0  0  0  0
 17 18  1  0  0  0  0
 17 37  1  0  0  0  0
 17 38  1  0  0  0  0
 18 19  1  0  0  0  0
 19 20  1  0  0  0  0
 19 39  1  0  0  0  0
 19 40  1  0  0  0  0
 20 41  1  0  0  0  0
 20 42  1  0  0  0  0
M  CHG  1  15   1
M  END
> <s_m_source_file>
AV-unprocessed.smi

> <i_m_source_file_index>
1792

> <i_lp_mmshare_version>
43012

> <i_f3d_flags>
0

> <s_epik_input>
W0NIMl0xW0NIMl1PW0NIMl1bQ0gyXU4xQyhbQ0gzXSkoW0NIM10pW0NIMl1bTkhdQyg9TylbTkhdYzJbY0hdW2NIXVtjSF1bY0hdbjI=

> <s_epik_cmdline>
J2VwaWtfcHl0aG9uJywgJy1waCcsICc3LjAnLCAnLXRuJywgJzgnLCAnLW1hJywgJzIwMCcsICctbWV0YWxfYmluZGluZycsICctaW1hZScsICc8aW5maWxlLm1hZT4nLCAnLW9tYWUnLCAnPG91dGZpbGUubWFlPic=

> <r_epik_Ionization_Penalty>
0.602565

> <r_epik_Ionization_Penalty_Charging>
0.602531

> <r_epik_Ionization_Penalty_Neutral>
3.47415e-05

> <r_epik_State_Penalty>
0.617039

> <r_epik_Charging_Adjusted_Penalty>
1.21957

> <i_epik_Tot_Q>
1

> <i_epik_Tot_abs_Q>
1

> <r_epik_Metal_State_Penalty>
0.617041

> <b_epik_Metal_Only>
0

> <s_lp_Force_Field>
OPLS_2005

> <r_lp_Energy>
32.7628

> <b_lp_Chiralities_Consistent>
1

> <s_lp_Variant>
AV-unprocessed.smi:1792-2

> <Gold.Version>
5.8.1

> <Gold.Id.Protein>
6NUR|6NUR_protein|mol2

> <Gold.PLP.Fitness>
41.2688

> <Gold.PLP.PLP>
-33.2096

> <Gold.PLP.part.hbond>
-2.0000

> <Gold.PLP.part.metal>
0.0000

> <Gold.PLP.part.buried>
-5.4208

> <Gold.PLP.part.nonpolar>
-26.8813

> <Gold.PLP.part.repulsive>
0.3484

> <Gold.PLP.ligand.clash>
0.0000

> <Gold.PLP.ligand.torsion>
0.5118

> <Gold.PLP.Chemscore.Hbond>
2.9920

> <Gold.PLP.Chemscore.CHOScore>
0.0000

> <Gold.PLP.Chemscore.Metal>
0.0000

> <Gold.Chemscore.Hbonds>
donor molecule, donor type, donor heavy atom, donor atom, acceptor molecule, acceptor atom, score
      L1  H     8    30       P1  8028  1.00
      L1  H    15    43       P1 10175  2.00

> <Gold.PLP.Chemscore.Internal.Correction>
0.1067

> <Gold.Rescore>
     Score         DG    S(hbond)    S(metal)    S(lipo)     H(rot)  DE(clash)    DE(int)     intcor
     14.60     -16.98       1.88        0.00      78.49       1.55       0.06       2.32       ----

> <Gold.Chemscore.Fitness>
14.6048

> <Gold.Chemscore.DG>
-16.9849

> <Gold.Chemscore.ZeroCoef>
-5.4800

> <Gold.Chemscore.Hbond>
1.8813

> <Gold.Chemscore.Metal>
0.0000

> <Gold.Chemscore.Lipo>
78.4896

> <Gold.Chemscore.Internal_Hbond>
0.0000

> <Gold.Chemscore.DEClash>
0.0645

> <Gold.Chemscore.DEInternal>
2.3156

> <Gold.Chemscore.Rot>
1.5476

> <Gold.Chemscore.Internal.Correction>
   9.000000E+99

> <Gold.Chemscore.Hbonds>
donor molecule, donor type, donor heavy atom, donor atom, acceptor molecule, acceptor atom, score
      L1  H     8    30       P1  8028  0.99
      L1  H    15    43       P1 10175  0.78

> <Gold.Chemscore.Hbond.Weighted>
-6.2836

> <Gold.Chemscore.Metal.Weighted>
-0.0000

> <Gold.Chemscore.Lipo.Weighted>
-9.1833

> <Gold.Chemscore.Internal_Hbond.Weighted>
0.0000

> <Gold.Chemscore.DEClash.Weighted>
0.0645

> <Gold.Chemscore.DEInternal.Weighted>
2.3156

> <Gold.Chemscore.Rot.Weighted>
3.9619

> <Gold.Chemscore.Internal.Correction.Weighted>
   9.000000E+99

> <Gold.Protein.RotatedTorsions>
[ 6907 6896 6895 6894 ] final -106.76 input  -60.11 | X-H torsion
[ 7974 7965 7964 7962 ] final -169.17 input  175.53 | X-H torsion
[ 8008 7997 7996 7995 ] final  113.63 input   59.86 | X-H torsion
[ 10167 10162 10161 10158 ] final   72.49 input  -65.29 | X-H torsion
[ 10718 10713 10712 10709 ] final  -47.98 input   66.30 | X-H torsion
[ 10763 10752 10751 10750 ] final   31.11 input  -60.55 | X-H torsion
[ 11005 11000 10999 10996 ] final   93.55 input  -57.11 | X-H torsion

> <Gold.Protein.ActiveResidues>
 VAL166  LYS551  ARG553  GLY616  TRP617  ASP618  TYR619  PRO620  LYS621  CYS622 
 ASP623  PHE694  ASN695  SER759  ASP760  ASP761  ALA762  ILE779  LEU786  VAL792 
 PHE793  MET794  SER795  GLU796  ALA797  LYS798  CYS799  TRP800  GLU811  SER814 

> <Gold.Protein.RotatedAtoms>
  150.7406  133.9928  159.3612 H   0  0  0  0  0  0  0  0  0  0  0  0  # atno 6907 bound_to 6896
  151.7877  135.0742  160.0392 H   0  0  0  0  0  0  0  0  0  0  0  0  # atno 6908 bound_to 6896
  152.3230  133.5837  159.5793 H   0  0  0  0  0  0  0  0  0  0  0  0  # atno 6909 bound_to 6896
  144.7190  140.2261  143.6310 H   0  0  0  0  0  0  0  0  0  0  0  0  # atno 7974 bound_to 7965
  156.2270  140.2975  156.0092 H   0  0  0  0  0  0  0  0  0  0  0  0  # atno 8008 bound_to 7997
  155.2329  140.0419  157.2982 H   0  0  0  0  0  0  0  0  0  0  0  0  # atno 8009 bound_to 7997
  154.5932  140.2407  155.7900 H   0  0  0  0  0  0  0  0  0  0  0  0  # atno 8010 bound_to 7997
  140.0347  144.5437  150.7480 H   0  0  0  0  0  0  0  0  0  0  0  0  # atno 10167 bound_to 10162
  156.2032  130.4157  149.9213 H   0  0  0  0  0  0  0  0  0  0  0  0  # atno 10718 bound_to 10713
  153.0333  135.6447  154.1149 H   0  0  0  0  0  0  0  0  0  0  0  0  # atno 10763 bound_to 10752
  154.0868  135.2869  155.3281 H   0  0  0  0  0  0  0  0  0  0  0  0  # atno 10764 bound_to 10752
  154.6492  135.5432  153.7945 H   0  0  0  0  0  0  0  0  0  0  0  0  # atno 10765 bound_to 10752
  139.8809  134.8796  156.3734 H   0  0  0  0  0  0  0  0  0  0  0  0  # atno 11005 bound_to 11000
  145.8455  139.2150  143.1802 LP  0  0  0  0  0  0  0  0  0  0  0  0  # atno 17320 bound_to 7965
  146.0308  140.8260  142.9877 LP  0  0  0  0  0  0  0  0  0  0  0  0  # atno 17321 bound_to 7965
  140.7287  143.2664  151.4030 LP  0  0  0  0  0  0  0  0  0  0  0  0  # atno 17342 bound_to 10162
  139.6053  144.1210  152.2242 LP  0  0  0  0  0  0  0  0  0  0  0  0  # atno 17343 bound_to 10162
  156.6915  130.8898  151.3589 LP  0  0  0  0  0  0  0  0  0  0  0  0  # atno 17370 bound_to 10713
  157.6997  130.9320  150.0750 LP  0  0  0  0  0  0  0  0  0  0  0  0  # atno 17371 bound_to 10713
  140.9449  133.7490  156.0194 LP  0  0  0  0  0  0  0  0  0  0  0  0  # atno 17394 bound_to 11000
  140.8176  134.3327  157.5392 LP  0  0  0  0  0  0  0  0  0  0  0  0  # atno 17395 bound_to 11000

$$$$
