#       Name:                AV-unprocessed.smi:512
#       Creating user name   scv26
#       Creation time:       Thu Mar 26 23:23:39 2020


#       File generated by GOLD software.
#

@<TRIPOS>MOLECULE
AV-unprocessed.smi:512
    56    58     1
SMALL
NO_CHARGES


@<TRIPOS>ATOM
      1 ****        -3.6591   2.6886   0.0890 C.3            1 S1                 0.0000
      2 ****        -2.8943   1.8791  -0.9605 C.3            1 S1                 0.0000
      3 ****        -1.5106   1.9599  -0.6711 O.3            1 S1                 0.0000
      4 ****        -0.7075   1.2408  -1.5924 C.3            1 S1                 0.0000
      5 ****         0.7626   1.3172  -1.1575 C.3            1 S1                 0.0000
      6 ****         0.9474   0.8199   0.2048 N.pl3          1 S1                 0.0000
      7 ****         1.0675  -0.4687   0.6265 C.2            1 S1                 0.0000
      8 ****         1.0690  -1.5451  -0.2607 N.pl3          1 S1                 0.0000
      9 ****         2.0029  -1.7827  -1.3587 C.3            1 S1                 0.0000
     10 ****         1.2495  -2.1226  -2.6595 C.3            1 S1                 0.0000
     11 ****         0.4714  -3.3446  -2.4585 N.3            1 S1                 0.0000
     12 ****        -0.2522  -3.6709  -3.6784 C.3            1 S1                 0.0000
     13 ****        -0.4773  -3.1241  -1.3667 C.3            1 S1                 0.0000
     14 ****         0.2910  -2.7667  -0.0785 C.3            1 S1                 0.0000
     15 ****         1.1267  -0.6178   1.9524 N.2            1 S1                 0.0000
     16 ****         1.0659   0.6862   2.4181 C.2            1 S1                 0.0000
     17 ****         0.9495   1.5631   1.3882 C.2            1 S1                 0.0000
     18 ****         0.8129   3.0116   1.6028 C.2            1 S1                 0.0000
     19 ****         0.6919   3.8276   0.6920 O.2            1 S1                 0.0000
     20 ****         0.8242   3.3592   2.9125 N.am           1 S1                 0.0000
     21 ****         0.9412   2.5288   3.9927 C.2            1 S1                 0.0000
     22 ****         0.9235   2.9954   5.1316 O.2            1 S1                 0.0000
     23 ****         1.0721   1.1852   3.7519 N.am           1 S1                 0.0000
     24 ****         1.1959   0.2472   4.8693 C.3            1 S1                 0.0000
     25 ****         0.7294   4.3438   3.1146 H              1 S1                 0.0000
     26 ****        -4.7332   2.6463  -0.0919 H              1 S1                 0.0000
     27 ****        -3.3567   3.7361   0.0705 H              1 S1                 0.0000
     28 ****        -3.4725   2.3036   1.0918 H              1 S1                 0.0000
     29 ****        -3.2228   0.8389  -0.9410 H              1 S1                 0.0000
     30 ****        -3.0955   2.2733  -1.9575 H              1 S1                 0.0000
     31 ****        -1.0273   0.1985  -1.6315 H              1 S1                 0.0000
     32 ****        -0.8230   1.6561  -2.5943 H              1 S1                 0.0000
     33 ****         1.3839   0.7576  -1.8502 H              1 S1                 0.0000
     34 ****         1.1250   2.3404  -1.2266 H              1 S1                 0.0000
     35 ****         2.6506  -0.9187  -1.5008 H              1 S1                 0.0000
     36 ****         2.6678  -2.6044  -1.0885 H              1 S1                 0.0000
     37 ****         0.5991  -1.2975  -2.9542 H              1 S1                 0.0000
     38 ****         1.9638  -2.2759  -3.4693 H              1 S1                 0.0000
     39 ****        -0.8368  -4.5816  -3.5436 H              1 S1                 0.0000
     40 ****         0.4431  -3.8410  -4.5011 H              1 S1                 0.0000
     41 ****        -0.9320  -2.8673  -3.9659 H              1 S1                 0.0000
     42 ****        -1.1779  -2.3275  -1.6234 H              1 S1                 0.0000
     43 ****        -1.0635  -4.0297  -1.2058 H              1 S1                 0.0000
     44 ****         0.9499  -3.5844   0.2174 H              1 S1                 0.0000
     45 ****        -0.4177  -2.6254   0.7384 H              1 S1                 0.0000
     46 ****         1.9561   0.5789   5.5784 H              1 S1                 0.0000
     47 ****         1.4801  -0.7533   4.5431 H              1 S1                 0.0000
     48 ****         0.2469   0.1663   5.4005 H              1 S1                 0.0000
     49 ****        -1.3546   1.5891   0.2444 LP             1 S1                 0.0000
     50 ****        -1.2365   2.9214  -0.6924 LP             1 S1                 0.0000
     51 ****         1.0820  -4.1029  -2.2302 LP             1 S1                 0.0000
     52 ****         1.1976  -1.4640   2.4805 LP             1 S1                 0.0000
     53 ****         0.6825   3.5179  -0.2588 LP             1 S1                 0.0000
     54 ****         0.6028   4.8013   0.9016 LP             1 S1                 0.0000
     55 ****         0.8236   3.9812   5.2666 LP             1 S1                 0.0000
     56 ****         1.0090   2.3887   5.9219 LP             1 S1                 0.0000
@<TRIPOS>BOND
    1    1    2 1     
    2    1   26 1     
    3    1   27 1     
    4    1   28 1     
    5    2    3 1     
    6    2   29 1     
    7    2   30 1     
    8    3    4 1     
    9    4    5 1     
   10    4   31 1     
   11    4   32 1     
   12    5    6 1     
   13    5   33 1     
   14    5   34 1     
   15    6   17 1     
   16    6    7 1     
   17    7    8 1     
   18    7   15 2     
   19    8   14 1     
   20    8    9 1     
   21    9   10 1     
   22    9   35 1     
   23    9   36 1     
   24   10   11 1     
   25   10   37 1     
   26   10   38 1     
   27   11   12 1     
   28   11   13 1     
   29   12   39 1     
   30   12   40 1     
   31   12   41 1     
   32   13   14 1     
   33   13   42 1     
   34   13   43 1     
   35   14   44 1     
   36   14   45 1     
   37   15   16 1     
   38   16   23 1     
   39   16   17 2     
   40   17   18 1     
   41   18   19 2     
   42   18   20 1     
   43   20   25 1     
   44   20   21 1     
   45   21   22 2     
   46   21   23 1     
   47   23   24 1     
   48   24   46 1     
   49   24   47 1     
   50   24   48 1     
   51    3   49 1     
   52    3   50 1     
   53   11   51 1     
   54   15   52 1     
   55   19   53 1     
   56   19   54 1     
   57   22   55 1     
   58   22   56 1     
@<TRIPOS>SUBSTRUCTURE
      1 S1             1
@<TRIPOS>SET
LONE_PAIRS      STATIC     ATOMS    <user>   **** ""
8 49 50 51 52 53 54 55 56
DONOR_HYDROGENS      STATIC     ATOMS    <user>   **** ""
1 25
ATOM$BLUE        STATIC     ATOMS    COLORGROUP SYSTEM
8 49 50 51 52 53 54 55 56
ATOM$RED        STATIC     ATOMS    COLORGROUP SYSTEM
1 25
