AV-unprocessed.smi:1633|AV-procd|sdf|6535|dock5
  -GOLD-   22720 7213D 1   1.00000     0.00000
 Structure written by MMmdl.
 52 54  0  0  0  0  0  0  0  0  3 V2000
  141.9291  143.4501  155.4786 C   0  0  0  0  0  0  0  0  0  0  0  0
  143.0249  142.8114  156.3347 C   0  0  0  0  0  0  0  0  0  0  0  0
  142.6855  142.0083  157.2033 O   0  0  0  0  0  0  0  0  0  0  0  0
  144.3194  143.1449  156.1137 N   0  0  0  0  0  0  0  0  0  0  0  0
  144.8030  144.0288  155.0484 C   0  0  0  0  0  0  0  0  0  0  0  0
  145.6404  143.2078  154.0500 C   0  0  0  0  0  0  0  0  0  0  0  0
  146.7492  142.4848  154.7336 N   0  3  0  0  0  0  0  0  0  0  0  0
  147.5893  141.6739  153.8145 C   0  0  0  0  0  0  0  0  0  0  0  0
  148.5504  140.7120  154.5496 C   0  0  1  0  0  0  0  0  0  0  0  0
  148.8373  139.6103  153.7121 O   0  0  0  0  0  0  0  0  0  0  0  0
  149.9004  141.3552  154.9275 C   0  0  0  0  0  0  0  0  0  0  0  0
  150.5768  140.6718  156.0392 N   0  0  0  0  0  0  0  0  0  0  0  0
  150.8087  139.3437  156.2257 C   0  0  0  0  0  0  0  0  0  0  0  0
  151.4791  139.2046  157.4025 N   0  3  0  0  0  0  0  0  0  0  0  0
  151.6848  140.4620  157.9739 C   0  0  0  0  0  0  0  0  0  0  0  0
  152.3133  140.8310  159.1571 C   0  0  0  0  0  0  0  0  0  0  0  0
  152.3574  142.2102  159.4614 C   0  0  0  0  0  0  0  0  0  0  0  0
  153.0355  142.6475  160.7486 C   0  0  0  0  0  0  0  0  0  0  0  0
  151.7813  143.1688  158.5885 C   0  0  0  0  0  0  0  0  0  0  0  0
  151.8321  144.6494  158.9265 C   0  0  0  0  0  0  0  0  0  0  0  0
  151.1478  142.7734  157.3887 C   0  0  0  0  0  0  0  0  0  0  0  0
  151.1117  141.4098  157.1033 C   0  0  0  0  0  0  0  0  0  0  0  0
  146.2794  141.6931  155.9020 C   0  0  0  0  0  0  0  0  0  0  0  0
  145.4313  142.5490  156.8595 C   0  0  0  0  0  0  0  0  0  0  0  0
  142.0685  143.2067  154.4249 H   0  0  0  0  0  0  0  0  0  0  0  0
  141.9286  144.5341  155.5964 H   0  0  0  0  0  0  0  0  0  0  0  0
  140.9461  143.0838  155.7767 H   0  0  0  0  0  0  0  0  0  0  0  0
  144.0084  144.5498  154.5164 H   0  0  0  0  0  0  0  0  0  0  0  0
  145.4181  144.8127  155.4927 H   0  0  0  0  0  0  0  0  0  0  0  0
  144.9997  142.4878  153.5381 H   0  0  0  0  0  0  0  0  0  0  0  0
  146.0364  143.8772  153.2878 H   0  0  0  0  0  0  0  0  0  0  0  0
  146.9441  141.0812  153.1640 H   0  0  0  0  0  0  0  0  0  0  0  0
  148.1404  142.3517  153.1617 H   0  0  0  0  0  0  0  0  0  0  0  0
  148.0896  140.3335  155.4616 H   0  0  0  0  0  0  0  0  0  0  0  0
  149.1114  139.9280  152.8656 H   0  0  0  0  0  0  0  0  0  0  0  0
  150.5790  141.3182  154.0739 H   0  0  0  0  0  0  0  0  0  0  0  0
  149.7816  142.4111  155.1705 H   0  0  0  0  0  0  0  0  0  0  0  0
  150.5166  138.5443  155.5597 H   0  0  0  0  0  0  0  0  0  0  0  0
  152.7498  140.0955  159.8172 H   0  0  0  0  0  0  0  0  0  0  0  0
  153.8430  143.3490  160.5392 H   0  0  0  0  0  0  0  0  0  0  0  0
  153.4633  141.7991  161.2832 H   0  0  0  0  0  0  0  0  0  0  0  0
  152.3187  143.1322  161.4115 H   0  0  0  0  0  0  0  0  0  0  0  0
  151.3339  145.2508  158.1657 H   0  0  0  0  0  0  0  0  0  0  0  0
  152.8650  144.9911  158.9964 H   0  0  0  0  0  0  0  0  0  0  0  0
  151.3377  144.8421  159.8789 H   0  0  0  0  0  0  0  0  0  0  0  0
  150.7114  143.5074  156.7279 H   0  0  0  0  0  0  0  0  0  0  0  0
  145.6939  140.8422  155.5495 H   0  0  0  0  0  0  0  0  0  0  0  0
  147.1372  141.2882  156.4403 H   0  0  0  0  0  0  0  0  0  0  0  0
  146.0400  143.3452  157.2905 H   0  0  0  0  0  0  0  0  0  0  0  0
  145.1009  141.9395  157.7019 H   0  0  0  0  0  0  0  0  0  0  0  0
  147.3565  143.1939  155.1189 H   0  0  0  0  0  0  0  0  0  0  0  0
  151.7796  138.3157  157.7824 H   0  0  0  0  0  0  0  0  0  0  0  0
  1  2  1  0  0  0  0
  1 25  1  0  0  0  0
  1 26  1  0  0  0  0
  1 27  1  0  0  0  0
  2  3  2  0  0  0  0
  2  4  1  0  0  0  0
  4 24  1  0  0  0  0
  4  5  1  0  0  0  0
  5  6  1  0  0  0  0
  5 28  1  0  0  0  0
  5 29  1  0  0  0  0
  6  7  1  0  0  0  0
  6 30  1  0  0  0  0
  6 31  1  0  0  0  0
  7  8  1  0  0  0  0
  7 23  1  0  0  0  0
  7 51  1  0  0  0  0
  8  9  1  0  0  0  0
  8 32  1  0  0  0  0
  8 33  1  0  0  0  0
  9 10  1  0  0  0  0
  9 11  1  0  0  0  0
  9 34  1  0  0  0  0
 10 35  1  0  0  0  0
 11 12  1  0  0  0  0
 11 36  1  0  0  0  0
 11 37  1  0  0  0  0
 12 22  1  0  0  0  0
 12 13  1  0  0  0  0
 13 14  2  0  0  0  0
 13 38  1  0  0  0  0
 14 15  1  0  0  0  0
 14 52  1  0  0  0  0
 15 22  2  0  0  0  0
 15 16  1  0  0  0  0
 16 17  2  0  0  0  0
 16 39  1  0  0  0  0
 17 18  1  0  0  0  0
 17 19  1  0  0  0  0
 18 40  1  0  0  0  0
 18 41  1  0  0  0  0
 18 42  1  0  0  0  0
 19 20  1  0  0  0  0
 19 21  2  0  0  0  0
 20 43  1  0  0  0  0
 20 44  1  0  0  0  0
 20 45  1  0  0  0  0
 21 22  1  0  0  0  0
 21 46  1  0  0  0  0
 23 24  1  0  0  0  0
 23 47  1  0  0  0  0
 23 48  1  0  0  0  0
 24 49  1  0  0  0  0
 24 50  1  0  0  0  0
M  CHG  1   7   1
M  CHG  1  14   1
M  END
> <s_m_source_file>
AV-unprocessed.smi

> <i_m_source_file_index>
1633

> <i_lp_mmshare_version>
43012

> <i_f3d_flags>
0

> <s_epik_input>
W0NIM11DKD1PKU4xW0NIMl1bQ0gyXU4oW0NIMl1bQ0gyXTEpW0NIMl1bQ0BIXShbT0hdKVtDSDJdbihbY0hdbjIpYyhjMjMpW2NIXWMoW0NIM10pYyhbY0hdMylbQ0gzXQ==

> <s_epik_cmdline>
J2VwaWtfcHl0aG9uJywgJy1waCcsICc3LjAnLCAnLXRuJywgJzgnLCAnLW1hJywgJzIwMCcsICctbWV0YWxfYmluZGluZycsICctaW1hZScsICc8aW5maWxlLm1hZT4nLCAnLW9tYWUnLCAnPG91dGZpbGUubWFlPic=

> <r_epik_Ionization_Penalty>
1.18448

> <r_epik_Ionization_Penalty_Charging>
1.18447

> <r_epik_Ionization_Penalty_Neutral>
4.53746e-06

> <r_epik_State_Penalty>
1.28566

> <r_epik_Charging_Adjusted_Penalty>
2.47013

> <i_epik_Tot_Q>
2

> <i_epik_Tot_abs_Q>
2

> <r_epik_Metal_State_Penalty>
5.30076

> <b_epik_Metal_Only>
0

> <s_lp_Force_Field>
OPLS_2005

> <r_lp_Energy>
59.1266

> <b_lp_Chiralities_Consistent>
1

> <s_lp_Variant>
AV-unprocessed.smi:1633-4

> <Gold.Version>
5.8.1

> <Gold.Id.Protein>
6NUR|6NUR_protein|mol2

> <Gold.PLP.Fitness>
53.6867

> <Gold.PLP.PLP>
-46.4942

> <Gold.PLP.part.hbond>
-1.9151

> <Gold.PLP.part.metal>
0.0000

> <Gold.PLP.part.buried>
-6.6981

> <Gold.PLP.part.nonpolar>
-37.7515

> <Gold.PLP.part.repulsive>
0.1626

> <Gold.PLP.ligand.clash>
0.0000

> <Gold.PLP.ligand.torsion>
0.8152

> <Gold.PLP.Chemscore.Hbond>
2.9175

> <Gold.PLP.Chemscore.CHOScore>
0.0000

> <Gold.PLP.Chemscore.Metal>
0.0000

> <Gold.Chemscore.Hbonds>
donor molecule, donor type, donor heavy atom, donor atom, acceptor molecule, acceptor atom, score
      L1  H     7    51       P1  8028  1.11
      L1  H    10    35       P1  7957  1.00

> <Gold.PLP.Chemscore.Internal.Correction>
0.0703

> <Gold.Rescore>
     Score         DG    S(hbond)    S(metal)    S(lipo)     H(rot)  DE(clash)    DE(int)     intcor
     16.55     -17.58       1.05        0.00     122.06       2.22       0.32       0.71       ----

> <Gold.Chemscore.Fitness>
16.5500

> <Gold.Chemscore.DG>
-17.5779

> <Gold.Chemscore.ZeroCoef>
-5.4800

> <Gold.Chemscore.Hbond>
1.0462

> <Gold.Chemscore.Metal>
0.0000

> <Gold.Chemscore.Lipo>
122.0602

> <Gold.Chemscore.Internal_Hbond>
0.0000

> <Gold.Chemscore.DEClash>
0.3161

> <Gold.Chemscore.DEInternal>
0.7118

> <Gold.Chemscore.Rot>
2.2178

> <Gold.Chemscore.Internal.Correction>
   9.000000E+99

> <Gold.Chemscore.Hbonds>
donor molecule, donor type, donor heavy atom, donor atom, acceptor molecule, acceptor atom, score
      L1  H     7    51       P1  8028  0.11
      L1  H    10    35       P1  7957  1.00

> <Gold.Chemscore.Hbond.Weighted>
-3.4944

> <Gold.Chemscore.Metal.Weighted>
-0.0000

> <Gold.Chemscore.Lipo.Weighted>
-14.2810

> <Gold.Chemscore.Internal_Hbond.Weighted>
0.0000

> <Gold.Chemscore.DEClash.Weighted>
0.3161

> <Gold.Chemscore.DEInternal.Weighted>
0.7118

> <Gold.Chemscore.Rot.Weighted>
5.6775

> <Gold.Chemscore.Internal.Correction.Weighted>
   9.000000E+99

> <Gold.Protein.RotatedTorsions>
[ 6907 6896 6895 6894 ] final -157.87 input  -60.11 | X-H torsion
[ 7974 7965 7964 7962 ] final  147.34 input  175.53 | X-H torsion
[ 8008 7997 7996 7995 ] final -155.95 input   59.86 | X-H torsion
[ 10167 10162 10161 10158 ] final -128.65 input  -65.29 | X-H torsion
[ 10718 10713 10712 10709 ] final   71.63 input   66.30 | X-H torsion
[ 10763 10752 10751 10750 ] final   67.57 input  -60.55 | X-H torsion
[ 11005 11000 10999 10996 ] final   49.62 input  -57.11 | X-H torsion

> <Gold.Protein.ActiveResidues>
 VAL166  LYS551  ARG553  GLY616  TRP617  ASP618  TYR619  PRO620  LYS621  CYS622 
 ASP623  PHE694  ASN695  SER759  ASP760  ASP761  ALA762  ILE779  LEU786  VAL792 
 PHE793  MET794  SER795  GLU796  ALA797  LYS798  CYS799  TRP800  GLU811  SER814 

> <Gold.Protein.RotatedAtoms>
  151.3095  133.4087  159.2645 H   0  0  0  0  0  0  0  0  0  0  0  0  # atno 6907 bound_to 6896
  151.0127  134.9409  159.8026 H   0  0  0  0  0  0  0  0  0  0  0  0  # atno 6908 bound_to 6896
  152.5305  134.3059  159.9148 H   0  0  0  0  0  0  0  0  0  0  0  0  # atno 6909 bound_to 6896
  144.8599  139.6017  143.5935 H   0  0  0  0  0  0  0  0  0  0  0  0  # atno 7974 bound_to 7965
  155.7097  140.0777  157.2376 H   0  0  0  0  0  0  0  0  0  0  0  0  # atno 8008 bound_to 7997
  154.4060  140.1632  156.2336 H   0  0  0  0  0  0  0  0  0  0  0  0  # atno 8009 bound_to 7997
  155.9293  140.3392  155.6239 H   0  0  0  0  0  0  0  0  0  0  0  0  # atno 8010 bound_to 7997
  139.9481  143.6087  152.2484 H   0  0  0  0  0  0  0  0  0  0  0  0  # atno 10167 bound_to 10162
  157.6461  130.9538  150.0815 H   0  0  0  0  0  0  0  0  0  0  0  0  # atno 10718 bound_to 10713
  153.0193  135.5279  154.7001 H   0  0  0  0  0  0  0  0  0  0  0  0  # atno 10763 bound_to 10752
  154.6112  135.2878  155.0432 H   0  0  0  0  0  0  0  0  0  0  0  0  # atno 10764 bound_to 10752
  154.1453  135.6571  153.5004 H   0  0  0  0  0  0  0  0  0  0  0  0  # atno 10765 bound_to 10752
  140.1087  134.4983  155.8696 H   0  0  0  0  0  0  0  0  0  0  0  0  # atno 11005 bound_to 11000
  146.2852  139.6985  142.9200 LP  0  0  0  0  0  0  0  0  0  0  0  0  # atno 17320 bound_to 7965
  145.4333  141.0417  143.2898 LP  0  0  0  0  0  0  0  0  0  0  0  0  # atno 17321 bound_to 7965
  139.6651  144.7662  151.1889 LP  0  0  0  0  0  0  0  0  0  0  0  0  # atno 17342 bound_to 10162
  140.7591  143.5951  150.8757 LP  0  0  0  0  0  0  0  0  0  0  0  0  # atno 17343 bound_to 10162
  156.1790  130.3649  149.9061 LP  0  0  0  0  0  0  0  0  0  0  0  0  # atno 17370 bound_to 10713
  156.7018  130.8936  151.3600 LP  0  0  0  0  0  0  0  0  0  0  0  0  # atno 17371 bound_to 10713
  141.2125  133.6720  156.6663 LP  0  0  0  0  0  0  0  0  0  0  0  0  # atno 17394 bound_to 11000
  140.3120  134.8078  157.4184 LP  0  0  0  0  0  0  0  0  0  0  0  0  # atno 17395 bound_to 11000

$$$$
