AV-unprocessed.smi:13|AV-procd|sdf|70|dock8
  -GOLD-   2262015193D 1   1.00000     0.00000
 Structure written by MMmdl.
 54 58  0  0  0  0  0  0  0  0  1 V2000
  147.1258  134.1411  159.0823 C   0  0  0  0  0  0  0  0  0  0  0  0
  147.2854  135.6309  158.7514 C   0  0  0  0  0  0  0  0  0  0  0  0
  145.8802  136.1791  158.5053 C   0  0  0  0  0  0  0  0  0  0  0  0
  148.1562  136.4367  159.7277 C   0  0  0  0  0  0  0  0  0  0  0  0
  149.2594  136.2331  158.8026 N   0  0  0  0  0  0  0  0  0  0  0  0
  150.1371  137.3387  158.6466 C   0  0  0  0  0  0  0  0  0  0  0  0
  151.3883  137.1908  159.1501 N   0  0  0  0  0  0  0  0  0  0  0  0
  152.2967  138.1639  159.0421 C   0  0  0  0  0  0  0  0  0  0  0  0
  152.1698  139.3618  158.4718 N   0  0  0  0  0  0  0  0  0  0  0  0
  150.9187  139.5285  157.9585 C   0  0  0  0  0  0  0  0  0  0  0  0
  149.8548  138.5819  158.0029 C   0  0  0  0  0  0  0  0  0  0  0  0
  148.7334  139.1125  157.3741 N   0  0  0  0  0  0  0  0  0  0  0  0
  149.1110  140.2989  156.9847 C   0  0  0  0  0  0  0  0  0  0  0  0
  150.4120  140.6277  157.2875 N   0  0  0  0  0  0  0  0  0  0  0  0
  151.0925  141.8730  156.9676 C   0  0  0  0  0  0  0  0  0  0  0  0
  151.0043  142.9249  158.0975 C   0  0  2  0  0  0  0  0  0  0  0  0
  149.6564  143.3426  158.2310 O   0  0  0  0  0  0  0  0  0  0  0  0
  151.8738  144.1593  157.8735 C   0  0  0  0  0  0  0  0  0  0  0  0
  152.2500  144.5696  159.2901 C   0  0  0  0  0  0  0  0  0  0  0  0
  152.4719  143.3214  159.9235 O   0  0  0  0  0  0  0  0  0  0  0  0
  151.4885  142.3994  159.4640 C   0  0  0  0  0  0  0  0  0  0  0  0
  148.3407  136.0143  157.6924 C   0  0  1  0  0  0  0  0  0  0  0  0
  148.8916  134.9939  156.6956 C   0  0  2  0  0  0  0  0  0  0  0  0
  149.9517  135.5545  155.7495 C   0  0  0  0  0  0  0  0  0  0  0  0
  149.8798  134.6172  154.5574 C   0  0  0  0  0  0  0  0  0  0  0  0
  148.4866  133.9902  154.6659 C   0  0  0  0  0  0  0  0  0  0  0  0
  147.8713  134.6124  155.7869 O   0  0  0  0  0  0  0  0  0  0  0  0
  146.4902  133.9916  159.9556 H   0  0  0  0  0  0  0  0  0  0  0  0
  148.0849  133.6722  159.3041 H   0  0  0  0  0  0  0  0  0  0  0  0
  146.6803  133.5915  158.2526 H   0  0  0  0  0  0  0  0  0  0  0  0
  145.9032  137.2443  158.2729 H   0  0  0  0  0  0  0  0  0  0  0  0
  145.2410  136.0541  159.3798 H   0  0  0  0  0  0  0  0  0  0  0  0
  145.3973  135.6765  157.6665 H   0  0  0  0  0  0  0  0  0  0  0  0
  147.8411  137.4748  159.8356 H   0  0  0  0  0  0  0  0  0  0  0  0
  148.3071  135.9576  160.6954 H   0  0  0  0  0  0  0  0  0  0  0  0
  153.2641  137.9503  159.4719 H   0  0  0  0  0  0  0  0  0  0  0  0
  148.4486  140.9691  156.4559 H   0  0  0  0  0  0  0  0  0  0  0  0
  152.1348  141.6467  156.7383 H   0  0  0  0  0  0  0  0  0  0  0  0
  150.6588  142.2725  156.0501 H   0  0  0  0  0  0  0  0  0  0  0  0
  149.3712  143.7000  157.4040 H   0  0  0  0  0  0  0  0  0  0  0  0
  152.7836  143.8875  157.3373 H   0  0  0  0  0  0  0  0  0  0  0  0
  151.3801  144.9523  157.3099 H   0  0  0  0  0  0  0  0  0  0  0  0
  153.1359  145.2038  159.3263 H   0  0  0  0  0  0  0  0  0  0  0  0
  151.4272  145.0922  159.7807 H   0  0  0  0  0  0  0  0  0  0  0  0
  150.6778  142.3371  160.1918 H   0  0  0  0  0  0  0  0  0  0  0  0
  151.9371  141.4083  159.3925 H   0  0  0  0  0  0  0  0  0  0  0  0
  148.0567  136.9500  157.2096 H   0  0  0  0  0  0  0  0  0  0  0  0
  149.2689  134.1003  157.1967 H   0  0  0  0  0  0  0  0  0  0  0  0
  149.6842  136.5659  155.4398 H   0  0  0  0  0  0  0  0  0  0  0  0
  150.9439  135.5917  156.1997 H   0  0  0  0  0  0  0  0  0  0  0  0
  150.0215  135.1520  153.6176 H   0  0  0  0  0  0  0  0  0  0  0  0
  150.6470  133.8450  154.6244 H   0  0  0  0  0  0  0  0  0  0  0  0
  147.8896  134.1467  153.7673 H   0  0  0  0  0  0  0  0  0  0  0  0
  148.5610  132.9161  154.8419 H   0  0  0  0  0  0  0  0  0  0  0  0
  1  2  1  0  0  0  0
  1 28  1  0  0  0  0
  1 29  1  0  0  0  0
  1 30  1  0  0  0  0
  2 22  1  0  0  0  0
  2  3  1  0  0  0  0
  2  4  1  0  0  0  0
  3 31  1  0  0  0  0
  3 32  1  0  0  0  0
  3 33  1  0  0  0  0
  4  5  1  0  0  0  0
  4 34  1  0  0  0  0
  4 35  1  0  0  0  0
  5  6  1  0  0  0  0
  5 22  1  0  0  0  0
  6 11  1  0  0  0  0
  6  7  2  0  0  0  0
  7  8  1  0  0  0  0
  8  9  2  0  0  0  0
  8 36  1  0  0  0  0
  9 10  1  0  0  0  0
 10 14  1  0  0  0  0
 10 11  2  0  0  0  0
 11 12  1  0  0  0  0
 12 13  2  0  0  0  0
 13 14  1  0  0  0  0
 13 37  1  0  0  0  0
 14 15  1  0  0  0  0
 15 16  1  0  0  0  0
 15 38  1  0  0  0  0
 15 39  1  0  0  0  0
 16 21  1  0  0  0  0
 16 17  1  0  0  0  0
 16 18  1  0  0  0  0
 17 40  1  0  0  0  0
 18 19  1  0  0  0  0
 18 41  1  0  0  0  0
 18 42  1  0  0  0  0
 19 20  1  0  0  0  0
 19 43  1  0  0  0  0
 19 44  1  0  0  0  0
 20 21  1  0  0  0  0
 21 45  1  0  0  0  0
 21 46  1  0  0  0  0
 22 23  1  0  0  0  0
 22 47  1  0  0  0  0
 23 27  1  0  0  0  0
 23 24  1  0  0  0  0
 23 48  1  0  0  0  0
 24 25  1  0  0  0  0
 24 49  1  0  0  0  0
 24 50  1  0  0  0  0
 25 26  1  0  0  0  0
 25 51  1  0  0  0  0
 25 52  1  0  0  0  0
 26 27  1  0  0  0  0
 26 53  1  0  0  0  0
 26 54  1  0  0  0  0
M  END
> <s_m_source_file>
AV-unprocessed.smi

> <i_m_source_file_index>
13

> <i_lp_mmshare_version>
43012

> <i_f3d_flags>
0

> <s_epik_input>
TzFbQ0gyXVtDSDJdW0NIMl1bQ0BIXTFbQ0BASF0yTihbQ0gyXUMyKFtDSDNdKVtDSDNdKWMobltjSF1uMyljKGMzNCluW2NIXW40W0NIMl1bQ0BAXTUoW09IXSlbQ0gyXVtDSDJdT1tDSDJdNQ==

> <s_epik_cmdline>
J2VwaWtfcHl0aG9uJywgJy1waCcsICc3LjAnLCAnLXRuJywgJzgnLCAnLW1hJywgJzIwMCcsICctbWV0YWxfYmluZGluZycsICctaW1hZScsICc8aW5maWxlLm1hZT4nLCAnLW9tYWUnLCAnPG91dGZpbGUubWFlPic=

> <r_lp_tautomer_probability>
1

> <r_epik_Ionization_Penalty>
0.00202764

> <r_epik_Ionization_Penalty_Charging>
0

> <r_epik_Ionization_Penalty_Neutral>
0.00202764

> <r_epik_State_Penalty>
0.00134017

> <r_epik_Charging_Adjusted_Penalty>
0.00134017

> <i_epik_Tot_Q>
0

> <i_epik_Tot_abs_Q>
0

> <r_epik_Metal_State_Penalty>
-0

> <b_epik_Metal_Only>
0

> <s_lp_Force_Field>
OPLS_2005

> <r_lp_Energy>
60.4811

> <b_lp_Chiralities_Consistent>
1

> <s_lp_Variant>
AV-unprocessed.smi:13-2

> <Gold.Version>
5.8.1

> <Gold.Id.Protein>
6NUR|6NUR_protein|mol2

> <Gold.PLP.Fitness>
44.6297

> <Gold.PLP.PLP>
-40.1191

> <Gold.PLP.part.hbond>
-2.6161

> <Gold.PLP.part.metal>
0.0000

> <Gold.PLP.part.buried>
-7.8299

> <Gold.PLP.part.nonpolar>
-30.0052

> <Gold.PLP.part.repulsive>
0.0129

> <Gold.PLP.ligand.clash>
0.0000

> <Gold.PLP.ligand.torsion>
0.9724

> <Gold.PLP.Chemscore.Hbond>
2.0000

> <Gold.PLP.Chemscore.CHOScore>
0.0000

> <Gold.PLP.Chemscore.Metal>
0.0000

> <Gold.Chemscore.Hbonds>
donor molecule, donor type, donor heavy atom, donor atom, acceptor molecule, acceptor atom, score
      L1  H    17    40       P1  8028  0.93
      P1  H  6896  6908       L1     5  0.34

> <Gold.PLP.Chemscore.Internal.Correction>
0.4555

> <Gold.Rescore>
     Score         DG    S(hbond)    S(metal)    S(lipo)     H(rot)  DE(clash)    DE(int)     intcor
     13.45     -15.30       1.41        0.00      94.11       2.30       0.80       1.05       ----

> <Gold.Chemscore.Fitness>
13.4529

> <Gold.Chemscore.DG>
-15.3047

> <Gold.Chemscore.ZeroCoef>
-5.4800

> <Gold.Chemscore.Hbond>
1.4075

> <Gold.Chemscore.Metal>
0.0000

> <Gold.Chemscore.Lipo>
94.1076

> <Gold.Chemscore.Internal_Hbond>
0.0000

> <Gold.Chemscore.DEClash>
0.7987

> <Gold.Chemscore.DEInternal>
1.0531

> <Gold.Chemscore.Rot>
2.2996

> <Gold.Chemscore.Internal.Correction>
   9.000000E+99

> <Gold.Chemscore.Hbonds>
donor molecule, donor type, donor heavy atom, donor atom, acceptor molecule, acceptor atom, score
      L1  H    17    40       P1  8028  0.44
      P1  H  6896  6908       L1     5  0.04

> <Gold.Chemscore.Hbond.Weighted>
-4.7011

> <Gold.Chemscore.Metal.Weighted>
-0.0000

> <Gold.Chemscore.Lipo.Weighted>
-11.0106

> <Gold.Chemscore.Internal_Hbond.Weighted>
0.0000

> <Gold.Chemscore.DEClash.Weighted>
0.7987

> <Gold.Chemscore.DEInternal.Weighted>
1.0531

> <Gold.Chemscore.Rot.Weighted>
5.8869

> <Gold.Chemscore.Internal.Correction.Weighted>
   9.000000E+99

> <Gold.Protein.RotatedTorsions>
[ 6907 6896 6895 6894 ] final -172.12 input  -60.11 | X-H torsion
[ 7974 7965 7964 7962 ] final -115.33 input  175.53 | X-H torsion
[ 8008 7997 7996 7995 ] final  171.68 input   59.86 | X-H torsion
[ 10167 10162 10161 10158 ] final  -46.04 input  -65.29 | X-H torsion
[ 10718 10713 10712 10709 ] final   97.95 input   66.30 | X-H torsion
[ 10763 10752 10751 10750 ] final -152.30 input  -60.55 | X-H torsion
[ 11005 11000 10999 10996 ] final    1.62 input  -57.11 | X-H torsion

> <Gold.Protein.ActiveResidues>
 VAL166  LYS551  ARG553  GLY616  TRP617  ASP618  TYR619  PRO620  LYS621  CYS622 
 ASP623  PHE694  ASN695  SER759  ASP760  ASP761  ALA762  ILE779  LEU786  VAL792 
 PHE793  MET794  SER795  GLU796  ALA797  LYS798  CYS799  TRP800  GLU811  SER814 

> <Gold.Protein.RotatedAtoms>
  151.5349  133.3442  159.2924 H   0  0  0  0  0  0  0  0  0  0  0  0  # atno 6907 bound_to 6896
  150.8571  134.7915  159.7065 H   0  0  0  0  0  0  0  0  0  0  0  0  # atno 6908 bound_to 6896
  152.4601  134.5211  159.9834 H   0  0  0  0  0  0  0  0  0  0  0  0  # atno 6909 bound_to 6896
  145.1097  140.8604  143.3877 H   0  0  0  0  0  0  0  0  0  0  0  0  # atno 7974 bound_to 7965
  156.1247  140.1505  156.9153 H   0  0  0  0  0  0  0  0  0  0  0  0  # atno 8008 bound_to 7997
  154.4862  140.0864  156.7534 H   0  0  0  0  0  0  0  0  0  0  0  0  # atno 8009 bound_to 7997
  155.4364  140.3429  155.4287 H   0  0  0  0  0  0  0  0  0  0  0  0  # atno 8010 bound_to 7997
  140.6833  143.2850  151.3726 H   0  0  0  0  0  0  0  0  0  0  0  0  # atno 10167 bound_to 10162
  157.6904  131.0625  150.4722 H   0  0  0  0  0  0  0  0  0  0  0  0  # atno 10718 bound_to 10713
  154.8003  135.3239  154.7567 H   0  0  0  0  0  0  0  0  0  0  0  0  # atno 10763 bound_to 10752
  153.8236  135.6885  153.4828 H   0  0  0  0  0  0  0  0  0  0  0  0  # atno 10764 bound_to 10752
  153.1716  135.4621  154.9852 H   0  0  0  0  0  0  0  0  0  0  0  0  # atno 10765 bound_to 10752
  140.6134  133.9727  155.8188 H   0  0  0  0  0  0  0  0  0  0  0  0  # atno 11005 bound_to 11000
  145.0861  139.2924  143.5759 LP  0  0  0  0  0  0  0  0  0  0  0  0  # atno 17320 bound_to 7965
  146.3527  140.0383  142.8645 LP  0  0  0  0  0  0  0  0  0  0  0  0  # atno 17321 bound_to 7965
  139.6172  144.0978  152.2357 LP  0  0  0  0  0  0  0  0  0  0  0  0  # atno 17342 bound_to 10162
  140.0411  144.6006  150.7410 LP  0  0  0  0  0  0  0  0  0  0  0  0  # atno 17343 bound_to 10162
  156.5059  130.4128  149.6327 LP  0  0  0  0  0  0  0  0  0  0  0  0  # atno 17370 bound_to 10713
  156.3285  130.7319  151.2244 LP  0  0  0  0  0  0  0  0  0  0  0  0  # atno 17371 bound_to 10713
  141.0792  134.0088  157.3411 LP  0  0  0  0  0  0  0  0  0  0  0  0  # atno 17394 bound_to 11000
  139.9183  135.0198  156.7966 LP  0  0  0  0  0  0  0  0  0  0  0  0  # atno 17395 bound_to 11000

$$$$
