AV-unprocessed.smi:2134|AV-procd|sdf|8695|dock8
  -GOLD-   2272011453D 1   1.00000     0.00000
 Structure written by MMmdl.
 36 37  0  0  0  0  0  0  0  0  2 V2000
  151.2511  138.0688  154.2616 C   0  0  0  0  0  0  0  0  0  0  0  0
  150.0152  138.8241  154.4567 N   0  0  0  0  0  0  0  0  0  0  0  0
  148.8597  138.1314  154.1588 N   0  0  0  0  0  0  0  0  0  0  0  0
  147.7092  138.7208  154.0635 C   0  0  0  0  0  0  0  0  0  0  0  0
  146.4968  137.9329  153.7172 C   0  0  0  0  0  0  0  0  0  0  0  0
  145.3728  138.3294  154.0272 O   0  0  0  0  0  0  0  0  0  0  0  0
  146.7108  136.7897  153.0387 N   0  0  0  0  0  0  0  0  0  0  0  0
  145.6764  135.8793  152.5531 C   0  0  0  0  0  0  0  0  0  0  0  0
  146.2246  134.4660  152.2754 C   0  0  0  0  0  0  0  0  0  0  0  0
  145.4811  133.7303  151.1737 C   0  0  0  0  0  0  0  0  0  0  0  0
  146.1595  132.8318  150.3199 C   0  0  0  0  0  0  0  0  0  0  0  0
  145.4472  132.1886  149.2865 C   0  0  0  0  0  0  0  0  0  0  0  0
  144.0722  132.4574  149.1304 C   0  0  0  0  0  0  0  0  0  0  0  0
  143.4563  133.3203  149.9679 N   0  3  0  0  0  0  0  0  0  0  0  0
  144.1024  133.9550  150.9704 C   0  0  0  0  0  0  0  0  0  0  0  0
  147.5906  140.2183  154.2653 C   0  0  0  0  0  0  0  0  0  0  0  0
  148.7011  140.7697  155.1813 C   0  0  0  0  0  0  0  0  0  0  0  0
  150.0526  140.0966  154.9249 C   0  0  0  0  0  0  0  0  0  0  0  0
  151.0942  140.7056  155.1681 O   0  0  0  0  0  0  0  0  0  0  0  0
  151.7938  137.9703  155.2027 H   0  0  0  0  0  0  0  0  0  0  0  0
  151.9006  138.5724  153.5443 H   0  0  0  0  0  0  0  0  0  0  0  0
  151.0615  137.0625  153.8846 H   0  0  0  0  0  0  0  0  0  0  0  0
  147.6679  136.5402  152.8331 H   0  0  0  0  0  0  0  0  0  0  0  0
  144.8935  135.8233  153.3097 H   0  0  0  0  0  0  0  0  0  0  0  0
  145.2010  136.2816  151.6570 H   0  0  0  0  0  0  0  0  0  0  0  0
  147.2817  134.5290  152.0137 H   0  0  0  0  0  0  0  0  0  0  0  0
  146.1747  133.8693  153.1869 H   0  0  0  0  0  0  0  0  0  0  0  0
  147.2157  132.6443  150.4466 H   0  0  0  0  0  0  0  0  0  0  0  0
  145.9496  131.5018  148.6212 H   0  0  0  0  0  0  0  0  0  0  0  0
  143.4515  132.0127  148.3664 H   0  0  0  0  0  0  0  0  0  0  0  0
  143.5041  134.6288  151.5665 H   0  0  0  0  0  0  0  0  0  0  0  0
  147.6272  140.7154  153.2954 H   0  0  0  0  0  0  0  0  0  0  0  0
  146.6244  140.4713  154.7041 H   0  0  0  0  0  0  0  0  0  0  0  0
  148.7907  141.8500  155.0613 H   0  0  0  0  0  0  0  0  0  0  0  0
  148.4387  140.5903  156.2246 H   0  0  0  0  0  0  0  0  0  0  0  0
  142.4612  133.5034  149.8362 H   0  0  0  0  0  0  0  0  0  0  0  0
  1  2  1  0  0  0  0
  1 20  1  0  0  0  0
  1 21  1  0  0  0  0
  1 22  1  0  0  0  0
  2 18  1  0  0  0  0
  2  3  1  0  0  0  0
  3  4  2  0  0  0  0
  4  5  1  0  0  0  0
  4 16  1  0  0  0  0
  5  6  2  0  0  0  0
  5  7  1  0  0  0  0
  7  8  1  0  0  0  0
  7 23  1  0  0  0  0
  8  9  1  0  0  0  0
  8 24  1  0  0  0  0
  8 25  1  0  0  0  0
  9 10  1  0  0  0  0
  9 26  1  0  0  0  0
  9 27  1  0  0  0  0
 10 15  1  0  0  0  0
 10 11  2  0  0  0  0
 11 12  1  0  0  0  0
 11 28  1  0  0  0  0
 12 13  2  0  0  0  0
 12 29  1  0  0  0  0
 13 14  1  0  0  0  0
 13 30  1  0  0  0  0
 14 15  2  0  0  0  0
 14 36  1  0  0  0  0
 15 31  1  0  0  0  0
 16 17  1  0  0  0  0
 16 32  1  0  0  0  0
 16 33  1  0  0  0  0
 17 18  1  0  0  0  0
 17 34  1  0  0  0  0
 17 35  1  0  0  0  0
 18 19  2  0  0  0  0
M  CHG  1  14   1
M  END
> <s_m_source_file>
AV-unprocessed.smi

> <i_m_source_file_index>
2134

> <i_lp_mmshare_version>
43012

> <i_f3d_flags>
0

> <s_epik_input>
Tz1DMVtDSDJdW0NIMl1DKD1OTjFbQ0gzXSlDKD1PKVtOSF1bQ0gyXVtDSDJdYzJbY0hdW2NIXVtjSF1uW2NIXTI=

> <s_epik_cmdline>
J2VwaWtfcHl0aG9uJywgJy1waCcsICc3LjAnLCAnLXRuJywgJzgnLCAnLW1hJywgJzIwMCcsICctbWV0YWxfYmluZGluZycsICctaW1hZScsICc8aW5maWxlLm1hZT4nLCAnLW9tYWUnLCAnPG91dGZpbGUubWFlPic=

> <r_epik_Ionization_Penalty>
2.46483

> <r_epik_Ionization_Penalty_Charging>
2.46471

> <r_epik_Ionization_Penalty_Neutral>
0.00011851

> <r_epik_State_Penalty>
2.62717

> <r_epik_Charging_Adjusted_Penalty>
5.09187

> <i_epik_Tot_Q>
1

> <i_epik_Tot_abs_Q>
1

> <r_epik_Metal_State_Penalty>
2.80118

> <b_epik_Metal_Only>
0

> <s_epik_Chemistry_Notes>
This compound has an imine and may undergo hydrolysis.

> <s_lp_Force_Field>
OPLS_2005

> <r_lp_Energy>
23.6794

> <b_lp_Chiralities_Consistent>
1

> <s_lp_Variant>
AV-unprocessed.smi:2134-2

> <Gold.Version>
5.8.1

> <Gold.Id.Protein>
6NUR|6NUR_protein|mol2

> <Gold.PLP.Fitness>
41.9591

> <Gold.PLP.PLP>
-32.6616

> <Gold.PLP.part.hbond>
-3.0000

> <Gold.PLP.part.metal>
0.0000

> <Gold.PLP.part.buried>
-4.8929

> <Gold.PLP.part.nonpolar>
-26.8545

> <Gold.PLP.part.repulsive>
1.9745

> <Gold.PLP.ligand.clash>
0.0000

> <Gold.PLP.ligand.torsion>
0.9566

> <Gold.PLP.Chemscore.Hbond>
3.7344

> <Gold.PLP.Chemscore.CHOScore>
0.0000

> <Gold.PLP.Chemscore.Metal>
0.0000

> <Gold.Chemscore.Hbonds>
donor molecule, donor type, donor heavy atom, donor atom, acceptor molecule, acceptor atom, score
      L1  H     7    23       P1  7948  1.00
      L1  H    14    36       P1 10186  2.00
      P1  H  7989  7998       L1    19  0.76

> <Gold.PLP.Chemscore.Internal.Correction>
0.0075

> <Gold.Rescore>
     Score         DG    S(hbond)    S(metal)    S(lipo)     H(rot)  DE(clash)    DE(int)     intcor
     16.60     -17.79       2.16        0.00      76.79       1.52       0.23       0.96       ----

> <Gold.Chemscore.Fitness>
16.5966

> <Gold.Chemscore.DG>
-17.7895

> <Gold.Chemscore.ZeroCoef>
-5.4800

> <Gold.Chemscore.Hbond>
2.1572

> <Gold.Chemscore.Metal>
0.0000

> <Gold.Chemscore.Lipo>
76.7917

> <Gold.Chemscore.Internal_Hbond>
0.0000

> <Gold.Chemscore.DEClash>
0.2320

> <Gold.Chemscore.DEInternal>
0.9609

> <Gold.Chemscore.Rot>
1.5157

> <Gold.Chemscore.Internal.Correction>
   9.000000E+99

> <Gold.Chemscore.Hbonds>
donor molecule, donor type, donor heavy atom, donor atom, acceptor molecule, acceptor atom, score
      L1  H     7    23       P1  7948  0.98
      L1  H    14    36       P1 10186  0.99
      P1  H  7989  7998       L1    19  0.15

> <Gold.Chemscore.Hbond.Weighted>
-7.2050

> <Gold.Chemscore.Metal.Weighted>
-0.0000

> <Gold.Chemscore.Lipo.Weighted>
-8.9846

> <Gold.Chemscore.Internal_Hbond.Weighted>
0.0000

> <Gold.Chemscore.DEClash.Weighted>
0.2320

> <Gold.Chemscore.DEInternal.Weighted>
0.9609

> <Gold.Chemscore.Rot.Weighted>
3.8801

> <Gold.Chemscore.Internal.Correction.Weighted>
   9.000000E+99

> <Gold.Protein.RotatedTorsions>
[ 6907 6896 6895 6894 ] final  134.20 input  -60.11 | X-H torsion
[ 7974 7965 7964 7962 ] final  -41.40 input  175.53 | X-H torsion
[ 8008 7997 7996 7995 ] final   59.96 input   59.86 | X-H torsion
[ 10167 10162 10161 10158 ] final   95.54 input  -65.29 | X-H torsion
[ 10718 10713 10712 10709 ] final   38.96 input   66.30 | X-H torsion
[ 10763 10752 10751 10750 ] final -131.60 input  -60.55 | X-H torsion
[ 11005 11000 10999 10996 ] final   63.83 input  -57.11 | X-H torsion

> <Gold.Protein.ActiveResidues>
 VAL166  LYS551  ARG553  GLY616  TRP617  ASP618  TYR619  PRO620  LYS621  CYS622 
 ASP623  PHE694  ASN695  SER759  ASP760  ASP761  ALA762  ILE779  LEU786  VAL792 
 PHE793  MET794  SER795  GLU796  ALA797  LYS798  CYS799  TRP800  GLU811  SER814 

> <Gold.Protein.RotatedAtoms>
  152.3138  133.5781  159.5698 H   0  0  0  0  0  0  0  0  0  0  0  0  # atno 6907 bound_to 6896
  150.7336  134.0112  159.3679 H   0  0  0  0  0  0  0  0  0  0  0  0  # atno 6908 bound_to 6896
  151.8003  135.0711  160.0450 H   0  0  0  0  0  0  0  0  0  0  0  0  # atno 6909 bound_to 6896
  146.0215  140.6844  142.9176 H   0  0  0  0  0  0  0  0  0  0  0  0  # atno 7974 bound_to 7965
  155.5745  140.3490  155.4524 H   0  0  0  0  0  0  0  0  0  0  0  0  # atno 8008 bound_to 7997
  156.0419  140.1298  157.0171 H   0  0  0  0  0  0  0  0  0  0  0  0  # atno 8009 bound_to 7997
  154.4395  140.1022  156.6235 H   0  0  0  0  0  0  0  0  0  0  0  0  # atno 8010 bound_to 7997
  139.7979  144.6826  150.9804 H   0  0  0  0  0  0  0  0  0  0  0  0  # atno 10167 bound_to 10162
  157.3650  130.7670  149.7076 H   0  0  0  0  0  0  0  0  0  0  0  0  # atno 10718 bound_to 10713
  154.8749  135.3825  154.4273 H   0  0  0  0  0  0  0  0  0  0  0  0  # atno 10763 bound_to 10752
  153.4970  135.7030  153.5857 H   0  0  0  0  0  0  0  0  0  0  0  0  # atno 10764 bound_to 10752
  153.4206  135.3902  155.2075 H   0  0  0  0  0  0  0  0  0  0  0  0  # atno 10765 bound_to 10752
  139.9999  134.6459  155.9948 H   0  0  0  0  0  0  0  0  0  0  0  0  # atno 11005 bound_to 11000
  144.6992  140.3574  143.7170 LP  0  0  0  0  0  0  0  0  0  0  0  0  # atno 17320 bound_to 7965
  145.7186  139.1703  143.2497 LP  0  0  0  0  0  0  0  0  0  0  0  0  # atno 17321 bound_to 7965
  140.7820  143.4312  151.0691 LP  0  0  0  0  0  0  0  0  0  0  0  0  # atno 17342 bound_to 10162
  139.7986  143.8116  152.3160 LP  0  0  0  0  0  0  0  0  0  0  0  0  # atno 17343 bound_to 10162
  155.9744  130.4103  150.3923 LP  0  0  0  0  0  0  0  0  0  0  0  0  # atno 17370 bound_to 10713
  157.2006  131.0437  151.2652 LP  0  0  0  0  0  0  0  0  0  0  0  0  # atno 17371 bound_to 10713
  141.1633  133.6538  156.4394 LP  0  0  0  0  0  0  0  0  0  0  0  0  # atno 17394 bound_to 11000
  140.4748  134.6720  157.5145 LP  0  0  0  0  0  0  0  0  0  0  0  0  # atno 17395 bound_to 11000

$$$$
