AV-unprocessed.smi:37|AV-procd|sdf|304|dock3
  -GOLD-   2262016113D 1   1.00000     0.00000
 Structure written by MMmdl.
 44 45  0  0  0  0  0  0  0  0  1 V2000
  146.5475  135.0413  162.4976 C   0  0  0  0  0  0  0  0  0  0  0  0
  147.4034  134.8839  161.2333 C   0  0  0  0  0  0  0  0  0  0  0  0
  147.7590  136.2291  160.6042 C   0  0  0  0  0  0  0  0  0  0  0  0
  147.2660  137.2807  161.0125 O   0  0  0  0  0  0  0  0  0  0  0  0
  148.6278  136.1087  159.5907 O   0  0  0  0  0  0  0  0  0  0  0  0
  149.2163  137.2653  159.0197 C   0  0  0  0  0  0  0  0  0  0  0  0
  150.3610  136.8767  158.0680 C   0  0  1  0  0  0  0  0  0  0  0  0
  150.1924  135.5320  157.6265 O   0  0  0  0  0  0  0  0  0  0  0  0
  150.8080  135.4168  156.3821 C   0  0  1  0  0  0  0  0  0  0  0  0
  150.4028  134.1109  155.7199 N   0  0  0  0  0  0  0  0  0  0  0  0
  149.7118  134.0836  154.5127 C   0  0  0  0  0  0  0  0  0  0  0  0
  149.3857  132.9383  153.8683 C   0  0  0  0  0  0  0  0  0  0  0  0
  148.7137  132.9991  152.7061 F   0  0  0  0  0  0  0  0  0  0  0  0
  149.7817  131.6423  154.4080 C   0  0  0  0  0  0  0  0  0  0  0  0
  149.5206  130.5504  153.9071 O   0  0  0  0  0  0  0  0  0  0  0  0
  150.5333  131.7159  155.5832 N   0  0  0  0  0  0  0  0  0  0  0  0
  150.8873  132.8907  156.2494 C   0  0  0  0  0  0  0  0  0  0  0  0
  151.6016  132.8272  157.2490 O   0  0  0  0  0  0  0  0  0  0  0  0
  150.3259  136.6895  155.6698 C   0  0  1  0  0  0  0  0  0  0  0  0
  148.3792  136.5816  155.2030 Br  0  0  0  0  0  0  0  0  0  0  0  0
  150.5363  137.7152  156.7830 C   0  0  1  0  0  0  0  0  0  0  0  0
  149.6670  138.8399  156.6921 O   0  0  0  0  0  0  0  0  0  0  0  0
  149.7959  139.7211  155.6859 C   0  0  0  0  0  0  0  0  0  0  0  0
  150.8194  139.9136  155.0269 O   0  0  0  0  0  0  0  0  0  0  0  0
  148.4942  140.4811  155.4239 C   0  0  0  0  0  0  0  0  0  0  0  0
  148.6194  141.5552  154.3331 C   0  0  0  0  0  0  0  0  0  0  0  0
  150.8612  130.8455  155.9762 H   0  0  0  0  0  0  0  0  0  0  0  0
  146.2800  134.0655  162.9028 H   0  0  0  0  0  0  0  0  0  0  0  0
  145.6214  135.5761  162.2846 H   0  0  0  0  0  0  0  0  0  0  0  0
  147.0799  135.5866  163.2779 H   0  0  0  0  0  0  0  0  0  0  0  0
  148.3252  134.3522  161.4705 H   0  0  0  0  0  0  0  0  0  0  0  0
  146.8697  134.2811  160.4983 H   0  0  0  0  0  0  0  0  0  0  0  0
  148.4622  137.8353  158.4747 H   0  0  0  0  0  0  0  0  0  0  0  0
  149.5953  137.9079  159.8152 H   0  0  0  0  0  0  0  0  0  0  0  0
  151.2959  136.9215  158.6279 H   0  0  0  0  0  0  0  0  0  0  0  0
  151.8943  135.3602  156.4816 H   0  0  0  0  0  0  0  0  0  0  0  0
  149.4199  135.0079  154.0384 H   0  0  0  0  0  0  0  0  0  0  0  0
  150.9020  136.9038  154.7696 H   0  0  0  0  0  0  0  0  0  0  0  0
  151.5744  138.0514  156.7606 H   0  0  0  0  0  0  0  0  0  0  0  0
  147.7258  139.7607  155.1428 H   0  0  0  0  0  0  0  0  0  0  0  0
  148.1677  140.9410  156.3570 H   0  0  0  0  0  0  0  0  0  0  0  0
  147.6650  142.0593  154.1806 H   0  0  0  0  0  0  0  0  0  0  0  0
  148.9187  141.1203  153.3787 H   0  0  0  0  0  0  0  0  0  0  0  0
  149.3533  142.3148  154.6046 H   0  0  0  0  0  0  0  0  0  0  0  0
  1  2  1  0  0  0  0
  1 28  1  0  0  0  0
  1 29  1  0  0  0  0
  1 30  1  0  0  0  0
  2  3  1  0  0  0  0
  2 31  1  0  0  0  0
  2 32  1  0  0  0  0
  3  4  2  0  0  0  0
  3  5  1  0  0  0  0
  5  6  1  0  0  0  0
  6  7  1  0  0  0  0
  6 33  1  0  0  0  0
  6 34  1  0  0  0  0
  7 21  1  0  0  0  0
  7  8  1  0  0  0  0
  7 35  1  0  0  0  0
  8  9  1  0  0  0  0
  9 10  1  0  0  0  0
  9 19  1  0  0  0  0
  9 36  1  0  0  0  0
 10 17  1  0  0  0  0
 10 11  1  0  0  0  0
 11 12  2  0  0  0  0
 11 37  1  0  0  0  0
 12 13  1  0  0  0  0
 12 14  1  0  0  0  0
 14 15  2  0  0  0  0
 14 16  1  0  0  0  0
 16 27  1  0  0  0  0
 16 17  1  0  0  0  0
 17 18  2  0  0  0  0
 19 20  1  0  0  0  0
 19 21  1  0  0  0  0
 19 38  1  0  0  0  0
 21 22  1  0  0  0  0
 21 39  1  0  0  0  0
 22 23  1  0  0  0  0
 23 24  2  0  0  0  0
 23 25  1  0  0  0  0
 25 26  1  0  0  0  0
 25 40  1  0  0  0  0
 25 41  1  0  0  0  0
 26 42  1  0  0  0  0
 26 43  1  0  0  0  0
 26 44  1  0  0  0  0
M  END
> <s_m_source_file>
AV-unprocessed.smi

> <i_m_source_file_index>
37

> <i_lp_mmshare_version>
43012

> <i_f3d_flags>
0

> <s_epik_input>
W0NIM11bQ0gyXUMoPU8pT1tDSDJdW0NAQEhdMU9bQ0BASF0objJbY0hdYyhGKWMoPU8pW25IXWMyPU8pW0NAQEhdKEJyKVtDQEhdMU9DKD1PKVtDSDJdW0NIM10=

> <s_epik_cmdline>
J2VwaWtfcHl0aG9uJywgJy1waCcsICc3LjAnLCAnLXRuJywgJzgnLCAnLW1hJywgJzIwMCcsICctbWV0YWxfYmluZGluZycsICctaW1hZScsICc8aW5maWxlLm1hZT4nLCAnLW9tYWUnLCAnPG91dGZpbGUubWFlPic=

> <r_lp_tautomer_probability>
0.999537

> <r_epik_Ionization_Penalty>
0.104106

> <r_epik_Ionization_Penalty_Charging>
0.104106

> <r_epik_Ionization_Penalty_Neutral>
3.94675e-16

> <r_epik_State_Penalty>
0.0940182

> <r_epik_Charging_Adjusted_Penalty>
0.198124

> <i_epik_Tot_Q>
0

> <i_epik_Tot_abs_Q>
0

> <r_epik_Metal_State_Penalty>
3.05314

> <b_epik_Metal_Only>
0

> <s_epik_Chemistry_Notes>
This compound has an ester and may undergo hydrolysis at high or low pH. This compound contains an acetal/aminal-like group ( X-CH(R)-Y where X, Y are N, S, or O) that may be acid/base labile, releasing an aldehyde.

> <s_lp_Force_Field>
OPLS_2005

> <r_lp_Energy>
30.4871

> <b_lp_Chiralities_Consistent>
1

> <s_lp_Variant>
AV-unprocessed.smi:37-2

> <Gold.Version>
5.8.1

> <Gold.Id.Protein>
6NUR|6NUR_protein|mol2

> <Gold.PLP.Fitness>
51.0880

> <Gold.PLP.PLP>
-41.1486

> <Gold.PLP.part.hbond>
-5.0000

> <Gold.PLP.part.metal>
0.0000

> <Gold.PLP.part.buried>
-6.5521

> <Gold.PLP.part.nonpolar>
-30.5685

> <Gold.PLP.part.repulsive>
0.1398

> <Gold.PLP.ligand.clash>
2.8213

> <Gold.PLP.ligand.torsion>
1.1190

> <Gold.PLP.Chemscore.Hbond>
4.1157

> <Gold.PLP.Chemscore.CHOScore>
0.7760

> <Gold.PLP.Chemscore.Metal>
0.0000

> <Gold.Chemscore.Hbonds>
donor molecule, donor type, donor heavy atom, donor atom, acceptor molecule, acceptor atom, score
      P1  H  6896  6907       L1     8  0.38
      P1  H  6896  6909       L1    18  0.57
      P1  H  6931  6943       L1     4  0.44
      P1  H  6934  6947       L1     4  1.00
      P1  H  7989  7998       L1    24  1.00
      L1  C    11    37       P1  7948  0.93

> <Gold.PLP.Chemscore.Internal.Correction>
0.3237

> <Gold.Rescore>
     Score         DG    S(hbond)    S(metal)    S(lipo)     H(rot)  DE(clash)    DE(int)     intcor
     12.47     -15.52       3.63        0.00      54.96       3.33       0.00       3.05       ----

> <Gold.Chemscore.Fitness>
12.4678

> <Gold.Chemscore.DG>
-15.5169

> <Gold.Chemscore.ZeroCoef>
-5.4800

> <Gold.Chemscore.Hbond>
3.6325

> <Gold.Chemscore.Metal>
0.0000

> <Gold.Chemscore.Lipo>
54.9551

> <Gold.Chemscore.Internal_Hbond>
0.0000

> <Gold.Chemscore.DEClash>
0.0038

> <Gold.Chemscore.DEInternal>
3.0452

> <Gold.Chemscore.Rot>
3.3303

> <Gold.Chemscore.Internal.Correction>
   9.000000E+99

> <Gold.Chemscore.Hbonds>
donor molecule, donor type, donor heavy atom, donor atom, acceptor molecule, acceptor atom, score
      P1  H  6896  6907       L1     8  0.07
      P1  H  6896  6909       L1    18  0.57
      P1  H  6931  6943       L1     4  0.14
      P1  H  6934  6947       L1     4  0.99
      P1  H  7989  7998       L1    24  0.98

> <Gold.Chemscore.Hbond.Weighted>
-12.1327

> <Gold.Chemscore.Metal.Weighted>
-0.0000

> <Gold.Chemscore.Lipo.Weighted>
-6.4297

> <Gold.Chemscore.Internal_Hbond.Weighted>
0.0000

> <Gold.Chemscore.DEClash.Weighted>
0.0038

> <Gold.Chemscore.DEInternal.Weighted>
3.0452

> <Gold.Chemscore.Rot.Weighted>
8.5256

> <Gold.Chemscore.Internal.Correction.Weighted>
   9.000000E+99

> <Gold.Protein.RotatedTorsions>
[ 6907 6896 6895 6894 ] final  -70.24 input  -60.11 | X-H torsion
[ 7974 7965 7964 7962 ] final -103.16 input  175.53 | X-H torsion
[ 8008 7997 7996 7995 ] final  -19.97 input   59.86 | X-H torsion
[ 10167 10162 10161 10158 ] final   29.92 input  -65.29 | X-H torsion
[ 10718 10713 10712 10709 ] final   71.84 input   66.30 | X-H torsion
[ 10763 10752 10751 10750 ] final   10.77 input  -60.55 | X-H torsion
[ 11005 11000 10999 10996 ] final    6.65 input  -57.11 | X-H torsion

> <Gold.Protein.ActiveResidues>
 VAL166  LYS551  ARG553  GLY616  TRP617  ASP618  TYR619  PRO620  LYS621  CYS622 
 ASP623  PHE694  ASN695  SER759  ASP760  ASP761  ALA762  ILE779  LEU786  VAL792 
 PHE793  MET794  SER795  GLU796  ALA797  LYS798  CYS799  TRP800  GLU811  SER814 

> <Gold.Protein.RotatedAtoms>
  150.7267  134.5481  159.5780 H   0  0  0  0  0  0  0  0  0  0  0  0  # atno 6907 bound_to 6896
  152.2975  134.7647  160.0374 H   0  0  0  0  0  0  0  0  0  0  0  0  # atno 6908 bound_to 6896
  151.8238  133.3363  159.3629 H   0  0  0  0  0  0  0  0  0  0  0  0  # atno 6909 bound_to 6896
  145.2595  140.9264  143.3049 H   0  0  0  0  0  0  0  0  0  0  0  0  # atno 7974 bound_to 7965
  154.4801  140.2074  155.9784 H   0  0  0  0  0  0  0  0  0  0  0  0  # atno 8008 bound_to 7997
  156.1151  140.3222  155.8098 H   0  0  0  0  0  0  0  0  0  0  0  0  # atno 8009 bound_to 7997
  155.4566  140.0521  157.2986 H   0  0  0  0  0  0  0  0  0  0  0  0  # atno 8010 bound_to 7997
  140.4723  144.0743  150.6241 H   0  0  0  0  0  0  0  0  0  0  0  0  # atno 10167 bound_to 10162
  157.6472  130.9549  150.0845 H   0  0  0  0  0  0  0  0  0  0  0  0  # atno 10718 bound_to 10713
  153.1996  135.6854  153.8248 H   0  0  0  0  0  0  0  0  0  0  0  0  # atno 10763 bound_to 10752
  153.7518  135.3222  155.3323 H   0  0  0  0  0  0  0  0  0  0  0  0  # atno 10764 bound_to 10752
  154.8164  135.4683  154.0756 H   0  0  0  0  0  0  0  0  0  0  0  0  # atno 10765 bound_to 10752
  140.5570  134.0228  155.7957 H   0  0  0  0  0  0  0  0  0  0  0  0  # atno 11005 bound_to 11000
  144.9431  139.4166  143.6439 LP  0  0  0  0  0  0  0  0  0  0  0  0  # atno 17320 bound_to 7965
  146.3279  139.8401  142.8892 LP  0  0  0  0  0  0  0  0  0  0  0  0  # atno 17321 bound_to 7965
  140.3961  143.2727  152.0003 LP  0  0  0  0  0  0  0  0  0  0  0  0  # atno 17342 bound_to 10162
  139.4820  144.6036  151.7561 LP  0  0  0  0  0  0  0  0  0  0  0  0  # atno 17343 bound_to 10162
  156.1812  130.3650  149.9033 LP  0  0  0  0  0  0  0  0  0  0  0  0  # atno 17370 bound_to 10713
  156.6985  130.8923  151.3596 LP  0  0  0  0  0  0  0  0  0  0  0  0  # atno 17371 bound_to 10713
  141.1137  133.9575  157.2862 LP  0  0  0  0  0  0  0  0  0  0  0  0  # atno 17394 bound_to 11000
  139.9426  135.0189  156.8756 LP  0  0  0  0  0  0  0  0  0  0  0  0  # atno 17395 bound_to 11000

$$$$
