AV-unprocessed.smi:1848|AV-procd|sdf|7519|dock3
  -GOLD-   22720 9223D 1   1.00000     0.00000
 Structure written by MMmdl.
 31 31  0  0  0  0  0  0  0  0  1 V2000
  152.2480  143.8590  161.9845 C   0  0  0  0  0  0  0  0  0  0  0  0
  152.5389  142.9251  161.2535 C   0  0  0  0  0  0  0  0  0  0  0  0
  152.8913  141.8096  160.3586 C   0  0  0  0  0  0  0  0  0  0  0  0
  152.5404  142.0707  158.9672 N   0  0  0  0  0  0  0  0  0  0  0  0
  151.3241  141.8970  158.4266 C   0  0  0  0  0  0  0  0  0  0  0  0
  150.3569  141.4766  159.0633 O   0  0  0  0  0  0  0  0  0  0  0  0
  151.1992  142.2305  156.9330 C   0  0  0  0  0  0  0  0  0  0  0  0
  150.7792  141.0812  156.1132 N   0  0  0  0  0  0  0  0  0  0  0  0
  149.5994  141.2308  155.3570 C   0  0  0  0  0  0  0  0  0  0  0  0
  149.1217  140.2457  154.5645 C   0  0  0  0  0  0  0  0  0  0  0  0
  147.9034  140.3718  153.7590 C   0  0  0  0  0  0  0  0  0  0  0  0
  147.0710  141.2687  153.9004 O   0  0  0  0  0  0  0  0  0  0  0  0
  147.7528  139.4125  152.8294 N   0  0  0  0  0  0  0  0  0  0  0  0
  146.6265  139.3216  151.9127 C   0  0  0  0  0  0  0  0  0  0  0  0
  149.8740  139.0066  154.5190 C   0  0  0  0  0  0  0  0  0  0  0  0
  151.0058  138.8596  155.2350 C   0  0  0  0  0  0  0  0  0  0  0  0
  151.5229  139.9337  156.0871 C   0  0  0  0  0  0  0  0  0  0  0  0
  152.5608  139.8095  156.7377 O   0  0  0  0  0  0  0  0  0  0  0  0
  151.9974  144.6771  162.6217 H   0  0  0  0  0  0  0  0  0  0  0  0
  153.9561  141.5971  160.4664 H   0  0  0  0  0  0  0  0  0  0  0  0
  152.3526  140.9246  160.6976 H   0  0  0  0  0  0  0  0  0  0  0  0
  153.2792  142.4126  158.3698 H   0  0  0  0  0  0  0  0  0  0  0  0
  150.5020  143.0608  156.8044 H   0  0  0  0  0  0  0  0  0  0  0  0
  152.1610  142.6138  156.5895 H   0  0  0  0  0  0  0  0  0  0  0  0
  149.1330  142.1992  155.4681 H   0  0  0  0  0  0  0  0  0  0  0  0
  148.4645  138.6998  152.7582 H   0  0  0  0  0  0  0  0  0  0  0  0
  146.7425  138.4514  151.2668 H   0  0  0  0  0  0  0  0  0  0  0  0
  146.5663  140.2094  151.2820 H   0  0  0  0  0  0  0  0  0  0  0  0
  145.6884  139.2173  152.4594 H   0  0  0  0  0  0  0  0  0  0  0  0
  149.5358  138.1835  153.9058 H   0  0  0  0  0  0  0  0  0  0  0  0
  151.5475  137.9267  155.1806 H   0  0  0  0  0  0  0  0  0  0  0  0
  1  2  3  0  0  0  0
  1 19  1  0  0  0  0
  2  3  1  0  0  0  0
  3  4  1  0  0  0  0
  3 20  1  0  0  0  0
  3 21  1  0  0  0  0
  4  5  1  0  0  0  0
  4 22  1  0  0  0  0
  5  6  2  0  0  0  0
  5  7  1  0  0  0  0
  7  8  1  0  0  0  0
  7 23  1  0  0  0  0
  7 24  1  0  0  0  0
  8 17  1  0  0  0  0
  8  9  1  0  0  0  0
  9 10  2  0  0  0  0
  9 25  1  0  0  0  0
 10 11  1  0  0  0  0
 10 15  1  0  0  0  0
 11 12  2  0  0  0  0
 11 13  1  0  0  0  0
 13 14  1  0  0  0  0
 13 26  1  0  0  0  0
 14 27  1  0  0  0  0
 14 28  1  0  0  0  0
 14 29  1  0  0  0  0
 15 16  2  0  0  0  0
 15 30  1  0  0  0  0
 16 17  1  0  0  0  0
 16 31  1  0  0  0  0
 17 18  2  0  0  0  0
M  END
> <s_m_source_file>
AV-unprocessed.smi

> <i_m_source_file_index>
1848

> <i_lp_mmshare_version>
43012

> <i_f3d_flags>
0

> <s_epik_input>
W0NIXSNDW0NIMl1bTkhdQyg9TylbQ0gyXW4xW2NIXWMoQyg9TylbTkhdW0NIM10pW2NIXVtjSF1jMT1P

> <s_epik_cmdline>
J2VwaWtfcHl0aG9uJywgJy1waCcsICc3LjAnLCAnLXRuJywgJzgnLCAnLW1hJywgJzIwMCcsICctbWV0YWxfYmluZGluZycsICctaW1hZScsICc8aW5maWxlLm1hZT4nLCAnLW9tYWUnLCAnPG91dGZpbGUubWFlPic=

> <r_lp_tautomer_probability>
1

> <r_epik_Ionization_Penalty>
5.04952e-07

> <r_epik_Ionization_Penalty_Charging>
3.86163e-08

> <r_epik_Ionization_Penalty_Neutral>
4.66336e-07

> <r_epik_State_Penalty>
-0

> <r_epik_Charging_Adjusted_Penalty>
3.86163e-08

> <i_epik_Tot_Q>
0

> <i_epik_Tot_abs_Q>
0

> <r_epik_Metal_State_Penalty>
-0

> <b_epik_Metal_Only>
0

> <s_lp_Force_Field>
OPLS_2005

> <r_lp_Energy>
14.316

> <b_lp_Chiralities_Consistent>
1

> <s_lp_Variant>
AV-unprocessed.smi:1848-1

> <Gold.Version>
5.8.1

> <Gold.Id.Protein>
6NUR|6NUR_protein|mol2

> <Gold.PLP.Fitness>
46.1344

> <Gold.PLP.PLP>
-40.8902

> <Gold.PLP.part.hbond>
-2.3097

> <Gold.PLP.part.metal>
0.0000

> <Gold.PLP.part.buried>
-0.8092

> <Gold.PLP.part.nonpolar>
-36.2723

> <Gold.PLP.part.repulsive>
0.3290

> <Gold.PLP.ligand.clash>
0.2871

> <Gold.PLP.ligand.torsion>
0.2471

> <Gold.PLP.Chemscore.Hbond>
1.0000

> <Gold.PLP.Chemscore.CHOScore>
1.0000

> <Gold.PLP.Chemscore.Metal>
0.0000

> <Gold.Chemscore.Hbonds>
donor molecule, donor type, donor heavy atom, donor atom, acceptor molecule, acceptor atom, score
      P1  H  7997  8010       L1    18  1.00
      L1  C     9    25       P1  8028  0.99

> <Gold.PLP.Chemscore.Internal.Correction>
0.0255

> <Gold.Rescore>
     Score         DG    S(hbond)    S(metal)    S(lipo)     H(rot)  DE(clash)    DE(int)     intcor
     14.63     -15.97       1.81        0.00      73.62       1.62       1.15       0.20       ----

> <Gold.Chemscore.Fitness>
14.6281

> <Gold.Chemscore.DG>
-15.9742

> <Gold.Chemscore.ZeroCoef>
-5.4800

> <Gold.Chemscore.Hbond>
1.8073

> <Gold.Chemscore.Metal>
0.0000

> <Gold.Chemscore.Lipo>
73.6194

> <Gold.Chemscore.Internal_Hbond>
0.0000

> <Gold.Chemscore.DEClash>
1.1498

> <Gold.Chemscore.DEInternal>
0.1963

> <Gold.Chemscore.Rot>
1.6233

> <Gold.Chemscore.Internal.Correction>
   9.000000E+99

> <Gold.Chemscore.Hbonds>
donor molecule, donor type, donor heavy atom, donor atom, acceptor molecule, acceptor atom, score
      P1  H  7997  8010       L1    18  0.97

> <Gold.Chemscore.Hbond.Weighted>
-6.0364

> <Gold.Chemscore.Metal.Weighted>
-0.0000

> <Gold.Chemscore.Lipo.Weighted>
-8.6135

> <Gold.Chemscore.Internal_Hbond.Weighted>
0.0000

> <Gold.Chemscore.DEClash.Weighted>
1.1498

> <Gold.Chemscore.DEInternal.Weighted>
0.1963

> <Gold.Chemscore.Rot.Weighted>
4.1557

> <Gold.Chemscore.Internal.Correction.Weighted>
   9.000000E+99

> <Gold.Protein.RotatedTorsions>
[ 6907 6896 6895 6894 ] final  112.02 input  -60.11 | X-H torsion
[ 7974 7965 7964 7962 ] final  -96.75 input  175.53 | X-H torsion
[ 8008 7997 7996 7995 ] final   83.32 input   59.86 | X-H torsion
[ 10167 10162 10161 10158 ] final  -44.26 input  -65.29 | X-H torsion
[ 10718 10713 10712 10709 ] final   19.99 input   66.30 | X-H torsion
[ 10763 10752 10751 10750 ] final  -27.86 input  -60.55 | X-H torsion
[ 11005 11000 10999 10996 ] final  -92.16 input  -57.11 | X-H torsion

> <Gold.Protein.ActiveResidues>
 VAL166  LYS551  ARG553  GLY616  TRP617  ASP618  TYR619  PRO620  LYS621  CYS622 
 ASP623  PHE694  ASN695  SER759  ASP760  ASP761  ALA762  ILE779  LEU786  VAL792 
 PHE793  MET794  SER795  GLU796  ALA797  LYS798  CYS799  TRP800  GLU811  SER814 

> <Gold.Protein.RotatedAtoms>
  152.4938  133.8575  159.7232 H   0  0  0  0  0  0  0  0  0  0  0  0  # atno 6907 bound_to 6896
  150.9095  133.7006  159.2865 H   0  0  0  0  0  0  0  0  0  0  0  0  # atno 6908 bound_to 6896
  151.4420  135.1025  159.9725 H   0  0  0  0  0  0  0  0  0  0  0  0  # atno 6909 bound_to 6896
  145.3428  140.9463  143.2598 H   0  0  0  0  0  0  0  0  0  0  0  0  # atno 7974 bound_to 7965
  155.9223  140.3420  155.6183 H   0  0  0  0  0  0  0  0  0  0  0  0  # atno 8008 bound_to 7997
  155.7258  140.0789  157.2329 H   0  0  0  0  0  0  0  0  0  0  0  0  # atno 8009 bound_to 7997
  154.4071  140.1597  156.2440 H   0  0  0  0  0  0  0  0  0  0  0  0  # atno 8010 bound_to 7997
  140.6903  143.2939  151.3469 H   0  0  0  0  0  0  0  0  0  0  0  0  # atno 10167 bound_to 10162
  157.1182  130.6538  149.5916 H   0  0  0  0  0  0  0  0  0  0  0  0  # atno 10718 bound_to 10713
  153.7390  135.6934  153.4971 H   0  0  0  0  0  0  0  0  0  0  0  0  # atno 10763 bound_to 10752
  153.2083  135.4412  155.0348 H   0  0  0  0  0  0  0  0  0  0  0  0  # atno 10764 bound_to 10752
  154.8227  135.3430  154.6916 H   0  0  0  0  0  0  0  0  0  0  0  0  # atno 10765 bound_to 10752
  141.1528  133.7803  156.9981 H   0  0  0  0  0  0  0  0  0  0  0  0  # atno 11005 bound_to 11000
  144.8777  139.4947  143.6737 LP  0  0  0  0  0  0  0  0  0  0  0  0  # atno 17320 bound_to 7965
  146.3000  139.7398  142.9098 LP  0  0  0  0  0  0  0  0  0  0  0  0  # atno 17321 bound_to 7965
  139.6300  144.0739  152.2468 LP  0  0  0  0  0  0  0  0  0  0  0  0  # atno 17342 bound_to 10162
  140.0210  144.6153  150.7566 LP  0  0  0  0  0  0  0  0  0  0  0  0  # atno 17343 bound_to 10162
  155.9834  130.4854  150.6933 LP  0  0  0  0  0  0  0  0  0  0  0  0  # atno 17370 bound_to 10713
  157.4500  131.0871  151.0856 LP  0  0  0  0  0  0  0  0  0  0  0  0  # atno 17371 bound_to 10713
  140.0958  134.9565  157.1847 LP  0  0  0  0  0  0  0  0  0  0  0  0  # atno 17394 bound_to 11000
  140.3384  134.2731  155.7216 LP  0  0  0  0  0  0  0  0  0  0  0  0  # atno 17395 bound_to 11000

$$$$
