AV-unprocessed.smi:1995|AV-procd|sdf|8083|dock9
  -GOLD-   2272010303D 1   1.00000     0.00000
 Structure written by MMmdl.
 42 43  0  0  0  0  0  0  0  0  3 V2000
  147.0301  134.6636  153.5948 C   0  0  0  0  0  0  0  0  0  0  0  0
  147.5524  135.1547  154.9563 C   0  0  0  0  0  0  0  0  0  0  0  0
  149.0994  135.2885  155.0962 C   0  0  2  0  0  0  0  0  0  0  0  0
  149.7883  134.1604  154.2819 C   0  0  0  0  0  0  0  0  0  0  0  0
  149.5276  135.1012  156.5833 C   0  0  0  0  0  0  0  0  0  0  0  0
  148.4997  135.5637  157.5180 N   0  0  0  0  0  0  0  0  0  0  0  0
  148.6978  136.0617  158.7467 C   0  0  0  0  0  0  0  0  0  0  0  0
  149.8419  136.2757  159.1517 O   0  0  0  0  0  0  0  0  0  0  0  0
  147.5557  136.2516  159.4424 N   0  5  0  0  0  0  0  0  0  0  0  0
  147.5057  135.9293  160.7450 C   0  0  0  0  0  0  0  0  0  0  0  0
  147.6811  136.8250  161.7237 N   0  0  0  0  0  0  0  0  0  0  0  0
  147.5893  136.2735  163.0030 C   0  0  0  0  0  0  0  0  0  0  0  0
  147.3448  134.9259  162.9975 C   0  0  0  0  0  0  0  0  0  0  0  0
  147.2217  134.3053  161.3760 S   0  0  0  0  0  0  0  0  0  0  0  0
  149.5652  136.6446  154.6228 N   0  3  0  0  0  0  0  0  0  0  0  0
  148.7386  137.8232  155.0041 C   0  0  0  0  0  0  0  0  0  0  0  0
  149.2286  139.0770  154.2557 C   0  0  0  0  0  0  0  0  0  0  0  0
  150.6082  139.3011  154.5150 O   0  0  0  0  0  0  0  0  0  0  0  0
  151.4102  138.2087  154.0862 C   0  0  0  0  0  0  0  0  0  0  0  0
  151.0004  136.9544  154.8710 C   0  0  0  0  0  0  0  0  0  0  0  0
  145.9440  134.5731  153.6169 H   0  0  0  0  0  0  0  0  0  0  0  0
  147.4285  133.6834  153.3352 H   0  0  0  0  0  0  0  0  0  0  0  0
  147.2753  135.3554  152.7893 H   0  0  0  0  0  0  0  0  0  0  0  0
  147.0840  136.1166  155.1677 H   0  0  0  0  0  0  0  0  0  0  0  0
  147.1692  134.4645  155.7078 H   0  0  0  0  0  0  0  0  0  0  0  0
  149.6363  133.1824  154.7391 H   0  0  0  0  0  0  0  0  0  0  0  0
  150.8672  134.3076  154.2178 H   0  0  0  0  0  0  0  0  0  0  0  0
  149.3983  134.0928  153.2658 H   0  0  0  0  0  0  0  0  0  0  0  0
  149.8038  134.0670  156.7900 H   0  0  0  0  0  0  0  0  0  0  0  0
  150.4269  135.6791  156.7958 H   0  0  0  0  0  0  0  0  0  0  0  0
  147.5406  135.4325  157.2309 H   0  0  0  0  0  0  0  0  0  0  0  0
  147.7132  136.9149  163.8627 H   0  0  0  0  0  0  0  0  0  0  0  0
  147.2316  134.2634  163.8424 H   0  0  0  0  0  0  0  0  0  0  0  0
  147.6903  137.6888  154.7450 H   0  0  0  0  0  0  0  0  0  0  0  0
  148.7887  137.9805  156.0822 H   0  0  0  0  0  0  0  0  0  0  0  0
  149.0647  138.9737  153.1815 H   0  0  0  0  0  0  0  0  0  0  0  0
  148.6636  139.9514  154.5793 H   0  0  0  0  0  0  0  0  0  0  0  0
  151.3042  138.0536  153.0110 H   0  0  0  0  0  0  0  0  0  0  0  0
  152.4575  138.4450  154.2741 H   0  0  0  0  0  0  0  0  0  0  0  0
  151.1704  137.1304  155.9338 H   0  0  0  0  0  0  0  0  0  0  0  0
  151.6437  136.1256  154.5827 H   0  0  0  0  0  0  0  0  0  0  0  0
  149.4773  136.5885  153.6170 H   0  0  0  0  0  0  0  0  0  0  0  0
  1  2  1  0  0  0  0
  1 21  1  0  0  0  0
  1 22  1  0  0  0  0
  1 23  1  0  0  0  0
  2  3  1  0  0  0  0
  2 24  1  0  0  0  0
  2 25  1  0  0  0  0
  3  4  1  0  0  0  0
  3  5  1  0  0  0  0
  3 15  1  0  0  0  0
  4 26  1  0  0  0  0
  4 27  1  0  0  0  0
  4 28  1  0  0  0  0
  5  6  1  0  0  0  0
  5 29  1  0  0  0  0
  5 30  1  0  0  0  0
  6  7  1  0  0  0  0
  6 31  1  0  0  0  0
  7  8  2  0  0  0  0
  7  9  1  0  0  0  0
  9 10  1  0  0  0  0
 10 14  1  0  0  0  0
 10 11  2  0  0  0  0
 11 12  1  0  0  0  0
 12 13  2  0  0  0  0
 12 32  1  0  0  0  0
 13 14  1  0  0  0  0
 13 33  1  0  0  0  0
 15 20  1  0  0  0  0
 15 16  1  0  0  0  0
 15 42  1  0  0  0  0
 16 17  1  0  0  0  0
 16 34  1  0  0  0  0
 16 35  1  0  0  0  0
 17 18  1  0  0  0  0
 17 36  1  0  0  0  0
 17 37  1  0  0  0  0
 18 19  1  0  0  0  0
 19 20  1  0  0  0  0
 19 38  1  0  0  0  0
 19 39  1  0  0  0  0
 20 40  1  0  0  0  0
 20 41  1  0  0  0  0
M  CHG  1   9  -1
M  CHG  1  15   1
M  END
> <s_m_source_file>
AV-unprocessed.smi

> <i_m_source_file_index>
1995

> <i_lp_mmshare_version>
43012

> <i_f3d_flags>
0

> <s_epik_input>
W0NIMl0xW0NIMl1PW0NIMl1bQ0gyXU4xW0NAQF0oW0NIM10pKFtDSDJdW0NIM10pW0NIMl1bTkhdQyg9TylbTkhdYzJuW2NIXVtjSF1zMg==

> <s_epik_cmdline>
J2VwaWtfcHl0aG9uJywgJy1waCcsICc3LjAnLCAnLXRuJywgJzgnLCAnLW1hJywgJzIwMCcsICctbWV0YWxfYmluZGluZycsICctaW1hZScsICc8aW5maWxlLm1hZT4nLCAnLW9tYWUnLCAnPG91dGZpbGUubWFlPic=

> <r_lp_tautomer_probability>
0.999

> <r_epik_Ionization_Penalty>
8.09417

> <r_epik_Ionization_Penalty_Charging>
6.70334

> <r_epik_Ionization_Penalty_Neutral>
1.39083

> <r_epik_State_Penalty>
6.86521

> <r_epik_Charging_Adjusted_Penalty>
13.5685

> <i_epik_Tot_Q>
0

> <i_epik_Tot_abs_Q>
2

> <r_epik_Metal_State_Penalty>
2.79608

> <b_epik_Metal_Only>
1

> <s_lp_Force_Field>
OPLS_2005

> <r_lp_Energy>
20.9753

> <b_lp_Chiralities_Consistent>
1

> <s_lp_Variant>
AV-unprocessed.smi:1995-8

> <Gold.Version>
5.8.1

> <Gold.Id.Protein>
6NUR|6NUR_protein|mol2

> <Gold.PLP.Fitness>
45.1555

> <Gold.PLP.PLP>
-33.3007

> <Gold.PLP.part.hbond>
-5.0000

> <Gold.PLP.part.metal>
0.0000

> <Gold.PLP.part.buried>
-2.1477

> <Gold.PLP.part.nonpolar>
-24.7642

> <Gold.PLP.part.repulsive>
0.2002

> <Gold.PLP.ligand.clash>
0.0000

> <Gold.PLP.ligand.torsion>
2.5601

> <Gold.PLP.Chemscore.Hbond>
5.6006

> <Gold.PLP.Chemscore.CHOScore>
0.0000

> <Gold.PLP.Chemscore.Metal>
0.0000

> <Gold.Chemscore.Hbonds>
donor molecule, donor type, donor heavy atom, donor atom, acceptor molecule, acceptor atom, score
      L1  H    15    42       P1  7948  2.00
      P1  H  6896  6909       L1     8  1.00
      P1  H  6931  6943       L1    11  1.00
      P1  H  6934  6947       L1    11  0.09
      P1  H  7989  7998       L1    18  0.69

> <Gold.PLP.Chemscore.Internal.Correction>
0.1732

> <Gold.Rescore>
     Score         DG    S(hbond)    S(metal)    S(lipo)     H(rot)  DE(clash)    DE(int)     intcor
     17.31     -20.04       3.30        0.00      68.60       1.75       0.21       2.53       ----

> <Gold.Chemscore.Fitness>
17.3133

> <Gold.Chemscore.DG>
-20.0448

> <Gold.Chemscore.ZeroCoef>
-5.4800

> <Gold.Chemscore.Hbond>
3.3006

> <Gold.Chemscore.Metal>
0.0000

> <Gold.Chemscore.Lipo>
68.6032

> <Gold.Chemscore.Internal_Hbond>
0.0000

> <Gold.Chemscore.DEClash>
0.2055

> <Gold.Chemscore.DEInternal>
2.5260

> <Gold.Chemscore.Rot>
1.7523

> <Gold.Chemscore.Internal.Correction>
   9.000000E+99

> <Gold.Chemscore.Hbonds>
donor molecule, donor type, donor heavy atom, donor atom, acceptor molecule, acceptor atom, score
      L1  H    15    42       P1  7948  0.82
      P1  H  6896  6909       L1     8  0.90
      P1  H  6931  6943       L1    11  0.44
      P1  H  6934  6947       L1    11  0.09
      P1  H  7989  7998       L1    18  0.13

> <Gold.Chemscore.Hbond.Weighted>
-11.0241

> <Gold.Chemscore.Metal.Weighted>
-0.0000

> <Gold.Chemscore.Lipo.Weighted>
-8.0266

> <Gold.Chemscore.Internal_Hbond.Weighted>
0.0000

> <Gold.Chemscore.DEClash.Weighted>
0.2055

> <Gold.Chemscore.DEInternal.Weighted>
2.5260

> <Gold.Chemscore.Rot.Weighted>
4.4858

> <Gold.Chemscore.Internal.Correction.Weighted>
   9.000000E+99

> <Gold.Protein.RotatedTorsions>
[ 6907 6896 6895 6894 ] final   62.60 input  -60.11 | X-H torsion
[ 7974 7965 7964 7962 ] final  -80.90 input  175.53 | X-H torsion
[ 8008 7997 7996 7995 ] final  121.92 input   59.86 | X-H torsion
[ 10167 10162 10161 10158 ] final  -22.85 input  -65.29 | X-H torsion
[ 10718 10713 10712 10709 ] final  -82.38 input   66.30 | X-H torsion
[ 10763 10752 10751 10750 ] final   -6.74 input  -60.55 | X-H torsion
[ 11005 11000 10999 10996 ] final   90.67 input  -57.11 | X-H torsion

> <Gold.Protein.ActiveResidues>
 VAL166  LYS551  ARG553  GLY616  TRP617  ASP618  TYR619  PRO620  LYS621  CYS622 
 ASP623  PHE694  ASN695  SER759  ASP760  ASP761  ALA762  ILE779  LEU786  VAL792 
 PHE793  MET794  SER795  GLU796  ALA797  LYS798  CYS799  TRP800  GLU811  SER814 

> <Gold.Protein.RotatedAtoms>
  152.4185  134.5997  159.9996 H   0  0  0  0  0  0  0  0  0  0  0  0  # atno 6907 bound_to 6896
  151.6154  133.3338  159.3084 H   0  0  0  0  0  0  0  0  0  0  0  0  # atno 6908 bound_to 6896
  150.8074  134.7246  159.6722 H   0  0  0  0  0  0  0  0  0  0  0  0  # atno 6909 bound_to 6896
  145.5538  140.9492  143.1484 H   0  0  0  0  0  0  0  0  0  0  0  0  # atno 7974 bound_to 7965
  156.2707  140.2797  156.1386 H   0  0  0  0  0  0  0  0  0  0  0  0  # atno 8008 bound_to 7997
  155.0978  140.0389  157.2705 H   0  0  0  0  0  0  0  0  0  0  0  0  # atno 8009 bound_to 7997
  154.6839  140.2614  155.6886 H   0  0  0  0  0  0  0  0  0  0  0  0  # atno 8010 bound_to 7997
  140.7287  143.4497  151.0535 H   0  0  0  0  0  0  0  0  0  0  0  0  # atno 10167 bound_to 10162
  156.0034  130.4632  150.4097 H   0  0  0  0  0  0  0  0  0  0  0  0  # atno 10718 bound_to 10713
  153.4166  135.7009  153.6322 H   0  0  0  0  0  0  0  0  0  0  0  0  # atno 10763 bound_to 10752
  153.4794  135.3697  155.2434 H   0  0  0  0  0  0  0  0  0  0  0  0  # atno 10764 bound_to 10752
  154.8720  135.4062  154.3528 H   0  0  0  0  0  0  0  0  0  0  0  0  # atno 10765 bound_to 10752
  139.8852  134.8627  156.3317 H   0  0  0  0  0  0  0  0  0  0  0  0  # atno 11005 bound_to 11000
  144.7516  139.7179  143.7271 LP  0  0  0  0  0  0  0  0  0  0  0  0  # atno 17320 bound_to 7965
  146.1898  139.5133  142.9812 LP  0  0  0  0  0  0  0  0  0  0  0  0  # atno 17321 bound_to 7965
  139.8172  143.7870  152.3175 LP  0  0  0  0  0  0  0  0  0  0  0  0  # atno 17342 bound_to 10162
  139.7940  144.7399  150.9916 LP  0  0  0  0  0  0  0  0  0  0  0  0  # atno 17343 bound_to 10162
  157.2160  131.0471  151.2573 LP  0  0  0  0  0  0  0  0  0  0  0  0  # atno 17370 bound_to 10713
  157.3844  130.7249  149.6653 LP  0  0  0  0  0  0  0  0  0  0  0  0  # atno 17371 bound_to 10713
  140.9718  133.7322  156.0546 LP  0  0  0  0  0  0  0  0  0  0  0  0  # atno 17394 bound_to 11000
  140.7861  134.3671  157.5476 LP  0  0  0  0  0  0  0  0  0  0  0  0  # atno 17395 bound_to 11000

$$$$
