#       Name:                AV-unprocessed.smi:2811
#       Creating user name   scv26
#       Creation time:       Fri Mar 27 15:27:07 2020


#       File generated by GOLD software.
#

@<TRIPOS>MOLECULE
AV-unprocessed.smi:2811
    43    45     1
SMALL
NO_CHARGES


@<TRIPOS>ATOM
      1 ****        -0.8126   6.1043   1.6993 C.3            1 S1                 0.0000
      2 ****         0.4358   5.3388   1.3140 C.ar           1 S1                 0.0000
      3 ****         1.7083   5.9342   1.4098 C.ar           1 S1                 0.0000
      4 ****         2.8291   5.1688   1.0334 C.ar           1 S1                 0.0000
      5 ****         4.2281   5.7441   1.1006 C.3            1 S1                 0.0000
      6 ****         2.7362   3.8973   0.5902 N.ar           1 S1                 0.0000
      7 ****         1.5166   3.3087   0.4985 C.ar           1 S1                 0.0000
      8 ****         1.3005   1.9816   0.0245 N.am           1 S1                 0.0000
      9 ****         2.1735   0.9846  -0.2330 C.2            1 S1                 0.0000
     10 ****         3.3837   1.1364  -0.0750 O.2            1 S1                 0.0000
     11 ****         1.6364  -0.1626  -0.6761 N.am           1 S1                 0.0000
     12 ****         2.3705  -1.3910  -0.9573 C.3            1 S1                 0.0000
     13 ****         1.5338  -2.3718  -1.7837 C.3            1 S1                 0.0000
     14 ****         1.4849  -3.6016  -0.8673 C.3            1 S1                 0.0000
     15 ****         0.5775  -3.3744   0.3505 C.3            1 S1                 0.0000
     16 ****         1.4307  -2.4388   1.2053 C.3            1 S1                 0.0000
     17 ****         2.6610  -2.2287   0.3057 C.3            1 S1                 0.0000
     18 ****         2.7649  -3.5226  -0.2643 O.3            1 S1                 0.0000
     19 ****         0.3420   4.0119   0.8481 C.ar           1 S1                 0.0000
     20 ****        -0.5660   7.0800   2.1192 H              1 S1                 0.0000
     21 ****        -1.3830   5.5479   2.4437 H              1 S1                 0.0000
     22 ****        -1.4455   6.2581   0.8252 H              1 S1                 0.0000
     23 ****         1.8215   6.9502   1.7590 H              1 S1                 0.0000
     24 ****         4.2263   6.7382   1.5489 H              1 S1                 0.0000
     25 ****         4.6524   5.8219   0.0993 H              1 S1                 0.0000
     26 ****         4.8753   5.1020   1.6989 H              1 S1                 0.0000
     27 ****         0.3434   1.7776  -0.2231 H              1 S1                 0.0000
     28 ****         0.6320  -0.1996  -0.7771 H              1 S1                 0.0000
     29 ****         3.2984  -1.1694  -1.4876 H              1 S1                 0.0000
     30 ****         0.5365  -2.0032  -2.0282 H              1 S1                 0.0000
     31 ****         2.0428  -2.6085  -2.7187 H              1 S1                 0.0000
     32 ****         1.2925  -4.5368  -1.3939 H              1 S1                 0.0000
     33 ****        -0.3827  -2.9369   0.0748 H              1 S1                 0.0000
     34 ****         0.3888  -4.3095   0.8787 H              1 S1                 0.0000
     35 ****         0.9184  -1.5136   1.4700 H              1 S1                 0.0000
     36 ****         1.7203  -2.9347   2.1324 H              1 S1                 0.0000
     37 ****         3.5512  -1.9099   0.8487 H              1 S1                 0.0000
     38 ****        -0.6257   3.5381   0.7636 H              1 S1                 0.0000
     39 ****         3.5598   3.3927   0.3313 LP             1 S1                 0.0000
     40 ****         3.7395   2.0124   0.2505 LP             1 S1                 0.0000
     41 ****         4.0120   0.3837  -0.2721 LP             1 S1                 0.0000
     42 ****         3.5013  -3.5774  -0.9387 LP             1 S1                 0.0000
     43 ****         2.8964  -4.2293   0.4309 LP             1 S1                 0.0000
@<TRIPOS>BOND
    1    1    2 1     
    2    1   20 1     
    3    1   21 1     
    4    1   22 1     
    5    2   19 ar    
    6    2    3 ar    
    7    3    4 ar    
    8    3   23 1     
    9    4    5 1     
   10    4    6 ar    
   11    5   24 1     
   12    5   25 1     
   13    5   26 1     
   14    6    7 ar    
   15    7    8 1     
   16    7   19 ar    
   17    8    9 am    
   18    8   27 1     
   19    9   10 2     
   20    9   11 am    
   21   11   12 1     
   22   11   28 1     
   23   12   17 1     
   24   12   13 1     
   25   12   29 1     
   26   13   14 1     
   27   13   30 1     
   28   13   31 1     
   29   14   18 1     
   30   14   15 1     
   31   14   32 1     
   32   15   16 1     
   33   15   33 1     
   34   15   34 1     
   35   16   17 1     
   36   16   35 1     
   37   16   36 1     
   38   17   18 1     
   39   17   37 1     
   40   19   38 1     
   41    6   39 1     
   42   10   40 1     
   43   10   41 1     
   44   18   42 1     
   45   18   43 1     
@<TRIPOS>SUBSTRUCTURE
      1 S1             1
@<TRIPOS>SET
LONE_PAIRS      STATIC     ATOMS    <user>   **** ""
5 39 40 41 42 43
DONOR_HYDROGENS      STATIC     ATOMS    <user>   **** ""
2 27 28
ATOM$BLUE        STATIC     ATOMS    COLORGROUP SYSTEM
5 39 40 41 42 43
ATOM$RED        STATIC     ATOMS    COLORGROUP SYSTEM
2 27 28
