AV-unprocessed.smi:86|AV-procd|sdf|816|dock10
  -GOLD-   2262017223D 1   1.00000     0.00000
 Structure written by MMmdl.
 51 55  0  0  0  0  0  0  0  0  1 V2000
  152.9524  128.3323  154.4040 O   0  0  0  0  0  0  0  0  0  0  0  0
  151.7515  129.0136  154.7063 C   0  0  0  0  0  0  0  0  0  0  0  0
  151.9099  129.9117  155.9462 C   0  0  0  0  0  0  0  0  0  0  0  0
  150.5372  130.4033  156.4523 C   0  0  0  0  0  0  0  0  0  0  0  0
  149.7088  131.0263  155.4307 N   0  0  0  0  0  0  0  0  0  0  0  0
  149.1087  130.3940  154.3664 C   0  0  0  0  0  0  0  0  0  0  0  0
  148.4138  131.1689  153.5808 N   0  0  0  0  0  0  0  0  0  0  0  0
  148.5268  132.4333  154.1497 C   0  0  0  0  0  0  0  0  0  0  0  0
  148.0244  133.7295  153.8235 C   0  0  0  0  0  0  0  0  0  0  0  0
  147.2440  134.0106  152.7473 N   0  0  0  0  0  0  0  0  0  0  0  0
  146.2814  135.1098  152.7484 C   0  0  0  0  0  0  0  0  0  0  0  0
  145.1955  134.7122  151.7367 C   0  0  2  0  0  0  0  0  0  0  0  0
  144.0045  134.0234  152.4395 C   0  0  0  0  0  0  0  0  0  0  0  0
  143.0989  133.2779  151.4508 C   0  0  0  0  0  0  0  0  0  0  0  0
  143.9064  132.2262  150.6752 C   0  0  1  0  0  0  0  0  0  0  0  0
  143.0563  131.5514  149.7724 O   0  0  0  0  0  0  0  0  0  0  0  0
  145.0580  132.8852  149.8982 C   0  0  0  0  0  0  0  0  0  0  0  0
  145.9542  133.7665  150.7902 C   0  0  2  0  0  0  0  0  0  0  0  0
  146.9098  133.0274  151.7288 C   0  0  0  0  0  0  0  0  0  0  0  0
  148.3691  134.7528  154.6491 N   0  0  0  0  0  0  0  0  0  0  0  0
  149.1362  134.5352  155.7202 C   0  0  0  0  0  0  0  0  0  0  0  0
  149.6667  133.3886  156.1452 N   0  0  0  0  0  0  0  0  0  0  0  0
  149.3371  132.3551  155.3203 C   0  0  0  0  0  0  0  0  0  0  0  0
  152.8559  129.3605  157.0221 C   0  0  0  0  0  0  0  0  0  0  0  0
  153.9415  130.2008  156.5779 O   0  0  0  0  0  0  0  0  0  0  0  0
  153.0013  130.9836  155.8128 C   0  0  0  0  0  0  0  0  0  0  0  0
  152.7956  127.7614  153.6672 H   0  0  0  0  0  0  0  0  0  0  0  0
  151.4800  129.6103  153.8347 H   0  0  0  0  0  0  0  0  0  0  0  0
  150.9482  128.2876  154.8330 H   0  0  0  0  0  0  0  0  0  0  0  0
  149.9755  129.5748  156.8854 H   0  0  0  0  0  0  0  0  0  0  0  0
  150.6621  131.1223  157.2629 H   0  0  0  0  0  0  0  0  0  0  0  0
  149.2100  129.3339  154.1851 H   0  0  0  0  0  0  0  0  0  0  0  0
  145.8565  135.2965  153.7356 H   0  0  0  0  0  0  0  0  0  0  0  0
  146.7927  136.0173  152.4258 H   0  0  0  0  0  0  0  0  0  0  0  0
  144.8290  135.5840  151.1933 H   0  0  0  0  0  0  0  0  0  0  0  0
  144.3702  133.3127  153.1820 H   0  0  0  0  0  0  0  0  0  0  0  0
  143.4233  134.7633  152.9906 H   0  0  0  0  0  0  0  0  0  0  0  0
  142.2822  132.7986  151.9920 H   0  0  0  0  0  0  0  0  0  0  0  0
  142.6424  133.9890  150.7607 H   0  0  0  0  0  0  0  0  0  0  0  0
  144.3060  131.4871  151.3702 H   0  0  0  0  0  0  0  0  0  0  0  0
  142.2201  131.4161  150.1911 H   0  0  0  0  0  0  0  0  0  0  0  0
  145.6612  132.1277  149.3964 H   0  0  0  0  0  0  0  0  0  0  0  0
  144.6390  133.5113  149.1090 H   0  0  0  0  0  0  0  0  0  0  0  0
  146.5713  134.3811  150.1325 H   0  0  0  0  0  0  0  0  0  0  0  0
  147.7961  132.6815  151.1963 H   0  0  0  0  0  0  0  0  0  0  0  0
  146.4258  132.1692  152.1958 H   0  0  0  0  0  0  0  0  0  0  0  0
  149.3572  135.4044  156.3219 H   0  0  0  0  0  0  0  0  0  0  0  0
  152.5519  129.5976  158.0430 H   0  0  0  0  0  0  0  0  0  0  0  0
  153.0779  128.2976  156.9197 H   0  0  0  0  0  0  0  0  0  0  0  0
  153.3316  131.1576  154.7881 H   0  0  0  0  0  0  0  0  0  0  0  0
  152.7695  131.9251  156.3122 H   0  0  0  0  0  0  0  0  0  0  0  0
  1  2  1  0  0  0  0
  1 27  1  0  0  0  0
  2  3  1  0  0  0  0
  2 28  1  0  0  0  0
  2 29  1  0  0  0  0
  3 26  1  0  0  0  0
  3  4  1  0  0  0  0
  3 24  1  0  0  0  0
  4  5  1  0  0  0  0
  4 30  1  0  0  0  0
  4 31  1  0  0  0  0
  5 23  1  0  0  0  0
  5  6  1  0  0  0  0
  6  7  2  0  0  0  0
  6 32  1  0  0  0  0
  7  8  1  0  0  0  0
  8 23  2  0  0  0  0
  8  9  1  0  0  0  0
  9 10  1  0  0  0  0
  9 20  2  0  0  0  0
 10 19  1  0  0  0  0
 10 11  1  0  0  0  0
 11 12  1  0  0  0  0
 11 33  1  0  0  0  0
 11 34  1  0  0  0  0
 12 18  1  0  0  0  0
 12 13  1  0  0  0  0
 12 35  1  0  0  0  0
 13 14  1  0  0  0  0
 13 36  1  0  0  0  0
 13 37  1  0  0  0  0
 14 15  1  0  0  0  0
 14 38  1  0  0  0  0
 14 39  1  0  0  0  0
 15 16  1  0  0  0  0
 15 17  1  0  0  0  0
 15 40  1  0  0  0  0
 16 41  1  0  0  0  0
 17 18  1  0  0  0  0
 17 42  1  0  0  0  0
 17 43  1  0  0  0  0
 18 19  1  0  0  0  0
 18 44  1  0  0  0  0
 19 45  1  0  0  0  0
 19 46  1  0  0  0  0
 20 21  1  0  0  0  0
 21 22  2  0  0  0  0
 21 47  1  0  0  0  0
 22 23  1  0  0  0  0
 24 25  1  0  0  0  0
 24 48  1  0  0  0  0
 24 49  1  0  0  0  0
 25 26  1  0  0  0  0
 26 50  1  0  0  0  0
 26 51  1  0  0  0  0
M  END
> <s_m_source_file>
AV-unprocessed.smi

> <i_m_source_file_index>
86

> <i_lp_mmshare_version>
43012

> <i_f3d_flags>
0

> <s_epik_input>
W0NIMl0xT1tDSDJdQzEoW0NIMl1bT0hdKVtDSDJdbihbY0hdbjIpYyhjMjMpbltjSF1uYzNOKFtDSDJdNClbQ0gyXVtDQEBIXShbQ0BIXTQ1KVtDSDJdW0NASF0oW09IXSlbQ0gyXVtDSDJdNQ==

> <s_epik_cmdline>
J2VwaWtfcHl0aG9uJywgJy1waCcsICc3LjAnLCAnLXRuJywgJzgnLCAnLW1hJywgJzIwMCcsICctbWV0YWxfYmluZGluZycsICctaW1hZScsICc8aW5maWxlLm1hZT4nLCAnLW9tYWUnLCAnPG91dGZpbGUubWFlPic=

> <r_lp_tautomer_probability>
1

> <r_epik_Ionization_Penalty>
0.00425795

> <r_epik_Ionization_Penalty_Charging>
0

> <r_epik_Ionization_Penalty_Neutral>
0.00425795

> <r_epik_State_Penalty>
0.00299946

> <r_epik_Charging_Adjusted_Penalty>
0.00299946

> <i_epik_Tot_Q>
0

> <i_epik_Tot_abs_Q>
0

> <r_epik_Metal_State_Penalty>
-0

> <b_epik_Metal_Only>
0

> <s_lp_Force_Field>
OPLS_2005

> <r_lp_Energy>
53.5956

> <b_lp_Chiralities_Consistent>
1

> <s_lp_Variant>
AV-unprocessed.smi:86-5

> <Gold.Version>
5.8.1

> <Gold.Id.Protein>
6NUR|6NUR_protein|mol2

> <Gold.PLP.Fitness>
42.3525

> <Gold.PLP.PLP>
-35.6405

> <Gold.PLP.part.hbond>
-3.0000

> <Gold.PLP.part.metal>
0.0000

> <Gold.PLP.part.buried>
0.7580

> <Gold.PLP.part.nonpolar>
-33.5135

> <Gold.PLP.part.repulsive>
0.2158

> <Gold.PLP.ligand.clash>
0.0000

> <Gold.PLP.ligand.torsion>
0.5677

> <Gold.PLP.Chemscore.Hbond>
2.4600

> <Gold.PLP.Chemscore.CHOScore>
0.0000

> <Gold.PLP.Chemscore.Metal>
0.0000

> <Gold.Chemscore.Hbonds>
donor molecule, donor type, donor heavy atom, donor atom, acceptor molecule, acceptor atom, score
      L1  H     1    27       P1 10737  0.83
      L1  H    16    41       P1 10952  0.54
      P1  H 10785 10796       L1    16  1.00

> <Gold.PLP.Chemscore.Internal.Correction>
0.4673

> <Gold.Rescore>
     Score         DG    S(hbond)    S(metal)    S(lipo)     H(rot)  DE(clash)    DE(int)     intcor
      9.11     -14.13       1.87        0.00      81.09       2.76       1.47       3.55       ----

> <Gold.Chemscore.Fitness>
9.1074

> <Gold.Chemscore.DG>
-14.1264

> <Gold.Chemscore.ZeroCoef>
-5.4800

> <Gold.Chemscore.Hbond>
1.8661

> <Gold.Chemscore.Metal>
0.0000

> <Gold.Chemscore.Lipo>
81.0850

> <Gold.Chemscore.Internal_Hbond>
0.0000

> <Gold.Chemscore.DEClash>
1.4654

> <Gold.Chemscore.DEInternal>
3.5535

> <Gold.Chemscore.Rot>
2.7630

> <Gold.Chemscore.Internal.Correction>
   9.000000E+99

> <Gold.Chemscore.Hbonds>
donor molecule, donor type, donor heavy atom, donor atom, acceptor molecule, acceptor atom, score
      L1  H     1    27       P1 10737  0.64
      L1  H    16    41       P1 10952  0.38
      P1  H 10785 10796       L1    16  0.35

> <Gold.Chemscore.Hbond.Weighted>
-6.2328

> <Gold.Chemscore.Metal.Weighted>
-0.0000

> <Gold.Chemscore.Lipo.Weighted>
-9.4869

> <Gold.Chemscore.Internal_Hbond.Weighted>
0.0000

> <Gold.Chemscore.DEClash.Weighted>
1.4654

> <Gold.Chemscore.DEInternal.Weighted>
3.5535

> <Gold.Chemscore.Rot.Weighted>
7.0734

> <Gold.Chemscore.Internal.Correction.Weighted>
   9.000000E+99

> <Gold.Protein.RotatedTorsions>
[ 6907 6896 6895 6894 ] final   99.17 input  -60.11 | X-H torsion
[ 7974 7965 7964 7962 ] final  -77.58 input  175.53 | X-H torsion
[ 8008 7997 7996 7995 ] final  -86.68 input   59.86 | X-H torsion
[ 10167 10162 10161 10158 ] final    0.78 input  -65.29 | X-H torsion
[ 10718 10713 10712 10709 ] final -105.95 input   66.30 | X-H torsion
[ 10763 10752 10751 10750 ] final   95.39 input  -60.55 | X-H torsion
[ 11005 11000 10999 10996 ] final   24.69 input  -57.11 | X-H torsion

> <Gold.Protein.ActiveResidues>
 VAL166  LYS551  ARG553  GLY616  TRP617  ASP618  TYR619  PRO620  LYS621  CYS622 
 ASP623  PHE694  ASN695  SER759  ASP760  ASP761  ALA762  ILE779  LEU786  VAL792 
 PHE793  MET794  SER795  GLU796  ALA797  LYS798  CYS799  TRP800  GLU811  SER814 

> <Gold.Protein.RotatedAtoms>
  152.5397  134.0469  159.8092 H   0  0  0  0  0  0  0  0  0  0  0  0  # atno 6907 bound_to 6896
  151.0616  133.5532  159.2641 H   0  0  0  0  0  0  0  0  0  0  0  0  # atno 6908 bound_to 6896
  151.2428  135.0603  159.9085 H   0  0  0  0  0  0  0  0  0  0  0  0  # atno 6909 bound_to 6896
  145.5979  140.9415  143.1257 H   0  0  0  0  0  0  0  0  0  0  0  0  # atno 7974 bound_to 7965
  154.6547  140.0575  156.9995 H   0  0  0  0  0  0  0  0  0  0  0  0  # atno 8008 bound_to 7997
  155.1319  140.3257  155.4453 H   0  0  0  0  0  0  0  0  0  0  0  0  # atno 8009 bound_to 7997
  156.2591  140.1979  156.6438 H   0  0  0  0  0  0  0  0  0  0  0  0  # atno 8010 bound_to 7997
  140.6713  143.7041  150.7929 H   0  0  0  0  0  0  0  0  0  0  0  0  # atno 10167 bound_to 10162
  156.0368  130.5589  150.7611 H   0  0  0  0  0  0  0  0  0  0  0  0  # atno 10718 bound_to 10713
  153.2527  135.4255  155.0814 H   0  0  0  0  0  0  0  0  0  0  0  0  # atno 10763 bound_to 10752
  154.8388  135.3429  154.6490 H   0  0  0  0  0  0  0  0  0  0  0  0  # atno 10764 bound_to 10752
  153.6911  135.7033  153.5146 H   0  0  0  0  0  0  0  0  0  0  0  0  # atno 10765 bound_to 10752
  140.3560  134.2177  155.7676 H   0  0  0  0  0  0  0  0  0  0  0  0  # atno 11005 bound_to 11000
  144.7323  139.7689  143.7342 LP  0  0  0  0  0  0  0  0  0  0  0  0  # atno 17320 bound_to 7965
  146.1598  139.4709  142.9995 LP  0  0  0  0  0  0  0  0  0  0  0  0  # atno 17321 bound_to 7965
  140.0727  143.5046  152.2572 LP  0  0  0  0  0  0  0  0  0  0  0  0  # atno 17342 bound_to 10162
  139.5983  144.7574  151.3233 LP  0  0  0  0  0  0  0  0  0  0  0  0  # atno 17343 bound_to 10162
  157.5130  131.0927  151.0174 LP  0  0  0  0  0  0  0  0  0  0  0  0  # atno 17370 bound_to 10713
  157.0524  130.5792  149.5372 LP  0  0  0  0  0  0  0  0  0  0  0  0  # atno 17371 bound_to 10713
  141.1998  133.8002  157.0518 LP  0  0  0  0  0  0  0  0  0  0  0  0  # atno 17394 bound_to 11000
  140.0665  134.9726  157.1394 LP  0  0  0  0  0  0  0  0  0  0  0  0  # atno 17395 bound_to 11000

$$$$
