#       Name:                AV-unprocessed.smi:412
#       Creating user name   scv26
#       Creation time:       Thu Mar 26 22:46:08 2020


#       File generated by GOLD software.
#

@<TRIPOS>MOLECULE
AV-unprocessed.smi:412
    40    42     1
SMALL
NO_CHARGES


@<TRIPOS>ATOM
      1 ****        -2.2212   3.8512  -1.7118 C.3            1 S1                 0.0000
      2 ****        -1.7212   2.6613  -1.0338 N.am           1 S1                 0.0000
      3 ****        -1.3283   1.4993  -1.6071 C.2            1 S1                 0.0000
      4 ****        -1.3254   1.2513  -2.8126 O.2            1 S1                 0.0000
      5 ****        -0.9376   0.6575  -0.6210 N.am           1 S1                 0.0000
      6 ****        -0.4270  -0.7016  -0.7872 C.3            1 S1                 0.0000
      7 ****         1.1114  -0.7527  -0.7019 C.3            1 S1                 0.0000
      8 ****         1.6502  -0.2817  -1.9215 O.3            1 S1                 0.0000
      9 ****         1.5895  -2.1631  -0.3918 C.ar           1 S1                 0.0000
     10 ****         2.0536  -2.4800   0.9030 C.ar           1 S1                 0.0000
     11 ****         2.4881  -3.7862   1.2019 C.ar           1 S1                 0.0000
     12 ****         2.4585  -4.7836   0.2083 C.ar           1 S1                 0.0000
     13 ****         1.9914  -4.4752  -1.0837 C.ar           1 S1                 0.0000
     14 ****         1.5567  -3.1694  -1.3828 C.ar           1 S1                 0.0000
     15 ****        -1.0771   1.3027   0.6163 C.ar           1 S1                 0.0000
     16 ****        -0.8004   0.8678   1.9243 C.ar           1 S1                 0.0000
     17 ****        -1.0549   1.7798   2.9755 C.ar           1 S1                 0.0000
     18 ****        -1.5681   3.0755   2.7061 C.ar           1 S1                 0.0000
     19 ****        -1.8361   3.4877   1.3796 C.ar           1 S1                 0.0000
     20 ****        -1.5726   2.5624   0.3552 C.ar           1 S1                 0.0000
     21 ****        -2.2037   3.7433  -2.7970 H              1 S1                 0.0000
     22 ****        -1.6125   4.7173  -1.4512 H              1 S1                 0.0000
     23 ****        -3.2494   4.0517  -1.4092 H              1 S1                 0.0000
     24 ****        -0.8553  -1.3024   0.0164 H              1 S1                 0.0000
     25 ****        -0.7853  -1.1524  -1.7144 H              1 S1                 0.0000
     26 ****         1.4621  -0.0902   0.0910 H              1 S1                 0.0000
     27 ****         2.5912  -0.2508  -1.8412 H              1 S1                 0.0000
     28 ****         2.0757  -1.7229   1.6732 H              1 S1                 0.0000
     29 ****         2.8426  -4.0235   2.1941 H              1 S1                 0.0000
     30 ****         2.7917  -5.7852   0.4378 H              1 S1                 0.0000
     31 ****         1.9647  -5.2406  -1.8453 H              1 S1                 0.0000
     32 ****         1.1945  -2.9435  -2.3753 H              1 S1                 0.0000
     33 ****        -0.4088  -0.1192   2.1223 H              1 S1                 0.0000
     34 ****        -0.8557   1.4864   3.9956 H              1 S1                 0.0000
     35 ****        -1.7555   3.7559   3.5237 H              1 S1                 0.0000
     36 ****        -2.2252   4.4722   1.1657 H              1 S1                 0.0000
     37 ****        -1.6335   1.9427  -3.4661 LP             1 S1                 0.0000
     38 ****        -1.0149   0.3584  -3.1387 LP             1 S1                 0.0000
     39 ****         1.2978   0.6340  -2.1148 LP             1 S1                 0.0000
     40 ****         1.3951  -0.9006  -2.6644 LP             1 S1                 0.0000
@<TRIPOS>BOND
    1    1    2 1     
    2    1   21 1     
    3    1   22 1     
    4    1   23 1     
    5    2   20 1     
    6    2    3 am    
    7    3    4 2     
    8    3    5 am    
    9    5    6 1     
   10    5   15 1     
   11    6    7 1     
   12    6   24 1     
   13    6   25 1     
   14    7    8 1     
   15    7    9 1     
   16    7   26 1     
   17    8   27 1     
   18    9   14 ar    
   19    9   10 ar    
   20   10   11 ar    
   21   10   28 1     
   22   11   12 ar    
   23   11   29 1     
   24   12   13 ar    
   25   12   30 1     
   26   13   14 ar    
   27   13   31 1     
   28   14   32 1     
   29   15   20 ar    
   30   15   16 ar    
   31   16   17 ar    
   32   16   33 1     
   33   17   18 ar    
   34   17   34 1     
   35   18   19 ar    
   36   18   35 1     
   37   19   20 ar    
   38   19   36 1     
   39    4   37 1     
   40    4   38 1     
   41    8   39 1     
   42    8   40 1     
@<TRIPOS>SUBSTRUCTURE
      1 S1             1
@<TRIPOS>SET
LONE_PAIRS      STATIC     ATOMS    <user>   **** ""
4 37 38 39 40
DONOR_HYDROGENS      STATIC     ATOMS    <user>   **** ""
1 27
ATOM$BLUE        STATIC     ATOMS    COLORGROUP SYSTEM
4 37 38 39 40
ATOM$RED        STATIC     ATOMS    COLORGROUP SYSTEM
1 27
