AV-unprocessed.smi:2481|AV-procd|sdf|9773|dock5
  -GOLD-   2272013413D 1   1.00000     0.00000
 Structure written by MMmdl.
 37 38  0  0  0  0  0  0  0  0  1 V2000
  151.1692  138.2119  154.3834 C   0  0  0  0  0  0  0  0  0  0  0  0
  150.1552  139.2474  154.4347 N   0  0  0  0  0  0  0  0  0  0  0  0
  150.4583  140.4987  154.8529 N   0  0  0  0  0  0  0  0  0  0  0  0
  149.2883  141.1308  154.7595 C   0  0  0  0  0  0  0  0  0  0  0  0
  148.2375  140.3827  154.3102 N   0  0  0  0  0  0  0  0  0  0  0  0
  148.8548  139.2193  154.1289 C   0  0  0  0  0  0  0  0  0  0  0  0
  148.2583  138.0190  153.6584 N   0  0  0  0  0  0  0  0  0  0  0  0
  147.0448  137.5284  153.9625 C   0  0  0  0  0  0  0  0  0  0  0  0
  146.2386  138.0533  154.7308 O   0  0  0  0  0  0  0  0  0  0  0  0
  146.8150  136.3747  153.3195 N   0  0  0  0  0  0  0  0  0  0  0  0
  145.5952  135.5720  153.4209 C   0  0  2  0  0  0  0  0  0  0  0  0
  145.9298  134.1125  153.7980 C   0  0  0  0  0  0  0  0  0  0  0  0
  146.6401  133.3673  152.6556 C   0  0  0  0  0  0  0  0  0  0  0  0
  145.8204  133.4295  151.3586 C   0  0  0  0  0  0  0  0  0  0  0  0
  145.4942  134.8803  150.9691 C   0  0  0  0  0  0  0  0  0  0  0  0
  144.7701  135.6317  152.1073 C   0  0  2  0  0  0  0  0  0  0  0  0
  144.3977  137.0656  151.6735 C   0  0  0  0  0  0  0  0  0  0  0  0
  143.5754  137.6870  152.6388 O   0  0  0  0  0  0  0  0  0  0  0  0
  151.1585  137.7337  153.4035 H   0  0  0  0  0  0  0  0  0  0  0  0
  150.9650  137.4632  155.1492 H   0  0  0  0  0  0  0  0  0  0  0  0
  152.1593  138.6362  154.5570 H   0  0  0  0  0  0  0  0  0  0  0  0
  149.1878  142.1726  155.0261 H   0  0  0  0  0  0  0  0  0  0  0  0
  148.8172  137.4771  153.0162 H   0  0  0  0  0  0  0  0  0  0  0  0
  147.5382  136.0185  152.7121 H   0  0  0  0  0  0  0  0  0  0  0  0
  144.9803  135.9889  154.2209 H   0  0  0  0  0  0  0  0  0  0  0  0
  146.5414  134.0816  154.7003 H   0  0  0  0  0  0  0  0  0  0  0  0
  145.0060  133.5876  154.0444 H   0  0  0  0  0  0  0  0  0  0  0  0
  147.6264  133.8011  152.4878 H   0  0  0  0  0  0  0  0  0  0  0  0
  146.8065  132.3276  152.9391 H   0  0  0  0  0  0  0  0  0  0  0  0
  146.3669  132.9421  150.5508 H   0  0  0  0  0  0  0  0  0  0  0  0
  144.8933  132.8691  151.4862 H   0  0  0  0  0  0  0  0  0  0  0  0
  146.4146  135.4022  150.7040 H   0  0  0  0  0  0  0  0  0  0  0  0
  144.8749  134.8800  150.0716 H   0  0  0  0  0  0  0  0  0  0  0  0
  143.8339  135.1007  152.2891 H   0  0  0  0  0  0  0  0  0  0  0  0
  145.2850  137.6764  151.5064 H   0  0  0  0  0  0  0  0  0  0  0  0
  143.8491  137.0429  150.7315 H   0  0  0  0  0  0  0  0  0  0  0  0
  143.8257  138.5957  152.7080 H   0  0  0  0  0  0  0  0  0  0  0  0
  1  2  1  0  0  0  0
  1 19  1  0  0  0  0
  1 20  1  0  0  0  0
  1 21  1  0  0  0  0
  2  6  1  0  0  0  0
  2  3  1  0  0  0  0
  3  4  2  0  0  0  0
  4  5  1  0  0  0  0
  4 22  1  0  0  0  0
  5  6  2  0  0  0  0
  6  7  1  0  0  0  0
  7  8  1  0  0  0  0
  7 23  1  0  0  0  0
  8  9  2  0  0  0  0
  8 10  1  0  0  0  0
 10 11  1  0  0  0  0
 10 24  1  0  0  0  0
 11 16  1  0  0  0  0
 11 12  1  0  0  0  0
 11 25  1  0  0  0  0
 12 13  1  0  0  0  0
 12 26  1  0  0  0  0
 12 27  1  0  0  0  0
 13 14  1  0  0  0  0
 13 28  1  0  0  0  0
 13 29  1  0  0  0  0
 14 15  1  0  0  0  0
 14 30  1  0  0  0  0
 14 31  1  0  0  0  0
 15 16  1  0  0  0  0
 15 32  1  0  0  0  0
 15 33  1  0  0  0  0
 16 17  1  0  0  0  0
 16 34  1  0  0  0  0
 17 18  1  0  0  0  0
 17 35  1  0  0  0  0
 17 36  1  0  0  0  0
 18 37  1  0  0  0  0
M  END
> <s_m_source_file>
AV-unprocessed.smi

> <i_m_source_file_index>
2481

> <i_lp_mmshare_version>
43012

> <i_f3d_flags>
0

> <s_epik_input>
W0NIM11uMW5bY0hdbmMxW05IXUMoPU8pW05IXVtDQEBIXTJbQ0gyXVtDSDJdW0NIMl1bQ0gyXVtDQEhdMltDSDJdW09IXQ==

> <s_epik_cmdline>
J2VwaWtfcHl0aG9uJywgJy1waCcsICc3LjAnLCAnLXRuJywgJzgnLCAnLW1hJywgJzIwMCcsICctbWV0YWxfYmluZGluZycsICctaW1hZScsICc8aW5maWxlLm1hZT4nLCAnLW9tYWUnLCAnPG91dGZpbGUubWFlPic=

> <r_lp_tautomer_probability>
1

> <r_epik_Ionization_Penalty>
2.32704e-05

> <r_epik_Ionization_Penalty_Charging>
0

> <r_epik_Ionization_Penalty_Neutral>
2.32704e-05

> <r_epik_State_Penalty>
-0

> <r_epik_Charging_Adjusted_Penalty>
0

> <i_epik_Tot_Q>
0

> <i_epik_Tot_abs_Q>
0

> <r_epik_Metal_State_Penalty>
-0

> <b_epik_Metal_Only>
0

> <s_lp_Force_Field>
OPLS_2005

> <r_lp_Energy>
12.0515

> <b_lp_Chiralities_Consistent>
1

> <s_lp_Variant>
AV-unprocessed.smi:2481-3

> <Gold.Version>
5.8.1

> <Gold.Id.Protein>
6NUR|6NUR_protein|mol2

> <Gold.PLP.Fitness>
38.2065

> <Gold.PLP.PLP>
-25.0472

> <Gold.PLP.part.hbond>
-5.0000

> <Gold.PLP.part.metal>
0.0000

> <Gold.PLP.part.buried>
0.9698

> <Gold.PLP.part.nonpolar>
-21.0048

> <Gold.PLP.part.repulsive>
0.2970

> <Gold.PLP.ligand.clash>
0.0000

> <Gold.PLP.ligand.torsion>
0.3952

> <Gold.PLP.Chemscore.Hbond>
3.8432

> <Gold.PLP.Chemscore.CHOScore>
0.8004

> <Gold.PLP.Chemscore.Metal>
0.0000

> <Gold.Chemscore.Hbonds>
donor molecule, donor type, donor heavy atom, donor atom, acceptor molecule, acceptor atom, score
      L1  H     7    23       P1  7948  1.00
      L1  H    10    24       P1  7948  1.00
      L1  H    18    37       P1 10175  1.00
      P1  H  7989  7998       L1     3  0.80
      L1  C     4    22       P1  8028  0.74

> <Gold.PLP.Chemscore.Internal.Correction>
0.0188

> <Gold.Rescore>
     Score         DG    S(hbond)    S(metal)    S(lipo)     H(rot)  DE(clash)    DE(int)     intcor
     13.36     -15.30       3.16        0.00      37.31       1.99       1.56       0.37       ----

> <Gold.Chemscore.Fitness>
13.3591

> <Gold.Chemscore.DG>
-15.2966

> <Gold.Chemscore.ZeroCoef>
-5.4800

> <Gold.Chemscore.Hbond>
3.1555

> <Gold.Chemscore.Metal>
0.0000

> <Gold.Chemscore.Lipo>
37.3133

> <Gold.Chemscore.Internal_Hbond>
0.0000

> <Gold.Chemscore.DEClash>
1.5648

> <Gold.Chemscore.DEInternal>
0.3727

> <Gold.Chemscore.Rot>
1.9877

> <Gold.Chemscore.Internal.Correction>
   9.000000E+99

> <Gold.Chemscore.Hbonds>
donor molecule, donor type, donor heavy atom, donor atom, acceptor molecule, acceptor atom, score
      L1  H     7    23       P1  7948  0.96
      L1  H    10    24       P1  7948  0.96
      L1  H    18    37       P1 10175  0.98
      P1  H  7989  7998       L1     3  0.10

> <Gold.Chemscore.Hbond.Weighted>
-10.5395

> <Gold.Chemscore.Metal.Weighted>
-0.0000

> <Gold.Chemscore.Lipo.Weighted>
-4.3657

> <Gold.Chemscore.Internal_Hbond.Weighted>
0.0000

> <Gold.Chemscore.DEClash.Weighted>
1.5648

> <Gold.Chemscore.DEInternal.Weighted>
0.3727

> <Gold.Chemscore.Rot.Weighted>
5.0885

> <Gold.Chemscore.Internal.Correction.Weighted>
   9.000000E+99

> <Gold.Protein.RotatedTorsions>
[ 6907 6896 6895 6894 ] final  -54.24 input  -60.11 | X-H torsion
[ 7974 7965 7964 7962 ] final   95.43 input  175.53 | X-H torsion
[ 8008 7997 7996 7995 ] final   92.00 input   59.86 | X-H torsion
[ 10167 10162 10161 10158 ] final   38.48 input  -65.29 | X-H torsion
[ 10718 10713 10712 10709 ] final  -56.25 input   66.30 | X-H torsion
[ 10763 10752 10751 10750 ] final   83.20 input  -60.55 | X-H torsion
[ 11005 11000 10999 10996 ] final  -43.50 input  -57.11 | X-H torsion

> <Gold.Protein.ActiveResidues>
 VAL166  LYS551  ARG553  GLY616  TRP617  ASP618  TYR619  PRO620  LYS621  CYS622 
 ASP623  PHE694  ASN695  SER759  ASP760  ASP761  ALA762  ILE779  LEU786  VAL792 
 PHE793  MET794  SER795  GLU796  ALA797  LYS798  CYS799  TRP800  GLU811  SER814 

> <Gold.Protein.RotatedAtoms>
  150.8355  134.7627  159.6889 H   0  0  0  0  0  0  0  0  0  0  0  0  # atno 6907 bound_to 6896
  152.4453  134.5505  159.9875 H   0  0  0  0  0  0  0  0  0  0  0  0  # atno 6908 bound_to 6896
  151.5656  133.3359  159.3015 H   0  0  0  0  0  0  0  0  0  0  0  0  # atno 6909 bound_to 6896
  145.4523  139.2292  143.3033 H   0  0  0  0  0  0  0  0  0  0  0  0  # atno 7974 bound_to 7965
  156.0304  140.3331  155.7133 H   0  0  0  0  0  0  0  0  0  0  0  0  # atno 8008 bound_to 7997
  155.5894  140.0644  157.2780 H   0  0  0  0  0  0  0  0  0  0  0  0  # atno 8009 bound_to 7997
  154.4351  140.1830  156.1046 H   0  0  0  0  0  0  0  0  0  0  0  0  # atno 8010 bound_to 7997
  140.3932  144.1824  150.6131 H   0  0  0  0  0  0  0  0  0  0  0  0  # atno 10167 bound_to 10162
  156.1304  130.4160  150.0280 H   0  0  0  0  0  0  0  0  0  0  0  0  # atno 10718 bound_to 10713
  153.1270  135.4700  154.9287 H   0  0  0  0  0  0  0  0  0  0  0  0  # atno 10763 bound_to 10752
  154.7629  135.3136  154.8346 H   0  0  0  0  0  0  0  0  0  0  0  0  # atno 10764 bound_to 10752
  153.8897  135.6886  153.4815 H   0  0  0  0  0  0  0  0  0  0  0  0  # atno 10765 bound_to 10752
  141.0388  133.6789  156.2741 H   0  0  0  0  0  0  0  0  0  0  0  0  # atno 11005 bound_to 11000
  146.2497  140.5283  142.8898 LP  0  0  0  0  0  0  0  0  0  0  0  0  # atno 17320 bound_to 7965
  144.8054  140.6290  143.6450 LP  0  0  0  0  0  0  0  0  0  0  0  0  # atno 17321 bound_to 7965
  140.4818  143.2377  151.8945 LP  0  0  0  0  0  0  0  0  0  0  0  0  # atno 17342 bound_to 10162
  139.4788  144.5261  151.8732 LP  0  0  0  0  0  0  0  0  0  0  0  0  # atno 17343 bound_to 10162
  156.8193  130.9353  151.3642 LP  0  0  0  0  0  0  0  0  0  0  0  0  # atno 17370 bound_to 10713
  157.6482  130.8862  149.9580 LP  0  0  0  0  0  0  0  0  0  0  0  0  # atno 17371 bound_to 10713
  140.6273  134.5300  157.5555 LP  0  0  0  0  0  0  0  0  0  0  0  0  # atno 17394 bound_to 11000
  139.9260  134.8055  156.1067 LP  0  0  0  0  0  0  0  0  0  0  0  0  # atno 17395 bound_to 11000

$$$$
