AV-unprocessed.smi:1643|AV-procd|sdf|6576|dock4
  -GOLD-   22720 7263D 1   1.00000     0.00000
 Structure written by MMmdl.
 53 55  0  0  0  0  0  0  0  0  1 V2000
  147.9924  136.1765  158.6699 C   0  0  0  0  0  0  0  0  0  0  0  0
  148.6481  134.9201  158.0914 C   0  0  0  0  0  0  0  0  0  0  0  0
  149.2733  134.1849  158.8560 O   0  0  0  0  0  0  0  0  0  0  0  0
  148.5230  134.6623  156.7674 N   0  0  0  0  0  0  0  0  0  0  0  0
  149.1706  133.5110  156.1289 C   0  0  0  0  0  0  0  0  0  0  0  0
  150.5584  133.9028  155.5957 C   0  0  0  0  0  0  0  0  0  0  0  0
  150.5607  135.1041  154.6266 C   0  0  0  0  0  0  0  0  0  0  0  0
  150.2198  136.3828  155.2660 N   0  0  0  0  0  0  0  0  0  0  0  0
  150.9271  137.5163  154.6652 C   0  0  0  0  0  0  0  0  0  0  0  0
  150.4743  138.9077  155.1545 C   0  0  2  0  0  0  0  0  0  0  0  0
  150.4319  139.7839  154.0449 O   0  0  0  0  0  0  0  0  0  0  0  0
  151.4446  139.4791  156.2051 C   0  0  0  0  0  0  0  0  0  0  0  0
  150.9040  140.6457  156.8790 N   0  0  0  0  0  0  0  0  0  0  0  0
  149.7825  141.3232  156.5669 C   0  0  0  0  0  0  0  0  0  0  0  0
  149.4717  142.3684  157.3287 N   0  0  0  0  0  0  0  0  0  0  0  0
  150.5158  142.3714  158.2383 C   0  0  0  0  0  0  0  0  0  0  0  0
  150.7867  143.2350  159.3223 C   0  0  0  0  0  0  0  0  0  0  0  0
  151.9323  143.0488  160.1286 C   0  0  0  0  0  0  0  0  0  0  0  0
  152.1879  144.0044  161.2809 C   0  0  0  0  0  0  0  0  0  0  0  0
  152.8265  141.9820  159.8576 C   0  0  0  0  0  0  0  0  0  0  0  0
  154.0657  141.7642  160.7078 C   0  0  0  0  0  0  0  0  0  0  0  0
  152.5691  141.1083  158.7807 C   0  0  0  0  0  0  0  0  0  0  0  0
  151.4282  141.3065  157.9837 C   0  0  0  0  0  0  0  0  0  0  0  0
  148.7722  136.6426  155.2478 C   0  0  0  0  0  0  0  0  0  0  0  0
  147.8429  135.5441  155.8120 C   0  0  0  0  0  0  0  0  0  0  0  0
  148.3452  137.0721  158.1591 H   0  0  0  0  0  0  0  0  0  0  0  0
  148.2341  136.2823  159.7279 H   0  0  0  0  0  0  0  0  0  0  0  0
  146.9074  136.1217  158.5807 H   0  0  0  0  0  0  0  0  0  0  0  0
  149.2651  132.6763  156.8254 H   0  0  0  0  0  0  0  0  0  0  0  0
  148.5580  133.1247  155.3136 H   0  0  0  0  0  0  0  0  0  0  0  0
  151.2238  134.1185  156.4331 H   0  0  0  0  0  0  0  0  0  0  0  0
  150.9906  133.0401  155.0883 H   0  0  0  0  0  0  0  0  0  0  0  0
  151.5590  135.1516  154.1956 H   0  0  0  0  0  0  0  0  0  0  0  0
  149.8994  134.9150  153.7797 H   0  0  0  0  0  0  0  0  0  0  0  0
  151.9969  137.3980  154.8440 H   0  0  0  0  0  0  0  0  0  0  0  0
  150.8070  137.4931  153.5808 H   0  0  0  0  0  0  0  0  0  0  0  0
  149.4762  138.8672  155.5889 H   0  0  0  0  0  0  0  0  0  0  0  0
  149.7098  139.5305  153.4906 H   0  0  0  0  0  0  0  0  0  0  0  0
  151.6671  138.7253  156.9616 H   0  0  0  0  0  0  0  0  0  0  0  0
  152.3964  139.7479  155.7441 H   0  0  0  0  0  0  0  0  0  0  0  0
  149.1566  141.0295  155.7366 H   0  0  0  0  0  0  0  0  0  0  0  0
  150.1047  144.0468  159.5288 H   0  0  0  0  0  0  0  0  0  0  0  0
  153.1513  144.5001  161.1602 H   0  0  0  0  0  0  0  0  0  0  0  0
  152.1906  143.4665  162.2293 H   0  0  0  0  0  0  0  0  0  0  0  0
  151.4199  144.7761  161.3362 H   0  0  0  0  0  0  0  0  0  0  0  0
  154.6170  140.8792  160.3879 H   0  0  0  0  0  0  0  0  0  0  0  0
  153.7941  141.6278  161.7549 H   0  0  0  0  0  0  0  0  0  0  0  0
  154.7350  142.6216  160.6313 H   0  0  0  0  0  0  0  0  0  0  0  0
  153.2411  140.2913  158.5625 H   0  0  0  0  0  0  0  0  0  0  0  0
  148.5857  137.5523  155.8196 H   0  0  0  0  0  0  0  0  0  0  0  0
  148.4531  136.8722  154.2301 H   0  0  0  0  0  0  0  0  0  0  0  0
  147.4628  134.9555  154.9767 H   0  0  0  0  0  0  0  0  0  0  0  0
  146.9480  135.9927  156.2441 H   0  0  0  0  0  0  0  0  0  0  0  0
  1  2  1  0  0  0  0
  1 26  1  0  0  0  0
  1 27  1  0  0  0  0
  1 28  1  0  0  0  0
  2  3  2  0  0  0  0
  2  4  1  0  0  0  0
  4 25  1  0  0  0  0
  4  5  1  0  0  0  0
  5  6  1  0  0  0  0
  5 29  1  0  0  0  0
  5 30  1  0  0  0  0
  6  7  1  0  0  0  0
  6 31  1  0  0  0  0
  6 32  1  0  0  0  0
  7  8  1  0  0  0  0
  7 33  1  0  0  0  0
  7 34  1  0  0  0  0
  8  9  1  0  0  0  0
  8 24  1  0  0  0  0
  9 10  1  0  0  0  0
  9 35  1  0  0  0  0
  9 36  1  0  0  0  0
 10 11  1  0  0  0  0
 10 12  1  0  0  0  0
 10 37  1  0  0  0  0
 11 38  1  0  0  0  0
 12 13  1  0  0  0  0
 12 39  1  0  0  0  0
 12 40  1  0  0  0  0
 13 23  1  0  0  0  0
 13 14  1  0  0  0  0
 14 15  2  0  0  0  0
 14 41  1  0  0  0  0
 15 16  1  0  0  0  0
 16 23  2  0  0  0  0
 16 17  1  0  0  0  0
 17 18  2  0  0  0  0
 17 42  1  0  0  0  0
 18 19  1  0  0  0  0
 18 20  1  0  0  0  0
 19 43  1  0  0  0  0
 19 44  1  0  0  0  0
 19 45  1  0  0  0  0
 20 21  1  0  0  0  0
 20 22  2  0  0  0  0
 21 46  1  0  0  0  0
 21 47  1  0  0  0  0
 21 48  1  0  0  0  0
 22 23  1  0  0  0  0
 22 49  1  0  0  0  0
 24 25  1  0  0  0  0
 24 50  1  0  0  0  0
 24 51  1  0  0  0  0
 25 52  1  0  0  0  0
 25 53  1  0  0  0  0
M  END
> <s_m_source_file>
AV-unprocessed.smi

> <i_m_source_file_index>
1643

> <i_lp_mmshare_version>
43012

> <i_f3d_flags>
0

> <s_epik_input>
W0NIM11DKD1PKU4xW0NIMl1bQ0gyXVtDSDJdTihbQ0gyXVtDSDJdMSlbQ0gyXVtDQEhdKFtPSF0pW0NIMl1uKFtjSF1uMiljKGMyMylbY0hdYyhbQ0gzXSljKFtjSF0zKVtDSDNd

> <s_epik_cmdline>
J2VwaWtfcHl0aG9uJywgJy1waCcsICc3LjAnLCAnLXRuJywgJzgnLCAnLW1hJywgJzIwMCcsICctbWV0YWxfYmluZGluZycsICctaW1hZScsICc8aW5maWxlLm1hZT4nLCAnLW9tYWUnLCAnPG91dGZpbGUubWFlPic=

> <r_epik_Ionization_Penalty>
1.17666

> <r_epik_Ionization_Penalty_Charging>
0

> <r_epik_Ionization_Penalty_Neutral>
1.17666

> <r_epik_State_Penalty>
1.20405

> <r_epik_Charging_Adjusted_Penalty>
1.20405

> <i_epik_Tot_Q>
0

> <i_epik_Tot_abs_Q>
0

> <r_epik_Metal_State_Penalty>
1.13307

> <b_epik_Metal_Only>
0

> <s_lp_Force_Field>
OPLS_2005

> <r_lp_Energy>
48.9616

> <b_lp_Chiralities_Consistent>
1

> <s_lp_Variant>
AV-unprocessed.smi:1643-5

> <Gold.Version>
5.8.1

> <Gold.Id.Protein>
6NUR|6NUR_protein|mol2

> <Gold.PLP.Fitness>
44.3994

> <Gold.PLP.PLP>
-39.4615

> <Gold.PLP.part.hbond>
-3.0000

> <Gold.PLP.part.metal>
0.0000

> <Gold.PLP.part.buried>
-5.7098

> <Gold.PLP.part.nonpolar>
-33.7132

> <Gold.PLP.part.repulsive>
2.4938

> <Gold.PLP.ligand.clash>
0.0000

> <Gold.PLP.ligand.torsion>
0.7822

> <Gold.PLP.Chemscore.Hbond>
2.1591

> <Gold.PLP.Chemscore.CHOScore>
0.0000

> <Gold.PLP.Chemscore.Metal>
0.0000

> <Gold.Chemscore.Hbonds>
donor molecule, donor type, donor heavy atom, donor atom, acceptor molecule, acceptor atom, score
      L1  H    11    38       P1  7957  0.05
      P1  H  6896  6909       L1     3  0.83
      P1  H  7989  7998       L1    11  1.00

> <Gold.PLP.Chemscore.Internal.Correction>
0.0250

> <Gold.Rescore>
     Score         DG    S(hbond)    S(metal)    S(lipo)     H(rot)  DE(clash)    DE(int)     intcor
     19.24     -20.13       2.02        0.00     112.84       2.07       0.05       0.84       ----

> <Gold.Chemscore.Fitness>
19.2440

> <Gold.Chemscore.DG>
-20.1268

> <Gold.Chemscore.ZeroCoef>
-5.4800

> <Gold.Chemscore.Hbond>
2.0154

> <Gold.Chemscore.Metal>
0.0000

> <Gold.Chemscore.Lipo>
112.8354

> <Gold.Chemscore.Internal_Hbond>
0.0000

> <Gold.Chemscore.DEClash>
0.0470

> <Gold.Chemscore.DEInternal>
0.8358

> <Gold.Chemscore.Rot>
2.0650

> <Gold.Chemscore.Internal.Correction>
   9.000000E+99

> <Gold.Chemscore.Hbonds>
donor molecule, donor type, donor heavy atom, donor atom, acceptor molecule, acceptor atom, score
      L1  H    11    38       P1  7957  0.07
      P1  H  6896  6909       L1     3  0.80
      P1  H  7989  7998       L1    11  0.96

> <Gold.Chemscore.Hbond.Weighted>
-6.7315

> <Gold.Chemscore.Metal.Weighted>
-0.0000

> <Gold.Chemscore.Lipo.Weighted>
-13.2017

> <Gold.Chemscore.Internal_Hbond.Weighted>
0.0000

> <Gold.Chemscore.DEClash.Weighted>
0.0470

> <Gold.Chemscore.DEInternal.Weighted>
0.8358

> <Gold.Chemscore.Rot.Weighted>
5.2865

> <Gold.Chemscore.Internal.Correction.Weighted>
   9.000000E+99

> <Gold.Protein.RotatedTorsions>
[ 6907 6896 6895 6894 ] final   25.92 input  -60.11 | X-H torsion
[ 7974 7965 7964 7962 ] final  -23.07 input  175.53 | X-H torsion
[ 8008 7997 7996 7995 ] final  -20.14 input   59.86 | X-H torsion
[ 10167 10162 10161 10158 ] final    9.49 input  -65.29 | X-H torsion
[ 10718 10713 10712 10709 ] final  -89.55 input   66.30 | X-H torsion
[ 10763 10752 10751 10750 ] final  -22.71 input  -60.55 | X-H torsion
[ 11005 11000 10999 10996 ] final  -98.78 input  -57.11 | X-H torsion

> <Gold.Protein.ActiveResidues>
 VAL166  LYS551  ARG553  GLY616  TRP617  ASP618  TYR619  PRO620  LYS621  CYS622 
 ASP623  PHE694  ASN695  SER759  ASP760  ASP761  ALA762  ILE779  LEU786  VAL792 
 PHE793  MET794  SER795  GLU796  ALA797  LYS798  CYS799  TRP800  GLU811  SER814 

> <Gold.Protein.RotatedAtoms>
  151.9798  135.0034  160.0556 H   0  0  0  0  0  0  0  0  0  0  0  0  # atno 6907 bound_to 6896
  152.1707  133.4637  159.4916 H   0  0  0  0  0  0  0  0  0  0  0  0  # atno 6908 bound_to 6896
  150.6901  134.1874  159.4315 H   0  0  0  0  0  0  0  0  0  0  0  0  # atno 6909 bound_to 6896
  146.1638  140.4566  142.8560 H   0  0  0  0  0  0  0  0  0  0  0  0  # atno 7974 bound_to 7965
  154.4790  140.2070  155.9810 H   0  0  0  0  0  0  0  0  0  0  0  0  # atno 8008 bound_to 7997
  156.1134  140.3225  155.8075 H   0  0  0  0  0  0  0  0  0  0  0  0  # atno 8009 bound_to 7997
  155.4594  140.0523  157.2983 H   0  0  0  0  0  0  0  0  0  0  0  0  # atno 8010 bound_to 7997
  140.6251  143.8118  150.7223 H   0  0  0  0  0  0  0  0  0  0  0  0  # atno 10167 bound_to 10162
  155.9985  130.4876  150.5188 H   0  0  0  0  0  0  0  0  0  0  0  0  # atno 10718 bound_to 10713
  153.6563  135.6978  153.5192 H   0  0  0  0  0  0  0  0  0  0  0  0  # atno 10763 bound_to 10752
  153.2667  135.4227  155.0947 H   0  0  0  0  0  0  0  0  0  0  0  0  # atno 10764 bound_to 10752
  154.8463  135.3568  154.6107 H   0  0  0  0  0  0  0  0  0  0  0  0  # atno 10765 bound_to 10752
  141.1332  133.8271  157.0885 H   0  0  0  0  0  0  0  0  0  0  0  0  # atno 11005 bound_to 11000
  144.8064  140.6307  143.6444 LP  0  0  0  0  0  0  0  0  0  0  0  0  # atno 17320 bound_to 7965
  145.4520  139.1522  143.3913 LP  0  0  0  0  0  0  0  0  0  0  0  0  # atno 17321 bound_to 7965
  140.1717  143.4189  152.1996 LP  0  0  0  0  0  0  0  0  0  0  0  0  # atno 17342 bound_to 10162
  139.5473  144.7309  151.4543 LP  0  0  0  0  0  0  0  0  0  0  0  0  # atno 17343 bound_to 10162
  157.3152  131.0671  151.1972 LP  0  0  0  0  0  0  0  0  0  0  0  0  # atno 17370 bound_to 10713
  157.2905  130.6794  149.6111 LP  0  0  0  0  0  0  0  0  0  0  0  0  # atno 17371 bound_to 10713
  140.0407  134.9856  157.0956 LP  0  0  0  0  0  0  0  0  0  0  0  0  # atno 17394 bound_to 11000
  140.4140  134.1951  155.7163 LP  0  0  0  0  0  0  0  0  0  0  0  0  # atno 17395 bound_to 11000

$$$$
