AV-unprocessed.smi:384|AV-procd|sdf|2466|dock1
  -GOLD-   2262022403D 1   1.00000     0.00000
 Structure written by MMmdl.
 32 33  0  0  0  0  0  0  0  0  2 V2000
  153.1480  143.0748  162.8053 C   0  0  0  0  0  0  0  0  0  0  0  0
  153.3483  142.7227  161.3275 C   0  0  1  0  0  0  0  0  0  0  0  0
  153.4363  141.2015  161.1016 C   0  0  0  0  0  0  0  0  0  0  0  0
  153.5307  140.9128  159.6766 N   0  0  0  0  0  0  0  0  0  0  0  0
  153.7337  139.5537  159.3980 C   0  0  0  0  0  0  0  0  0  0  0  0
  153.6952  138.6253  160.4581 C   0  0  0  0  0  0  0  0  0  0  0  0
  153.8984  137.2615  160.1719 C   0  0  0  0  0  0  0  0  0  0  0  0
  154.1330  136.8654  158.8363 C   0  0  0  0  0  0  0  0  0  0  0  0
  154.3549  135.4223  158.4803 C   0  0  0  0  0  0  0  0  0  0  0  0
  154.5587  135.1204  157.2834 O   0  0  0  0  0  0  0  0  0  0  0  0
  154.3289  134.5662  159.3923 O   0  5  0  0  0  0  0  0  0  0  0  0
  154.1512  137.8758  157.8477 C   0  0  0  0  0  0  0  0  0  0  0  0
  153.9577  139.1858  158.1145 N   0  0  0  0  0  0  0  0  0  0  0  0
  152.4372  141.5051  158.9170 C   0  0  0  0  0  0  0  0  0  0  0  0
  152.3702  143.0206  159.1839 C   0  0  1  0  0  0  0  0  0  0  0  0
  151.1767  143.6771  158.4822 C   0  0  0  0  0  0  0  0  0  0  0  0
  152.2441  143.2406  160.5876 O   0  0  0  0  0  0  0  0  0  0  0  0
  153.9762  142.7074  163.4116 H   0  0  0  0  0  0  0  0  0  0  0  0
  152.2279  142.6379  163.1946 H   0  0  0  0  0  0  0  0  0  0  0  0
  153.0889  144.1546  162.9439 H   0  0  0  0  0  0  0  0  0  0  0  0
  154.2662  143.1995  160.9789 H   0  0  0  0  0  0  0  0  0  0  0  0
  154.3070  140.7938  161.6169 H   0  0  0  0  0  0  0  0  0  0  0  0
  152.5551  140.7112  161.5185 H   0  0  0  0  0  0  0  0  0  0  0  0
  153.5139  138.9486  161.4727 H   0  0  0  0  0  0  0  0  0  0  0  0
  153.8720  136.5383  160.9742 H   0  0  0  0  0  0  0  0  0  0  0  0
  154.3251  137.6384  156.8083 H   0  0  0  0  0  0  0  0  0  0  0  0
  152.5856  141.3159  157.8531 H   0  0  0  0  0  0  0  0  0  0  0  0
  151.4943  141.0351  159.2007 H   0  0  0  0  0  0  0  0  0  0  0  0
  153.2857  143.4971  158.8290 H   0  0  0  0  0  0  0  0  0  0  0  0
  151.2357  143.5443  157.4017 H   0  0  0  0  0  0  0  0  0  0  0  0
  151.1473  144.7482  158.6835 H   0  0  0  0  0  0  0  0  0  0  0  0
  150.2336  143.2482  158.8216 H   0  0  0  0  0  0  0  0  0  0  0  0
  1  2  1  0  0  0  0
  1 18  1  0  0  0  0
  1 19  1  0  0  0  0
  1 20  1  0  0  0  0
  2 17  1  0  0  0  0
  2  3  1  0  0  0  0
  2 21  1  0  0  0  0
  3  4  1  0  0  0  0
  3 22  1  0  0  0  0
  3 23  1  0  0  0  0
  4  5  1  0  0  0  0
  4 14  1  0  0  0  0
  5 13  1  0  0  0  0
  5  6  2  0  0  0  0
  6  7  1  0  0  0  0
  6 24  1  0  0  0  0
  7  8  2  0  0  0  0
  7 25  1  0  0  0  0
  8  9  1  0  0  0  0
  8 12  1  0  0  0  0
  9 10  2  0  0  0  0
  9 11  1  0  0  0  0
 12 13  2  0  0  0  0
 12 26  1  0  0  0  0
 14 15  1  0  0  0  0
 14 27  1  0  0  0  0
 14 28  1  0  0  0  0
 15 16  1  0  0  0  0
 15 17  1  0  0  0  0
 15 29  1  0  0  0  0
 16 30  1  0  0  0  0
 16 31  1  0  0  0  0
 16 32  1  0  0  0  0
M  CHG  1  11  -1
M  END
> <s_m_source_file>
AV-unprocessed.smi

> <i_m_source_file_index>
384

> <i_lp_mmshare_version>
43012

> <i_f3d_flags>
0

> <s_epik_input>
W0NIM11bQ0BASF0xW0NIMl1OKFtDSDJdW0NASF0oTzEpW0NIM10pYzJbY0hdW2NIXWMoW2NIXW4yKUMoPU8pW09IXQ==

> <s_epik_cmdline>
J2VwaWtfcHl0aG9uJywgJy1waCcsICc3LjAnLCAnLXRuJywgJzgnLCAnLW1hJywgJzIwMCcsICctbWV0YWxfYmluZGluZycsICctaW1hZScsICc8aW5maWxlLm1hZT4nLCAnLW9tYWUnLCAnPG91dGZpbGUubWFlPic=

> <r_epik_Ionization_Penalty>
0.0114922

> <r_epik_Ionization_Penalty_Charging>
0.000195896

> <r_epik_Ionization_Penalty_Neutral>
0.0112963

> <r_epik_State_Penalty>
0.00868573

> <r_epik_Charging_Adjusted_Penalty>
0.00888162

> <i_epik_Tot_Q>
-1

> <i_epik_Tot_abs_Q>
1

> <r_epik_Metal_State_Penalty>
8.74964e-06

> <b_epik_Metal_Only>
0

> <s_lp_Force_Field>
OPLS_2005

> <r_lp_Energy>
16.9609

> <b_lp_Chiralities_Consistent>
1

> <s_lp_Variant>
AV-unprocessed.smi:384-2

> <Gold.Version>
5.8.1

> <Gold.Id.Protein>
6NUR|6NUR_protein|mol2

> <Gold.PLP.Fitness>
40.9982

> <Gold.PLP.PLP>
-28.9676

> <Gold.PLP.part.hbond>
-2.8946

> <Gold.PLP.part.metal>
0.0000

> <Gold.PLP.part.buried>
-4.2594

> <Gold.PLP.part.nonpolar>
-22.0113

> <Gold.PLP.part.repulsive>
0.0459

> <Gold.PLP.ligand.clash>
2.9394

> <Gold.PLP.ligand.torsion>
0.0499

> <Gold.PLP.Chemscore.Hbond>
4.9913

> <Gold.PLP.Chemscore.CHOScore>
0.0000

> <Gold.PLP.Chemscore.Metal>
0.0000

> <Gold.Chemscore.Hbonds>
donor molecule, donor type, donor heavy atom, donor atom, acceptor molecule, acceptor atom, score
      P1  H  6896  6908       L1    11  2.00
      P1  H  7997  8009       L1    13  0.96
      P1  H 10752 10764       L1    10  2.00

> <Gold.PLP.Chemscore.Internal.Correction>
0.0961

> <Gold.Rescore>
     Score         DG    S(hbond)    S(metal)    S(lipo)     H(rot)  DE(clash)    DE(int)     intcor
     22.10     -22.18       2.86        0.00      82.94       1.00       0.01       0.07       ----

> <Gold.Chemscore.Fitness>
22.1037

> <Gold.Chemscore.DG>
-22.1789

> <Gold.Chemscore.ZeroCoef>
-5.4800

> <Gold.Chemscore.Hbond>
2.8608

> <Gold.Chemscore.Metal>
0.0000

> <Gold.Chemscore.Lipo>
82.9387

> <Gold.Chemscore.Internal_Hbond>
0.0000

> <Gold.Chemscore.DEClash>
0.0098

> <Gold.Chemscore.DEInternal>
0.0654

> <Gold.Chemscore.Rot>
1.0000

> <Gold.Chemscore.Internal.Correction>
   9.000000E+99

> <Gold.Chemscore.Hbonds>
donor molecule, donor type, donor heavy atom, donor atom, acceptor molecule, acceptor atom, score
      P1  H  6896  6908       L1    11  0.65
      P1  H  7997  8009       L1    13  0.63
      P1  H 10752 10764       L1    10  0.99

> <Gold.Chemscore.Hbond.Weighted>
-9.5551

> <Gold.Chemscore.Metal.Weighted>
-0.0000

> <Gold.Chemscore.Lipo.Weighted>
-9.7038

> <Gold.Chemscore.Internal_Hbond.Weighted>
0.0000

> <Gold.Chemscore.DEClash.Weighted>
0.0098

> <Gold.Chemscore.DEInternal.Weighted>
0.0654

> <Gold.Chemscore.Rot.Weighted>
2.5600

> <Gold.Chemscore.Internal.Correction.Weighted>
   9.000000E+99

> <Gold.Protein.RotatedTorsions>
[ 6907 6896 6895 6894 ] final  -40.19 input  -60.11 | X-H torsion
[ 7974 7965 7964 7962 ] final -104.14 input  175.53 | X-H torsion
[ 8008 7997 7996 7995 ] final  154.71 input   59.86 | X-H torsion
[ 10167 10162 10161 10158 ] final  151.08 input  -65.29 | X-H torsion
[ 10718 10713 10712 10709 ] final  -19.64 input   66.30 | X-H torsion
[ 10763 10752 10751 10750 ] final   31.98 input  -60.55 | X-H torsion
[ 11005 11000 10999 10996 ] final   -8.13 input  -57.11 | X-H torsion

> <Gold.Protein.ActiveResidues>
 VAL166  LYS551  ARG553  GLY616  TRP617  ASP618  TYR619  PRO620  LYS621  CYS622 
 ASP623  PHE694  ASN695  SER759  ASP760  ASP761  ALA762  ILE779  LEU786  VAL792 
 PHE793  MET794  SER795  GLU796  ALA797  LYS798  CYS799  TRP800  GLU811  SER814 

> <Gold.Protein.RotatedAtoms>
  150.9814  134.9168  159.7846 H   0  0  0  0  0  0  0  0  0  0  0  0  # atno 6907 bound_to 6896
  152.5223  134.3405  159.9225 H   0  0  0  0  0  0  0  0  0  0  0  0  # atno 6908 bound_to 6896
  151.3413  133.3920  159.2706 H   0  0  0  0  0  0  0  0  0  0  0  0  # atno 6909 bound_to 6896
  145.2470  140.9225  143.3117 H   0  0  0  0  0  0  0  0  0  0  0  0  # atno 7974 bound_to 7965
  156.2517  140.1959  156.6689 H   0  0  0  0  0  0  0  0  0  0  0  0  # atno 8008 bound_to 7997
  154.6408  140.0584  156.9869 H   0  0  0  0  0  0  0  0  0  0  0  0  # atno 8009 bound_to 7997
  155.1566  140.3256  155.4423 H   0  0  0  0  0  0  0  0  0  0  0  0  # atno 8010 bound_to 7997
  139.4844  144.5470  151.7467 H   0  0  0  0  0  0  0  0  0  0  0  0  # atno 10167 bound_to 10162
  156.5429  130.4682  149.6490 H   0  0  0  0  0  0  0  0  0  0  0  0  # atno 10718 bound_to 10713
  153.0286  135.6425  154.1284 H   0  0  0  0  0  0  0  0  0  0  0  0  # atno 10763 bound_to 10752
  154.1009  135.2859  155.3253 H   0  0  0  0  0  0  0  0  0  0  0  0  # atno 10764 bound_to 10752
  154.6399  135.5463  153.7840 H   0  0  0  0  0  0  0  0  0  0  0  0  # atno 10765 bound_to 10752
  140.7202  133.8835  155.8815 H   0  0  0  0  0  0  0  0  0  0  0  0  # atno 11005 bound_to 11000
  144.9537  139.4054  143.6390 LP  0  0  0  0  0  0  0  0  0  0  0  0  # atno 17320 bound_to 7965
  146.3313  139.8557  142.8865 LP  0  0  0  0  0  0  0  0  0  0  0  0  # atno 17321 bound_to 7965
  140.5018  144.1157  150.5973 LP  0  0  0  0  0  0  0  0  0  0  0  0  # atno 17342 bound_to 10162
  140.4053  143.2683  151.9898 LP  0  0  0  0  0  0  0  0  0  0  0  0  # atno 17343 bound_to 10162
  156.2955  130.7148  151.2007 LP  0  0  0  0  0  0  0  0  0  0  0  0  # atno 17370 bound_to 10713
  157.7402  131.0520  150.5182 LP  0  0  0  0  0  0  0  0  0  0  0  0  # atno 17371 bound_to 10713
  141.0010  134.1150  157.4317 LP  0  0  0  0  0  0  0  0  0  0  0  0  # atno 17394 bound_to 11000
  139.8850  135.0068  156.6405 LP  0  0  0  0  0  0  0  0  0  0  0  0  # atno 17395 bound_to 11000

$$$$
