#       Name:                AV-unprocessed.smi:2467
#       Creating user name   scv26
#       Creation time:       Fri Mar 27 13:36:57 2020


#       File generated by GOLD software.
#

@<TRIPOS>MOLECULE
AV-unprocessed.smi:2467
    51    52     1
SMALL
NO_CHARGES


@<TRIPOS>ATOM
      1 ****        -2.7711  -3.4262   2.2760 C.3            1 S1                 0.0000
      2 ****        -3.0223  -3.2723   0.7680 C.3            1 S1                 0.0000
      3 ****        -2.5688  -1.9158   0.1730 C.3            1 S1                 0.0000
      4 ****        -3.1859  -1.6885  -1.2304 C.3            1 S1                 0.0000
      5 ****        -4.6930  -1.3907  -1.2183 C.3            1 S1                 0.0000
      6 ****        -1.0222  -1.7899   0.1618 C.3            1 S1                 0.0000
      7 ****        -0.5023  -0.3526  -0.0646 C.3            1 S1                 0.0000
      8 ****         1.0364  -0.3442  -0.0599 C.3            1 S1                 0.0000
      9 ****         1.6016   0.9935  -0.2486 N.am           1 S1                 0.0000
     10 ****         1.4914   1.7993  -1.3205 C.2            1 S1                 0.0000
     11 ****         0.8730   1.4864  -2.3362 O.2            1 S1                 0.0000
     12 ****         2.1070   2.9981  -1.2317 N.am           1 S1                 0.0000
     13 ****         2.2036   4.0860  -2.1490 C.ar           1 S1                 0.0000
     14 ****         2.9301   5.1967  -1.6632 C.ar           1 S1                 0.0000
     15 ****         3.0993   6.3310  -2.4809 C.ar           1 S1                 0.0000
     16 ****         2.5367   6.3273  -3.7692 C.ar           1 S1                 0.0000
     17 ****         1.8285   5.1833  -4.1787 C.ar           1 S1                 0.0000
     18 ****         1.6662   4.0958  -3.3957 N.ar           1 S1                 0.0000
     19 ****         1.5673  -1.3748  -1.0718 C.3            1 S1                 0.0000
     20 ****         0.9405  -2.7515  -0.7991 C.3            1 S1                 0.0000
     21 ****        -0.4813  -2.6608  -0.8316 O.3            1 S1                 0.0000
     22 ****        -3.2145  -4.3517   2.6436 H              1 S1                 0.0000
     23 ****        -3.2158  -2.6031   2.8357 H              1 S1                 0.0000
     24 ****        -1.7092  -3.4634   2.5154 H              1 S1                 0.0000
     25 ****        -2.5446  -4.0923   0.2310 H              1 S1                 0.0000
     26 ****        -4.0918  -3.4037   0.6126 H              1 S1                 0.0000
     27 ****        -2.9500  -1.1304   0.8271 H              1 S1                 0.0000
     28 ****        -2.7039  -0.8470  -1.7237 H              1 S1                 0.0000
     29 ****        -2.9897  -2.5524  -1.8664 H              1 S1                 0.0000
     30 ****        -5.0450  -1.1584  -2.2236 H              1 S1                 0.0000
     31 ****        -4.9198  -0.5332  -0.5843 H              1 S1                 0.0000
     32 ****        -5.2776  -2.2374  -0.8612 H              1 S1                 0.0000
     33 ****        -0.6443  -2.1095   1.1326 H              1 S1                 0.0000
     34 ****        -0.8674   0.0393  -1.0117 H              1 S1                 0.0000
     35 ****        -0.8819   0.3097   0.7144 H              1 S1                 0.0000
     36 ****         1.3656  -0.6568   0.9319 H              1 S1                 0.0000
     37 ****         2.1348   1.3557   0.5297 H              1 S1                 0.0000
     38 ****         2.6031   3.1436  -0.3645 H              1 S1                 0.0000
     39 ****         3.3577   5.1844  -0.6710 H              1 S1                 0.0000
     40 ****         3.6519   7.1878  -2.1251 H              1 S1                 0.0000
     41 ****         2.6453   7.1778  -4.4257 H              1 S1                 0.0000
     42 ****         1.3815   5.1384  -5.1606 H              1 S1                 0.0000
     43 ****         1.3259  -1.0760  -2.0918 H              1 S1                 0.0000
     44 ****         2.6541  -1.4409  -1.0129 H              1 S1                 0.0000
     45 ****         1.2641  -3.4653  -1.5567 H              1 S1                 0.0000
     46 ****         1.2671  -3.1437   0.1652 H              1 S1                 0.0000
     47 ****         0.4218   0.5957  -2.3924 LP             1 S1                 0.0000
     48 ****         0.8213   2.1225  -3.1060 LP             1 S1                 0.0000
     49 ****         1.1547   3.3045  -3.7309 LP             1 S1                 0.0000
     50 ****        -0.7558  -2.3226  -1.7317 LP             1 S1                 0.0000
     51 ****        -0.8596  -3.5756  -0.6897 LP             1 S1                 0.0000
@<TRIPOS>BOND
    1    1    2 1     
    2    1   22 1     
    3    1   23 1     
    4    1   24 1     
    5    2    3 1     
    6    2   25 1     
    7    2   26 1     
    8    3    4 1     
    9    3    6 1     
   10    3   27 1     
   11    4    5 1     
   12    4   28 1     
   13    4   29 1     
   14    5   30 1     
   15    5   31 1     
   16    5   32 1     
   17    6   21 1     
   18    6    7 1     
   19    6   33 1     
   20    7    8 1     
   21    7   34 1     
   22    7   35 1     
   23    8    9 1     
   24    8   19 1     
   25    8   36 1     
   26    9   10 am    
   27    9   37 1     
   28   10   11 2     
   29   10   12 am    
   30   12   13 1     
   31   12   38 1     
   32   13   18 ar    
   33   13   14 ar    
   34   14   15 ar    
   35   14   39 1     
   36   15   16 ar    
   37   15   40 1     
   38   16   17 ar    
   39   16   41 1     
   40   17   18 ar    
   41   17   42 1     
   42   19   20 1     
   43   19   43 1     
   44   19   44 1     
   45   20   21 1     
   46   20   45 1     
   47   20   46 1     
   48   11   47 1     
   49   11   48 1     
   50   18   49 1     
   51   21   50 1     
   52   21   51 1     
@<TRIPOS>SUBSTRUCTURE
      1 S1             1
@<TRIPOS>SET
LONE_PAIRS      STATIC     ATOMS    <user>   **** ""
5 47 48 49 50 51
DONOR_HYDROGENS      STATIC     ATOMS    <user>   **** ""
2 37 38
ATOM$BLUE        STATIC     ATOMS    COLORGROUP SYSTEM
5 47 48 49 50 51
ATOM$RED        STATIC     ATOMS    COLORGROUP SYSTEM
2 37 38
