AV-unprocessed.smi:1365|AV-procd|sdf|5568|dock6
  -GOLD-   22720 5163D 1   1.00000     0.00000
 Structure written by MMmdl.
 42 43  0  0  0  0  0  0  0  0  2 V2000
  152.2686  140.3399  158.1816 C   0  0  0  0  0  0  0  0  0  0  0  0
  151.7132  139.7599  156.9257 C   0  0  0  0  0  0  0  0  0  0  0  0
  150.5569  139.0884  156.6433 C   0  0  0  0  0  0  0  0  0  0  0  0
  150.6751  138.8179  155.2541 C   0  0  0  0  0  0  0  0  0  0  0  0
  149.6589  138.1122  154.5600 N   0  0  0  0  0  0  0  0  0  0  0  0
  148.4970  137.6535  155.0558 C   0  0  0  0  0  0  0  0  0  0  0  0
  148.1325  137.7614  156.2272 O   0  0  0  0  0  0  0  0  0  0  0  0
  147.7611  137.0570  154.1063 N   0  0  0  0  0  0  0  0  0  0  0  0
  146.4263  136.5056  154.3106 C   0  0  0  0  0  0  0  0  0  0  0  0
  146.1735  135.2704  153.4302 C   0  0  0  0  0  0  0  0  0  0  0  0
  145.0328  134.3945  153.9756 C   0  0  0  0  0  0  0  0  0  0  0  0
  144.6529  133.3104  153.0350 N   0  3  0  0  0  0  0  0  0  0  0  0
  144.0467  133.8369  151.7835 C   0  0  0  0  0  0  0  0  0  0  0  0
  143.5396  132.6953  150.8856 C   0  0  0  0  0  0  0  0  0  0  0  0
  144.6666  131.7045  150.5678 C   0  0  0  0  0  0  0  0  0  0  0  0
  145.2979  131.1974  151.8707 C   0  0  0  0  0  0  0  0  0  0  0  0
  145.7692  132.3695  152.7478 C   0  0  0  0  0  0  0  0  0  0  0  0
  151.7989  139.2870  154.7338 N   0  0  0  0  0  0  0  0  0  0  0  0
  152.4704  139.8924  155.8027 O   0  0  0  0  0  0  0  0  0  0  0  0
  151.4804  140.5022  158.9169 H   0  0  0  0  0  0  0  0  0  0  0  0
  152.7506  141.2983  157.9874 H   0  0  0  0  0  0  0  0  0  0  0  0
  153.0089  139.6707  158.6204 H   0  0  0  0  0  0  0  0  0  0  0  0
  149.7602  138.8291  157.3250 H   0  0  0  0  0  0  0  0  0  0  0  0
  149.8256  137.9604  153.5763 H   0  0  0  0  0  0  0  0  0  0  0  0
  148.1382  137.0075  153.1710 H   0  0  0  0  0  0  0  0  0  0  0  0
  146.2863  136.2606  155.3649 H   0  0  0  0  0  0  0  0  0  0  0  0
  145.6998  137.2837  154.0751 H   0  0  0  0  0  0  0  0  0  0  0  0
  145.9519  135.6002  152.4154 H   0  0  0  0  0  0  0  0  0  0  0  0
  147.0826  134.6706  153.3688 H   0  0  0  0  0  0  0  0  0  0  0  0
  145.3726  133.9520  154.9132 H   0  0  0  0  0  0  0  0  0  0  0  0
  144.1587  134.9992  154.2217 H   0  0  0  0  0  0  0  0  0  0  0  0
  143.2113  134.4950  152.0263 H   0  0  0  0  0  0  0  0  0  0  0  0
  144.7812  134.4401  151.2472 H   0  0  0  0  0  0  0  0  0  0  0  0
  142.7212  132.1732  151.3833 H   0  0  0  0  0  0  0  0  0  0  0  0
  143.1293  133.1016  149.9605 H   0  0  0  0  0  0  0  0  0  0  0  0
  144.2814  130.8682  149.9836 H   0  0  0  0  0  0  0  0  0  0  0  0
  145.4254  132.1922  149.9544 H   0  0  0  0  0  0  0  0  0  0  0  0
  144.5725  130.5967  152.4208 H   0  0  0  0  0  0  0  0  0  0  0  0
  146.1379  130.5392  151.6457 H   0  0  0  0  0  0  0  0  0  0  0  0
  146.5790  132.9056  152.2499 H   0  0  0  0  0  0  0  0  0  0  0  0
  146.1791  131.9726  153.6759 H   0  0  0  0  0  0  0  0  0  0  0  0
  143.9270  132.7776  153.4932 H   0  0  0  0  0  0  0  0  0  0  0  0
  1  2  1  0  0  0  0
  1 20  1  0  0  0  0
  1 21  1  0  0  0  0
  1 22  1  0  0  0  0
  2 19  1  0  0  0  0
  2  3  2  0  0  0  0
  3  4  1  0  0  0  0
  3 23  1  0  0  0  0
  4  5  1  0  0  0  0
  4 18  2  0  0  0  0
  5  6  1  0  0  0  0
  5 24  1  0  0  0  0
  6  7  2  0  0  0  0
  6  8  1  0  0  0  0
  8  9  1  0  0  0  0
  8 25  1  0  0  0  0
  9 10  1  0  0  0  0
  9 26  1  0  0  0  0
  9 27  1  0  0  0  0
 10 11  1  0  0  0  0
 10 28  1  0  0  0  0
 10 29  1  0  0  0  0
 11 12  1  0  0  0  0
 11 30  1  0  0  0  0
 11 31  1  0  0  0  0
 12 17  1  0  0  0  0
 12 13  1  0  0  0  0
 12 42  1  0  0  0  0
 13 14  1  0  0  0  0
 13 32  1  0  0  0  0
 13 33  1  0  0  0  0
 14 15  1  0  0  0  0
 14 34  1  0  0  0  0
 14 35  1  0  0  0  0
 15 16  1  0  0  0  0
 15 36  1  0  0  0  0
 15 37  1  0  0  0  0
 16 17  1  0  0  0  0
 16 38  1  0  0  0  0
 16 39  1  0  0  0  0
 17 40  1  0  0  0  0
 17 41  1  0  0  0  0
 18 19  1  0  0  0  0
M  CHG  1  12   1
M  END
> <s_m_source_file>
AV-unprocessed.smi

> <i_m_source_file_index>
1365

> <i_lp_mmshare_version>
43012

> <i_f3d_flags>
0

> <s_epik_input>
W0NIM11jMVtjSF1jKG5vMSlbTkhdQyg9TylbTkhdW0NIMl1bQ0gyXVtDSDJdTjJbQ0gyXVtDSDJdW0NIMl1bQ0gyXVtDSDJdMg==

> <s_epik_cmdline>
J2VwaWtfcHl0aG9uJywgJy1waCcsICc3LjAnLCAnLXRuJywgJzgnLCAnLW1hJywgJzIwMCcsICctbWV0YWxfYmluZGluZycsICctaW1hZScsICc8aW5maWxlLm1hZT4nLCAnLW9tYWUnLCAnPG91dGZpbGUubWFlPic=

> <r_epik_Ionization_Penalty>
0.000389345

> <r_epik_Ionization_Penalty_Charging>
0.000358942

> <r_epik_Ionization_Penalty_Neutral>
3.04028e-05

> <r_epik_State_Penalty>
0.000218395

> <r_epik_Charging_Adjusted_Penalty>
0.000577337

> <i_epik_Tot_Q>
1

> <i_epik_Tot_abs_Q>
1

> <r_epik_Metal_State_Penalty>
0.0112716

> <b_epik_Metal_Only>
0

> <s_lp_Force_Field>
OPLS_2005

> <r_lp_Energy>
13.5089

> <b_lp_Chiralities_Consistent>
1

> <s_lp_Variant>
AV-unprocessed.smi:1365-1

> <Gold.Version>
5.8.1

> <Gold.Id.Protein>
6NUR|6NUR_protein|mol2

> <Gold.PLP.Fitness>
39.8848

> <Gold.PLP.PLP>
-25.4829

> <Gold.PLP.part.hbond>
-3.9972

> <Gold.PLP.part.metal>
0.0000

> <Gold.PLP.part.buried>
-4.8874

> <Gold.PLP.part.nonpolar>
-16.5672

> <Gold.PLP.part.repulsive>
0.1022

> <Gold.PLP.ligand.clash>
0.0000

> <Gold.PLP.ligand.torsion>
0.3135

> <Gold.PLP.Chemscore.Hbond>
5.0000

> <Gold.PLP.Chemscore.CHOScore>
0.0000

> <Gold.PLP.Chemscore.Metal>
0.0000

> <Gold.Chemscore.Hbonds>
donor molecule, donor type, donor heavy atom, donor atom, acceptor molecule, acceptor atom, score
      L1  H     8    25       P1  7948  1.00
      L1  H    12    42       P1 10957  1.85
      P1  H  7989  7998       L1    18  1.00
      P1  H  7997  8009       L1    19  1.00

> <Gold.PLP.Chemscore.Internal.Correction>
0.0288

> <Gold.Rescore>
     Score         DG    S(hbond)    S(metal)    S(lipo)     H(rot)  DE(clash)    DE(int)     intcor
     15.88     -17.56       3.19        0.00      52.04       1.82       0.01       1.67       ----

> <Gold.Chemscore.Fitness>
15.8844

> <Gold.Chemscore.DG>
-17.5604

> <Gold.Chemscore.ZeroCoef>
-5.4800

> <Gold.Chemscore.Hbond>
3.1888

> <Gold.Chemscore.Metal>
0.0000

> <Gold.Chemscore.Lipo>
52.0429

> <Gold.Chemscore.Internal_Hbond>
0.0000

> <Gold.Chemscore.DEClash>
0.0060

> <Gold.Chemscore.DEInternal>
1.6701

> <Gold.Chemscore.Rot>
1.8201

> <Gold.Chemscore.Internal.Correction>
   9.000000E+99

> <Gold.Chemscore.Hbonds>
donor molecule, donor type, donor heavy atom, donor atom, acceptor molecule, acceptor atom, score
      L1  H     8    25       P1  7948  0.98
      L1  H    12    42       P1 10957  0.53
      P1  H  7989  7998       L1    18  0.23
      P1  H  7997  8009       L1    19  0.78

> <Gold.Chemscore.Hbond.Weighted>
-10.6508

> <Gold.Chemscore.Metal.Weighted>
-0.0000

> <Gold.Chemscore.Lipo.Weighted>
-6.0890

> <Gold.Chemscore.Internal_Hbond.Weighted>
0.0000

> <Gold.Chemscore.DEClash.Weighted>
0.0060

> <Gold.Chemscore.DEInternal.Weighted>
1.6701

> <Gold.Chemscore.Rot.Weighted>
4.6593

> <Gold.Chemscore.Internal.Correction.Weighted>
   9.000000E+99

> <Gold.Protein.RotatedTorsions>
[ 6907 6896 6895 6894 ] final -152.04 input  -60.11 | X-H torsion
[ 7974 7965 7964 7962 ] final  -65.66 input  175.53 | X-H torsion
[ 8008 7997 7996 7995 ] final -157.89 input   59.86 | X-H torsion
[ 10167 10162 10161 10158 ] final  150.95 input  -65.29 | X-H torsion
[ 10718 10713 10712 10709 ] final   15.90 input   66.30 | X-H torsion
[ 10763 10752 10751 10750 ] final -177.22 input  -60.55 | X-H torsion
[ 11005 11000 10999 10996 ] final   93.22 input  -57.11 | X-H torsion

> <Gold.Protein.ActiveResidues>
 VAL166  LYS551  ARG553  GLY616  TRP617  ASP618  TYR619  PRO620  LYS621  CYS622 
 ASP623  PHE694  ASN695  SER759  ASP760  ASP761  ALA762  ILE779  LEU786  VAL792 
 PHE793  MET794  SER795  GLU796  ALA797  LYS798  CYS799  TRP800  GLU811  SER814 

> <Gold.Protein.RotatedAtoms>
  151.2219  133.4497  159.2600 H   0  0  0  0  0  0  0  0  0  0  0  0  # atno 6907 bound_to 6896
  151.0876  134.9897  159.8397 H   0  0  0  0  0  0  0  0  0  0  0  0  # atno 6908 bound_to 6896
  152.5431  134.2155  159.8819 H   0  0  0  0  0  0  0  0  0  0  0  0  # atno 6909 bound_to 6896
  145.7515  140.8906  143.0477 H   0  0  0  0  0  0  0  0  0  0  0  0  # atno 7974 bound_to 7965
  155.7393  140.0812  157.2253 H   0  0  0  0  0  0  0  0  0  0  0  0  # atno 8008 bound_to 7997
  154.4024  140.1581  156.2653 H   0  0  0  0  0  0  0  0  0  0  0  0  # atno 8009 bound_to 7997
  155.9035  140.3408  155.6047 H   0  0  0  0  0  0  0  0  0  0  0  0  # atno 8010 bound_to 7997
  139.4845  144.5480  151.7450 H   0  0  0  0  0  0  0  0  0  0  0  0  # atno 10167 bound_to 10162
  157.0601  130.6305  149.5784 H   0  0  0  0  0  0  0  0  0  0  0  0  # atno 10718 bound_to 10713
  154.5628  135.2821  155.0903 H   0  0  0  0  0  0  0  0  0  0  0  0  # atno 10763 bound_to 10752
  154.2306  135.6375  153.5178 H   0  0  0  0  0  0  0  0  0  0  0  0  # atno 10764 bound_to 10752
  153.0034  135.5536  154.6227 H   0  0  0  0  0  0  0  0  0  0  0  0  # atno 10765 bound_to 10752
  139.8813  134.8778  156.3687 H   0  0  0  0  0  0  0  0  0  0  0  0  # atno 11005 bound_to 11000
  144.6849  139.9597  143.7480 LP  0  0  0  0  0  0  0  0  0  0  0  0  # atno 17320 bound_to 7965
  146.0352  139.3371  143.0731 LP  0  0  0  0  0  0  0  0  0  0  0  0  # atno 17321 bound_to 7965
  140.5030  144.1140  150.5975 LP  0  0  0  0  0  0  0  0  0  0  0  0  # atno 17342 bound_to 10162
  140.4040  143.2689  151.9913 LP  0  0  0  0  0  0  0  0  0  0  0  0  # atno 17343 bound_to 10162
  155.9981  130.5054  150.7558 LP  0  0  0  0  0  0  0  0  0  0  0  0  # atno 17370 bound_to 10713
  157.4961  131.0915  151.0369 LP  0  0  0  0  0  0  0  0  0  0  0  0  # atno 17371 bound_to 10713
  140.9479  133.7470  156.0233 LP  0  0  0  0  0  0  0  0  0  0  0  0  # atno 17394 bound_to 11000
  140.8141  134.3366  157.5403 LP  0  0  0  0  0  0  0  0  0  0  0  0  # atno 17395 bound_to 11000

$$$$
