AV-unprocessed.smi:275|AV-procd|sdf|2062|dock1
  -GOLD-   2262021303D 1   1.00000     0.00000
 Structure written by MMmdl.
 65 69  0  0  0  0  0  0  0  0  1 V2000
  153.8649  139.4452  161.0850 C   0  0  0  0  0  0  0  0  0  0  0  0
  153.6082  140.9550  160.8947 C   0  0  0  0  0  0  0  0  0  0  0  0
  153.6933  141.6760  162.2500 C   0  0  0  0  0  0  0  0  0  0  0  0
  152.3072  141.3401  160.1555 C   0  0  2  0  0  0  0  0  0  0  0  0
  152.1915  140.8113  158.8016 N   0  0  0  0  0  0  0  0  0  0  0  0
  151.6006  139.5246  158.6928 C   0  0  0  0  0  0  0  0  0  0  0  0
  152.4071  138.4685  158.9670 N   0  0  0  0  0  0  0  0  0  0  0  0
  151.9511  137.2144  158.9047 C   0  0  0  0  0  0  0  0  0  0  0  0
  150.7287  136.7877  158.5886 N   0  0  0  0  0  0  0  0  0  0  0  0
  149.9039  137.8357  158.3105 C   0  0  0  0  0  0  0  0  0  0  0  0
  150.2518  139.2171  158.3384 C   0  0  0  0  0  0  0  0  0  0  0  0
  149.1404  139.9823  157.9990 N   0  0  0  0  0  0  0  0  0  0  0  0
  148.1961  139.1078  157.7851 C   0  0  0  0  0  0  0  0  0  0  0  0
  148.5717  137.7938  157.9421 N   0  0  0  0  0  0  0  0  0  0  0  0
  147.7370  136.6189  157.7618 C   0  0  0  0  0  0  0  0  0  0  0  0
  147.7201  135.6886  159.0005 C   0  0  2  0  0  0  0  0  0  0  0  0
  147.4655  134.2071  158.6304 C   0  0  0  0  0  0  0  0  0  0  0  0
  148.4015  133.7437  157.6786 O   0  0  0  0  0  0  0  0  0  0  0  0
  146.7396  136.1996  160.0864 C   0  0  2  0  0  0  0  0  0  0  0  0
  146.7232  135.3809  161.3653 C   0  0  0  0  0  0  0  0  0  0  0  0
  145.4035  135.8029  162.0024 C   0  0  0  0  0  0  0  0  0  0  0  0
  144.5268  136.0919  160.9192 O   0  0  0  0  0  0  0  0  0  0  0  0
  145.2588  136.1329  159.6983 C   0  0  0  0  0  0  0  0  0  0  0  0
  151.3401  141.9250  158.4105 C   0  0  0  0  0  0  0  0  0  0  0  0
  152.0048  142.7298  159.5431 C   0  0  0  0  0  0  0  0  0  0  0  0
  151.0670  143.6011  160.3966 C   0  0  0  0  0  0  0  0  0  0  0  0
  150.5768  144.8621  159.6674 C   0  0  0  0  0  0  0  0  0  0  0  0
  151.7570  145.7249  159.2086 C   0  0  0  0  0  0  0  0  0  0  0  0
  152.7392  144.9014  158.3688 C   0  0  0  0  0  0  0  0  0  0  0  0
  153.1833  143.6257  159.1061 C   0  0  0  0  0  0  0  0  0  0  0  0
  153.0453  138.9540  161.6098 H   0  0  0  0  0  0  0  0  0  0  0  0
  154.7653  139.2830  161.6778 H   0  0  0  0  0  0  0  0  0  0  0  0
  154.0276  138.9263  160.1441 H   0  0  0  0  0  0  0  0  0  0  0  0
  154.4406  141.3372  160.3027 H   0  0  0  0  0  0  0  0  0  0  0  0
  152.9133  141.3353  162.9313 H   0  0  0  0  0  0  0  0  0  0  0  0
  153.5828  142.7542  162.1315 H   0  0  0  0  0  0  0  0  0  0  0  0
  154.6545  141.4981  162.7325 H   0  0  0  0  0  0  0  0  0  0  0  0
  151.4408  141.0518  160.7520 H   0  0  0  0  0  0  0  0  0  0  0  0
  152.6694  136.4435  159.1419 H   0  0  0  0  0  0  0  0  0  0  0  0
  147.1962  139.3980  157.4962 H   0  0  0  0  0  0  0  0  0  0  0  0
  146.7305  136.9646  157.5263 H   0  0  0  0  0  0  0  0  0  0  0  0
  148.0889  136.0753  156.8840 H   0  0  0  0  0  0  0  0  0  0  0  0
  148.7209  135.7245  159.4338 H   0  0  0  0  0  0  0  0  0  0  0  0
  147.5168  133.5683  159.5121 H   0  0  0  0  0  0  0  0  0  0  0  0
  146.4621  134.0749  158.2263 H   0  0  0  0  0  0  0  0  0  0  0  0
  147.9306  133.4319  156.9207 H   0  0  0  0  0  0  0  0  0  0  0  0
  146.9842  137.2315  160.3442 H   0  0  0  0  0  0  0  0  0  0  0  0
  146.7039  134.3143  161.1365 H   0  0  0  0  0  0  0  0  0  0  0  0
  147.5773  135.5754  162.0141 H   0  0  0  0  0  0  0  0  0  0  0  0
  144.9916  135.0338  162.6561 H   0  0  0  0  0  0  0  0  0  0  0  0
  145.5384  136.7115  162.5904 H   0  0  0  0  0  0  0  0  0  0  0  0
  144.9491  136.9804  159.0864 H   0  0  0  0  0  0  0  0  0  0  0  0
  145.0452  135.2191  159.1421 H   0  0  0  0  0  0  0  0  0  0  0  0
  151.5474  142.2966  157.4069 H   0  0  0  0  0  0  0  0  0  0  0  0
  150.2748  141.7538  158.5663 H   0  0  0  0  0  0  0  0  0  0  0  0
  150.1975  143.0231  160.7121 H   0  0  0  0  0  0  0  0  0  0  0  0
  151.5719  143.8938  161.3181 H   0  0  0  0  0  0  0  0  0  0  0  0
  149.9730  144.5761  158.8054 H   0  0  0  0  0  0  0  0  0  0  0  0
  149.9265  145.4422  160.3226 H   0  0  0  0  0  0  0  0  0  0  0  0
  151.3975  146.5801  158.6355 H   0  0  0  0  0  0  0  0  0  0  0  0
  152.2731  146.1292  160.0802 H   0  0  0  0  0  0  0  0  0  0  0  0
  152.2697  144.6316  157.4222 H   0  0  0  0  0  0  0  0  0  0  0  0
  153.6100  145.5073  158.1170 H   0  0  0  0  0  0  0  0  0  0  0  0
  153.7870  143.9008  159.9718 H   0  0  0  0  0  0  0  0  0  0  0  0
  153.8427  143.0811  158.4313 H   0  0  0  0  0  0  0  0  0  0  0  0
  1  2  1  0  0  0  0
  1 31  1  0  0  0  0
  1 32  1  0  0  0  0
  1 33  1  0  0  0  0
  2  3  1  0  0  0  0
  2  4  1  0  0  0  0
  2 34  1  0  0  0  0
  3 35  1  0  0  0  0
  3 36  1  0  0  0  0
  3 37  1  0  0  0  0
  4 25  1  0  0  0  0
  4  5  1  0  0  0  0
  4 38  1  0  0  0  0
  5  6  1  0  0  0  0
  5 24  1  0  0  0  0
  6 11  1  0  0  0  0
  6  7  2  0  0  0  0
  7  8  1  0  0  0  0
  8  9  2  0  0  0  0
  8 39  1  0  0  0  0
  9 10  1  0  0  0  0
 10 14  1  0  0  0  0
 10 11  2  0  0  0  0
 11 12  1  0  0  0  0
 12 13  2  0  0  0  0
 13 14  1  0  0  0  0
 13 40  1  0  0  0  0
 14 15  1  0  0  0  0
 15 16  1  0  0  0  0
 15 41  1  0  0  0  0
 15 42  1  0  0  0  0
 16 17  1  0  0  0  0
 16 19  1  0  0  0  0
 16 43  1  0  0  0  0
 17 18  1  0  0  0  0
 17 44  1  0  0  0  0
 17 45  1  0  0  0  0
 18 46  1  0  0  0  0
 19 23  1  0  0  0  0
 19 20  1  0  0  0  0
 19 47  1  0  0  0  0
 20 21  1  0  0  0  0
 20 48  1  0  0  0  0
 20 49  1  0  0  0  0
 21 22  1  0  0  0  0
 21 50  1  0  0  0  0
 21 51  1  0  0  0  0
 22 23  1  0  0  0  0
 23 52  1  0  0  0  0
 23 53  1  0  0  0  0
 24 25  1  0  0  0  0
 24 54  1  0  0  0  0
 24 55  1  0  0  0  0
 25 30  1  0  0  0  0
 25 26  1  0  0  0  0
 26 27  1  0  0  0  0
 26 56  1  0  0  0  0
 26 57  1  0  0  0  0
 27 28  1  0  0  0  0
 27 58  1  0  0  0  0
 27 59  1  0  0  0  0
 28 29  1  0  0  0  0
 28 60  1  0  0  0  0
 28 61  1  0  0  0  0
 29 30  1  0  0  0  0
 29 62  1  0  0  0  0
 29 63  1  0  0  0  0
 30 64  1  0  0  0  0
 30 65  1  0  0  0  0
M  END
> <s_m_source_file>
AV-unprocessed.smi

> <i_m_source_file_index>
275

> <i_lp_mmshare_version>
43012

> <i_f3d_flags>
0

> <s_epik_input>
W0NIMl0xW0NIMl1bQ0gyXVtDSDJdW0NIMl1DMTJbQ0BIXShbQ0hdKFtDSDNdKVtDSDNdKU4oW0NIMl0yKWMobltjSF1uMyljKGMzNCluW2NIXW40W0NIMl1bQ0BIXShbQ0gyXVtPSF0pW0NAQEhdNVtDSDJdW0NIMl1PW0NIMl01

> <s_epik_cmdline>
J2VwaWtfcHl0aG9uJywgJy1waCcsICc3LjAnLCAnLXRuJywgJzgnLCAnLW1hJywgJzIwMCcsICctbWV0YWxfYmluZGluZycsICctaW1hZScsICc8aW5maWxlLm1hZT4nLCAnLW9tYWUnLCAnPG91dGZpbGUubWFlPic=

> <r_lp_tautomer_probability>
1

> <r_epik_Ionization_Penalty>
0.00375122

> <r_epik_Ionization_Penalty_Charging>
0

> <r_epik_Ionization_Penalty_Neutral>
0.00375122

> <r_epik_State_Penalty>
0.00260593

> <r_epik_Charging_Adjusted_Penalty>
0.00260593

> <i_epik_Tot_Q>
0

> <i_epik_Tot_abs_Q>
0

> <r_epik_Metal_State_Penalty>
-0

> <b_epik_Metal_Only>
0

> <s_lp_Force_Field>
OPLS_2005

> <r_lp_Energy>
69.4255

> <b_lp_Chiralities_Consistent>
1

> <s_lp_Variant>
AV-unprocessed.smi:275-1

> <Gold.Version>
5.8.1

> <Gold.Id.Protein>
6NUR|6NUR_protein|mol2

> <Gold.PLP.Fitness>
53.6131

> <Gold.PLP.PLP>
-48.4936

> <Gold.PLP.part.hbond>
-2.1037

> <Gold.PLP.part.metal>
0.0000

> <Gold.PLP.part.buried>
-1.6846

> <Gold.PLP.part.nonpolar>
-45.0107

> <Gold.PLP.part.repulsive>
0.0000

> <Gold.PLP.ligand.clash>
0.0000

> <Gold.PLP.ligand.torsion>
0.7313

> <Gold.PLP.Chemscore.Hbond>
1.9440

> <Gold.PLP.Chemscore.CHOScore>
0.0000

> <Gold.PLP.Chemscore.Metal>
0.0000

> <Gold.Chemscore.Hbonds>
donor molecule, donor type, donor heavy atom, donor atom, acceptor molecule, acceptor atom, score
      P1  H  6896  6907       L1     9  0.02

> <Gold.PLP.Chemscore.Internal.Correction>
0.7500

> <Gold.Rescore>
     Score         DG    S(hbond)    S(metal)    S(lipo)     H(rot)  DE(clash)    DE(int)     intcor
     16.32     -20.58       1.33        0.00     146.67       2.54       0.86       3.40       ----

> <Gold.Chemscore.Fitness>
16.3163

> <Gold.Chemscore.DG>
-20.5774

> <Gold.Chemscore.ZeroCoef>
-5.4800

> <Gold.Chemscore.Hbond>
1.3275

> <Gold.Chemscore.Metal>
0.0000

> <Gold.Chemscore.Lipo>
146.6685

> <Gold.Chemscore.Internal_Hbond>
0.0000

> <Gold.Chemscore.DEClash>
0.8643

> <Gold.Chemscore.DEInternal>
3.3968

> <Gold.Chemscore.Rot>
2.5377

> <Gold.Chemscore.Internal.Correction>
   9.000000E+99

> <Gold.Chemscore.Hbond.Weighted>
-4.4338

> <Gold.Chemscore.Metal.Weighted>
-0.0000

> <Gold.Chemscore.Lipo.Weighted>
-17.1602

> <Gold.Chemscore.Internal_Hbond.Weighted>
0.0000

> <Gold.Chemscore.DEClash.Weighted>
0.8643

> <Gold.Chemscore.DEInternal.Weighted>
3.3968

> <Gold.Chemscore.Rot.Weighted>
6.4966

> <Gold.Chemscore.Internal.Correction.Weighted>
   9.000000E+99

> <Gold.Protein.RotatedTorsions>
[ 6907 6896 6895 6894 ] final  -12.16 input  -60.11 | X-H torsion
[ 7974 7965 7964 7962 ] final -174.92 input  175.53 | X-H torsion
[ 8008 7997 7996 7995 ] final  -23.02 input   59.86 | X-H torsion
[ 10167 10162 10161 10158 ] final  -65.87 input  -65.29 | X-H torsion
[ 10718 10713 10712 10709 ] final -128.22 input   66.30 | X-H torsion
[ 10763 10752 10751 10750 ] final  -37.47 input  -60.55 | X-H torsion
[ 11005 11000 10999 10996 ] final   99.65 input  -57.11 | X-H torsion

> <Gold.Protein.ActiveResidues>
 VAL166  LYS551  ARG553  GLY616  TRP617  ASP618  TYR619  PRO620  LYS621  CYS622 
 ASP623  PHE694  ASN695  SER759  ASP760  ASP761  ALA762  ILE779  LEU786  VAL792 
 PHE793  MET794  SER795  GLU796  ALA797  LYS798  CYS799  TRP800  GLU811  SER814 

> <Gold.Protein.RotatedAtoms>
  151.3749  135.0929  159.9477 H   0  0  0  0  0  0  0  0  0  0  0  0  # atno 6907 bound_to 6896
  152.5125  133.9128  159.7506 H   0  0  0  0  0  0  0  0  0  0  0  0  # atno 6908 bound_to 6896
  150.9549  133.6453  159.2794 H   0  0  0  0  0  0  0  0  0  0  0  0  # atno 6909 bound_to 6896
  144.7130  140.1399  143.6392 H   0  0  0  0  0  0  0  0  0  0  0  0  # atno 7974 bound_to 7965
  154.4610  140.1992  156.0246 H   0  0  0  0  0  0  0  0  0  0  0  0  # atno 8008 bound_to 7997
  156.0839  140.3267  155.7700 H   0  0  0  0  0  0  0  0  0  0  0  0  # atno 8009 bound_to 7997
  155.5067  140.0558  157.2921 H   0  0  0  0  0  0  0  0  0  0  0  0  # atno 8010 bound_to 7997
  140.5698  143.2317  151.6561 H   0  0  0  0  0  0  0  0  0  0  0  0  # atno 10167 bound_to 10162
  156.1930  130.6807  151.0447 H   0  0  0  0  0  0  0  0  0  0  0  0  # atno 10718 bound_to 10713
  153.8969  135.6806  153.4757 H   0  0  0  0  0  0  0  0  0  0  0  0  # atno 10763 bound_to 10752
  153.1150  135.4765  154.9098 H   0  0  0  0  0  0  0  0  0  0  0  0  # atno 10764 bound_to 10752
  154.7595  135.3206  154.8360 H   0  0  0  0  0  0  0  0  0  0  0  0  # atno 10765 bound_to 10752
  139.8770  134.9105  156.4637 H   0  0  0  0  0  0  0  0  0  0  0  0  # atno 11005 bound_to 11000
  145.9211  139.2546  143.1381 LP  0  0  0  0  0  0  0  0  0  0  0  0  # atno 17320 bound_to 7965
  145.9619  140.8828  143.0206 LP  0  0  0  0  0  0  0  0  0  0  0  0  # atno 17321 bound_to 7965
  139.5112  144.3518  152.0645 LP  0  0  0  0  0  0  0  0  0  0  0  0  # atno 17342 bound_to 10162
  140.2654  144.4022  150.6170 LP  0  0  0  0  0  0  0  0  0  0  0  0  # atno 17343 bound_to 10162
  157.6940  131.0800  150.7023 LP  0  0  0  0  0  0  0  0  0  0  0  0  # atno 17370 bound_to 10713
  156.7079  130.4643  149.5555 LP  0  0  0  0  0  0  0  0  0  0  0  0  # atno 17371 bound_to 10713
  140.8845  133.7893  155.9503 LP  0  0  0  0  0  0  0  0  0  0  0  0  # atno 17394 bound_to 11000
  140.8819  134.2601  157.5140 LP  0  0  0  0  0  0  0  0  0  0  0  0  # atno 17395 bound_to 11000

$$$$
