AV-unprocessed.smi:1569|AV-procd|sdf|6311|dock10
  -GOLD-   22720 6513D 1   1.00000     0.00000
 Structure written by MMmdl.
 33 34  0  0  0  0  0  0  0  0  1 V2000
  153.5930  142.1840  160.7881 C   0  0  0  0  0  0  0  0  0  0  0  0
  152.6269  142.2677  159.6571 C   0  0  0  0  0  0  0  0  0  0  0  0
  151.8568  141.2491  159.2662 N   0  0  0  0  0  0  0  0  0  0  0  0
  151.0560  141.5713  158.1662 C   0  0  0  0  0  0  0  0  0  0  0  0
  150.1572  140.5312  157.5613 C   0  0  0  0  0  0  0  0  0  0  0  0
  150.4048  139.1074  158.0993 C   0  0  0  0  0  0  0  0  0  0  0  0
  149.1637  138.3506  158.2552 N   0  0  0  0  0  0  0  0  0  0  0  0
  149.0586  137.1403  158.8264 C   0  0  0  0  0  0  0  0  0  0  0  0
  150.0098  136.5542  159.3453 O   0  0  0  0  0  0  0  0  0  0  0  0
  147.6656  136.4994  158.7903 C   0  0  0  0  0  0  0  0  0  0  0  0
  147.4040  135.6539  159.9581 N   0  0  0  0  0  0  0  0  0  0  0  0
  147.1799  134.2276  159.7475 C   0  0  0  0  0  0  0  0  0  0  0  0
  147.3119  133.4333  161.3686 S   0  0  0  0  0  0  0  0  0  0  0  0
  147.1246  134.9950  162.2458 C   0  0  0  0  0  0  0  0  0  0  0  0
  147.3721  136.0951  161.2277 C   0  0  0  0  0  0  0  0  0  0  0  0
  147.5278  137.2656  161.5740 O   0  0  0  0  0  0  0  0  0  0  0  0
  151.2162  142.8673  157.7417 C   0  0  0  0  0  0  0  0  0  0  0  0
  152.3967  143.7223  158.6952 S   0  0  0  0  0  0  0  0  0  0  0  0
  153.3728  141.3216  161.4182 H   0  0  0  0  0  0  0  0  0  0  0  0
  153.5346  143.0855  161.3980 H   0  0  0  0  0  0  0  0  0  0  0  0
  154.6077  142.0864  160.4018 H   0  0  0  0  0  0  0  0  0  0  0  0
  149.1138  140.7994  157.7303 H   0  0  0  0  0  0  0  0  0  0  0  0
  150.2851  140.5250  156.4783 H   0  0  0  0  0  0  0  0  0  0  0  0
  151.0961  138.5787  157.4410 H   0  0  0  0  0  0  0  0  0  0  0  0
  150.8981  139.1633  159.0699 H   0  0  0  0  0  0  0  0  0  0  0  0
  148.3290  138.7616  157.8632 H   0  0  0  0  0  0  0  0  0  0  0  0
  146.9153  137.2872  158.7063 H   0  0  0  0  0  0  0  0  0  0  0  0
  147.5725  135.8921  157.8885 H   0  0  0  0  0  0  0  0  0  0  0  0
  146.1835  134.0661  159.3354 H   0  0  0  0  0  0  0  0  0  0  0  0
  147.9125  133.8049  159.0601 H   0  0  0  0  0  0  0  0  0  0  0  0
  146.1125  135.0817  162.6413 H   0  0  0  0  0  0  0  0  0  0  0  0
  147.8309  135.0565  163.0741 H   0  0  0  0  0  0  0  0  0  0  0  0
  150.7236  143.3644  156.9196 H   0  0  0  0  0  0  0  0  0  0  0  0
  1  2  1  0  0  0  0
  1 19  1  0  0  0  0
  1 20  1  0  0  0  0
  1 21  1  0  0  0  0
  2 18  1  0  0  0  0
  2  3  2  0  0  0  0
  3  4  1  0  0  0  0
  4  5  1  0  0  0  0
  4 17  2  0  0  0  0
  5  6  1  0  0  0  0
  5 22  1  0  0  0  0
  5 23  1  0  0  0  0
  6  7  1  0  0  0  0
  6 24  1  0  0  0  0
  6 25  1  0  0  0  0
  7  8  1  0  0  0  0
  7 26  1  0  0  0  0
  8  9  2  0  0  0  0
  8 10  1  0  0  0  0
 10 11  1  0  0  0  0
 10 27  1  0  0  0  0
 10 28  1  0  0  0  0
 11 15  1  0  0  0  0
 11 12  1  0  0  0  0
 12 13  1  0  0  0  0
 12 29  1  0  0  0  0
 12 30  1  0  0  0  0
 13 14  1  0  0  0  0
 14 15  1  0  0  0  0
 14 31  1  0  0  0  0
 14 32  1  0  0  0  0
 15 16  2  0  0  0  0
 17 18  1  0  0  0  0
 17 33  1  0  0  0  0
M  END
> <s_m_source_file>
AV-unprocessed.smi

> <i_m_source_file_index>
1569

> <i_lp_mmshare_version>
43012

> <i_f3d_flags>
0

> <s_epik_input>
W0NIM11jMW5jKFtjSF1zMSlbQ0gyXVtDSDJdW05IXUMoPU8pW0NIMl1OMltDSDJdU1tDSDJdQzI9Tw==

> <s_epik_cmdline>
J2VwaWtfcHl0aG9uJywgJy1waCcsICc3LjAnLCAnLXRuJywgJzgnLCAnLW1hJywgJzIwMCcsICctbWV0YWxfYmluZGluZycsICctaW1hZScsICc8aW5maWxlLm1hZT4nLCAnLW9tYWUnLCAnPG91dGZpbGUubWFlPic=

> <r_epik_Ionization_Penalty>
0.00098942

> <r_epik_Ionization_Penalty_Charging>
0

> <r_epik_Ionization_Penalty_Neutral>
0.00098942

> <r_epik_State_Penalty>
0.00064447

> <r_epik_Charging_Adjusted_Penalty>
0.00064447

> <i_epik_Tot_Q>
0

> <i_epik_Tot_abs_Q>
0

> <r_epik_Metal_State_Penalty>
-0

> <b_epik_Metal_Only>
0

> <s_epik_Chemistry_Notes>
This compound contains an acetal/aminal-like group ( X-CH(R)-Y where X, Y are N, S, or O) that may be acid/base labile, releasing an aldehyde.

> <s_lp_Force_Field>
OPLS_2005

> <r_lp_Energy>
2.37506

> <b_lp_Chiralities_Consistent>
1

> <s_lp_Variant>
AV-unprocessed.smi:1569-1

> <Gold.Version>
5.8.1

> <Gold.Id.Protein>
6NUR|6NUR_protein|mol2

> <Gold.PLP.Fitness>
47.1949

> <Gold.PLP.PLP>
-37.4332

> <Gold.PLP.part.hbond>
-3.0000

> <Gold.PLP.part.metal>
0.0000

> <Gold.PLP.part.buried>
-4.6691

> <Gold.PLP.part.nonpolar>
-29.6691

> <Gold.PLP.part.repulsive>
0.1324

> <Gold.PLP.ligand.clash>
0.0000

> <Gold.PLP.ligand.torsion>
0.7637

> <Gold.PLP.Chemscore.Hbond>
2.7600

> <Gold.PLP.Chemscore.CHOScore>
1.0000

> <Gold.PLP.Chemscore.Metal>
0.0000

> <Gold.Chemscore.Hbonds>
donor molecule, donor type, donor heavy atom, donor atom, acceptor molecule, acceptor atom, score
      P1  H  6896  6908       L1     9  1.00
      P1  H  6931  6943       L1    16  0.91
      P1  H  6934  6947       L1    16  0.80
      L1  C    17    33       P1  8028  0.84

> <Gold.PLP.Chemscore.Internal.Correction>
0.0090

> <Gold.Rescore>
     Score         DG    S(hbond)    S(metal)    S(lipo)     H(rot)  DE(clash)    DE(int)     intcor
     18.64     -19.49       2.76        0.00      82.85       1.92       0.01       0.85       ----

> <Gold.Chemscore.Fitness>
18.6361

> <Gold.Chemscore.DG>
-19.4889

> <Gold.Chemscore.ZeroCoef>
-5.4800

> <Gold.Chemscore.Hbond>
2.7650

> <Gold.Chemscore.Metal>
0.0000

> <Gold.Chemscore.Lipo>
82.8457

> <Gold.Chemscore.Internal_Hbond>
0.0000

> <Gold.Chemscore.DEClash>
0.0057

> <Gold.Chemscore.DEInternal>
0.8472

> <Gold.Chemscore.Rot>
1.9215

> <Gold.Chemscore.Internal.Correction>
   9.000000E+99

> <Gold.Chemscore.Hbonds>
donor molecule, donor type, donor heavy atom, donor atom, acceptor molecule, acceptor atom, score
      P1  H  6896  6908       L1     9  1.00
      P1  H  6931  6943       L1    16  0.90
      P1  H  6934  6947       L1    16  0.79

> <Gold.Chemscore.Hbond.Weighted>
-9.2350

> <Gold.Chemscore.Metal.Weighted>
-0.0000

> <Gold.Chemscore.Lipo.Weighted>
-9.6929

> <Gold.Chemscore.Internal_Hbond.Weighted>
0.0000

> <Gold.Chemscore.DEClash.Weighted>
0.0057

> <Gold.Chemscore.DEInternal.Weighted>
0.8472

> <Gold.Chemscore.Rot.Weighted>
4.9190

> <Gold.Chemscore.Internal.Correction.Weighted>
   9.000000E+99

> <Gold.Protein.RotatedTorsions>
[ 6907 6896 6895 6894 ] final -152.51 input  -60.11 | X-H torsion
[ 7974 7965 7964 7962 ] final   26.18 input  175.53 | X-H torsion
[ 8008 7997 7996 7995 ] final -105.99 input   59.86 | X-H torsion
[ 10167 10162 10161 10158 ] final  117.54 input  -65.29 | X-H torsion
[ 10718 10713 10712 10709 ] final  -18.53 input   66.30 | X-H torsion
[ 10763 10752 10751 10750 ] final -134.64 input  -60.55 | X-H torsion
[ 11005 11000 10999 10996 ] final  148.30 input  -57.11 | X-H torsion

> <Gold.Protein.ActiveResidues>
 VAL166  LYS551  ARG553  GLY616  TRP617  ASP618  TYR619  PRO620  LYS621  CYS622 
 ASP623  PHE694  ASN695  SER759  ASP760  ASP761  ALA762  ILE779  LEU786  VAL792 
 PHE793  MET794  SER795  GLU796  ALA797  LYS798  CYS799  TRP800  GLU811  SER814 

> <Gold.Protein.RotatedAtoms>
  151.2288  133.4462  159.2602 H   0  0  0  0  0  0  0  0  0  0  0  0  # atno 6907 bound_to 6896
  151.0814  134.9861  159.8368 H   0  0  0  0  0  0  0  0  0  0  0  0  # atno 6908 bound_to 6896
  152.5424  134.2227  159.8847 H   0  0  0  0  0  0  0  0  0  0  0  0  # atno 6909 bound_to 6896
  146.1851  139.7363  142.8873 H   0  0  0  0  0  0  0  0  0  0  0  0  # atno 7974 bound_to 7965
  154.9079  140.0411  157.1930 H   0  0  0  0  0  0  0  0  0  0  0  0  # atno 8008 bound_to 7997
  154.8378  140.2909  155.5658 H   0  0  0  0  0  0  0  0  0  0  0  0  # atno 8009 bound_to 7997
  156.2990  140.2488  156.3315 H   0  0  0  0  0  0  0  0  0  0  0  0  # atno 8010 bound_to 7997
  139.6172  144.7094  151.2714 H   0  0  0  0  0  0  0  0  0  0  0  0  # atno 10167 bound_to 10162
  156.5582  130.4719  149.6419 H   0  0  0  0  0  0  0  0  0  0  0  0  # atno 10718 bound_to 10713
  154.8716  135.3728  154.4768 H   0  0  0  0  0  0  0  0  0  0  0  0  # atno 10763 bound_to 10752
  153.5424  135.7026  153.5635 H   0  0  0  0  0  0  0  0  0  0  0  0  # atno 10764 bound_to 10752
  153.3791  135.4001  155.1808 H   0  0  0  0  0  0  0  0  0  0  0  0  # atno 10765 bound_to 10752
  140.0948  134.9019  157.1706 H   0  0  0  0  0  0  0  0  0  0  0  0  # atno 11005 bound_to 11000
  145.3964  141.0379  143.3095 LP  0  0  0  0  0  0  0  0  0  0  0  0  # atno 17320 bound_to 7965
  144.8382  139.5515  143.6912 LP  0  0  0  0  0  0  0  0  0  0  0  0  # atno 17321 bound_to 7965
  140.7358  143.6725  150.8070 LP  0  0  0  0  0  0  0  0  0  0  0  0  # atno 17342 bound_to 10162
  140.0329  143.5424  152.2752 LP  0  0  0  0  0  0  0  0  0  0  0  0  # atno 17343 bound_to 10162
  156.2823  130.7077  151.1905 LP  0  0  0  0  0  0  0  0  0  0  0  0  # atno 17370 bound_to 10713
  157.7374  131.0552  150.5358 LP  0  0  0  0  0  0  0  0  0  0  0  0  # atno 17371 bound_to 10713
  140.3302  134.2819  155.7229 LP  0  0  0  0  0  0  0  0  0  0  0  0  # atno 17394 bound_to 11000
  141.2089  133.7765  157.0032 LP  0  0  0  0  0  0  0  0  0  0  0  0  # atno 17395 bound_to 11000

$$$$
