AV-unprocessed.smi:1434|AV-procd|sdf|5853|dock5
  -GOLD-   22720 5523D 1   1.00000     0.00000
 Structure written by MMmdl.
 43 44  0  0  0  0  0  0  0  0  2 V2000
  147.4669  134.4375  160.5517 C   0  0  0  0  0  0  0  0  0  0  0  0
  147.6315  136.1314  159.8612 S   0  0  0  0  0  0  0  0  0  0  0  0
  146.5691  136.2573  158.8505 O   0  0  0  0  0  0  0  0  0  0  0  0
  147.5714  137.0408  161.0169 O   0  0  0  0  0  0  0  0  0  0  0  0
  149.1128  136.0427  159.2067 N   0  5  0  0  0  0  0  0  0  0  0  0
  149.3389  136.5285  157.8534 C   0  0  2  0  0  0  0  0  0  0  0  0
  149.6989  135.3617  156.8946 C   0  0  0  0  0  0  0  0  0  0  0  0
  150.2034  135.8350  155.5046 C   0  0  0  0  0  0  0  0  0  0  0  0
  151.3279  136.8903  155.6100 C   0  0  0  0  0  0  0  0  0  0  0  0
  150.8247  137.9881  156.4658 N   0  0  0  0  0  0  0  0  0  0  0  0
  150.6342  139.2756  156.0727 C   0  0  0  0  0  0  0  0  0  0  0  0
  151.0733  139.7327  155.0163 O   0  0  0  0  0  0  0  0  0  0  0  0
  149.9727  140.0424  156.9563 N   0  0  0  0  0  0  0  0  0  0  0  0
  149.7124  141.4689  156.8023 C   0  0  0  0  0  0  0  0  0  0  0  0
  151.0126  142.2553  156.5642 C   0  0  0  0  0  0  0  0  0  0  0  0
  151.5352  142.9006  157.8332 C   0  0  0  0  0  0  0  0  0  0  0  0
  151.7471  144.2944  157.8991 C   0  0  0  0  0  0  0  0  0  0  0  0
  152.2373  144.8421  159.1005 C   0  0  0  0  0  0  0  0  0  0  0  0
  152.4970  143.9797  160.1831 C   0  0  0  0  0  0  0  0  0  0  0  0
  152.2540  142.6017  160.0154 C   0  0  0  0  0  0  0  0  0  0  0  0
  151.7839  142.0665  158.8681 N   0  0  0  0  0  0  0  0  0  0  0  0
  150.5185  137.5401  157.8442 C   0  0  0  0  0  0  0  0  0  0  0  0
  146.4962  134.3389  161.0365 H   0  0  0  0  0  0  0  0  0  0  0  0
  148.2568  134.2649  161.2820 H   0  0  0  0  0  0  0  0  0  0  0  0
  147.5477  133.7073  159.7471 H   0  0  0  0  0  0  0  0  0  0  0  0
  148.4600  137.0410  157.4600 H   0  0  0  0  0  0  0  0  0  0  0  0
  150.4797  134.7507  157.3505 H   0  0  0  0  0  0  0  0  0  0  0  0
  148.8397  134.7044  156.7608 H   0  0  0  0  0  0  0  0  0  0  0  0
  150.5597  134.9758  154.9359 H   0  0  0  0  0  0  0  0  0  0  0  0
  149.3726  136.2494  154.9299 H   0  0  0  0  0  0  0  0  0  0  0  0
  152.2084  136.4504  156.0806 H   0  0  0  0  0  0  0  0  0  0  0  0
  151.6493  137.1971  154.6149 H   0  0  0  0  0  0  0  0  0  0  0  0
  149.6547  139.6085  157.8106 H   0  0  0  0  0  0  0  0  0  0  0  0
  149.0072  141.6339  155.9857 H   0  0  0  0  0  0  0  0  0  0  0  0
  149.2254  141.8244  157.7106 H   0  0  0  0  0  0  0  0  0  0  0  0
  151.7784  141.5941  156.1561 H   0  0  0  0  0  0  0  0  0  0  0  0
  150.8531  143.0344  155.8173 H   0  0  0  0  0  0  0  0  0  0  0  0
  151.5401  144.9301  157.0507 H   0  0  0  0  0  0  0  0  0  0  0  0
  152.4109  145.9043  159.1898 H   0  0  0  0  0  0  0  0  0  0  0  0
  152.8732  144.3643  161.1195 H   0  0  0  0  0  0  0  0  0  0  0  0
  152.4423  141.9110  160.8240 H   0  0  0  0  0  0  0  0  0  0  0  0
  150.2853  138.3735  158.5090 H   0  0  0  0  0  0  0  0  0  0  0  0
  151.4138  137.0774  158.2629 H   0  0  0  0  0  0  0  0  0  0  0  0
  1  2  1  0  0  0  0
  1 23  1  0  0  0  0
  1 24  1  0  0  0  0
  1 25  1  0  0  0  0
  2  3  2  0  0  0  0
  2  4  2  0  0  0  0
  2  5  1  0  0  0  0
  5  6  1  0  0  0  0
  6 22  1  0  0  0  0
  6  7  1  0  0  0  0
  6 26  1  0  0  0  0
  7  8  1  0  0  0  0
  7 27  1  0  0  0  0
  7 28  1  0  0  0  0
  8  9  1  0  0  0  0
  8 29  1  0  0  0  0
  8 30  1  0  0  0  0
  9 10  1  0  0  0  0
  9 31  1  0  0  0  0
  9 32  1  0  0  0  0
 10 11  1  0  0  0  0
 10 22  1  0  0  0  0
 11 12  2  0  0  0  0
 11 13  1  0  0  0  0
 13 14  1  0  0  0  0
 13 33  1  0  0  0  0
 14 15  1  0  0  0  0
 14 34  1  0  0  0  0
 14 35  1  0  0  0  0
 15 16  1  0  0  0  0
 15 36  1  0  0  0  0
 15 37  1  0  0  0  0
 16 21  1  0  0  0  0
 16 17  2  0  0  0  0
 17 18  1  0  0  0  0
 17 38  1  0  0  0  0
 18 19  2  0  0  0  0
 18 39  1  0  0  0  0
 19 20  1  0  0  0  0
 19 40  1  0  0  0  0
 20 21  2  0  0  0  0
 20 41  1  0  0  0  0
 22 42  1  0  0  0  0
 22 43  1  0  0  0  0
M  CHG  1   5  -1
M  END
> <s_m_source_file>
AV-unprocessed.smi

> <i_m_source_file_index>
1434

> <i_lp_mmshare_version>
43012

> <i_f3d_flags>
0

> <s_epik_input>
W0NIM11TKD1PKSg9TylbTkhdW0NAQEhdMVtDSDJdW0NIMl1bQ0gyXU4oW0NIMl0xKUMoPU8pW05IXVtDSDJdW0NIMl1jMltjSF1bY0hdW2NIXVtjSF1uMg==

> <s_epik_cmdline>
J2VwaWtfcHl0aG9uJywgJy1waCcsICc3LjAnLCAnLXRuJywgJzgnLCAnLW1hJywgJzIwMCcsICctbWV0YWxfYmluZGluZycsICctaW1hZScsICc8aW5maWxlLm1hZT4nLCAnLW9tYWUnLCAnPG91dGZpbGUubWFlPic=

> <r_epik_Ionization_Penalty>
6.57847

> <r_epik_Ionization_Penalty_Charging>
6.53351

> <r_epik_Ionization_Penalty_Neutral>
0.0449527

> <r_epik_State_Penalty>
6.57157

> <r_epik_Charging_Adjusted_Penalty>
13.1051

> <i_epik_Tot_Q>
-1

> <i_epik_Tot_abs_Q>
1

> <r_epik_Metal_State_Penalty>
2.53928

> <b_epik_Metal_Only>
1

> <s_lp_Force_Field>
OPLS_2005

> <r_lp_Energy>
19.5099

> <b_lp_Chiralities_Consistent>
1

> <s_lp_Variant>
AV-unprocessed.smi:1434-5

> <Gold.Version>
5.8.1

> <Gold.Id.Protein>
6NUR|6NUR_protein|mol2

> <Gold.PLP.Fitness>
50.8179

> <Gold.PLP.PLP>
-38.6788

> <Gold.PLP.part.hbond>
-4.0000

> <Gold.PLP.part.metal>
0.0000

> <Gold.PLP.part.buried>
-5.6545

> <Gold.PLP.part.nonpolar>
-28.7117

> <Gold.PLP.part.repulsive>
0.0611

> <Gold.PLP.ligand.clash>
1.4211

> <Gold.PLP.ligand.torsion>
0.9468

> <Gold.PLP.Chemscore.Hbond>
4.8080

> <Gold.PLP.Chemscore.CHOScore>
0.0000

> <Gold.PLP.Chemscore.Metal>
0.0000

> <Gold.Chemscore.Hbonds>
donor molecule, donor type, donor heavy atom, donor atom, acceptor molecule, acceptor atom, score
      P1  H  6896  6908       L1     5  1.50
      P1  H  6931  6943       L1     4  0.80
      P1  H  6934  6947       L1     4  0.98
      P1  H  7989  7998       L1    12  1.00

> <Gold.PLP.Chemscore.Internal.Correction>
1.0299

> <Gold.Rescore>
     Score         DG    S(hbond)    S(metal)    S(lipo)     H(rot)  DE(clash)    DE(int)     intcor
     24.02     -24.86       3.54        0.00     101.39       1.68       0.02       0.82       ----

> <Gold.Chemscore.Fitness>
24.0154

> <Gold.Chemscore.DG>
-24.8591

> <Gold.Chemscore.ZeroCoef>
-5.4800

> <Gold.Chemscore.Hbond>
3.5391

> <Gold.Chemscore.Metal>
0.0000

> <Gold.Chemscore.Lipo>
101.3899

> <Gold.Chemscore.Internal_Hbond>
0.0000

> <Gold.Chemscore.DEClash>
0.0196

> <Gold.Chemscore.DEInternal>
0.8241

> <Gold.Chemscore.Rot>
1.6813

> <Gold.Chemscore.Internal.Correction>
   9.000000E+99

> <Gold.Chemscore.Hbonds>
donor molecule, donor type, donor heavy atom, donor atom, acceptor molecule, acceptor atom, score
      P1  H  6896  6908       L1     5  0.41
      P1  H  6931  6943       L1     4  0.75
      P1  H  6934  6947       L1     4  0.88
      P1  H  7989  7998       L1    12  0.98

> <Gold.Chemscore.Hbond.Weighted>
-11.8208

> <Gold.Chemscore.Metal.Weighted>
-0.0000

> <Gold.Chemscore.Lipo.Weighted>
-11.8626

> <Gold.Chemscore.Internal_Hbond.Weighted>
0.0000

> <Gold.Chemscore.DEClash.Weighted>
0.0196

> <Gold.Chemscore.DEInternal.Weighted>
0.8241

> <Gold.Chemscore.Rot.Weighted>
4.3042

> <Gold.Chemscore.Internal.Correction.Weighted>
   9.000000E+99

> <Gold.Protein.RotatedTorsions>
[ 6907 6896 6895 6894 ] final -179.07 input  -60.11 | X-H torsion
[ 7974 7965 7964 7962 ] final   80.85 input  175.53 | X-H torsion
[ 8008 7997 7996 7995 ] final   94.66 input   59.86 | X-H torsion
[ 10167 10162 10161 10158 ] final   32.20 input  -65.29 | X-H torsion
[ 10718 10713 10712 10709 ] final  115.56 input   66.30 | X-H torsion
[ 10763 10752 10751 10750 ] final  173.41 input  -60.55 | X-H torsion
[ 11005 11000 10999 10996 ] final  155.94 input  -57.11 | X-H torsion

> <Gold.Protein.ActiveResidues>
 VAL166  LYS551  ARG553  GLY616  TRP617  ASP618  TYR619  PRO620  LYS621  CYS622 
 ASP623  PHE694  ASN695  SER759  ASP760  ASP761  ALA762  ILE779  LEU786  VAL792 
 PHE793  MET794  SER795  GLU796  ALA797  LYS798  CYS799  TRP800  GLU811  SER814 

> <Gold.Protein.RotatedAtoms>
  151.6474  133.3322  159.3143 H   0  0  0  0  0  0  0  0  0  0  0  0  # atno 6907 bound_to 6896
  150.7977  134.7053  159.6582 H   0  0  0  0  0  0  0  0  0  0  0  0  # atno 6908 bound_to 6896
  152.4066  134.6200  160.0100 H   0  0  0  0  0  0  0  0  0  0  0  0  # atno 6909 bound_to 6896
  145.6459  139.2436  143.2004 H   0  0  0  0  0  0  0  0  0  0  0  0  # atno 7974 bound_to 7965
  156.0604  140.3297  155.7454 H   0  0  0  0  0  0  0  0  0  0  0  0  # atno 8008 bound_to 7997
  155.5464  140.0606  157.2876 H   0  0  0  0  0  0  0  0  0  0  0  0  # atno 8009 bound_to 7997
  154.4478  140.1902  156.0631 H   0  0  0  0  0  0  0  0  0  0  0  0  # atno 8010 bound_to 7997
  140.4519  144.1035  150.6193 H   0  0  0  0  0  0  0  0  0  0  0  0  # atno 10167 bound_to 10162
  157.6214  131.1014  150.7347 H   0  0  0  0  0  0  0  0  0  0  0  0  # atno 10718 bound_to 10713
  154.4396  135.2762  155.1857 H   0  0  0  0  0  0  0  0  0  0  0  0  # atno 10763 bound_to 10752
  154.3728  135.6105  153.5753 H   0  0  0  0  0  0  0  0  0  0  0  0  # atno 10764 bound_to 10752
  152.9840  135.5861  154.4721 H   0  0  0  0  0  0  0  0  0  0  0  0  # atno 10765 bound_to 10752
  140.1629  134.8597  157.2596 H   0  0  0  0  0  0  0  0  0  0  0  0  # atno 11005 bound_to 11000
  146.1243  140.7268  142.9442 LP  0  0  0  0  0  0  0  0  0  0  0  0  # atno 17320 bound_to 7965
  144.7140  140.4144  143.7058 LP  0  0  0  0  0  0  0  0  0  0  0  0  # atno 17321 bound_to 7965
  140.4196  143.2618  151.9731 LP  0  0  0  0  0  0  0  0  0  0  0  0  # atno 17342 bound_to 10162
  139.4797  144.5842  151.7881 LP  0  0  0  0  0  0  0  0  0  0  0  0  # atno 17343 bound_to 10162
  156.7704  130.4827  149.5419 LP  0  0  0  0  0  0  0  0  0  0  0  0  # atno 17370 bound_to 10713
  156.1362  130.6213  151.0403 LP  0  0  0  0  0  0  0  0  0  0  0  0  # atno 17371 bound_to 10713
  140.2469  134.3729  155.7458 LP  0  0  0  0  0  0  0  0  0  0  0  0  # atno 17394 bound_to 11000
  141.2211  133.7295  156.8875 LP  0  0  0  0  0  0  0  0  0  0  0  0  # atno 17395 bound_to 11000

$$$$
