AV-unprocessed.smi:1725|AV-procd|sdf|6954|dock4
  -GOLD-   22720 8163D 1   1.00000     0.00000
 Structure written by MMmdl.
 36 37  0  0  0  0  0  0  0  0  1 V2000
  153.2371  140.1732  158.4464 C   0  0  0  0  0  0  0  0  0  0  0  0
  151.8338  140.4910  158.9842 C   0  0  1  0  0  0  0  0  0  0  0  0
  151.9259  141.7033  159.7266 O   0  0  0  0  0  0  0  0  0  0  0  0
  152.4178  142.8290  159.0059 C   0  0  0  0  0  0  0  0  0  0  0  0
  152.3989  144.0790  159.8667 C   0  0  0  0  0  0  0  0  0  0  0  0
  152.0911  143.9985  161.3477 C   0  0  0  0  0  0  0  0  0  0  0  0
  151.0985  144.6334  160.4119 C   0  0  0  0  0  0  0  0  0  0  0  0
  150.8144  140.6404  157.8429 C   0  0  0  0  0  0  0  0  0  0  0  0
  150.0250  141.5845  157.8574 O   0  0  0  0  0  0  0  0  0  0  0  0
  150.8751  139.6919  156.8870 N   0  0  0  0  0  0  0  0  0  0  0  0
  150.0771  139.5180  155.7432 C   0  0  0  0  0  0  0  0  0  0  0  0
  148.9861  140.2660  155.4311 C   0  0  0  0  0  0  0  0  0  0  0  0
  148.2024  140.0250  154.2312 C   0  0  0  0  0  0  0  0  0  0  0  0
  146.9525  140.8350  153.9233 C   0  0  0  0  0  0  0  0  0  0  0  0
  147.2206  142.1361  154.0236 F   0  0  0  0  0  0  0  0  0  0  0  0
  146.5097  140.5957  152.6883 F   0  0  0  0  0  0  0  0  0  0  0  0
  145.9740  140.5464  154.7816 F   0  0  0  0  0  0  0  0  0  0  0  0
  148.5950  138.9991  153.4537 C   0  0  0  0  0  0  0  0  0  0  0  0
  149.7151  138.2258  153.7663 N   0  0  0  0  0  0  0  0  0  0  0  0
  150.4847  138.4109  154.8621 C   0  0  0  0  0  0  0  0  0  0  0  0
  151.4523  137.6799  155.0719 O   0  0  0  0  0  0  0  0  0  0  0  0
  149.9511  137.4805  153.1271 H   0  0  0  0  0  0  0  0  0  0  0  0
  153.2352  139.2616  157.8478 H   0  0  0  0  0  0  0  0  0  0  0  0
  153.9400  140.0266  159.2667 H   0  0  0  0  0  0  0  0  0  0  0  0
  153.6231  140.9828  157.8256 H   0  0  0  0  0  0  0  0  0  0  0  0
  151.5324  139.6799  159.6501 H   0  0  0  0  0  0  0  0  0  0  0  0
  153.4405  142.6629  158.6665 H   0  0  0  0  0  0  0  0  0  0  0  0
  151.8015  143.0057  158.1236 H   0  0  0  0  0  0  0  0  0  0  0  0
  153.1443  144.8170  159.5772 H   0  0  0  0  0  0  0  0  0  0  0  0
  151.8355  143.0270  161.7665 H   0  0  0  0  0  0  0  0  0  0  0  0
  152.6473  144.6572  162.0114 H   0  0  0  0  0  0  0  0  0  0  0  0
  150.9932  145.7157  160.4521 H   0  0  0  0  0  0  0  0  0  0  0  0
  150.1805  144.0859  160.2073 H   0  0  0  0  0  0  0  0  0  0  0  0
  151.6177  139.0144  156.9839 H   0  0  0  0  0  0  0  0  0  0  0  0
  148.6544  141.0644  156.0738 H   0  0  0  0  0  0  0  0  0  0  0  0
  148.0897  138.6917  152.5500 H   0  0  0  0  0  0  0  0  0  0  0  0
  1  2  1  0  0  0  0
  1 23  1  0  0  0  0
  1 24  1  0  0  0  0
  1 25  1  0  0  0  0
  2  3  1  0  0  0  0
  2  8  1  0  0  0  0
  2 26  1  0  0  0  0
  3  4  1  0  0  0  0
  4  5  1  0  0  0  0
  4 27  1  0  0  0  0
  4 28  1  0  0  0  0
  5  7  1  0  0  0  0
  5  6  1  0  0  0  0
  5 29  1  0  0  0  0
  6  7  1  0  0  0  0
  6 30  1  0  0  0  0
  6 31  1  0  0  0  0
  7 32  1  0  0  0  0
  7 33  1  0  0  0  0
  8  9  2  0  0  0  0
  8 10  1  0  0  0  0
 10 11  1  0  0  0  0
 10 34  1  0  0  0  0
 11 20  1  0  0  0  0
 11 12  2  0  0  0  0
 12 13  1  0  0  0  0
 12 35  1  0  0  0  0
 13 14  1  0  0  0  0
 13 18  2  0  0  0  0
 14 15  1  0  0  0  0
 14 16  1  0  0  0  0
 14 17  1  0  0  0  0
 18 19  1  0  0  0  0
 18 36  1  0  0  0  0
 19 22  1  0  0  0  0
 19 20  1  0  0  0  0
 20 21  2  0  0  0  0
M  END
> <s_m_source_file>
AV-unprocessed.smi

> <i_m_source_file_index>
1725

> <i_lp_mmshare_version>
43012

> <i_f3d_flags>
0

> <s_epik_input>
W0NIMl0xW0NIMl1bQ0hdMVtDSDJdT1tDQEBIXShbQ0gzXSlDKD1PKVtOSF1jMltjSF1jKEMoRikoRilGKVtjSF1bbkhdYzI9Tw==

> <s_epik_cmdline>
J2VwaWtfcHl0aG9uJywgJy1waCcsICc3LjAnLCAnLXRuJywgJzgnLCAnLW1hJywgJzIwMCcsICctbWV0YWxfYmluZGluZycsICctaW1hZScsICc8aW5maWxlLm1hZT4nLCAnLW9tYWUnLCAnPG91dGZpbGUubWFlPic=

> <r_lp_tautomer_probability>
0.999

> <r_epik_Ionization_Penalty>
0.00763408

> <r_epik_Ionization_Penalty_Charging>
0.00763398

> <r_epik_Ionization_Penalty_Neutral>
9.25705e-08

> <r_epik_State_Penalty>
0.00571302

> <r_epik_Charging_Adjusted_Penalty>
0.013347

> <i_epik_Tot_Q>
0

> <i_epik_Tot_abs_Q>
0

> <r_epik_Metal_State_Penalty>
0.392814

> <b_epik_Metal_Only>
0

> <s_lp_Force_Field>
OPLS_2005

> <r_lp_Energy>
26.7151

> <b_lp_Chiralities_Consistent>
1

> <s_lp_Variant>
AV-unprocessed.smi:1725-2

> <Gold.Version>
5.8.1

> <Gold.Id.Protein>
6NUR|6NUR_protein|mol2

> <Gold.PLP.Fitness>
35.9364

> <Gold.PLP.PLP>
-33.3626

> <Gold.PLP.part.hbond>
-1.0054

> <Gold.PLP.part.metal>
0.0000

> <Gold.PLP.part.buried>
-1.0813

> <Gold.PLP.part.nonpolar>
-31.2465

> <Gold.PLP.part.repulsive>
0.1698

> <Gold.PLP.ligand.clash>
0.5252

> <Gold.PLP.ligand.torsion>
1.1013

> <Gold.PLP.Chemscore.Hbond>
0.4696

> <Gold.PLP.Chemscore.CHOScore>
1.0980

> <Gold.PLP.Chemscore.Metal>
0.0000

> <Gold.Chemscore.Hbonds>
donor molecule, donor type, donor heavy atom, donor atom, acceptor molecule, acceptor atom, score
      L1  H    19    22       P1  7948  0.77
      L1  C    18    36       P1  7948  0.38
      L1  C    18    36       P1  7957  0.25

> <Gold.PLP.Chemscore.Internal.Correction>
0.5989

> <Gold.Rescore>
     Score         DG    S(hbond)    S(metal)    S(lipo)     H(rot)  DE(clash)    DE(int)     intcor
     11.11     -13.95       0.86        0.00      87.11       1.79       0.44       2.41       ----

> <Gold.Chemscore.Fitness>
11.1062

> <Gold.Chemscore.DG>
-13.9505

> <Gold.Chemscore.ZeroCoef>
-5.4800

> <Gold.Chemscore.Hbond>
0.8595

> <Gold.Chemscore.Metal>
0.0000

> <Gold.Chemscore.Lipo>
87.1110

> <Gold.Chemscore.Internal_Hbond>
0.0000

> <Gold.Chemscore.DEClash>
0.4387

> <Gold.Chemscore.DEInternal>
2.4056

> <Gold.Chemscore.Rot>
1.7938

> <Gold.Chemscore.Internal.Correction>
   9.000000E+99

> <Gold.Chemscore.Hbonds>
donor molecule, donor type, donor heavy atom, donor atom, acceptor molecule, acceptor atom, score
      L1  H    19    22       P1  7948  0.23

> <Gold.Chemscore.Hbond.Weighted>
-2.8707

> <Gold.Chemscore.Metal.Weighted>
-0.0000

> <Gold.Chemscore.Lipo.Weighted>
-10.1920

> <Gold.Chemscore.Internal_Hbond.Weighted>
0.0000

> <Gold.Chemscore.DEClash.Weighted>
0.4387

> <Gold.Chemscore.DEInternal.Weighted>
2.4056

> <Gold.Chemscore.Rot.Weighted>
4.5922

> <Gold.Chemscore.Internal.Correction.Weighted>
   9.000000E+99

> <Gold.Protein.RotatedTorsions>
[ 6907 6896 6895 6894 ] final   25.48 input  -60.11 | X-H torsion
[ 7974 7965 7964 7962 ] final -111.33 input  175.53 | X-H torsion
[ 8008 7997 7996 7995 ] final   75.08 input   59.86 | X-H torsion
[ 10167 10162 10161 10158 ] final   52.47 input  -65.29 | X-H torsion
[ 10718 10713 10712 10709 ] final  138.45 input   66.30 | X-H torsion
[ 10763 10752 10751 10750 ] final  171.71 input  -60.55 | X-H torsion
[ 11005 11000 10999 10996 ] final  -20.41 input  -57.11 | X-H torsion

> <Gold.Protein.ActiveResidues>
 VAL166  LYS551  ARG553  GLY616  TRP617  ASP618  TYR619  PRO620  LYS621  CYS622 
 ASP623  PHE694  ASN695  SER759  ASP760  ASP761  ALA762  ILE779  LEU786  VAL792 
 PHE793  MET794  SER795  GLU796  ALA797  LYS798  CYS799  TRP800  GLU811  SER814 

> <Gold.Protein.RotatedAtoms>
  151.9731  135.0066  160.0553 H   0  0  0  0  0  0  0  0  0  0  0  0  # atno 6907 bound_to 6896
  152.1765  133.4673  159.4944 H   0  0  0  0  0  0  0  0  0  0  0  0  # atno 6908 bound_to 6896
  150.6910  134.1805  159.4290 H   0  0  0  0  0  0  0  0  0  0  0  0  # atno 6909 bound_to 6896
  145.1573  140.8860  143.3611 H   0  0  0  0  0  0  0  0  0  0  0  0  # atno 7974 bound_to 7965
  155.8077  140.3474  155.5439 H   0  0  0  0  0  0  0  0  0  0  0  0  # atno 8008 bound_to 7997
  155.8473  140.0951  157.1717 H   0  0  0  0  0  0  0  0  0  0  0  0  # atno 8009 bound_to 7997
  154.4006  140.1383  156.3789 H   0  0  0  0  0  0  0  0  0  0  0  0  # atno 8010 bound_to 7997
  140.2510  144.3479  150.6348 H   0  0  0  0  0  0  0  0  0  0  0  0  # atno 10167 bound_to 10162
  157.4251  131.1043  151.0311 H   0  0  0  0  0  0  0  0  0  0  0  0  # atno 10718 bound_to 10713
  154.4157  135.2757  155.2008 H   0  0  0  0  0  0  0  0  0  0  0  0  # atno 10763 bound_to 10752
  154.3975  135.6052  153.5882 H   0  0  0  0  0  0  0  0  0  0  0  0  # atno 10764 bound_to 10752
  152.9832  135.5918  154.4445 H   0  0  0  0  0  0  0  0  0  0  0  0  # atno 10765 bound_to 10752
  140.8462  133.7890  155.9915 H   0  0  0  0  0  0  0  0  0  0  0  0  # atno 11005 bound_to 11000
  145.0367  139.3294  143.5997 LP  0  0  0  0  0  0  0  0  0  0  0  0  # atno 17320 bound_to 7965
  146.3487  139.9725  142.8704 LP  0  0  0  0  0  0  0  0  0  0  0  0  # atno 17321 bound_to 7965
  140.6040  143.2167  151.7016 LP  0  0  0  0  0  0  0  0  0  0  0  0  # atno 17342 bound_to 10162
  139.5046  144.3747  152.0435 LP  0  0  0  0  0  0  0  0  0  0  0  0  # atno 17343 bound_to 10162
  157.1227  130.6069  149.5509 LP  0  0  0  0  0  0  0  0  0  0  0  0  # atno 17370 bound_to 10713
  155.9894  130.4941  150.7211 LP  0  0  0  0  0  0  0  0  0  0  0  0  # atno 17371 bound_to 10713
  140.8841  134.2576  157.5129 LP  0  0  0  0  0  0  0  0  0  0  0  0  # atno 17394 bound_to 11000
  139.8703  134.9629  156.4445 LP  0  0  0  0  0  0  0  0  0  0  0  0  # atno 17395 bound_to 11000

$$$$
