#       Name:                AV-unprocessed.smi:773
#       Creating user name   scv26
#       Creation time:       Fri Mar 27 01:10:54 2020


#       File generated by GOLD software.
#

@<TRIPOS>MOLECULE
AV-unprocessed.smi:773
    44    45     1
SMALL
NO_CHARGES


@<TRIPOS>ATOM
      1 ****        -2.5705  -0.1920  -1.2888 C.3            1 S1                 0.0000
      2 ****        -2.2739   0.3406   0.0833 C.2            1 S1                 0.0000
      3 ****        -2.4415   1.6279   0.3347 N.2            1 S1                 0.0000
      4 ****        -2.0658   1.8089   1.6692 O.3            1 S1                 0.0000
      5 ****        -1.6836   0.6086   2.1745 C.2            1 S1                 0.0000
      6 ****        -1.2215   0.5933   3.5918 C.3            1 S1                 0.0000
      7 ****        -1.7947  -0.3672   1.2230 C.2            1 S1                 0.0000
      8 ****        -1.4602  -1.8349   1.3351 C.3            1 S1                 0.0000
      9 ****         0.0578  -2.1200   1.2794 C.3            1 S1                 0.0000
     10 ****         0.3532  -3.6259   1.2802 C.3            1 S1                 0.0000
     11 ****         0.6679  -1.5082   0.0982 N.am           1 S1                 0.0000
     12 ****         1.3298  -0.3417   0.0757 C.2            1 S1                 0.0000
     13 ****         1.5840   0.3318   1.0747 O.2            1 S1                 0.0000
     14 ****         1.6405   0.0274  -1.1732 N.am           1 S1                 0.0000
     15 ****         2.2458   1.3068  -1.5188 C.3            1 S1                 0.0000
     16 ****         1.2748   2.4929  -1.4085 C.3            1 S1                 0.0000
     17 ****         1.8857   3.0160  -2.7141 C.3            1 S1                 0.0000
     18 ****         2.2751   1.5662  -3.0307 C.3            1 S1                 0.0000
     19 ****        -1.7588  -0.8273  -1.6434 H              1 S1                 0.0000
     20 ****        -2.6995   0.6112  -2.0153 H              1 S1                 0.0000
     21 ****        -3.4828  -0.7885  -1.2855 H              1 S1                 0.0000
     22 ****        -1.6755  -0.2337   4.1378 H              1 S1                 0.0000
     23 ****        -1.4846   1.5201   4.1019 H              1 S1                 0.0000
     24 ****        -0.1388   0.4771   3.6404 H              1 S1                 0.0000
     25 ****        -1.8632  -2.2436   2.2624 H              1 S1                 0.0000
     26 ****        -1.9544  -2.3930   0.5391 H              1 S1                 0.0000
     27 ****         0.5129  -1.6996   2.1779 H              1 S1                 0.0000
     28 ****        -0.0696  -4.1074   2.1623 H              1 S1                 0.0000
     29 ****         1.4272  -3.8151   1.2855 H              1 S1                 0.0000
     30 ****        -0.0669  -4.1149   0.4005 H              1 S1                 0.0000
     31 ****         0.5183  -1.9806  -0.7810 H              1 S1                 0.0000
     32 ****         1.3942  -0.5873  -1.9350 H              1 S1                 0.0000
     33 ****         3.2086   1.5015  -1.0418 H              1 S1                 0.0000
     34 ****         0.2250   2.2119  -1.5162 H              1 S1                 0.0000
     35 ****         1.4337   3.1324  -0.5398 H              1 S1                 0.0000
     36 ****         1.1712   3.4605  -3.4073 H              1 S1                 0.0000
     37 ****         2.7494   3.6627  -2.5498 H              1 S1                 0.0000
     38 ****         3.2542   1.4489  -3.4961 H              1 S1                 0.0000
     39 ****         1.4976   1.0339  -3.5822 H              1 S1                 0.0000
     40 ****        -2.7696   2.3281  -0.2994 LP             1 S1                 0.0000
     41 ****        -2.8402   2.1643   2.1926 LP             1 S1                 0.0000
     42 ****        -1.3041   2.4548   1.7208 LP             1 S1                 0.0000
     43 ****         1.2918   0.0168   1.9777 LP             1 S1                 0.0000
     44 ****         2.0826   1.1938   0.9830 LP             1 S1                 0.0000
@<TRIPOS>BOND
    1    1    2 1     
    2    1   19 1     
    3    1   20 1     
    4    1   21 1     
    5    2    7 1     
    6    2    3 2     
    7    3    4 1     
    8    4    5 1     
    9    5    6 1     
   10    5    7 2     
   11    6   22 1     
   12    6   23 1     
   13    6   24 1     
   14    7    8 1     
   15    8    9 1     
   16    8   25 1     
   17    8   26 1     
   18    9   10 1     
   19    9   11 1     
   20    9   27 1     
   21   10   28 1     
   22   10   29 1     
   23   10   30 1     
   24   11   12 am    
   25   11   31 1     
   26   12   13 2     
   27   12   14 am    
   28   14   15 1     
   29   14   32 1     
   30   15   18 1     
   31   15   16 1     
   32   15   33 1     
   33   16   17 1     
   34   16   34 1     
   35   16   35 1     
   36   17   18 1     
   37   17   36 1     
   38   17   37 1     
   39   18   38 1     
   40   18   39 1     
   41    3   40 1     
   42    4   41 1     
   43    4   42 1     
   44   13   43 1     
   45   13   44 1     
@<TRIPOS>SUBSTRUCTURE
      1 S1             1
@<TRIPOS>SET
LONE_PAIRS      STATIC     ATOMS    <user>   **** ""
5 40 41 42 43 44
DONOR_HYDROGENS      STATIC     ATOMS    <user>   **** ""
2 31 32
ATOM$BLUE        STATIC     ATOMS    COLORGROUP SYSTEM
5 40 41 42 43 44
ATOM$RED        STATIC     ATOMS    COLORGROUP SYSTEM
2 31 32
