AV-unprocessed.smi:175|AV-procd|sdf|1430|dock3
  -GOLD-   2262019203D 1   1.00000     0.00000
 Structure written by MMmdl.
 47 50  0  0  0  0  0  0  0  0  1 V2000
  143.4222  135.0813  152.2651 C   0  0  0  0  0  0  0  0  0  0  0  0
  144.2216  133.7847  152.0596 C   0  0  1  0  0  0  0  0  0  0  0  0
  143.4448  132.8248  151.3580 O   0  0  0  0  0  0  0  0  0  0  0  0
  144.3419  131.8451  150.8685 C   0  0  0  0  0  0  0  0  0  0  0  0
  145.4884  132.6852  150.3190 C   0  0  0  0  0  0  0  0  0  0  0  0
  145.5492  133.8906  151.2623 C   0  0  1  0  0  0  0  0  0  0  0  0
  145.5957  135.0668  150.4709 O   0  0  0  0  0  0  0  0  0  0  0  0
  146.8086  133.8626  152.1635 C   0  0  0  0  0  0  0  0  0  0  0  0
  146.5737  134.3736  153.5060 N   0  0  0  0  0  0  0  0  0  0  0  0
  146.7426  133.6900  154.6898 C   0  0  0  0  0  0  0  0  0  0  0  0
  146.4730  134.3704  155.7699 N   0  0  0  0  0  0  0  0  0  0  0  0
  146.0796  135.6151  155.2947 C   0  0  0  0  0  0  0  0  0  0  0  0
  145.6551  136.8254  155.9126 C   0  0  0  0  0  0  0  0  0  0  0  0
  145.5437  137.0079  157.2472 N   0  0  0  0  0  0  0  0  0  0  0  0
  146.3808  138.0847  157.7793 C   0  0  0  0  0  0  0  0  0  0  0  0
  147.1832  137.3918  158.8626 C   0  0  0  0  0  0  0  0  0  0  0  0
  148.0469  137.9574  159.5310 O   0  0  0  0  0  0  0  0  0  0  0  0
  146.8135  136.1140  158.9560 N   0  0  0  0  0  0  0  0  0  0  0  0
  147.3561  135.1089  159.8664 C   0  0  0  0  0  0  0  0  0  0  0  0
  147.0999  135.4603  161.3429 C   0  0  0  0  0  0  0  0  0  0  0  0
  147.4924  134.4405  162.1051 F   0  0  0  0  0  0  0  0  0  0  0  0
  147.7975  136.5421  161.6899 F   0  0  0  0  0  0  0  0  0  0  0  0
  145.8054  135.6833  161.5687 F   0  0  0  0  0  0  0  0  0  0  0  0
  145.7339  135.7906  158.0387 C   0  0  0  0  0  0  0  0  0  0  0  0
  145.3369  137.8721  155.1136 N   0  0  0  0  0  0  0  0  0  0  0  0
  145.4255  137.7470  153.7856 C   0  0  0  0  0  0  0  0  0  0  0  0
  145.8038  136.6855  153.0693 N   0  0  0  0  0  0  0  0  0  0  0  0
  146.1283  135.6321  153.8732 C   0  0  0  0  0  0  0  0  0  0  0  0
  144.0165  135.8317  152.7869 H   0  0  0  0  0  0  0  0  0  0  0  0
  142.5304  134.8926  152.8627 H   0  0  0  0  0  0  0  0  0  0  0  0
  143.0965  135.5063  151.3156 H   0  0  0  0  0  0  0  0  0  0  0  0
  144.4221  133.3453  153.0373 H   0  0  0  0  0  0  0  0  0  0  0  0
  144.6784  131.2092  151.6892 H   0  0  0  0  0  0  0  0  0  0  0  0
  143.8781  131.2151  150.1095 H   0  0  0  0  0  0  0  0  0  0  0  0
  146.4225  132.1250  150.2666 H   0  0  0  0  0  0  0  0  0  0  0  0
  145.2384  132.9948  149.3028 H   0  0  0  0  0  0  0  0  0  0  0  0
  145.9002  134.8356  149.6068 H   0  0  0  0  0  0  0  0  0  0  0  0
  147.1853  132.8424  152.2470 H   0  0  0  0  0  0  0  0  0  0  0  0
  147.6127  134.4459  151.7123 H   0  0  0  0  0  0  0  0  0  0  0  0
  147.0823  132.6652  154.7284 H   0  0  0  0  0  0  0  0  0  0  0  0
  147.0438  138.5378  157.0397 H   0  0  0  0  0  0  0  0  0  0  0  0
  145.7573  138.8669  158.2126 H   0  0  0  0  0  0  0  0  0  0  0  0
  146.9225  134.1352  159.6335 H   0  0  0  0  0  0  0  0  0  0  0  0
  148.4287  135.0134  159.6918 H   0  0  0  0  0  0  0  0  0  0  0  0
  144.8220  135.5681  158.5938 H   0  0  0  0  0  0  0  0  0  0  0  0
  145.9869  134.9142  157.4391 H   0  0  0  0  0  0  0  0  0  0  0  0
  145.1556  138.6233  153.2149 H   0  0  0  0  0  0  0  0  0  0  0  0
  1  2  1  0  0  0  0
  1 29  1  0  0  0  0
  1 30  1  0  0  0  0
  1 31  1  0  0  0  0
  2  6  1  0  0  0  0
  2  3  1  0  0  0  0
  2 32  1  0  0  0  0
  3  4  1  0  0  0  0
  4  5  1  0  0  0  0
  4 33  1  0  0  0  0
  4 34  1  0  0  0  0
  5  6  1  0  0  0  0
  5 35  1  0  0  0  0
  5 36  1  0  0  0  0
  6  7  1  0  0  0  0
  6  8  1  0  0  0  0
  7 37  1  0  0  0  0
  8  9  1  0  0  0  0
  8 38  1  0  0  0  0
  8 39  1  0  0  0  0
  9 28  1  0  0  0  0
  9 10  1  0  0  0  0
 10 11  2  0  0  0  0
 10 40  1  0  0  0  0
 11 12  1  0  0  0  0
 12 28  2  0  0  0  0
 12 13  1  0  0  0  0
 13 14  1  0  0  0  0
 13 25  2  0  0  0  0
 14 24  1  0  0  0  0
 14 15  1  0  0  0  0
 15 16  1  0  0  0  0
 15 41  1  0  0  0  0
 15 42  1  0  0  0  0
 16 17  2  0  0  0  0
 16 18  1  0  0  0  0
 18 19  1  0  0  0  0
 18 24  1  0  0  0  0
 19 20  1  0  0  0  0
 19 43  1  0  0  0  0
 19 44  1  0  0  0  0
 20 21  1  0  0  0  0
 20 22  1  0  0  0  0
 20 23  1  0  0  0  0
 24 45  1  0  0  0  0
 24 46  1  0  0  0  0
 25 26  1  0  0  0  0
 26 27  2  0  0  0  0
 26 47  1  0  0  0  0
 27 28  1  0  0  0  0
M  END
> <s_m_source_file>
AV-unprocessed.smi

> <i_m_source_file_index>
175

> <i_lp_mmshare_version>
43012

> <i_f3d_flags>
0

> <s_epik_input>
W0NIMl0xW0NIMl1PW0NAQEhdKFtDSDNdKVtDQEBdMShbT0hdKVtDSDJdbihbY0hdbjIpYyhjMjMpbltjSF1uYzNONFtDSDJdQyg9TylOKFtDSDJdNClbQ0gyXUMoRikoRilG

> <s_epik_cmdline>
J2VwaWtfcHl0aG9uJywgJy1waCcsICc3LjAnLCAnLXRuJywgJzgnLCAnLW1hJywgJzIwMCcsICctbWV0YWxfYmluZGluZycsICctaW1hZScsICc8aW5maWxlLm1hZT4nLCAnLW9tYWUnLCAnPG91dGZpbGUubWFlPic=

> <r_lp_tautomer_probability>
1

> <r_epik_Ionization_Penalty>
0.000307802

> <r_epik_Ionization_Penalty_Charging>
0

> <r_epik_Ionization_Penalty_Neutral>
0.000307802

> <r_epik_State_Penalty>
-0

> <r_epik_Charging_Adjusted_Penalty>
0

> <i_epik_Tot_Q>
0

> <i_epik_Tot_abs_Q>
0

> <r_epik_Metal_State_Penalty>
-0

> <b_epik_Metal_Only>
0

> <s_epik_Chemistry_Notes>
This compound contains an acetal/aminal-like group ( X-CH(R)-Y where X, Y are N, S, or O) that may be acid/base labile, releasing an aldehyde.

> <s_lp_Force_Field>
OPLS_2005

> <r_lp_Energy>
36.8699

> <b_lp_Chiralities_Consistent>
1

> <s_lp_Variant>
AV-unprocessed.smi:175-2

> <Gold.Version>
5.8.1

> <Gold.Id.Protein>
6NUR|6NUR_protein|mol2

> <Gold.PLP.Fitness>
38.0281

> <Gold.PLP.PLP>
-31.8200

> <Gold.PLP.part.hbond>
-2.6219

> <Gold.PLP.part.metal>
0.0000

> <Gold.PLP.part.buried>
-5.6662

> <Gold.PLP.part.nonpolar>
-23.3604

> <Gold.PLP.part.repulsive>
0.4178

> <Gold.PLP.ligand.clash>
0.0000

> <Gold.PLP.ligand.torsion>
0.8177

> <Gold.PLP.Chemscore.Hbond>
1.6240

> <Gold.PLP.Chemscore.CHOScore>
0.9046

> <Gold.PLP.Chemscore.Metal>
0.0000

> <Gold.Chemscore.Hbonds>
donor molecule, donor type, donor heavy atom, donor atom, acceptor molecule, acceptor atom, score
      L1  H     7    37       P1  7921  1.00
      P1  H  6934  6947       L1    17  0.38
      L1  C    26    47       P1 10175  1.00

> <Gold.PLP.Chemscore.Internal.Correction>
0.2575

> <Gold.Rescore>
     Score         DG    S(hbond)    S(metal)    S(lipo)     H(rot)  DE(clash)    DE(int)     intcor
      6.41     -10.36       1.91        0.00      53.91       3.05       0.03       3.92       ----

> <Gold.Chemscore.Fitness>
6.4144

> <Gold.Chemscore.DG>
-10.3638

> <Gold.Chemscore.ZeroCoef>
-5.4800

> <Gold.Chemscore.Hbond>
1.9105

> <Gold.Chemscore.Metal>
0.0000

> <Gold.Chemscore.Lipo>
53.9084

> <Gold.Chemscore.Internal_Hbond>
0.0000

> <Gold.Chemscore.DEClash>
0.0279

> <Gold.Chemscore.DEInternal>
3.9215

> <Gold.Chemscore.Rot>
3.0487

> <Gold.Chemscore.Internal.Correction>
   9.000000E+99

> <Gold.Chemscore.Hbonds>
donor molecule, donor type, donor heavy atom, donor atom, acceptor molecule, acceptor atom, score
      L1  H     7    37       P1  7921  0.80
      P1  H  6934  6947       L1    17  0.28

> <Gold.Chemscore.Hbond.Weighted>
-6.3811

> <Gold.Chemscore.Metal.Weighted>
-0.0000

> <Gold.Chemscore.Lipo.Weighted>
-6.3073

> <Gold.Chemscore.Internal_Hbond.Weighted>
0.0000

> <Gold.Chemscore.DEClash.Weighted>
0.0279

> <Gold.Chemscore.DEInternal.Weighted>
3.9215

> <Gold.Chemscore.Rot.Weighted>
7.8046

> <Gold.Chemscore.Internal.Correction.Weighted>
   9.000000E+99

> <Gold.Protein.RotatedTorsions>
[ 6907 6896 6895 6894 ] final   18.22 input  -60.11 | X-H torsion
[ 7974 7965 7964 7962 ] final  111.87 input  175.53 | X-H torsion
[ 8008 7997 7996 7995 ] final  141.26 input   59.86 | X-H torsion
[ 10167 10162 10161 10158 ] final  104.75 input  -65.29 | X-H torsion
[ 10718 10713 10712 10709 ] final  168.19 input   66.30 | X-H torsion
[ 10763 10752 10751 10750 ] final   65.22 input  -60.55 | X-H torsion
[ 11005 11000 10999 10996 ] final  144.10 input  -57.11 | X-H torsion

> <Gold.Protein.ActiveResidues>
 VAL166  LYS551  ARG553  GLY616  TRP617  ASP618  TYR619  PRO620  LYS621  CYS622 
 ASP623  PHE694  ASN695  SER759  ASP760  ASP761  ALA762  ILE779  LEU786  VAL792 
 PHE793  MET794  SER795  GLU796  ALA797  LYS798  CYS799  TRP800  GLU811  SER814 

> <Gold.Protein.RotatedAtoms>
  151.8618  135.0521  160.0469 H   0  0  0  0  0  0  0  0  0  0  0  0  # atno 6907 bound_to 6896
  152.2657  133.5332  159.5417 H   0  0  0  0  0  0  0  0  0  0  0  0  # atno 6908 bound_to 6896
  150.7132  134.0684  159.3898 H   0  0  0  0  0  0  0  0  0  0  0  0  # atno 6909 bound_to 6896
  145.2367  139.2796  143.4139 H   0  0  0  0  0  0  0  0  0  0  0  0  # atno 7974 bound_to 7965
  156.2968  140.2320  156.4536 H   0  0  0  0  0  0  0  0  0  0  0  0  # atno 8008 bound_to 7997
  154.8080  140.0444  157.1343 H   0  0  0  0  0  0  0  0  0  0  0  0  # atno 8009 bound_to 7997
  154.9456  140.3035  155.5103 H   0  0  0  0  0  0  0  0  0  0  0  0  # atno 8010 bound_to 7997
  139.7150  144.7070  151.0964 H   0  0  0  0  0  0  0  0  0  0  0  0  # atno 10167 bound_to 10162
  157.0407  131.0285  151.2714 H   0  0  0  0  0  0  0  0  0  0  0  0  # atno 10718 bound_to 10713
  153.0087  135.5365  154.6633 H   0  0  0  0  0  0  0  0  0  0  0  0  # atno 10763 bound_to 10752
  154.5836  135.2852  155.0710 H   0  0  0  0  0  0  0  0  0  0  0  0  # atno 10764 bound_to 10752
  154.1829  135.6513  153.5091 H   0  0  0  0  0  0  0  0  0  0  0  0  # atno 10765 bound_to 10752
  140.0605  134.9207  157.1176 H   0  0  0  0  0  0  0  0  0  0  0  0  # atno 11005 bound_to 11000
  146.3339  140.2718  142.8606 LP  0  0  0  0  0  0  0  0  0  0  0  0  # atno 17320 bound_to 7965
  144.9626  140.8290  143.5504 LP  0  0  0  0  0  0  0  0  0  0  0  0  # atno 17321 bound_to 7965
  140.7742  143.5241  150.9501 LP  0  0  0  0  0  0  0  0  0  0  0  0  # atno 17342 bound_to 10162
  139.8927  143.6933  152.3143 LP  0  0  0  0  0  0  0  0  0  0  0  0  # atno 17343 bound_to 10162
  157.5107  130.7937  149.7702 LP  0  0  0  0  0  0  0  0  0  0  0  0  # atno 17370 bound_to 10713
  156.0039  130.3865  150.2503 LP  0  0  0  0  0  0  0  0  0  0  0  0  # atno 17371 bound_to 10713
  140.3777  134.2321  155.7173 LP  0  0  0  0  0  0  0  0  0  0  0  0  # atno 17394 bound_to 11000
  141.1971  133.8067  157.0642 LP  0  0  0  0  0  0  0  0  0  0  0  0  # atno 17395 bound_to 11000

$$$$
