AV-unprocessed.smi:1734|AV-procd|sdf|6985|dock4
  -GOLD-   22720 8203D 1   1.00000     0.00000
 Structure written by MMmdl.
 51 53  0  0  0  0  0  0  0  0  2 V2000
  147.4828  132.7578  152.4351 C   0  0  0  0  0  0  0  0  0  0  0  0
  146.1656  132.7483  151.6764 C   0  0  0  0  0  0  0  0  0  0  0  0
  145.5468  131.5144  151.3825 C   0  0  0  0  0  0  0  0  0  0  0  0
  144.3289  131.5079  150.6813 C   0  0  0  0  0  0  0  0  0  0  0  0
  143.7781  132.7436  150.3006 C   0  0  0  0  0  0  0  0  0  0  0  0
  144.3624  133.9273  150.5779 N   0  0  0  0  0  0  0  0  0  0  0  0
  145.5384  133.9511  151.2538 C   0  0  0  0  0  0  0  0  0  0  0  0
  146.2122  135.1625  151.5791 N   0  0  0  0  0  0  0  0  0  0  0  0
  145.6859  136.3228  152.0088 C   0  0  0  0  0  0  0  0  0  0  0  0
  144.4883  136.5407  152.1948 O   0  0  0  0  0  0  0  0  0  0  0  0
  146.6410  137.2375  152.2305 N   0  0  0  0  0  0  0  0  0  0  0  0
  146.3977  138.5876  152.7260 C   0  0  0  0  0  0  0  0  0  0  0  0
  147.6358  139.2369  153.4096 C   0  0  1  0  0  0  0  0  0  0  0  0
  147.2764  140.2630  154.5221 C   0  0  2  0  0  0  0  0  0  0  0  0
  146.2871  141.3516  154.1304 C   0  0  0  0  0  0  0  0  0  0  0  0
  146.5746  142.4813  155.1202 C   0  0  0  0  0  0  0  0  0  0  0  0
  147.8586  142.2120  155.6718 O   0  0  0  0  0  0  0  0  0  0  0  0
  148.4544  141.1324  154.9705 C   0  0  0  0  0  0  0  0  0  0  0  0
  148.5712  138.2066  153.9526 N   0  3  0  0  0  0  0  0  0  0  0  0
  149.9651  138.6546  154.2019 C   0  0  0  0  0  0  0  0  0  0  0  0
  150.8413  137.4496  154.5815 C   0  0  0  0  0  0  0  0  0  0  0  0
  150.2933  136.8053  155.7255 O   0  0  0  0  0  0  0  0  0  0  0  0
  148.9841  136.3036  155.4826 C   0  0  0  0  0  0  0  0  0  0  0  0
  148.0413  137.4644  155.1228 C   0  0  0  0  0  0  0  0  0  0  0  0
  147.7992  131.7472  152.6955 H   0  0  0  0  0  0  0  0  0  0  0  0
  147.3863  133.3269  153.3603 H   0  0  0  0  0  0  0  0  0  0  0  0
  148.2687  133.2097  151.8292 H   0  0  0  0  0  0  0  0  0  0  0  0
  145.9973  130.5819  151.6897 H   0  0  0  0  0  0  0  0  0  0  0  0
  143.8305  130.5803  150.4413 H   0  0  0  0  0  0  0  0  0  0  0  0
  142.8442  132.7841  149.7598 H   0  0  0  0  0  0  0  0  0  0  0  0
  147.2161  135.1352  151.4811 H   0  0  0  0  0  0  0  0  0  0  0  0
  147.6007  136.9812  152.0495 H   0  0  0  0  0  0  0  0  0  0  0  0
  146.0788  139.1887  151.8744 H   0  0  0  0  0  0  0  0  0  0  0  0
  145.5474  138.5517  153.4079 H   0  0  0  0  0  0  0  0  0  0  0  0
  148.1959  139.7854  152.6509 H   0  0  0  0  0  0  0  0  0  0  0  0
  146.8801  139.7432  155.3952 H   0  0  0  0  0  0  0  0  0  0  0  0
  146.4854  141.6974  153.1147 H   0  0  0  0  0  0  0  0  0  0  0  0
  145.2485  141.0244  154.1794 H   0  0  0  0  0  0  0  0  0  0  0  0
  146.5593  143.4551  154.6299 H   0  0  0  0  0  0  0  0  0  0  0  0
  145.8405  142.4963  155.9264 H   0  0  0  0  0  0  0  0  0  0  0  0
  149.1591  140.5969  155.6075 H   0  0  0  0  0  0  0  0  0  0  0  0
  149.0009  141.5245  154.1110 H   0  0  0  0  0  0  0  0  0  0  0  0
  150.3770  139.1379  153.3164 H   0  0  0  0  0  0  0  0  0  0  0  0
  149.9899  139.3855  155.0108 H   0  0  0  0  0  0  0  0  0  0  0  0
  150.9173  136.7447  153.7519 H   0  0  0  0  0  0  0  0  0  0  0  0
  151.8542  137.7794  154.8130 H   0  0  0  0  0  0  0  0  0  0  0  0
  149.0100  135.5611  154.6834 H   0  0  0  0  0  0  0  0  0  0  0  0
  148.6287  135.7947  156.3788 H   0  0  0  0  0  0  0  0  0  0  0  0
  147.9369  138.1317  155.9787 H   0  0  0  0  0  0  0  0  0  0  0  0
  147.0487  137.0710  154.9000 H   0  0  0  0  0  0  0  0  0  0  0  0
  148.6381  137.5134  153.2211 H   0  0  0  0  0  0  0  0  0  0  0  0
  1  2  1  0  0  0  0
  1 25  1  0  0  0  0
  1 26  1  0  0  0  0
  1 27  1  0  0  0  0
  2  7  1  0  0  0  0
  2  3  2  0  0  0  0
  3  4  1  0  0  0  0
  3 28  1  0  0  0  0
  4  5  2  0  0  0  0
  4 29  1  0  0  0  0
  5  6  1  0  0  0  0
  5 30  1  0  0  0  0
  6  7  2  0  0  0  0
  7  8  1  0  0  0  0
  8  9  1  0  0  0  0
  8 31  1  0  0  0  0
  9 10  2  0  0  0  0
  9 11  1  0  0  0  0
 11 12  1  0  0  0  0
 11 32  1  0  0  0  0
 12 13  1  0  0  0  0
 12 33  1  0  0  0  0
 12 34  1  0  0  0  0
 13 14  1  0  0  0  0
 13 19  1  0  0  0  0
 13 35  1  0  0  0  0
 14 18  1  0  0  0  0
 14 15  1  0  0  0  0
 14 36  1  0  0  0  0
 15 16  1  0  0  0  0
 15 37  1  0  0  0  0
 15 38  1  0  0  0  0
 16 17  1  0  0  0  0
 16 39  1  0  0  0  0
 16 40  1  0  0  0  0
 17 18  1  0  0  0  0
 18 41  1  0  0  0  0
 18 42  1  0  0  0  0
 19 24  1  0  0  0  0
 19 20  1  0  0  0  0
 19 51  1  0  0  0  0
 20 21  1  0  0  0  0
 20 43  1  0  0  0  0
 20 44  1  0  0  0  0
 21 22  1  0  0  0  0
 21 45  1  0  0  0  0
 21 46  1  0  0  0  0
 22 23  1  0  0  0  0
 23 24  1  0  0  0  0
 23 47  1  0  0  0  0
 23 48  1  0  0  0  0
 24 49  1  0  0  0  0
 24 50  1  0  0  0  0
M  CHG  1  19   1
M  END
> <s_m_source_file>
AV-unprocessed.smi

> <i_m_source_file_index>
1734

> <i_lp_mmshare_version>
43012

> <i_f3d_flags>
0

> <s_epik_input>
W0NIM11jMVtjSF1bY0hdW2NIXW5jMVtOSF1DKD1PKVtOSF1bQ0gyXVtDQEhdKFtDQEBIXTJbQ0gyXVtDSDJdT1tDSDJdMilOM1tDSDJdW0NIMl1PW0NIMl1bQ0gyXTM=

> <s_epik_cmdline>
J2VwaWtfcHl0aG9uJywgJy1waCcsICc3LjAnLCAnLXRuJywgJzgnLCAnLW1hJywgJzIwMCcsICctbWV0YWxfYmluZGluZycsICctaW1hZScsICc8aW5maWxlLm1hZT4nLCAnLW9tYWUnLCAnPG91dGZpbGUubWFlPic=

> <r_epik_Ionization_Penalty>
0.983302

> <r_epik_Ionization_Penalty_Charging>
0.98326

> <r_epik_Ionization_Penalty_Neutral>
4.21967e-05

> <r_epik_State_Penalty>
1.0303

> <r_epik_Charging_Adjusted_Penalty>
2.01356

> <i_epik_Tot_Q>
1

> <i_epik_Tot_abs_Q>
1

> <r_epik_Metal_State_Penalty>
1.03031

> <b_epik_Metal_Only>
0

> <s_lp_Force_Field>
OPLS_2005

> <r_lp_Energy>
39.7986

> <b_lp_Chiralities_Consistent>
1

> <s_lp_Variant>
AV-unprocessed.smi:1734-6

> <Gold.Version>
5.8.1

> <Gold.Id.Protein>
6NUR|6NUR_protein|mol2

> <Gold.PLP.Fitness>
48.3921

> <Gold.PLP.PLP>
-35.6530

> <Gold.PLP.part.hbond>
-2.9506

> <Gold.PLP.part.metal>
0.0000

> <Gold.PLP.part.buried>
-4.4195

> <Gold.PLP.part.nonpolar>
-34.1957

> <Gold.PLP.part.repulsive>
4.3280

> <Gold.PLP.ligand.clash>
0.0000

> <Gold.PLP.ligand.torsion>
1.1271

> <Gold.PLP.Chemscore.Hbond>
3.8713

> <Gold.PLP.Chemscore.CHOScore>
1.0000

> <Gold.PLP.Chemscore.Metal>
0.0000

> <Gold.Chemscore.Hbonds>
donor molecule, donor type, donor heavy atom, donor atom, acceptor molecule, acceptor atom, score
      L1  H     8    31       P1  7948  0.86
      L1  H    11    32       P1  7948  1.00
      L1  H    19    51       P1  7948  2.00
      L1  C     5    30       P1 10186  1.00

> <Gold.PLP.Chemscore.Internal.Correction>
0.3796

> <Gold.Rescore>
     Score         DG    S(hbond)    S(metal)    S(lipo)     H(rot)  DE(clash)    DE(int)     intcor
     15.85     -21.20       2.69        0.00      94.91       1.70       2.19       3.16       ----

> <Gold.Chemscore.Fitness>
15.8548

> <Gold.Chemscore.DG>
-21.2045

> <Gold.Chemscore.ZeroCoef>
-5.4800

> <Gold.Chemscore.Hbond>
2.6852

> <Gold.Chemscore.Metal>
0.0000

> <Gold.Chemscore.Lipo>
94.9102

> <Gold.Chemscore.Internal_Hbond>
0.0000

> <Gold.Chemscore.DEClash>
2.1894

> <Gold.Chemscore.DEInternal>
3.1603

> <Gold.Chemscore.Rot>
1.6986

> <Gold.Chemscore.Internal.Correction>
   9.000000E+99

> <Gold.Chemscore.Hbonds>
donor molecule, donor type, donor heavy atom, donor atom, acceptor molecule, acceptor atom, score
      L1  H     8    31       P1  7948  0.68
      L1  H    11    32       P1  7948  0.94
      L1  H    19    51       P1  7948  1.00

> <Gold.Chemscore.Hbond.Weighted>
-8.9685

> <Gold.Chemscore.Metal.Weighted>
-0.0000

> <Gold.Chemscore.Lipo.Weighted>
-11.1045

> <Gold.Chemscore.Internal_Hbond.Weighted>
0.0000

> <Gold.Chemscore.DEClash.Weighted>
2.1894

> <Gold.Chemscore.DEInternal.Weighted>
3.1603

> <Gold.Chemscore.Rot.Weighted>
4.3485

> <Gold.Chemscore.Internal.Correction.Weighted>
   9.000000E+99

> <Gold.Protein.RotatedTorsions>
[ 6907 6896 6895 6894 ] final  -23.02 input  -60.11 | X-H torsion
[ 7974 7965 7964 7962 ] final  145.70 input  175.53 | X-H torsion
[ 8008 7997 7996 7995 ] final -104.18 input   59.86 | X-H torsion
[ 10167 10162 10161 10158 ] final -145.53 input  -65.29 | X-H torsion
[ 10718 10713 10712 10709 ] final -106.06 input   66.30 | X-H torsion
[ 10763 10752 10751 10750 ] final -172.74 input  -60.55 | X-H torsion
[ 11005 11000 10999 10996 ] final  -67.02 input  -57.11 | X-H torsion

> <Gold.Protein.ActiveResidues>
 VAL166  LYS551  ARG553  GLY616  TRP617  ASP618  TYR619  PRO620  LYS621  CYS622 
 ASP623  PHE694  ASN695  SER759  ASP760  ASP761  ALA762  ILE779  LEU786  VAL792 
 PHE793  MET794  SER795  GLU796  ALA797  LYS798  CYS799  TRP800  GLU811  SER814 

> <Gold.Protein.RotatedAtoms>
  151.2101  135.0477  159.8907 H   0  0  0  0  0  0  0  0  0  0  0  0  # atno 6907 bound_to 6896
  152.5425  134.0754  159.8222 H   0  0  0  0  0  0  0  0  0  0  0  0  # atno 6908 bound_to 6896
  151.0907  133.5271  159.2647 H   0  0  0  0  0  0  0  0  0  0  0  0  # atno 6909 bound_to 6896
  144.8731  139.5815  143.5877 H   0  0  0  0  0  0  0  0  0  0  0  0  # atno 7974 bound_to 7965
  154.8816  140.0419  157.1786 H   0  0  0  0  0  0  0  0  0  0  0  0  # atno 8008 bound_to 7997
  154.8633  140.2947  155.5505 H   0  0  0  0  0  0  0  0  0  0  0  0  # atno 8009 bound_to 7997
  156.2998  140.2443  156.3611 H   0  0  0  0  0  0  0  0  0  0  0  0  # atno 8010 bound_to 7997
  139.7797  143.8119  152.2637 H   0  0  0  0  0  0  0  0  0  0  0  0  # atno 10167 bound_to 10162
  156.0373  130.5594  150.7628 H   0  0  0  0  0  0  0  0  0  0  0  0  # atno 10718 bound_to 10713
  154.6159  135.2869  155.0380 H   0  0  0  0  0  0  0  0  0  0  0  0  # atno 10763 bound_to 10752
  154.1593  135.6490  153.4986 H   0  0  0  0  0  0  0  0  0  0  0  0  # atno 10764 bound_to 10752
  153.0215  135.5374  154.6930 H   0  0  0  0  0  0  0  0  0  0  0  0  # atno 10765 bound_to 10752
  141.1497  133.6711  156.6229 H   0  0  0  0  0  0  0  0  0  0  0  0  # atno 11005 bound_to 11000
  146.2944  139.7234  142.9137 LP  0  0  0  0  0  0  0  0  0  0  0  0  # atno 17320 bound_to 7965
  145.4093  141.0394  143.3026 LP  0  0  0  0  0  0  0  0  0  0  0  0  # atno 17321 bound_to 7965
  139.8178  144.7309  150.9612 LP  0  0  0  0  0  0  0  0  0  0  0  0  # atno 17342 bound_to 10162
  140.7818  143.4188  151.0874 LP  0  0  0  0  0  0  0  0  0  0  0  0  # atno 17343 bound_to 10162
  157.5143  131.0927  151.0159 LP  0  0  0  0  0  0  0  0  0  0  0  0  # atno 17370 bound_to 10713
  157.0507  130.5786  149.5370 LP  0  0  0  0  0  0  0  0  0  0  0  0  # atno 17371 bound_to 10713
  140.3526  134.7755  157.4478 LP  0  0  0  0  0  0  0  0  0  0  0  0  # atno 17394 bound_to 11000
  140.0848  134.5681  155.8503 LP  0  0  0  0  0  0  0  0  0  0  0  0  # atno 17395 bound_to 11000

$$$$
