AV-unprocessed.smi:3103|AV-procd|sdf|11814|dock5
  -GOLD-   2272017183D 1   1.00000     0.00000
 Structure written by MMmdl.
 32 32  0  0  0  0  0  0  0  0  1 V2000
  153.3170  141.9947  160.4278 C   0  0  0  0  0  0  0  0  0  0  0  0
  152.3752  142.1096  159.2448 C   0  0  0  0  0  0  0  0  0  0  0  0
  151.9976  140.9757  158.4946 C   0  0  0  0  0  0  0  0  0  0  0  0
  151.1626  141.0663  157.4370 N   0  0  0  0  0  0  0  0  0  0  0  0
  150.7051  142.2814  157.1273 C   0  0  0  0  0  0  0  0  0  0  0  0
  149.8617  142.3386  156.0345 N   0  0  0  0  0  0  0  0  0  0  0  0
  149.3810  141.1684  155.3159 C   0  0  0  0  0  0  0  0  0  0  0  0
  150.1321  140.9711  153.9957 C   0  0  0  0  0  0  0  0  0  0  0  0
  151.4900  140.6799  154.2814 O   0  0  0  0  0  0  0  0  0  0  0  0
  151.7372  139.2925  154.4357 C   0  0  0  0  0  0  0  0  0  0  0  0
  153.1583  138.9840  153.9490 C   0  0  0  0  0  0  0  0  0  0  0  0
  153.2093  137.6889  153.3897 O   0  0  0  0  0  0  0  0  0  0  0  0
  150.9905  143.4219  157.7668 N   0  0  0  0  0  0  0  0  0  0  0  0
  151.8253  143.3439  158.8269 C   0  0  0  0  0  0  0  0  0  0  0  0
  152.1386  144.6472  159.5368 C   0  0  0  0  0  0  0  0  0  0  0  0
  153.6647  140.9691  160.5554 H   0  0  0  0  0  0  0  0  0  0  0  0
  152.8134  142.2988  161.3456 H   0  0  0  0  0  0  0  0  0  0  0  0
  154.1897  142.6323  160.2839 H   0  0  0  0  0  0  0  0  0  0  0  0
  152.3659  139.9906  158.7406 H   0  0  0  0  0  0  0  0  0  0  0  0
  149.4661  143.2379  155.8025 H   0  0  0  0  0  0  0  0  0  0  0  0
  149.5218  140.2930  155.9506 H   0  0  0  0  0  0  0  0  0  0  0  0
  148.3105  141.2613  155.1285 H   0  0  0  0  0  0  0  0  0  0  0  0
  149.6774  140.1729  153.4067 H   0  0  0  0  0  0  0  0  0  0  0  0
  150.0744  141.8873  153.4064 H   0  0  0  0  0  0  0  0  0  0  0  0
  151.6582  139.0396  155.4942 H   0  0  0  0  0  0  0  0  0  0  0  0
  150.9981  138.6918  153.9025 H   0  0  0  0  0  0  0  0  0  0  0  0
  153.5006  139.7262  153.2270 H   0  0  0  0  0  0  0  0  0  0  0  0
  153.8509  139.0078  154.7907 H   0  0  0  0  0  0  0  0  0  0  0  0
  153.1190  137.7629  152.4520 H   0  0  0  0  0  0  0  0  0  0  0  0
  151.8832  144.5755  160.5942 H   0  0  0  0  0  0  0  0  0  0  0  0
  151.5760  145.4789  159.1104 H   0  0  0  0  0  0  0  0  0  0  0  0
  153.2006  144.8783  159.4520 H   0  0  0  0  0  0  0  0  0  0  0  0
  1  2  1  0  0  0  0
  1 16  1  0  0  0  0
  1 17  1  0  0  0  0
  1 18  1  0  0  0  0
  2 14  1  0  0  0  0
  2  3  2  0  0  0  0
  3  4  1  0  0  0  0
  3 19  1  0  0  0  0
  4  5  2  0  0  0  0
  5  6  1  0  0  0  0
  5 13  1  0  0  0  0
  6  7  1  0  0  0  0
  6 20  1  0  0  0  0
  7  8  1  0  0  0  0
  7 21  1  0  0  0  0
  7 22  1  0  0  0  0
  8  9  1  0  0  0  0
  8 23  1  0  0  0  0
  8 24  1  0  0  0  0
  9 10  1  0  0  0  0
 10 11  1  0  0  0  0
 10 25  1  0  0  0  0
 10 26  1  0  0  0  0
 11 12  1  0  0  0  0
 11 27  1  0  0  0  0
 11 28  1  0  0  0  0
 12 29  1  0  0  0  0
 13 14  2  0  0  0  0
 14 15  1  0  0  0  0
 15 30  1  0  0  0  0
 15 31  1  0  0  0  0
 15 32  1  0  0  0  0
M  END
> <s_m_source_file>
AV-unprocessed.smi

> <i_m_source_file_index>
3103

> <i_lp_mmshare_version>
43012

> <i_f3d_flags>
0

> <s_epik_input>
W0NIM11jMVtjSF1uYyhuYzFbQ0gzXSlbTkhdW0NIMl1bQ0gyXU9bQ0gyXVtDSDJdW09IXQ==

> <s_epik_cmdline>
J2VwaWtfcHl0aG9uJywgJy1waCcsICc3LjAnLCAnLXRuJywgJzgnLCAnLW1hJywgJzIwMCcsICctbWV0YWxfYmluZGluZycsICctaW1hZScsICc8aW5maWxlLm1hZT4nLCAnLW9tYWUnLCAnPG91dGZpbGUubWFlPic=

> <r_lp_tautomer_probability>
1

> <r_epik_Ionization_Penalty>
0.00815169

> <r_epik_Ionization_Penalty_Charging>
0

> <r_epik_Ionization_Penalty_Neutral>
0.00815169

> <r_epik_State_Penalty>
0.00530275

> <r_epik_Charging_Adjusted_Penalty>
0.00530275

> <i_epik_Tot_Q>
0

> <i_epik_Tot_abs_Q>
0

> <r_epik_Metal_State_Penalty>
-0

> <b_epik_Metal_Only>
0

> <s_lp_Force_Field>
OPLS_2005

> <r_lp_Energy>
-2.90403

> <b_lp_Chiralities_Consistent>
1

> <s_lp_Variant>
AV-unprocessed.smi:3103-1

> <Gold.Version>
5.8.1

> <Gold.Id.Protein>
6NUR|6NUR_protein|mol2

> <Gold.PLP.Fitness>
45.7414

> <Gold.PLP.PLP>
-35.1766

> <Gold.PLP.part.hbond>
-4.0000

> <Gold.PLP.part.metal>
0.0000

> <Gold.PLP.part.buried>
-6.1385

> <Gold.PLP.part.nonpolar>
-25.9273

> <Gold.PLP.part.repulsive>
0.3285

> <Gold.PLP.ligand.clash>
0.0000

> <Gold.PLP.ligand.torsion>
0.7288

> <Gold.PLP.Chemscore.Hbond>
4.0000

> <Gold.PLP.Chemscore.CHOScore>
0.0000

> <Gold.PLP.Chemscore.Metal>
0.0000

> <Gold.Chemscore.Hbonds>
donor molecule, donor type, donor heavy atom, donor atom, acceptor molecule, acceptor atom, score
      L1  H     6    20       P1  8028  1.00
      P1  H 10752 10764       L1    12  0.04

> <Gold.PLP.Chemscore.Internal.Correction>
0.0225

> <Gold.Rescore>
     Score         DG    S(hbond)    S(metal)    S(lipo)     H(rot)  DE(clash)    DE(int)     intcor
     19.53     -20.71       3.78        0.00      79.29       2.61       0.38       0.80       ----

> <Gold.Chemscore.Fitness>
19.5267

> <Gold.Chemscore.DG>
-20.7083

> <Gold.Chemscore.ZeroCoef>
-5.4800

> <Gold.Chemscore.Hbond>
3.7832

> <Gold.Chemscore.Metal>
0.0000

> <Gold.Chemscore.Lipo>
79.2927

> <Gold.Chemscore.Internal_Hbond>
0.0000

> <Gold.Chemscore.DEClash>
0.3841

> <Gold.Chemscore.DEInternal>
0.7975

> <Gold.Chemscore.Rot>
2.6113

> <Gold.Chemscore.Internal.Correction>
   9.000000E+99

> <Gold.Chemscore.Hbonds>
donor molecule, donor type, donor heavy atom, donor atom, acceptor molecule, acceptor atom, score
      L1  H     6    20       P1  8028  0.98
      P1  H 10752 10764       L1    12  0.05

> <Gold.Chemscore.Hbond.Weighted>
-12.6359

> <Gold.Chemscore.Metal.Weighted>
-0.0000

> <Gold.Chemscore.Lipo.Weighted>
-9.2772

> <Gold.Chemscore.Internal_Hbond.Weighted>
0.0000

> <Gold.Chemscore.DEClash.Weighted>
0.3841

> <Gold.Chemscore.DEInternal.Weighted>
0.7975

> <Gold.Chemscore.Rot.Weighted>
6.6849

> <Gold.Chemscore.Internal.Correction.Weighted>
   9.000000E+99

> <Gold.Protein.RotatedTorsions>
[ 6907 6896 6895 6894 ] final  -52.06 input  -60.11 | X-H torsion
[ 7974 7965 7964 7962 ] final -120.20 input  175.53 | X-H torsion
[ 8008 7997 7996 7995 ] final -130.50 input   59.86 | X-H torsion
[ 10167 10162 10161 10158 ] final  -21.72 input  -65.29 | X-H torsion
[ 10718 10713 10712 10709 ] final  -57.12 input   66.30 | X-H torsion
[ 10763 10752 10751 10750 ] final  -69.82 input  -60.55 | X-H torsion
[ 11005 11000 10999 10996 ] final -171.77 input  -57.11 | X-H torsion

> <Gold.Protein.ActiveResidues>
 VAL166  LYS551  ARG553  GLY616  TRP617  ASP618  TYR619  PRO620  LYS621  CYS622 
 ASP623  PHE694  ASN695  SER759  ASP760  ASP761  ALA762  ILE779  LEU786  VAL792 
 PHE793  MET794  SER795  GLU796  ALA797  LYS798  CYS799  TRP800  GLU811  SER814 

> <Gold.Protein.RotatedAtoms>
  150.8553  134.7890  159.7040 H   0  0  0  0  0  0  0  0  0  0  0  0  # atno 6907 bound_to 6896
  152.4606  134.5189  159.9786 H   0  0  0  0  0  0  0  0  0  0  0  0  # atno 6908 bound_to 6896
  151.5302  133.3412  159.2952 H   0  0  0  0  0  0  0  0  0  0  0  0  # atno 6909 bound_to 6896
  145.0540  140.8240  143.4192 H   0  0  0  0  0  0  0  0  0  0  0  0  # atno 7974 bound_to 7965
  155.2968  140.0451  157.3027 H   0  0  0  0  0  0  0  0  0  0  0  0  # atno 8008 bound_to 7997
  154.5509  140.2317  155.8454 H   0  0  0  0  0  0  0  0  0  0  0  0  # atno 8009 bound_to 7997
  156.1966  140.3037  155.9446 H   0  0  0  0  0  0  0  0  0  0  0  0  # atno 8010 bound_to 7997
  140.7283  143.4601  151.0392 H   0  0  0  0  0  0  0  0  0  0  0  0  # atno 10167 bound_to 10162
  156.1235  130.4164  150.0398 H   0  0  0  0  0  0  0  0  0  0  0  0  # atno 10718 bound_to 10713
  154.4088  135.6014  153.5940 H   0  0  0  0  0  0  0  0  0  0  0  0  # atno 10763 bound_to 10752
  152.9790  135.5924  154.4095 H   0  0  0  0  0  0  0  0  0  0  0  0  # atno 10764 bound_to 10752
  154.3904  135.2842  155.2136 H   0  0  0  0  0  0  0  0  0  0  0  0  # atno 10765 bound_to 10752
  140.5045  134.5861  157.4999 H   0  0  0  0  0  0  0  0  0  0  0  0  # atno 11005 bound_to 11000
  145.1491  139.2525  143.5450 LP  0  0  0  0  0  0  0  0  0  0  0  0  # atno 17320 bound_to 7965
  146.3520  140.1189  142.8601 LP  0  0  0  0  0  0  0  0  0  0  0  0  # atno 17321 bound_to 7965
  139.8285  143.7723  152.3179 LP  0  0  0  0  0  0  0  0  0  0  0  0  # atno 17342 bound_to 10162
  139.7830  144.7437  151.0061 LP  0  0  0  0  0  0  0  0  0  0  0  0  # atno 17343 bound_to 10162
  156.8329  130.9399  151.3636 LP  0  0  0  0  0  0  0  0  0  0  0  0  # atno 17370 bound_to 10713
  157.6418  130.8811  149.9462 LP  0  0  0  0  0  0  0  0  0  0  0  0  # atno 17371 bound_to 10713
  139.9694  134.7318  156.0072 LP  0  0  0  0  0  0  0  0  0  0  0  0  # atno 17394 bound_to 11000
  141.1418  133.6563  156.3751 LP  0  0  0  0  0  0  0  0  0  0  0  0  # atno 17395 bound_to 11000

$$$$
