AV-unprocessed.smi:3306|AV-procd|sdf|12702|dock3
  -GOLD-   2272019 33D 1   1.00000     0.00000
 Structure written by MMmdl.
 45 46  0  0  0  0  0  0  0  0  3 V2000
  142.8030  140.6581  155.5911 C   0  0  0  0  0  0  0  0  0  0  0  0
  144.1447  139.9061  155.6903 C   0  0  0  0  0  0  0  0  0  0  0  0
  144.5220  139.6109  157.1516 C   0  0  0  0  0  0  0  0  0  0  0  0
  145.2627  140.5822  154.9686 N   0  3  2  0  0  0  0  0  0  0  0  0
  146.5408  139.8215  154.9211 C   0  0  0  0  0  0  0  0  0  0  0  0
  147.5395  140.4900  153.9598 C   0  0  0  0  0  0  0  0  0  0  0  0
  147.8074  141.9641  154.3303 C   0  0  2  0  0  0  0  0  0  0  0  0
  148.6134  142.1109  155.5666 N   0  3  0  0  0  0  0  0  0  0  0  0
  150.0138  141.6471  155.4707 C   0  0  0  0  0  0  0  0  0  0  0  0
  150.5021  141.0959  156.8173 C   0  0  0  0  0  0  0  0  0  0  0  0
  151.3241  142.1114  157.5885 C   0  0  0  0  0  0  0  0  0  0  0  0
  151.3741  143.4611  157.1797 C   0  0  0  0  0  0  0  0  0  0  0  0
  152.1506  144.3615  157.9350 C   0  0  0  0  0  0  0  0  0  0  0  0
  152.8415  143.8803  159.0639 C   0  0  0  0  0  0  0  0  0  0  0  0
  152.7256  142.5140  159.3888 C   0  0  0  0  0  0  0  0  0  0  0  0
  151.9834  141.6423  158.6714 N   0  0  0  0  0  0  0  0  0  0  0  0
  146.4664  142.7102  154.4609 C   0  0  0  0  0  0  0  0  0  0  0  0
  145.4798  141.9886  155.3987 C   0  0  0  0  0  0  0  0  0  0  0  0
  142.0015  140.0704  156.0399 H   0  0  0  0  0  0  0  0  0  0  0  0
  142.5204  140.8487  154.5560 H   0  0  0  0  0  0  0  0  0  0  0  0
  142.8305  141.6135  156.1156 H   0  0  0  0  0  0  0  0  0  0  0  0
  144.0054  138.9321  155.2192 H   0  0  0  0  0  0  0  0  0  0  0  0
  143.7599  138.9948  157.6301 H   0  0  0  0  0  0  0  0  0  0  0  0
  144.6184  140.5207  157.7436 H   0  0  0  0  0  0  0  0  0  0  0  0
  145.4657  139.0683  157.2139 H   0  0  0  0  0  0  0  0  0  0  0  0
  146.9780  139.7580  155.9183 H   0  0  0  0  0  0  0  0  0  0  0  0
  146.3612  138.7994  154.5892 H   0  0  0  0  0  0  0  0  0  0  0  0
  148.4648  139.9164  153.9199 H   0  0  0  0  0  0  0  0  0  0  0  0
  147.1291  140.4513  152.9497 H   0  0  0  0  0  0  0  0  0  0  0  0
  148.3706  142.4340  153.5224 H   0  0  0  0  0  0  0  0  0  0  0  0
  148.6459  143.0955  155.7915 H   0  0  0  0  0  0  0  0  0  0  0  0
  150.0984  140.8728  154.7081 H   0  0  0  0  0  0  0  0  0  0  0  0
  150.6476  142.4788  155.1601 H   0  0  0  0  0  0  0  0  0  0  0  0
  149.6508  140.7951  157.4303 H   0  0  0  0  0  0  0  0  0  0  0  0
  151.0992  140.1968  156.6587 H   0  0  0  0  0  0  0  0  0  0  0  0
  150.8340  143.8026  156.3089 H   0  0  0  0  0  0  0  0  0  0  0  0
  152.2155  145.4023  157.6534 H   0  0  0  0  0  0  0  0  0  0  0  0
  153.4464  144.5421  159.6660 H   0  0  0  0  0  0  0  0  0  0  0  0
  153.2412  142.1110  160.2480 H   0  0  0  0  0  0  0  0  0  0  0  0
  146.6325  143.7319  154.8052 H   0  0  0  0  0  0  0  0  0  0  0  0
  146.0111  142.7974  153.4733 H   0  0  0  0  0  0  0  0  0  0  0  0
  144.5318  142.5279  155.3957 H   0  0  0  0  0  0  0  0  0  0  0  0
  145.8510  142.0109  156.4240 H   0  0  0  0  0  0  0  0  0  0  0  0
  144.9453  140.6468  154.0115 H   0  0  0  0  0  0  0  0  0  0  0  0
  148.1555  141.6262  156.3251 H   0  0  0  0  0  0  0  0  0  0  0  0
  1  2  1  0  0  0  0
  1 19  1  0  0  0  0
  1 20  1  0  0  0  0
  1 21  1  0  0  0  0
  2  3  1  0  0  0  0
  2  4  1  0  0  0  0
  2 22  1  0  0  0  0
  3 23  1  0  0  0  0
  3 24  1  0  0  0  0
  3 25  1  0  0  0  0
  4 18  1  0  0  0  0
  4  5  1  0  0  0  0
  4 44  1  0  0  0  0
  5  6  1  0  0  0  0
  5 26  1  0  0  0  0
  5 27  1  0  0  0  0
  6  7  1  0  0  0  0
  6 28  1  0  0  0  0
  6 29  1  0  0  0  0
  7  8  1  0  0  0  0
  7 17  1  0  0  0  0
  7 30  1  0  0  0  0
  8  9  1  0  0  0  0
  8 31  1  0  0  0  0
  8 45  1  0  0  0  0
  9 10  1  0  0  0  0
  9 32  1  0  0  0  0
  9 33  1  0  0  0  0
 10 11  1  0  0  0  0
 10 34  1  0  0  0  0
 10 35  1  0  0  0  0
 11 16  1  0  0  0  0
 11 12  2  0  0  0  0
 12 13  1  0  0  0  0
 12 36  1  0  0  0  0
 13 14  2  0  0  0  0
 13 37  1  0  0  0  0
 14 15  1  0  0  0  0
 14 38  1  0  0  0  0
 15 16  2  0  0  0  0
 15 39  1  0  0  0  0
 17 18  1  0  0  0  0
 17 40  1  0  0  0  0
 17 41  1  0  0  0  0
 18 42  1  0  0  0  0
 18 43  1  0  0  0  0
M  CHG  1   4   1
M  CHG  1   8   1
M  END
> <s_m_source_file>
AV-unprocessed.smi

> <i_m_source_file_index>
3306

> <i_lp_mmshare_version>
43012

> <i_f3d_flags>
0

> <s_epik_input>
W0NIM11bQ0hdKFtDSDNdKU4xW0NIMl1bQ0gyXVtDSF0oW0NIMl1bQ0gyXTEpW05IXVtDSDJdW0NIMl1jMltjSF1bY0hdW2NIXVtjSF1uMg==

> <s_epik_cmdline>
J2VwaWtfcHl0aG9uJywgJy1waCcsICc3LjAnLCAnLXRuJywgJzgnLCAnLW1hJywgJzIwMCcsICctbWV0YWxfYmluZGluZycsICctaW1hZScsICc8aW5maWxlLm1hZT4nLCAnLW9tYWUnLCAnPG91dGZpbGUubWFlPic=

> <r_epik_Ionization_Penalty>
0.0800465

> <r_epik_Ionization_Penalty_Charging>
0.0790817

> <r_epik_Ionization_Penalty_Neutral>
0.000964829

> <r_epik_State_Penalty>
0.0665964

> <r_epik_Charging_Adjusted_Penalty>
0.145678

> <i_epik_Tot_Q>
2

> <i_epik_Tot_abs_Q>
2

> <r_epik_Metal_State_Penalty>
0.0683331

> <b_epik_Metal_Only>
0

> <s_lp_Force_Field>
OPLS_2005

> <r_lp_Energy>
31.8931

> <b_lp_Chiralities_Consistent>
1

> <s_lp_Variant>
AV-unprocessed.smi:3306-2

> <Gold.Version>
5.8.1

> <Gold.Id.Protein>
6NUR|6NUR_protein|mol2

> <Gold.PLP.Fitness>
45.9290

> <Gold.PLP.PLP>
-35.1729

> <Gold.PLP.part.hbond>
-2.0000

> <Gold.PLP.part.metal>
0.0000

> <Gold.PLP.part.buried>
-1.9010

> <Gold.PLP.part.nonpolar>
-30.9773

> <Gold.PLP.part.repulsive>
0.1199

> <Gold.PLP.ligand.clash>
0.0000

> <Gold.PLP.ligand.torsion>
0.6799

> <Gold.PLP.Chemscore.Hbond>
4.0000

> <Gold.PLP.Chemscore.CHOScore>
0.0000

> <Gold.PLP.Chemscore.Metal>
0.0000

> <Gold.Chemscore.Hbonds>
donor molecule, donor type, donor heavy atom, donor atom, acceptor molecule, acceptor atom, score
      L1  H     4    44       P1 10175  2.00
      L1  H     8    31       P1  8028  2.00

> <Gold.PLP.Chemscore.Internal.Correction>
0.1158

> <Gold.Rescore>
     Score         DG    S(hbond)    S(metal)    S(lipo)     H(rot)  DE(clash)    DE(int)     intcor
     18.66     -19.65       1.99        0.00      96.43       1.47       0.34       0.65       ----

> <Gold.Chemscore.Fitness>
18.6638

> <Gold.Chemscore.DG>
-19.6512

> <Gold.Chemscore.ZeroCoef>
-5.4800

> <Gold.Chemscore.Hbond>
1.9899

> <Gold.Chemscore.Metal>
0.0000

> <Gold.Chemscore.Lipo>
96.4333

> <Gold.Chemscore.Internal_Hbond>
0.0000

> <Gold.Chemscore.DEClash>
0.3367

> <Gold.Chemscore.DEInternal>
0.6507

> <Gold.Chemscore.Rot>
1.4679

> <Gold.Chemscore.Internal.Correction>
   9.000000E+99

> <Gold.Chemscore.Hbonds>
donor molecule, donor type, donor heavy atom, donor atom, acceptor molecule, acceptor atom, score
      L1  H     4    44       P1 10175  0.96
      L1  H     8    31       P1  8028  0.99

> <Gold.Chemscore.Hbond.Weighted>
-6.6464

> <Gold.Chemscore.Metal.Weighted>
-0.0000

> <Gold.Chemscore.Lipo.Weighted>
-11.2827

> <Gold.Chemscore.Internal_Hbond.Weighted>
0.0000

> <Gold.Chemscore.DEClash.Weighted>
0.3367

> <Gold.Chemscore.DEInternal.Weighted>
0.6507

> <Gold.Chemscore.Rot.Weighted>
3.7579

> <Gold.Chemscore.Internal.Correction.Weighted>
   9.000000E+99

> <Gold.Protein.RotatedTorsions>
[ 6907 6896 6895 6894 ] final    7.95 input  -60.11 | X-H torsion
[ 7974 7965 7964 7962 ] final -138.01 input  175.53 | X-H torsion
[ 8008 7997 7996 7995 ] final -148.51 input   59.86 | X-H torsion
[ 10167 10162 10161 10158 ] final  -12.10 input  -65.29 | X-H torsion
[ 10718 10713 10712 10709 ] final -105.60 input   66.30 | X-H torsion
[ 10763 10752 10751 10750 ] final -140.64 input  -60.55 | X-H torsion
[ 11005 11000 10999 10996 ] final  158.05 input  -57.11 | X-H torsion

> <Gold.Protein.ActiveResidues>
 VAL166  LYS551  ARG553  GLY616  TRP617  ASP618  TYR619  PRO620  LYS621  CYS622 
 ASP623  PHE694  ASN695  SER759  ASP760  ASP761  ALA762  ILE779  LEU786  VAL792 
 PHE793  MET794  SER795  GLU796  ALA797  LYS798  CYS799  TRP800  GLU811  SER814 

> <Gold.Protein.RotatedAtoms>
  151.6981  135.0935  160.0245 H   0  0  0  0  0  0  0  0  0  0  0  0  # atno 6907 bound_to 6896
  152.3737  133.6448  159.6115 H   0  0  0  0  0  0  0  0  0  0  0  0  # atno 6908 bound_to 6896
  150.7693  133.9145  159.3420 H   0  0  0  0  0  0  0  0  0  0  0  0  # atno 6909 bound_to 6896
  144.8794  140.6485  143.5216 H   0  0  0  0  0  0  0  0  0  0  0  0  # atno 7974 bound_to 7965
  155.5928  140.0654  157.2754 H   0  0  0  0  0  0  0  0  0  0  0  0  # atno 8008 bound_to 7997
  154.4300  140.1832  156.1139 H   0  0  0  0  0  0  0  0  0  0  0  0  # atno 8009 bound_to 7997
  156.0219  140.3316  155.7051 H   0  0  0  0  0  0  0  0  0  0  0  0  # atno 8010 bound_to 7997
  140.7154  143.5568  150.9239 H   0  0  0  0  0  0  0  0  0  0  0  0  # atno 10167 bound_to 10162
  156.0353  130.5572  150.7563 H   0  0  0  0  0  0  0  0  0  0  0  0  # atno 10718 bound_to 10713
  154.8572  135.3547  154.5739 H   0  0  0  0  0  0  0  0  0  0  0  0  # atno 10763 bound_to 10752
  153.6351  135.7000  153.5266 H   0  0  0  0  0  0  0  0  0  0  0  0  # atno 10764 bound_to 10752
  153.3017  135.4204  155.1217 H   0  0  0  0  0  0  0  0  0  0  0  0  # atno 10765 bound_to 10752
  140.1828  134.8463  157.2823 H   0  0  0  0  0  0  0  0  0  0  0  0  # atno 11005 bound_to 11000
  145.3983  139.1603  143.4192 LP  0  0  0  0  0  0  0  0  0  0  0  0  # atno 17320 bound_to 7965
  146.2984  140.4077  142.8713 LP  0  0  0  0  0  0  0  0  0  0  0  0  # atno 17321 bound_to 7965
  139.9293  143.6512  152.3080 LP  0  0  0  0  0  0  0  0  0  0  0  0  # atno 17342 bound_to 10162
  139.6957  144.7641  151.1360 LP  0  0  0  0  0  0  0  0  0  0  0  0  # atno 17343 bound_to 10162
  157.5094  131.0924  151.0217 LP  0  0  0  0  0  0  0  0  0  0  0  0  # atno 17370 bound_to 10713
  157.0576  130.5812  149.5380 LP  0  0  0  0  0  0  0  0  0  0  0  0  # atno 17371 bound_to 10713
  140.2248  134.3980  155.7549 LP  0  0  0  0  0  0  0  0  0  0  0  0  # atno 17394 bound_to 11000
  141.2223  133.7184  156.8547 LP  0  0  0  0  0  0  0  0  0  0  0  0  # atno 17395 bound_to 11000

$$$$
