AV-unprocessed.smi:152|AV-procd|sdf|1247|dock7
  -GOLD-   2262018473D 1   1.00000     0.00000
 Structure written by MMmdl.
 58 61  0  0  0  0  0  0  0  0  2 V2000
  146.3009  128.5760  152.0550 C   0  0  0  0  0  0  0  0  0  0  0  0
  145.5047  129.8710  151.8486 C   0  0  0  0  0  0  0  0  0  0  0  0
  146.3941  131.0388  151.6331 N   0  3  1  0  0  0  0  0  0  0  0  0
  145.8647  132.0907  150.7334 C   0  0  0  0  0  0  0  0  0  0  0  0
  146.4946  133.4139  151.1897 C   0  0  0  0  0  0  0  0  0  0  0  0
  147.4933  133.0165  152.2756 C   0  0  0  0  0  0  0  0  0  0  0  0
  146.9236  131.7117  152.8440 C   0  0  1  0  0  0  0  0  0  0  0  0
  145.8380  131.9343  153.9310 C   0  0  0  0  0  0  0  0  0  0  0  0
  146.3955  132.0832  155.2790 N   0  0  0  0  0  0  0  0  0  0  0  0
  147.1681  130.9711  155.8199 C   0  0  0  0  0  0  0  0  0  0  0  0
  146.3339  133.2727  155.9498 C   0  0  0  0  0  0  0  0  0  0  0  0
  145.4453  134.2107  155.5232 N   0  0  0  0  0  0  0  0  0  0  0  0
  145.3441  135.3948  156.1306 C   0  0  0  0  0  0  0  0  0  0  0  0
  146.0291  135.8530  157.1764 N   0  0  0  0  0  0  0  0  0  0  0  0
  146.9261  134.9284  157.6202 C   0  0  0  0  0  0  0  0  0  0  0  0
  147.1410  133.6260  157.0778 C   0  0  0  0  0  0  0  0  0  0  0  0
  148.1357  132.9861  157.8123 N   0  0  0  0  0  0  0  0  0  0  0  0
  148.4816  133.8498  158.7255 C   0  0  0  0  0  0  0  0  0  0  0  0
  147.8134  135.0500  158.6753 N   0  0  0  0  0  0  0  0  0  0  0  0
  148.0014  136.1896  159.5605 C   0  0  0  0  0  0  0  0  0  0  0  0
  147.1079  136.1612  160.8262 C   0  0  0  0  0  0  0  0  0  0  0  0
  147.4201  137.3037  161.6042 O   0  0  0  0  0  0  0  0  0  0  0  0
  145.6193  136.2345  160.4307 C   0  0  0  0  0  0  0  0  0  0  0  0
  144.6859  136.0354  161.6380 C   0  0  0  0  0  0  0  0  0  0  0  0
  144.9879  134.8068  162.2879 O   0  0  0  0  0  0  0  0  0  0  0  0
  146.3048  134.7788  162.8244 C   0  0  0  0  0  0  0  0  0  0  0  0
  147.3411  134.9043  161.6934 C   0  0  0  0  0  0  0  0  0  0  0  0
  145.6311  127.7414  152.2636 H   0  0  0  0  0  0  0  0  0  0  0  0
  146.9894  128.6659  152.8957 H   0  0  0  0  0  0  0  0  0  0  0  0
  146.8822  128.3160  151.1698 H   0  0  0  0  0  0  0  0  0  0  0  0
  144.8165  129.7561  151.0099 H   0  0  0  0  0  0  0  0  0  0  0  0
  144.8986  130.0515  152.7374 H   0  0  0  0  0  0  0  0  0  0  0  0
  146.1221  131.8566  149.7000 H   0  0  0  0  0  0  0  0  0  0  0  0
  144.7775  132.1531  150.8011 H   0  0  0  0  0  0  0  0  0  0  0  0
  146.9725  133.9534  150.3715 H   0  0  0  0  0  0  0  0  0  0  0  0
  145.7261  134.0642  151.6097 H   0  0  0  0  0  0  0  0  0  0  0  0
  148.4610  132.8139  151.8143 H   0  0  0  0  0  0  0  0  0  0  0  0
  147.6541  133.7992  153.0157 H   0  0  0  0  0  0  0  0  0  0  0  0
  147.7258  131.1017  153.2612 H   0  0  0  0  0  0  0  0  0  0  0  0
  145.1838  132.7608  153.6557 H   0  0  0  0  0  0  0  0  0  0  0  0
  145.1810  131.0657  153.9724 H   0  0  0  0  0  0  0  0  0  0  0  0
  148.2229  131.2362  155.8983 H   0  0  0  0  0  0  0  0  0  0  0  0
  147.0953  130.0932  155.1775 H   0  0  0  0  0  0  0  0  0  0  0  0
  146.7982  130.6863  156.8051 H   0  0  0  0  0  0  0  0  0  0  0  0
  144.6102  136.0719  155.7192 H   0  0  0  0  0  0  0  0  0  0  0  0
  149.2453  133.6370  159.4595 H   0  0  0  0  0  0  0  0  0  0  0  0
  149.0548  136.2364  159.8412 H   0  0  0  0  0  0  0  0  0  0  0  0
  147.8028  137.0948  158.9849 H   0  0  0  0  0  0  0  0  0  0  0  0
  147.0787  137.1764  162.4761 H   0  0  0  0  0  0  0  0  0  0  0  0
  145.3997  137.1838  159.9402 H   0  0  0  0  0  0  0  0  0  0  0  0
  145.4028  135.4561  159.6976 H   0  0  0  0  0  0  0  0  0  0  0  0
  144.7699  136.8640  162.3429 H   0  0  0  0  0  0  0  0  0  0  0  0
  143.6481  136.0092  161.3055 H   0  0  0  0  0  0  0  0  0  0  0  0
  146.4269  135.5750  163.5602 H   0  0  0  0  0  0  0  0  0  0  0  0
  146.4462  133.8368  163.3546 H   0  0  0  0  0  0  0  0  0  0  0  0
  147.2755  134.0162  161.0634 H   0  0  0  0  0  0  0  0  0  0  0  0
  148.3450  134.9054  162.1197 H   0  0  0  0  0  0  0  0  0  0  0  0
  147.2159  130.6813  151.1673 H   0  0  0  0  0  0  0  0  0  0  0  0
  1  2  1  0  0  0  0
  1 28  1  0  0  0  0
  1 29  1  0  0  0  0
  1 30  1  0  0  0  0
  2  3  1  0  0  0  0
  2 31  1  0  0  0  0
  2 32  1  0  0  0  0
  3  7  1  0  0  0  0
  3  4  1  0  0  0  0
  3 58  1  0  0  0  0
  4  5  1  0  0  0  0
  4 33  1  0  0  0  0
  4 34  1  0  0  0  0
  5  6  1  0  0  0  0
  5 35  1  0  0  0  0
  5 36  1  0  0  0  0
  6  7  1  0  0  0  0
  6 37  1  0  0  0  0
  6 38  1  0  0  0  0
  7  8  1  0  0  0  0
  7 39  1  0  0  0  0
  8  9  1  0  0  0  0
  8 40  1  0  0  0  0
  8 41  1  0  0  0  0
  9 10  1  0  0  0  0
  9 11  1  0  0  0  0
 10 42  1  0  0  0  0
 10 43  1  0  0  0  0
 10 44  1  0  0  0  0
 11 16  1  0  0  0  0
 11 12  2  0  0  0  0
 12 13  1  0  0  0  0
 13 14  2  0  0  0  0
 13 45  1  0  0  0  0
 14 15  1  0  0  0  0
 15 19  1  0  0  0  0
 15 16  2  0  0  0  0
 16 17  1  0  0  0  0
 17 18  2  0  0  0  0
 18 19  1  0  0  0  0
 18 46  1  0  0  0  0
 19 20  1  0  0  0  0
 20 21  1  0  0  0  0
 20 47  1  0  0  0  0
 20 48  1  0  0  0  0
 21 27  1  0  0  0  0
 21 22  1  0  0  0  0
 21 23  1  0  0  0  0
 22 49  1  0  0  0  0
 23 24  1  0  0  0  0
 23 50  1  0  0  0  0
 23 51  1  0  0  0  0
 24 25  1  0  0  0  0
 24 52  1  0  0  0  0
 24 53  1  0  0  0  0
 25 26  1  0  0  0  0
 26 27  1  0  0  0  0
 26 54  1  0  0  0  0
 26 55  1  0  0  0  0
 27 56  1  0  0  0  0
 27 57  1  0  0  0  0
M  CHG  1   3   1
M  END
> <s_m_source_file>
AV-unprocessed.smi

> <i_m_source_file_index>
152

> <i_lp_mmshare_version>
43012

> <i_f3d_flags>
0

> <s_epik_input>
W0NIM11bQ0gyXU4xW0NIMl1bQ0gyXVtDSDJdW0NASF0xW0NIMl1OKFtDSDNdKWMobltjSF1uMiljKGMyMyluW2NIXW4zW0NIMl1DNChbT0hdKVtDSDJdW0NIMl1PW0NIMl1bQ0gyXTQ=

> <s_epik_cmdline>
J2VwaWtfcHl0aG9uJywgJy1waCcsICc3LjAnLCAnLXRuJywgJzgnLCAnLW1hJywgJzIwMCcsICctbWV0YWxfYmluZGluZycsICctaW1hZScsICc8aW5maWxlLm1hZT4nLCAnLW9tYWUnLCAnPG91dGZpbGUubWFlPic=

> <r_lp_tautomer_probability>
1

> <r_epik_Ionization_Penalty>
0.00152183

> <r_epik_Ionization_Penalty_Charging>
0.00112577

> <r_epik_Ionization_Penalty_Neutral>
0.000396066

> <r_epik_State_Penalty>
-0

> <r_epik_Charging_Adjusted_Penalty>
0.00112577

> <i_epik_Tot_Q>
1

> <i_epik_Tot_abs_Q>
1

> <r_epik_Metal_State_Penalty>
-0

> <b_epik_Metal_Only>
0

> <s_lp_Force_Field>
OPLS_2005

> <r_lp_Energy>
46.3876

> <b_lp_Chiralities_Consistent>
1

> <s_lp_Variant>
AV-unprocessed.smi:152-2

> <Gold.Version>
5.8.1

> <Gold.Id.Protein>
6NUR|6NUR_protein|mol2

> <Gold.PLP.Fitness>
40.3489

> <Gold.PLP.PLP>
-34.2605

> <Gold.PLP.part.hbond>
-3.0000

> <Gold.PLP.part.metal>
0.0000

> <Gold.PLP.part.buried>
-3.6793

> <Gold.PLP.part.nonpolar>
-26.5195

> <Gold.PLP.part.repulsive>
0.0663

> <Gold.PLP.ligand.clash>
0.0000

> <Gold.PLP.ligand.torsion>
1.1244

> <Gold.PLP.Chemscore.Hbond>
2.7280

> <Gold.PLP.Chemscore.CHOScore>
0.0000

> <Gold.PLP.Chemscore.Metal>
0.0000

> <Gold.Chemscore.Hbonds>
donor molecule, donor type, donor heavy atom, donor atom, acceptor molecule, acceptor atom, score
      L1  H     3    58       P1 10747  1.00
      P1  H  6931  6943       L1    22  0.86
      P1  H  6934  6947       L1    22  0.83

> <Gold.PLP.Chemscore.Internal.Correction>
0.1533

> <Gold.Rescore>
     Score         DG    S(hbond)    S(metal)    S(lipo)     H(rot)  DE(clash)    DE(int)     intcor
     15.20     -17.38       2.33        0.00      88.90       2.46       0.06       2.12       ----

> <Gold.Chemscore.Fitness>
15.1997

> <Gold.Chemscore.DG>
-17.3771

> <Gold.Chemscore.ZeroCoef>
-5.4800

> <Gold.Chemscore.Hbond>
2.3343

> <Gold.Chemscore.Metal>
0.0000

> <Gold.Chemscore.Lipo>
88.9024

> <Gold.Chemscore.Internal_Hbond>
0.0000

> <Gold.Chemscore.DEClash>
0.0580

> <Gold.Chemscore.DEInternal>
2.1194

> <Gold.Chemscore.Rot>
2.4614

> <Gold.Chemscore.Internal.Correction>
   9.000000E+99

> <Gold.Chemscore.Hbonds>
donor molecule, donor type, donor heavy atom, donor atom, acceptor molecule, acceptor atom, score
      L1  H     3    58       P1 10747  0.96
      P1  H  6931  6943       L1    22  0.34
      P1  H  6934  6947       L1    22  0.73

> <Gold.Chemscore.Hbond.Weighted>
-7.7967

> <Gold.Chemscore.Metal.Weighted>
-0.0000

> <Gold.Chemscore.Lipo.Weighted>
-10.4016

> <Gold.Chemscore.Internal_Hbond.Weighted>
0.0000

> <Gold.Chemscore.DEClash.Weighted>
0.0580

> <Gold.Chemscore.DEInternal.Weighted>
2.1194

> <Gold.Chemscore.Rot.Weighted>
6.3012

> <Gold.Chemscore.Internal.Correction.Weighted>
   9.000000E+99

> <Gold.Protein.RotatedTorsions>
[ 6907 6896 6895 6894 ] final   -6.22 input  -60.11 | X-H torsion
[ 7974 7965 7964 7962 ] final  144.41 input  175.53 | X-H torsion
[ 8008 7997 7996 7995 ] final  -45.82 input   59.86 | X-H torsion
[ 10167 10162 10161 10158 ] final  102.35 input  -65.29 | X-H torsion
[ 10718 10713 10712 10709 ] final  103.93 input   66.30 | X-H torsion
[ 10763 10752 10751 10750 ] final   97.73 input  -60.55 | X-H torsion
[ 11005 11000 10999 10996 ] final -129.56 input  -57.11 | X-H torsion

> <Gold.Protein.ActiveResidues>
 VAL166  LYS551  ARG553  GLY616  TRP617  ASP618  TYR619  PRO620  LYS621  CYS622 
 ASP623  PHE694  ASN695  SER759  ASP760  ASP761  ALA762  ILE779  LEU786  VAL792 
 PHE793  MET794  SER795  GLU796  ALA797  LYS798  CYS799  TRP800  GLU811  SER814 

> <Gold.Protein.RotatedAtoms>
  151.4690  135.1044  159.9745 H   0  0  0  0  0  0  0  0  0  0  0  0  # atno 6907 bound_to 6896
  152.4824  133.8282  159.7100 H   0  0  0  0  0  0  0  0  0  0  0  0  # atno 6908 bound_to 6896
  150.8905  133.7188  159.2933 H   0  0  0  0  0  0  0  0  0  0  0  0  # atno 6909 bound_to 6896
  144.8838  139.5660  143.5830 H   0  0  0  0  0  0  0  0  0  0  0  0  # atno 7974 bound_to 7965
  154.4003  140.1387  156.3910 H   0  0  0  0  0  0  0  0  0  0  0  0  # atno 8008 bound_to 7997
  155.7914  140.3478  155.5331 H   0  0  0  0  0  0  0  0  0  0  0  0  # atno 8009 bound_to 7997
  155.8575  140.0951  157.1625 H   0  0  0  0  0  0  0  0  0  0  0  0  # atno 8010 bound_to 7997
  139.7357  144.7024  151.0653 H   0  0  0  0  0  0  0  0  0  0  0  0  # atno 10167 bound_to 10162
  157.6757  131.0791  150.5629 H   0  0  0  0  0  0  0  0  0  0  0  0  # atno 10718 bound_to 10713
  153.2804  135.4173  155.1073 H   0  0  0  0  0  0  0  0  0  0  0  0  # atno 10763 bound_to 10752
  154.8487  135.3494  154.6120 H   0  0  0  0  0  0  0  0  0  0  0  0  # atno 10764 bound_to 10752
  153.6541  135.7051  153.5257 H   0  0  0  0  0  0  0  0  0  0  0  0  # atno 10765 bound_to 10752
  140.9421  134.1179  157.4141 H   0  0  0  0  0  0  0  0  0  0  0  0  # atno 11005 bound_to 11000
  146.3011  139.7430  142.9090 LP  0  0  0  0  0  0  0  0  0  0  0  0  # atno 17320 bound_to 7965
  145.3906  141.0372  143.3126 LP  0  0  0  0  0  0  0  0  0  0  0  0  # atno 17321 bound_to 7965
  140.7778  143.4987  150.9799 LP  0  0  0  0  0  0  0  0  0  0  0  0  # atno 17342 bound_to 10162
  139.8675  143.7235  152.3169 LP  0  0  0  0  0  0  0  0  0  0  0  0  # atno 17343 bound_to 10162
  156.5932  130.4334  149.5928 LP  0  0  0  0  0  0  0  0  0  0  0  0  # atno 17370 bound_to 10713
  156.2566  130.6938  151.1694 LP  0  0  0  0  0  0  0  0  0  0  0  0  # atno 17371 bound_to 10713
  139.8823  135.0040  156.6220 LP  0  0  0  0  0  0  0  0  0  0  0  0  # atno 17394 bound_to 11000
  140.7720  133.8731  155.8499 LP  0  0  0  0  0  0  0  0  0  0  0  0  # atno 17395 bound_to 11000

$$$$
