AV-unprocessed.smi:132|AV-procd|sdf|1163|dock2
  -GOLD-   2262018303D 1   1.00000     0.00000
 Structure written by MMmdl.
 41 44  0  0  0  0  0  0  0  0  1 V2000
  148.8110  137.6412  154.6413 O   0  0  0  0  0  0  0  0  0  0  0  0
  148.7474  137.2088  155.7933 C   0  0  0  0  0  0  0  0  0  0  0  0
  147.4931  136.8511  156.4470 C   0  0  0  0  0  0  0  0  0  0  0  0
  146.3320  137.0081  155.7889 F   0  0  0  0  0  0  0  0  0  0  0  0
  147.4779  136.3625  157.7057 C   0  0  0  0  0  0  0  0  0  0  0  0
  148.6251  136.1667  158.4546 N   0  0  0  0  0  0  0  0  0  0  0  0
  148.5366  135.6027  159.8525 C   0  0  2  0  0  0  0  0  0  0  0  0
  147.9131  134.2006  159.8292 C   0  0  0  0  0  0  0  0  0  0  0  0
  146.5130  134.4575  160.3485 C   0  0  0  0  0  0  0  0  0  0  0  0
  146.7385  135.6394  161.2828 C   0  0  0  0  0  0  0  0  0  0  0  0
  147.7092  136.4336  160.6133 O   0  0  0  0  0  0  0  0  0  0  0  0
  149.8869  136.4736  157.8994 C   0  0  0  0  0  0  0  0  0  0  0  0
  150.9278  136.2688  158.5283 O   0  0  0  0  0  0  0  0  0  0  0  0
  149.9030  137.0054  156.5880 N   0  0  0  0  0  0  0  0  0  0  0  0
  151.1971  137.3222  156.0038 C   0  0  0  0  0  0  0  0  0  0  0  0
  152.0182  138.2099  156.8929 C   0  0  0  0  0  0  0  0  0  0  0  0
  153.2762  138.0407  157.3112 N   0  0  0  0  0  0  0  0  0  0  0  0
  153.5617  139.1340  158.0955 N   0  0  0  0  0  0  0  0  0  0  0  0
  152.4596  139.8916  158.0950 C   0  0  0  0  0  0  0  0  0  0  0  0
  152.2354  141.1703  158.7686 C   0  0  0  0  0  0  0  0  0  0  0  0
  151.2728  142.0863  158.2846 C   0  0  0  0  0  0  0  0  0  0  0  0
  151.0672  143.3166  158.9389 C   0  0  0  0  0  0  0  0  0  0  0  0
  151.8209  143.6425  160.0825 C   0  0  0  0  0  0  0  0  0  0  0  0
  151.5694  145.1507  160.8819 Cl  0  0  0  0  0  0  0  0  0  0  0  0
  152.7804  142.7358  160.5716 C   0  0  0  0  0  0  0  0  0  0  0  0
  152.9864  141.5054  159.9178 C   0  0  0  0  0  0  0  0  0  0  0  0
  151.4533  139.3556  157.3525 O   0  0  0  0  0  0  0  0  0  0  0  0
  146.5214  136.1124  158.1398 H   0  0  0  0  0  0  0  0  0  0  0  0
  149.5408  135.6208  160.2773 H   0  0  0  0  0  0  0  0  0  0  0  0
  147.9395  133.7508  158.8356 H   0  0  0  0  0  0  0  0  0  0  0  0
  148.4669  133.5634  160.5197 H   0  0  0  0  0  0  0  0  0  0  0  0
  145.8518  134.7433  159.5297 H   0  0  0  0  0  0  0  0  0  0  0  0
  146.0780  133.5938  160.8516 H   0  0  0  0  0  0  0  0  0  0  0  0
  145.8266  136.2031  161.4805 H   0  0  0  0  0  0  0  0  0  0  0  0
  147.1478  135.3016  162.2361 H   0  0  0  0  0  0  0  0  0  0  0  0
  151.7281  136.3930  155.7942 H   0  0  0  0  0  0  0  0  0  0  0  0
  151.0270  137.7950  155.0352 H   0  0  0  0  0  0  0  0  0  0  0  0
  150.6838  141.8578  157.4086 H   0  0  0  0  0  0  0  0  0  0  0  0
  150.3304  144.0099  158.5608 H   0  0  0  0  0  0  0  0  0  0  0  0
  153.3606  142.9823  161.4486 H   0  0  0  0  0  0  0  0  0  0  0  0
  153.7271  140.8216  160.3061 H   0  0  0  0  0  0  0  0  0  0  0  0
  1  2  2  0  0  0  0
  2 14  1  0  0  0  0
  2  3  1  0  0  0  0
  3  4  1  0  0  0  0
  3  5  2  0  0  0  0
  5  6  1  0  0  0  0
  5 28  1  0  0  0  0
  6  7  1  0  0  0  0
  6 12  1  0  0  0  0
  7 11  1  0  0  0  0
  7  8  1  0  0  0  0
  7 29  1  0  0  0  0
  8  9  1  0  0  0  0
  8 30  1  0  0  0  0
  8 31  1  0  0  0  0
  9 10  1  0  0  0  0
  9 32  1  0  0  0  0
  9 33  1  0  0  0  0
 10 11  1  0  0  0  0
 10 34  1  0  0  0  0
 10 35  1  0  0  0  0
 12 13  2  0  0  0  0
 12 14  1  0  0  0  0
 14 15  1  0  0  0  0
 15 16  1  0  0  0  0
 15 36  1  0  0  0  0
 15 37  1  0  0  0  0
 16 27  1  0  0  0  0
 16 17  2  0  0  0  0
 17 18  1  0  0  0  0
 18 19  2  0  0  0  0
 19 20  1  0  0  0  0
 19 27  1  0  0  0  0
 20 26  1  0  0  0  0
 20 21  2  0  0  0  0
 21 22  1  0  0  0  0
 21 38  1  0  0  0  0
 22 23  2  0  0  0  0
 22 39  1  0  0  0  0
 23 24  1  0  0  0  0
 23 25  1  0  0  0  0
 25 26  2  0  0  0  0
 25 40  1  0  0  0  0
 26 41  1  0  0  0  0
M  END
> <s_m_source_file>
AV-unprocessed.smi

> <i_m_source_file_index>
132

> <i_lp_mmshare_version>
43012

> <i_f3d_flags>
0

> <s_epik_input>
TzFbQ0gyXVtDSDJdW0NIMl1bQ0BIXTFuKFtjSF1jKEYpYzI9TyljKD1PKW4yW0NIMl1jM25uYyhvMyktYzRbY0hdW2NIXWMoQ2wpW2NIXVtjSF00

> <s_epik_cmdline>
J2VwaWtfcHl0aG9uJywgJy1waCcsICc3LjAnLCAnLXRuJywgJzgnLCAnLW1hJywgJzIwMCcsICctbWV0YWxfYmluZGluZycsICctaW1hZScsICc8aW5maWxlLm1hZT4nLCAnLW9tYWUnLCAnPG91dGZpbGUubWFlPic=

> <r_lp_tautomer_probability>
1

> <r_epik_Ionization_Penalty>
2.5553e-09

> <r_epik_Ionization_Penalty_Charging>
2.54231e-09

> <r_epik_Ionization_Penalty_Neutral>
1.29923e-11

> <r_epik_State_Penalty>
-0

> <r_epik_Charging_Adjusted_Penalty>
2.54231e-09

> <i_epik_Tot_Q>
0

> <i_epik_Tot_abs_Q>
0

> <r_epik_Metal_State_Penalty>
-0

> <b_epik_Metal_Only>
0

> <s_epik_Chemistry_Notes>
This compound contains an acetal/aminal-like group ( X-CH(R)-Y where X, Y are N, S, or O) that may be acid/base labile, releasing an aldehyde.

> <s_lp_Force_Field>
OPLS_2005

> <r_lp_Energy>
32.6339

> <b_lp_Chiralities_Consistent>
1

> <s_lp_Variant>
AV-unprocessed.smi:132-1

> <Gold.Version>
5.8.1

> <Gold.Id.Protein>
6NUR|6NUR_protein|mol2

> <Gold.PLP.Fitness>
53.1944

> <Gold.PLP.PLP>
-42.9024

> <Gold.PLP.part.hbond>
-4.0000

> <Gold.PLP.part.metal>
0.0000

> <Gold.PLP.part.buried>
-6.0705

> <Gold.PLP.part.nonpolar>
-33.0266

> <Gold.PLP.part.repulsive>
0.0596

> <Gold.PLP.ligand.clash>
0.0000

> <Gold.PLP.ligand.torsion>
0.4050

> <Gold.PLP.Chemscore.Hbond>
3.6860

> <Gold.PLP.Chemscore.CHOScore>
0.0000

> <Gold.PLP.Chemscore.Metal>
0.0000

> <Gold.Chemscore.Hbonds>
donor molecule, donor type, donor heavy atom, donor atom, acceptor molecule, acceptor atom, score
      P1  H  6896  6909       L1    13  0.70
      P1  H  7997  8010       L1    18  1.00

> <Gold.PLP.Chemscore.Internal.Correction>
0.0440

> <Gold.Rescore>
     Score         DG    S(hbond)    S(metal)    S(lipo)     H(rot)  DE(clash)    DE(int)     intcor
     19.51     -21.76       2.76        0.00      97.40       1.70       0.07       2.18       ----

> <Gold.Chemscore.Fitness>
19.5111

> <Gold.Chemscore.DG>
-21.7594

> <Gold.Chemscore.ZeroCoef>
-5.4800

> <Gold.Chemscore.Hbond>
2.7636

> <Gold.Chemscore.Metal>
0.0000

> <Gold.Chemscore.Lipo>
97.4014

> <Gold.Chemscore.Internal_Hbond>
0.0000

> <Gold.Chemscore.DEClash>
0.0707

> <Gold.Chemscore.DEInternal>
2.1776

> <Gold.Chemscore.Rot>
1.6980

> <Gold.Chemscore.Internal.Correction>
   9.000000E+99

> <Gold.Chemscore.Hbonds>
donor molecule, donor type, donor heavy atom, donor atom, acceptor molecule, acceptor atom, score
      P1  H  6896  6909       L1    13  0.70
      P1  H  7997  8010       L1    18  0.27

> <Gold.Chemscore.Hbond.Weighted>
-9.2303

> <Gold.Chemscore.Metal.Weighted>
-0.0000

> <Gold.Chemscore.Lipo.Weighted>
-11.3960

> <Gold.Chemscore.Internal_Hbond.Weighted>
0.0000

> <Gold.Chemscore.DEClash.Weighted>
0.0707

> <Gold.Chemscore.DEInternal.Weighted>
2.1776

> <Gold.Chemscore.Rot.Weighted>
4.3469

> <Gold.Chemscore.Internal.Correction.Weighted>
   9.000000E+99

> <Gold.Protein.RotatedTorsions>
[ 6907 6896 6895 6894 ] final  100.02 input  -60.11 | X-H torsion
[ 7974 7965 7964 7962 ] final  -58.74 input  175.53 | X-H torsion
[ 8008 7997 7996 7995 ] final   19.00 input   59.86 | X-H torsion
[ 10167 10162 10161 10158 ] final  -45.99 input  -65.29 | X-H torsion
[ 10718 10713 10712 10709 ] final   59.21 input   66.30 | X-H torsion
[ 10763 10752 10751 10750 ] final  139.30 input  -60.55 | X-H torsion
[ 11005 11000 10999 10996 ] final -111.84 input  -57.11 | X-H torsion

> <Gold.Protein.ActiveResidues>
 VAL166  LYS551  ARG553  GLY616  TRP617  ASP618  TYR619  PRO620  LYS621  CYS622 
 ASP623  PHE694  ASN695  SER759  ASP760  ASP761  ALA762  ILE779  LEU786  VAL792 
 PHE793  MET794  SER795  GLU796  ALA797  LYS798  CYS799  TRP800  GLU811  SER814 

> <Gold.Protein.RotatedAtoms>
  152.5380  134.0340  159.8037 H   0  0  0  0  0  0  0  0  0  0  0  0  # atno 6907 bound_to 6896
  151.0506  133.5620  159.2650 H   0  0  0  0  0  0  0  0  0  0  0  0  # atno 6908 bound_to 6896
  151.2555  135.0644  159.9132 H   0  0  0  0  0  0  0  0  0  0  0  0  # atno 6909 bound_to 6896
  145.8357  140.8450  143.0060 H   0  0  0  0  0  0  0  0  0  0  0  0  # atno 7974 bound_to 7965
  154.9143  140.3018  155.5249 H   0  0  0  0  0  0  0  0  0  0  0  0  # atno 8008 bound_to 7997
  156.3013  140.2383  156.4122 H   0  0  0  0  0  0  0  0  0  0  0  0  # atno 8009 bound_to 7997
  154.8394  140.0414  157.1520 H   0  0  0  0  0  0  0  0  0  0  0  0  # atno 8010 bound_to 7997
  140.6836  143.2853  151.3718 H   0  0  0  0  0  0  0  0  0  0  0  0  # atno 10167 bound_to 10162
  157.5657  130.8869  149.9184 H   0  0  0  0  0  0  0  0  0  0  0  0  # atno 10718 bound_to 10713
  153.9038  135.3019  155.3448 H   0  0  0  0  0  0  0  0  0  0  0  0  # atno 10763 bound_to 10752
  154.7657  135.4911  153.9553 H   0  0  0  0  0  0  0  0  0  0  0  0  # atno 10764 bound_to 10752
  153.1230  135.6786  153.9404 H   0  0  0  0  0  0  0  0  0  0  0  0  # atno 10765 bound_to 10752
  141.0711  133.9379  157.2483 H   0  0  0  0  0  0  0  0  0  0  0  0  # atno 11005 bound_to 11000
  144.6736  140.0737  143.7472 LP  0  0  0  0  0  0  0  0  0  0  0  0  # atno 17320 bound_to 7965
  145.9521  139.2741  143.1206 LP  0  0  0  0  0  0  0  0  0  0  0  0  # atno 17321 bound_to 7965
  139.6176  144.0971  152.2361 LP  0  0  0  0  0  0  0  0  0  0  0  0  # atno 17342 bound_to 10162
  140.0405  144.6011  150.7415 LP  0  0  0  0  0  0  0  0  0  0  0  0  # atno 17343 bound_to 10162
  156.0706  130.3686  150.0785 LP  0  0  0  0  0  0  0  0  0  0  0  0  # atno 17370 bound_to 10713
  156.8943  130.9599  151.3584 LP  0  0  0  0  0  0  0  0  0  0  0  0  # atno 17371 bound_to 10713
  139.9524  135.0172  156.9032 LP  0  0  0  0  0  0  0  0  0  0  0  0  # atno 17394 bound_to 11000
  140.5672  134.0478  155.7418 LP  0  0  0  0  0  0  0  0  0  0  0  0  # atno 17395 bound_to 11000

$$$$
