AV-unprocessed.smi:229|AV-procd|sdf|1761|dock10
  -GOLD-   2262020293D 1   1.00000     0.00000
 Structure written by MMmdl.
 58 62  0  0  0  0  0  0  0  0  1 V2000
  150.7640  144.9727  158.7206 C   0  0  0  0  0  0  0  0  0  0  0  0
  152.1502  145.0394  158.0675 C   0  0  0  0  0  0  0  0  0  0  0  0
  152.7854  143.6550  157.8699 C   0  0  2  0  0  0  0  0  0  0  0  0
  151.9149  142.7449  156.9862 C   0  0  0  0  0  0  0  0  0  0  0  0
  152.5050  141.4132  156.9159 N   0  0  0  0  0  0  0  0  0  0  0  0
  152.0523  140.5577  155.9663 C   0  0  0  0  0  0  0  0  0  0  0  0
  152.9192  139.7262  155.3285 N   0  0  0  0  0  0  0  0  0  0  0  0
  152.4792  138.8881  154.3849 C   0  0  0  0  0  0  0  0  0  0  0  0
  151.2346  138.7166  153.9351 N   0  0  0  0  0  0  0  0  0  0  0  0
  150.3598  139.5412  154.5786 C   0  0  0  0  0  0  0  0  0  0  0  0
  150.6804  140.4846  155.5948 C   0  0  0  0  0  0  0  0  0  0  0  0
  149.5265  141.1355  156.0169 N   0  0  0  0  0  0  0  0  0  0  0  0
  148.5791  140.6103  155.2886 C   0  0  0  0  0  0  0  0  0  0  0  0
  148.9914  139.6401  154.4033 N   0  0  0  0  0  0  0  0  0  0  0  0
  148.1566  138.8886  153.4820 C   0  0  0  0  0  0  0  0  0  0  0  0
  146.6516  139.1810  153.6702 C   0  0  1  0  0  0  0  0  0  0  0  0
  146.3348  140.3492  152.9368 O   0  0  0  0  0  0  0  0  0  0  0  0
  145.7443  138.0431  153.1606 C   0  0  1  0  0  0  0  0  0  0  0  0
  145.9429  137.6727  151.6901 C   0  0  0  0  0  0  0  0  0  0  0  0
  145.4239  136.2475  151.6142 C   0  0  0  0  0  0  0  0  0  0  0  0
  145.5057  135.7534  153.0605 C   0  0  0  0  0  0  0  0  0  0  0  0
  146.0962  136.8202  153.7919 O   0  0  0  0  0  0  0  0  0  0  0  0
  152.7178  140.8130  158.2276 C   0  0  0  0  0  0  0  0  0  0  0  0
  153.5497  141.7490  159.1318 C   0  0  2  0  0  0  0  0  0  0  0  0
  155.0291  141.8210  158.7370 C   0  0  0  0  0  0  0  0  0  0  0  0
  155.7202  140.9323  159.7610 C   0  0  0  0  0  0  0  0  0  0  0  0
  154.9831  141.2040  160.9380 O   0  0  0  0  0  0  0  0  0  0  0  0
  153.6088  141.2174  160.5770 C   0  0  0  0  0  0  0  0  0  0  0  0
  152.9465  143.0464  159.1526 O   0  0  0  0  0  0  0  0  0  0  0  0
  150.3539  145.9726  158.8629 H   0  0  0  0  0  0  0  0  0  0  0  0
  150.8112  144.4902  159.6972 H   0  0  0  0  0  0  0  0  0  0  0  0
  150.0620  144.4118  158.1028 H   0  0  0  0  0  0  0  0  0  0  0  0
  152.0768  145.5517  157.1073 H   0  0  0  0  0  0  0  0  0  0  0  0
  152.8027  145.6500  158.6924 H   0  0  0  0  0  0  0  0  0  0  0  0
  153.7591  143.7851  157.3954 H   0  0  0  0  0  0  0  0  0  0  0  0
  150.9054  142.6741  157.3941 H   0  0  0  0  0  0  0  0  0  0  0  0
  151.8342  143.1722  155.9854 H   0  0  0  0  0  0  0  0  0  0  0  0
  153.2328  138.2660  153.9249 H   0  0  0  0  0  0  0  0  0  0  0  0
  147.5461  140.9131  155.3831 H   0  0  0  0  0  0  0  0  0  0  0  0
  148.4639  139.1227  152.4617 H   0  0  0  0  0  0  0  0  0  0  0  0
  148.3660  137.8296  153.6351 H   0  0  0  0  0  0  0  0  0  0  0  0
  146.4478  139.3639  154.7261 H   0  0  0  0  0  0  0  0  0  0  0  0
  145.3975  140.3855  152.8236 H   0  0  0  0  0  0  0  0  0  0  0  0
  144.6913  138.2664  153.3441 H   0  0  0  0  0  0  0  0  0  0  0  0
  145.4237  138.3466  151.0079 H   0  0  0  0  0  0  0  0  0  0  0  0
  147.0046  137.6883  151.4395 H   0  0  0  0  0  0  0  0  0  0  0  0
  144.3903  136.2271  151.2669 H   0  0  0  0  0  0  0  0  0  0  0  0
  146.0210  135.6394  150.9337 H   0  0  0  0  0  0  0  0  0  0  0  0
  144.5090  135.5507  153.4547 H   0  0  0  0  0  0  0  0  0  0  0  0
  146.1013  134.8454  153.1576 H   0  0  0  0  0  0  0  0  0  0  0  0
  151.7418  140.6343  158.6814 H   0  0  0  0  0  0  0  0  0  0  0  0
  153.2071  139.8423  158.1506 H   0  0  0  0  0  0  0  0  0  0  0  0
  155.2256  141.5105  157.7102 H   0  0  0  0  0  0  0  0  0  0  0  0
  155.4010  142.8400  158.8529 H   0  0  0  0  0  0  0  0  0  0  0  0
  155.6255  139.8778  159.4962 H   0  0  0  0  0  0  0  0  0  0  0  0
  156.7775  141.1683  159.8815 H   0  0  0  0  0  0  0  0  0  0  0  0
  153.0326  141.8247  161.2758 H   0  0  0  0  0  0  0  0  0  0  0  0
  153.2285  140.1966  160.6387 H   0  0  0  0  0  0  0  0  0  0  0  0
  1  2  1  0  0  0  0
  1 30  1  0  0  0  0
  1 31  1  0  0  0  0
  1 32  1  0  0  0  0
  2  3  1  0  0  0  0
  2 33  1  0  0  0  0
  2 34  1  0  0  0  0
  3 29  1  0  0  0  0
  3  4  1  0  0  0  0
  3 35  1  0  0  0  0
  4  5  1  0  0  0  0
  4 36  1  0  0  0  0
  4 37  1  0  0  0  0
  5  6  1  0  0  0  0
  5 23  1  0  0  0  0
  6 11  1  0  0  0  0
  6  7  2  0  0  0  0
  7  8  1  0  0  0  0
  8  9  2  0  0  0  0
  8 38  1  0  0  0  0
  9 10  1  0  0  0  0
 10 14  1  0  0  0  0
 10 11  2  0  0  0  0
 11 12  1  0  0  0  0
 12 13  2  0  0  0  0
 13 14  1  0  0  0  0
 13 39  1  0  0  0  0
 14 15  1  0  0  0  0
 15 16  1  0  0  0  0
 15 40  1  0  0  0  0
 15 41  1  0  0  0  0
 16 17  1  0  0  0  0
 16 18  1  0  0  0  0
 16 42  1  0  0  0  0
 17 43  1  0  0  0  0
 18 22  1  0  0  0  0
 18 19  1  0  0  0  0
 18 44  1  0  0  0  0
 19 20  1  0  0  0  0
 19 45  1  0  0  0  0
 19 46  1  0  0  0  0
 20 21  1  0  0  0  0
 20 47  1  0  0  0  0
 20 48  1  0  0  0  0
 21 22  1  0  0  0  0
 21 49  1  0  0  0  0
 21 50  1  0  0  0  0
 23 24  1  0  0  0  0
 23 51  1  0  0  0  0
 23 52  1  0  0  0  0
 24 28  1  0  0  0  0
 24 25  1  0  0  0  0
 24 29  1  0  0  0  0
 25 26  1  0  0  0  0
 25 53  1  0  0  0  0
 25 54  1  0  0  0  0
 26 27  1  0  0  0  0
 26 55  1  0  0  0  0
 26 56  1  0  0  0  0
 27 28  1  0  0  0  0
 28 57  1  0  0  0  0
 28 58  1  0  0  0  0
M  END
> <s_m_source_file>
AV-unprocessed.smi

> <i_m_source_file_index>
229

> <i_lp_mmshare_version>
43012

> <i_f3d_flags>
0

> <s_epik_input>
W0NIMl0xT1tDSDJdW0NIMl1bQ0BdMTJbQ0gyXU4oW0NIMl1bQ0BIXShPMilbQ0gyXVtDSDNdKWMobltjSF1uMyljKGMzNCluW2NIXW40W0NIMl1bQ0BIXShbT0hdKVtDQEBIXTVbQ0gyXVtDSDJdW0NIMl1PNQ==

> <s_epik_cmdline>
J2VwaWtfcHl0aG9uJywgJy1waCcsICc3LjAnLCAnLXRuJywgJzgnLCAnLW1hJywgJzIwMCcsICctbWV0YWxfYmluZGluZycsICctaW1hZScsICc8aW5maWxlLm1hZT4nLCAnLW9tYWUnLCAnPG91dGZpbGUubWFlPic=

> <r_lp_tautomer_probability>
1

> <r_epik_Ionization_Penalty>
0.00318402

> <r_epik_Ionization_Penalty_Charging>
0

> <r_epik_Ionization_Penalty_Neutral>
0.00318402

> <r_epik_State_Penalty>
0.00215642

> <r_epik_Charging_Adjusted_Penalty>
0.00215642

> <i_epik_Tot_Q>
0

> <i_epik_Tot_abs_Q>
0

> <r_epik_Metal_State_Penalty>
-0

> <b_epik_Metal_Only>
0

> <s_lp_Force_Field>
OPLS_2005

> <r_lp_Energy>
54.7562

> <b_lp_Chiralities_Consistent>
1

> <s_lp_Variant>
AV-unprocessed.smi:229-15

> <Gold.Version>
5.8.1

> <Gold.Id.Protein>
6NUR|6NUR_protein|mol2

> <Gold.PLP.Fitness>
48.1685

> <Gold.PLP.PLP>
-43.5956

> <Gold.PLP.part.hbond>
-2.0540

> <Gold.PLP.part.metal>
0.0000

> <Gold.PLP.part.buried>
-3.9564

> <Gold.PLP.part.nonpolar>
-38.6281

> <Gold.PLP.part.repulsive>
0.3078

> <Gold.PLP.ligand.clash>
0.0000

> <Gold.PLP.ligand.torsion>
0.9007

> <Gold.PLP.Chemscore.Hbond>
2.0000

> <Gold.PLP.Chemscore.CHOScore>
0.0000

> <Gold.PLP.Chemscore.Metal>
0.0000

> <Gold.Chemscore.Hbonds>
donor molecule, donor type, donor heavy atom, donor atom, acceptor molecule, acceptor atom, score
      L1  H    17    43       P1 10175  1.00
      P1  H  7997  8009       L1     7  1.00

> <Gold.PLP.Chemscore.Internal.Correction>
0.3744

> <Gold.Rescore>
     Score         DG    S(hbond)    S(metal)    S(lipo)     H(rot)  DE(clash)    DE(int)     intcor
     16.85     -20.28       1.79        0.00     129.10       2.46       2.11       1.32       ----

> <Gold.Chemscore.Fitness>
16.8499

> <Gold.Chemscore.DG>
-20.2812

> <Gold.Chemscore.ZeroCoef>
-5.4800

> <Gold.Chemscore.Hbond>
1.7941

> <Gold.Chemscore.Metal>
0.0000

> <Gold.Chemscore.Lipo>
129.0960

> <Gold.Chemscore.Internal_Hbond>
0.0000

> <Gold.Chemscore.DEClash>
2.1069

> <Gold.Chemscore.DEInternal>
1.3244

> <Gold.Chemscore.Rot>
2.4591

> <Gold.Chemscore.Internal.Correction>
   9.000000E+99

> <Gold.Chemscore.Hbonds>
donor molecule, donor type, donor heavy atom, donor atom, acceptor molecule, acceptor atom, score
      L1  H    17    43       P1 10175  0.88
      P1  H  7997  8009       L1     7  0.35

> <Gold.Chemscore.Hbond.Weighted>
-5.9923

> <Gold.Chemscore.Metal.Weighted>
-0.0000

> <Gold.Chemscore.Lipo.Weighted>
-15.1042

> <Gold.Chemscore.Internal_Hbond.Weighted>
0.0000

> <Gold.Chemscore.DEClash.Weighted>
2.1069

> <Gold.Chemscore.DEInternal.Weighted>
1.3244

> <Gold.Chemscore.Rot.Weighted>
6.2953

> <Gold.Chemscore.Internal.Correction.Weighted>
   9.000000E+99

> <Gold.Protein.RotatedTorsions>
[ 6907 6896 6895 6894 ] final  -73.70 input  -60.11 | X-H torsion
[ 7974 7965 7964 7962 ] final   21.85 input  175.53 | X-H torsion
[ 8008 7997 7996 7995 ] final -144.06 input   59.86 | X-H torsion
[ 10167 10162 10161 10158 ] final  142.72 input  -65.29 | X-H torsion
[ 10718 10713 10712 10709 ] final  105.15 input   66.30 | X-H torsion
[ 10763 10752 10751 10750 ] final   49.25 input  -60.55 | X-H torsion
[ 11005 11000 10999 10996 ] final  -88.23 input  -57.11 | X-H torsion

> <Gold.Protein.ActiveResidues>
 VAL166  LYS551  ARG553  GLY616  TRP617  ASP618  TYR619  PRO620  LYS621  CYS622 
 ASP623  PHE694  ASN695  SER759  ASP760  ASP761  ALA762  ILE779  LEU786  VAL792 
 PHE793  MET794  SER795  GLU796  ALA797  LYS798  CYS799  TRP800  GLU811  SER814 

> <Gold.Protein.RotatedAtoms>
  150.7120  134.4978  159.5546 H   0  0  0  0  0  0  0  0  0  0  0  0  # atno 6907 bound_to 6896
  152.2582  134.8059  160.0444 H   0  0  0  0  0  0  0  0  0  0  0  0  # atno 6908 bound_to 6896
  151.8782  133.3454  159.3794 H   0  0  0  0  0  0  0  0  0  0  0  0  # atno 6909 bound_to 6896
  146.2054  139.7969  142.8730 H   0  0  0  0  0  0  0  0  0  0  0  0  # atno 7974 bound_to 7965
  155.5207  140.0591  157.2907 H   0  0  0  0  0  0  0  0  0  0  0  0  # atno 8008 bound_to 7997
  154.4518  140.1953  156.0441 H   0  0  0  0  0  0  0  0  0  0  0  0  # atno 8009 bound_to 7997
  156.0720  140.3258  155.7592 H   0  0  0  0  0  0  0  0  0  0  0  0  # atno 8010 bound_to 7997
  139.4987  144.6088  151.6318 H   0  0  0  0  0  0  0  0  0  0  0  0  # atno 10167 bound_to 10162
  157.6716  131.0821  150.5813 H   0  0  0  0  0  0  0  0  0  0  0  0  # atno 10718 bound_to 10713
  152.9787  135.5918  154.4059 H   0  0  0  0  0  0  0  0  0  0  0  0  # atno 10763 bound_to 10752
  154.3699  135.2767  155.2274 H   0  0  0  0  0  0  0  0  0  0  0  0  # atno 10764 bound_to 10752
  154.4234  135.6053  153.6078 H   0  0  0  0  0  0  0  0  0  0  0  0  # atno 10765 bound_to 10752
  141.1605  133.7557  156.9421 H   0  0  0  0  0  0  0  0  0  0  0  0  # atno 11005 bound_to 11000
  145.3338  141.0272  143.3431 LP  0  0  0  0  0  0  0  0  0  0  0  0  # atno 17320 bound_to 7965
  144.8780  139.4944  143.6736 LP  0  0  0  0  0  0  0  0  0  0  0  0  # atno 17321 bound_to 7965
  140.5757  144.0032  150.6240 LP  0  0  0  0  0  0  0  0  0  0  0  0  # atno 17342 bound_to 10162
  140.3165  143.3165  152.0827 LP  0  0  0  0  0  0  0  0  0  0  0  0  # atno 17343 bound_to 10162
  156.6113  130.4381  149.5858 LP  0  0  0  0  0  0  0  0  0  0  0  0  # atno 17370 bound_to 10713
  156.2428  130.6861  151.1572 LP  0  0  0  0  0  0  0  0  0  0  0  0  # atno 17371 bound_to 10713
  140.1315  134.9353  157.2343 LP  0  0  0  0  0  0  0  0  0  0  0  0  # atno 17394 bound_to 11000
  140.2948  134.3199  155.7305 LP  0  0  0  0  0  0  0  0  0  0  0  0  # atno 17395 bound_to 11000

$$$$
