AV-unprocessed.smi:2191|AV-procd|sdf|8894|dock3
  -GOLD-   2272012103D 1   1.00000     0.00000
 Structure written by MMmdl.
 37 39  0  0  0  0  0  0  0  0  2 V2000
  149.7859  139.1750  158.1541 O   0  0  0  0  0  0  0  0  0  0  0  0
  151.1030  139.5400  157.7909 C   0  0  2  0  0  0  0  0  0  0  0  0
  151.7210  140.3444  158.9457 C   0  0  0  0  0  0  0  0  0  0  0  0
  152.3531  141.5007  158.4124 O   0  0  0  0  0  0  0  0  0  0  0  0
  152.1815  142.7006  159.0689 C   0  0  0  0  0  0  0  0  0  0  0  0
  152.2159  143.8708  158.2822 C   0  0  0  0  0  0  0  0  0  0  0  0
  152.0479  145.1399  158.8689 C   0  0  0  0  0  0  0  0  0  0  0  0
  151.8450  145.2517  160.2568 C   0  0  0  0  0  0  0  0  0  0  0  0
  151.8102  144.0929  161.0544 C   0  0  0  0  0  0  0  0  0  0  0  0
  151.9763  142.8234  160.4670 C   0  0  0  0  0  0  0  0  0  0  0  0
  151.0650  140.3522  156.4810 C   0  0  0  0  0  0  0  0  0  0  0  0
  150.4131  139.6279  155.3797 N   0  0  0  0  0  0  0  0  0  0  0  0
  150.6427  138.3699  154.9151 C   0  0  0  0  0  0  0  0  0  0  0  0
  149.7840  138.1492  153.8816 N   0  3  0  0  0  0  0  0  0  0  0  0
  148.9930  139.2825  153.6824 C   0  0  0  0  0  0  0  0  0  0  0  0
  147.9836  139.5370  152.7589 C   0  0  0  0  0  0  0  0  0  0  0  0
  147.3681  140.8040  152.8271 C   0  0  0  0  0  0  0  0  0  0  0  0
  147.7601  141.7602  153.7862 C   0  0  0  0  0  0  0  0  0  0  0  0
  148.7849  141.4916  154.7172 C   0  0  0  0  0  0  0  0  0  0  0  0
  149.3905  140.2372  154.6426 C   0  0  0  0  0  0  0  0  0  0  0  0
  149.1859  139.5884  157.5515 H   0  0  0  0  0  0  0  0  0  0  0  0
  151.6852  138.6327  157.6241 H   0  0  0  0  0  0  0  0  0  0  0  0
  150.9301  140.6690  159.6241 H   0  0  0  0  0  0  0  0  0  0  0  0
  152.4178  139.7282  159.5171 H   0  0  0  0  0  0  0  0  0  0  0  0
  152.3713  143.7943  157.2159 H   0  0  0  0  0  0  0  0  0  0  0  0
  152.0749  146.0273  158.2537 H   0  0  0  0  0  0  0  0  0  0  0  0
  151.7161  146.2242  160.7087 H   0  0  0  0  0  0  0  0  0  0  0  0
  151.6550  144.1770  162.1200 H   0  0  0  0  0  0  0  0  0  0  0  0
  151.9429  141.9590  161.1122 H   0  0  0  0  0  0  0  0  0  0  0  0
  150.5751  141.3152  156.6253 H   0  0  0  0  0  0  0  0  0  0  0  0
  152.0817  140.5749  156.1551 H   0  0  0  0  0  0  0  0  0  0  0  0
  151.3730  137.6720  155.2981 H   0  0  0  0  0  0  0  0  0  0  0  0
  147.6800  138.8060  152.0239 H   0  0  0  0  0  0  0  0  0  0  0  0
  146.5783  141.0470  152.1310 H   0  0  0  0  0  0  0  0  0  0  0  0
  147.2639  142.7194  153.8097 H   0  0  0  0  0  0  0  0  0  0  0  0
  149.0714  142.2303  155.4510 H   0  0  0  0  0  0  0  0  0  0  0  0
  149.7425  137.2866  153.3540 H   0  0  0  0  0  0  0  0  0  0  0  0
  1  2  1  0  0  0  0
  1 21  1  0  0  0  0
  2  3  1  0  0  0  0
  2 11  1  0  0  0  0
  2 22  1  0  0  0  0
  3  4  1  0  0  0  0
  3 23  1  0  0  0  0
  3 24  1  0  0  0  0
  4  5  1  0  0  0  0
  5 10  1  0  0  0  0
  5  6  2  0  0  0  0
  6  7  1  0  0  0  0
  6 25  1  0  0  0  0
  7  8  2  0  0  0  0
  7 26  1  0  0  0  0
  8  9  1  0  0  0  0
  8 27  1  0  0  0  0
  9 10  2  0  0  0  0
  9 28  1  0  0  0  0
 10 29  1  0  0  0  0
 11 12  1  0  0  0  0
 11 30  1  0  0  0  0
 11 31  1  0  0  0  0
 12 20  1  0  0  0  0
 12 13  1  0  0  0  0
 13 14  2  0  0  0  0
 13 32  1  0  0  0  0
 14 15  1  0  0  0  0
 14 37  1  0  0  0  0
 15 20  2  0  0  0  0
 15 16  1  0  0  0  0
 16 17  2  0  0  0  0
 16 33  1  0  0  0  0
 17 18  1  0  0  0  0
 17 34  1  0  0  0  0
 18 19  2  0  0  0  0
 18 35  1  0  0  0  0
 19 20  1  0  0  0  0
 19 36  1  0  0  0  0
M  CHG  1  14   1
M  END
> <s_m_source_file>
AV-unprocessed.smi

> <i_m_source_file_index>
2191

> <i_lp_mmshare_version>
43012

> <i_f3d_flags>
0

> <s_epik_input>
W2NIXTFbY0hdW2NIXVtjSF1jKGMxMiluKFtjSF1uMilbQ0gyXVtDQEhdKFtPSF0pW0NIMl1PYzNbY0hdW2NIXVtjSF1bY0hdW2NIXTM=

> <s_epik_cmdline>
J2VwaWtfcHl0aG9uJywgJy1waCcsICc3LjAnLCAnLXRuJywgJzgnLCAnLW1hJywgJzIwMCcsICctbWV0YWxfYmluZGluZycsICctaW1hZScsICc8aW5maWxlLm1hZT4nLCAnLW9tYWUnLCAnPG91dGZpbGUubWFlPic=

> <r_lp_tautomer_probability>
1

> <r_epik_Ionization_Penalty>
1.35015

> <r_epik_Ionization_Penalty_Charging>
1.35015

> <r_epik_Ionization_Penalty_Neutral>
2.3993e-06

> <r_epik_State_Penalty>
1.42814

> <r_epik_Charging_Adjusted_Penalty>
2.77829

> <i_epik_Tot_Q>
1

> <i_epik_Tot_abs_Q>
1

> <r_epik_Metal_State_Penalty>
5.46522

> <b_epik_Metal_Only>
0

> <s_lp_Force_Field>
OPLS_2005

> <r_lp_Energy>
21.7284

> <b_lp_Chiralities_Consistent>
1

> <s_lp_Variant>
AV-unprocessed.smi:2191-3

> <Gold.Version>
5.8.1

> <Gold.Id.Protein>
6NUR|6NUR_protein|mol2

> <Gold.PLP.Fitness>
51.2770

> <Gold.PLP.PLP>
-48.0630

> <Gold.PLP.part.hbond>
-1.8723

> <Gold.PLP.part.metal>
0.0000

> <Gold.PLP.part.buried>
3.2549

> <Gold.PLP.part.nonpolar>
-49.0227

> <Gold.PLP.part.repulsive>
0.0620

> <Gold.PLP.ligand.clash>
0.0000

> <Gold.PLP.ligand.torsion>
1.4232

> <Gold.PLP.Chemscore.Hbond>
2.0000

> <Gold.PLP.Chemscore.CHOScore>
0.0000

> <Gold.PLP.Chemscore.Metal>
0.0000

> <Gold.Chemscore.Hbonds>
donor molecule, donor type, donor heavy atom, donor atom, acceptor molecule, acceptor atom, score
      L1  H    14    37       P1  7948  1.98

> <Gold.PLP.Chemscore.Internal.Correction>
0.0604

> <Gold.Rescore>
     Score         DG    S(hbond)    S(metal)    S(lipo)     H(rot)  DE(clash)    DE(int)     intcor
     16.38     -18.05       0.97        0.00     130.16       2.31       0.30       1.37       ----

> <Gold.Chemscore.Fitness>
16.3781

> <Gold.Chemscore.DG>
-18.0452

> <Gold.Chemscore.ZeroCoef>
-5.4800

> <Gold.Chemscore.Hbond>
0.9696

> <Gold.Chemscore.Metal>
0.0000

> <Gold.Chemscore.Lipo>
130.1561

> <Gold.Chemscore.Internal_Hbond>
0.0000

> <Gold.Chemscore.DEClash>
0.2996

> <Gold.Chemscore.DEInternal>
1.3675

> <Gold.Chemscore.Rot>
2.3053

> <Gold.Chemscore.Internal.Correction>
   9.000000E+99

> <Gold.Chemscore.Hbonds>
donor molecule, donor type, donor heavy atom, donor atom, acceptor molecule, acceptor atom, score
      L1  H    14    37       P1  7948  0.61

> <Gold.Chemscore.Hbond.Weighted>
-3.2384

> <Gold.Chemscore.Metal.Weighted>
-0.0000

> <Gold.Chemscore.Lipo.Weighted>
-15.2283

> <Gold.Chemscore.Internal_Hbond.Weighted>
0.0000

> <Gold.Chemscore.DEClash.Weighted>
0.2996

> <Gold.Chemscore.DEInternal.Weighted>
1.3675

> <Gold.Chemscore.Rot.Weighted>
5.9015

> <Gold.Chemscore.Internal.Correction.Weighted>
   9.000000E+99

> <Gold.Protein.RotatedTorsions>
[ 6907 6896 6895 6894 ] final  -90.07 input  -60.11 | X-H torsion
[ 7974 7965 7964 7962 ] final  154.17 input  175.53 | X-H torsion
[ 8008 7997 7996 7995 ] final    3.28 input   59.86 | X-H torsion
[ 10167 10162 10161 10158 ] final  -37.02 input  -65.29 | X-H torsion
[ 10718 10713 10712 10709 ] final  106.35 input   66.30 | X-H torsion
[ 10763 10752 10751 10750 ] final -161.16 input  -60.55 | X-H torsion
[ 11005 11000 10999 10996 ] final  161.56 input  -57.11 | X-H torsion

> <Gold.Protein.ActiveResidues>
 VAL166  LYS551  ARG553  GLY616  TRP617  ASP618  TYR619  PRO620  LYS621  CYS622 
 ASP623  PHE694  ASN695  SER759  ASP760  ASP761  ALA762  ILE779  LEU786  VAL792 
 PHE793  MET794  SER795  GLU796  ALA797  LYS798  CYS799  TRP800  GLU811  SER814 

> <Gold.Protein.RotatedAtoms>
  150.6878  134.2489  159.4502 H   0  0  0  0  0  0  0  0  0  0  0  0  # atno 6907 bound_to 6896
  152.0428  134.9698  160.0583 H   0  0  0  0  0  0  0  0  0  0  0  0  # atno 6908 bound_to 6896
  152.1194  133.4310  159.4705 H   0  0  0  0  0  0  0  0  0  0  0  0  # atno 6909 bound_to 6896
  144.8106  139.6898  143.6143 H   0  0  0  0  0  0  0  0  0  0  0  0  # atno 7974 bound_to 7965
  154.7017  140.2674  155.6713 H   0  0  0  0  0  0  0  0  0  0  0  0  # atno 8008 bound_to 7997
  156.2767  140.2771  156.1554 H   0  0  0  0  0  0  0  0  0  0  0  0  # atno 8009 bound_to 7997
  155.0755  140.0372  157.2612 H   0  0  0  0  0  0  0  0  0  0  0  0  # atno 8010 bound_to 7997
  140.7128  143.3369  151.2443 H   0  0  0  0  0  0  0  0  0  0  0  0  # atno 10167 bound_to 10162
  157.6671  131.0848  150.5993 H   0  0  0  0  0  0  0  0  0  0  0  0  # atno 10718 bound_to 10713
  154.7328  135.3050  154.8862 H   0  0  0  0  0  0  0  0  0  0  0  0  # atno 10763 bound_to 10752
  153.9700  135.6743  153.4751 H   0  0  0  0  0  0  0  0  0  0  0  0  # atno 10764 bound_to 10752
  153.0934  135.4948  154.8655 H   0  0  0  0  0  0  0  0  0  0  0  0  # atno 10765 bound_to 10752
  140.2170  134.8224  157.3181 H   0  0  0  0  0  0  0  0  0  0  0  0  # atno 11005 bound_to 11000
  146.2404  139.5989  142.9495 LP  0  0  0  0  0  0  0  0  0  0  0  0  # atno 17320 bound_to 7965
  145.5333  141.0425  143.2371 LP  0  0  0  0  0  0  0  0  0  0  0  0  # atno 17321 bound_to 7965
  139.6867  143.9762  152.2837 LP  0  0  0  0  0  0  0  0  0  0  0  0  # atno 17342 bound_to 10162
  139.9410  144.6681  150.8266 LP  0  0  0  0  0  0  0  0  0  0  0  0  # atno 17343 bound_to 10162
  156.6294  130.4427  149.5792 LP  0  0  0  0  0  0  0  0  0  0  0  0  # atno 17370 bound_to 10713
  156.2294  130.6785  151.1448 LP  0  0  0  0  0  0  0  0  0  0  0  0  # atno 17371 bound_to 10713
  140.1889  134.4396  155.7727 LP  0  0  0  0  0  0  0  0  0  0  0  0  # atno 17394 bound_to 11000
  141.2224  133.7018  156.7994 LP  0  0  0  0  0  0  0  0  0  0  0  0  # atno 17395 bound_to 11000

$$$$
