AV-unprocessed.smi:258|AV-procd|sdf|1971|dock10
  -GOLD-   2262021133D 1   1.00000     0.00000
 Structure written by MMmdl.
 57 60  0  0  0  0  0  0  0  0  1 V2000
  150.3604  145.3621  160.7013 O   0  0  0  0  0  0  0  0  0  0  0  0
  151.6306  144.9283  160.2636 C   0  0  0  0  0  0  0  0  0  0  0  0
  151.4786  143.9197  159.1186 C   0  0  0  0  0  0  0  0  0  0  0  0
  150.9442  142.7108  159.6386 O   0  0  0  0  0  0  0  0  0  0  0  0
  150.7557  141.6835  158.6741 C   0  0  2  0  0  0  0  0  0  0  0  0
  152.0948  141.2804  158.0243 C   0  0  0  0  0  0  0  0  0  0  0  0
  151.8522  140.2866  156.8786 C   0  0  0  0  0  0  0  0  0  0  0  0
  150.8633  140.8604  155.8520 C   0  0  0  0  0  0  0  0  0  0  0  0
  149.6257  141.2859  156.5025 N   0  0  0  0  0  0  0  0  0  0  0  0
  148.5119  141.4554  155.7437 C   0  0  0  0  0  0  0  0  0  0  0  0
  148.5919  141.0938  154.4362 N   0  0  0  0  0  0  0  0  0  0  0  0
  147.5389  141.2321  153.6262 C   0  0  0  0  0  0  0  0  0  0  0  0
  146.3238  141.7009  153.9117 N   0  0  0  0  0  0  0  0  0  0  0  0
  146.2311  142.0633  155.2226 C   0  0  0  0  0  0  0  0  0  0  0  0
  147.2647  141.9811  156.2006 C   0  0  0  0  0  0  0  0  0  0  0  0
  146.7820  142.4397  157.4229 N   0  0  0  0  0  0  0  0  0  0  0  0
  145.5447  142.7747  157.1805 C   0  0  0  0  0  0  0  0  0  0  0  0
  145.1289  142.5717  155.8854 N   0  0  0  0  0  0  0  0  0  0  0  0
  143.8099  142.8390  155.3405 C   0  0  0  0  0  0  0  0  0  0  0  0
  143.4063  144.3344  155.3920 C   0  0  1  0  0  0  0  0  0  0  0  0
  144.0825  145.1786  154.2801 C   0  0  0  0  0  0  0  0  0  0  0  0
  143.7451  144.7087  152.9913 O   0  0  0  0  0  0  0  0  0  0  0  0
  141.8601  144.4543  155.4137 C   0  0  1  0  0  0  0  0  0  0  0  0
  141.2792  145.7689  154.9252 C   0  0  0  0  0  0  0  0  0  0  0  0
  139.8099  145.4012  154.7381 C   0  0  0  0  0  0  0  0  0  0  0  0
  139.7956  144.0260  154.3628 O   0  0  0  0  0  0  0  0  0  0  0  0
  141.0794  143.4426  154.5699 C   0  0  0  0  0  0  0  0  0  0  0  0
  149.7865  142.2296  157.6104 C   0  0  0  0  0  0  0  0  0  0  0  0
  150.2781  146.2848  160.5157 H   0  0  0  0  0  0  0  0  0  0  0  0
  152.1756  145.8054  159.9133 H   0  0  0  0  0  0  0  0  0  0  0  0
  152.1977  144.5055  161.0935 H   0  0  0  0  0  0  0  0  0  0  0  0
  150.8656  144.3325  158.3171 H   0  0  0  0  0  0  0  0  0  0  0  0
  152.4629  143.7103  158.6976 H   0  0  0  0  0  0  0  0  0  0  0  0
  150.2938  140.8118  159.1419 H   0  0  0  0  0  0  0  0  0  0  0  0
  152.5996  142.1672  157.6389 H   0  0  0  0  0  0  0  0  0  0  0  0
  152.7655  140.8321  158.7568 H   0  0  0  0  0  0  0  0  0  0  0  0
  152.7950  140.0400  156.3901 H   0  0  0  0  0  0  0  0  0  0  0  0
  151.4581  139.3531  157.2824 H   0  0  0  0  0  0  0  0  0  0  0  0
  151.3140  141.7143  155.3449 H   0  0  0  0  0  0  0  0  0  0  0  0
  150.6504  140.1039  155.0957 H   0  0  0  0  0  0  0  0  0  0  0  0
  147.6917  140.9211  152.6032 H   0  0  0  0  0  0  0  0  0  0  0  0
  144.8942  143.1693  157.9473 H   0  0  0  0  0  0  0  0  0  0  0  0
  143.7827  142.4764  154.3123 H   0  0  0  0  0  0  0  0  0  0  0  0
  143.0940  142.2344  155.8988 H   0  0  0  0  0  0  0  0  0  0  0  0
  143.7443  144.7283  156.3519 H   0  0  0  0  0  0  0  0  0  0  0  0
  143.8010  146.2284  154.3647 H   0  0  0  0  0  0  0  0  0  0  0  0
  145.1677  145.1404  154.3493 H   0  0  0  0  0  0  0  0  0  0  0  0
  143.3013  143.8790  153.0793 H   0  0  0  0  0  0  0  0  0  0  0  0
  141.5295  144.3426  156.4479 H   0  0  0  0  0  0  0  0  0  0  0  0
  141.4216  146.5869  155.6318 H   0  0  0  0  0  0  0  0  0  0  0  0
  141.7026  146.0714  153.9687 H   0  0  0  0  0  0  0  0  0  0  0  0
  139.2693  145.5088  155.6793 H   0  0  0  0  0  0  0  0  0  0  0  0
  139.3158  146.0239  153.9921 H   0  0  0  0  0  0  0  0  0  0  0  0
  141.5385  143.2918  153.5932 H   0  0  0  0  0  0  0  0  0  0  0  0
  140.9969  142.4707  155.0562 H   0  0  0  0  0  0  0  0  0  0  0  0
  148.8315  142.4578  158.0846 H   0  0  0  0  0  0  0  0  0  0  0  0
  150.1672  143.1696  157.2086 H   0  0  0  0  0  0  0  0  0  0  0  0
  1  2  1  0  0  0  0
  1 29  1  0  0  0  0
  2  3  1  0  0  0  0
  2 30  1  0  0  0  0
  2 31  1  0  0  0  0
  3  4  1  0  0  0  0
  3 32  1  0  0  0  0
  3 33  1  0  0  0  0
  4  5  1  0  0  0  0
  5 28  1  0  0  0  0
  5  6  1  0  0  0  0
  5 34  1  0  0  0  0
  6  7  1  0  0  0  0
  6 35  1  0  0  0  0
  6 36  1  0  0  0  0
  7  8  1  0  0  0  0
  7 37  1  0  0  0  0
  7 38  1  0  0  0  0
  8  9  1  0  0  0  0
  8 39  1  0  0  0  0
  8 40  1  0  0  0  0
  9 10  1  0  0  0  0
  9 28  1  0  0  0  0
 10 15  1  0  0  0  0
 10 11  2  0  0  0  0
 11 12  1  0  0  0  0
 12 13  2  0  0  0  0
 12 41  1  0  0  0  0
 13 14  1  0  0  0  0
 14 18  1  0  0  0  0
 14 15  2  0  0  0  0
 15 16  1  0  0  0  0
 16 17  2  0  0  0  0
 17 18  1  0  0  0  0
 17 42  1  0  0  0  0
 18 19  1  0  0  0  0
 19 20  1  0  0  0  0
 19 43  1  0  0  0  0
 19 44  1  0  0  0  0
 20 21  1  0  0  0  0
 20 23  1  0  0  0  0
 20 45  1  0  0  0  0
 21 22  1  0  0  0  0
 21 46  1  0  0  0  0
 21 47  1  0  0  0  0
 22 48  1  0  0  0  0
 23 27  1  0  0  0  0
 23 24  1  0  0  0  0
 23 49  1  0  0  0  0
 24 25  1  0  0  0  0
 24 50  1  0  0  0  0
 24 51  1  0  0  0  0
 25 26  1  0  0  0  0
 25 52  1  0  0  0  0
 25 53  1  0  0  0  0
 26 27  1  0  0  0  0
 27 54  1  0  0  0  0
 27 55  1  0  0  0  0
 28 56  1  0  0  0  0
 28 57  1  0  0  0  0
M  END
> <s_m_source_file>
AV-unprocessed.smi

> <i_m_source_file_index>
258

> <i_lp_mmshare_version>
43012

> <i_f3d_flags>
0

> <s_epik_input>
W09IXVtDSDJdW0NIMl1PW0NAQEhdMVtDSDJdW0NIMl1bQ0gyXU4oW0NIMl0xKWMobltjSF1uMiljKGMyMyluW2NIXW4zW0NIMl1bQ0BIXShbQ0gyXVtPSF0pW0NAQEhdNFtDSDJdW0NIMl1PW0NIMl00

> <s_epik_cmdline>
J2VwaWtfcHl0aG9uJywgJy1waCcsICc3LjAnLCAnLXRuJywgJzgnLCAnLW1hJywgJzIwMCcsICctbWV0YWxfYmluZGluZycsICctaW1hZScsICc8aW5maWxlLm1hZT4nLCAnLW9tYWUnLCAnPG91dGZpbGUubWFlPic=

> <r_lp_tautomer_probability>
1

> <r_epik_Ionization_Penalty>
0.00349036

> <r_epik_Ionization_Penalty_Charging>
0

> <r_epik_Ionization_Penalty_Neutral>
0.00349036

> <r_epik_State_Penalty>
0.00229798

> <r_epik_Charging_Adjusted_Penalty>
0.00229798

> <i_epik_Tot_Q>
0

> <i_epik_Tot_abs_Q>
0

> <r_epik_Metal_State_Penalty>
-0

> <b_epik_Metal_Only>
0

> <s_lp_Force_Field>
OPLS_2005

> <r_lp_Energy>
47.622

> <b_lp_Chiralities_Consistent>
1

> <s_lp_Variant>
AV-unprocessed.smi:258-7

> <Gold.Version>
5.8.1

> <Gold.Id.Protein>
6NUR|6NUR_protein|mol2

> <Gold.PLP.Fitness>
51.0913

> <Gold.PLP.PLP>
-44.0053

> <Gold.PLP.part.hbond>
-5.3641

> <Gold.PLP.part.metal>
0.0000

> <Gold.PLP.part.buried>
-6.2362

> <Gold.PLP.part.nonpolar>
-33.3870

> <Gold.PLP.part.repulsive>
0.6560

> <Gold.PLP.ligand.clash>
0.0000

> <Gold.PLP.ligand.torsion>
1.2937

> <Gold.PLP.Chemscore.Hbond>
1.9440

> <Gold.PLP.Chemscore.CHOScore>
1.0000

> <Gold.PLP.Chemscore.Metal>
0.0000

> <Gold.Chemscore.Hbonds>
donor molecule, donor type, donor heavy atom, donor atom, acceptor molecule, acceptor atom, score
      L1  H    22    48       P1 10174  0.83
      P1  H 10162 10167       L1    26  0.70
      L1  C    12    41       P1  7957  0.99

> <Gold.PLP.Chemscore.Internal.Correction>
0.8415

> <Gold.Rescore>
     Score         DG    S(hbond)    S(metal)    S(lipo)     H(rot)  DE(clash)    DE(int)     intcor
      6.29     -10.33       1.28        0.00      97.32       4.22       1.90       2.13       ----

> <Gold.Chemscore.Fitness>
6.2920

> <Gold.Chemscore.DG>
-10.3300

> <Gold.Chemscore.ZeroCoef>
-5.4800

> <Gold.Chemscore.Hbond>
1.2810

> <Gold.Chemscore.Metal>
0.0000

> <Gold.Chemscore.Lipo>
97.3179

> <Gold.Chemscore.Internal_Hbond>
0.0000

> <Gold.Chemscore.DEClash>
1.9033

> <Gold.Chemscore.DEInternal>
2.1347

> <Gold.Chemscore.Rot>
4.2246

> <Gold.Chemscore.Internal.Correction>
   9.000000E+99

> <Gold.Chemscore.Hbonds>
donor molecule, donor type, donor heavy atom, donor atom, acceptor molecule, acceptor atom, score
      L1  H    22    48       P1 10174  0.83
      P1  H 10162 10167       L1    26  0.12

> <Gold.Chemscore.Hbond.Weighted>
-4.2786

> <Gold.Chemscore.Metal.Weighted>
-0.0000

> <Gold.Chemscore.Lipo.Weighted>
-11.3862

> <Gold.Chemscore.Internal_Hbond.Weighted>
0.0000

> <Gold.Chemscore.DEClash.Weighted>
1.9033

> <Gold.Chemscore.DEInternal.Weighted>
2.1347

> <Gold.Chemscore.Rot.Weighted>
10.8149

> <Gold.Chemscore.Internal.Correction.Weighted>
   9.000000E+99

> <Gold.Protein.RotatedTorsions>
[ 6907 6896 6895 6894 ] final -129.45 input  -60.11 | X-H torsion
[ 7974 7965 7964 7962 ] final -139.63 input  175.53 | X-H torsion
[ 8008 7997 7996 7995 ] final  -26.20 input   59.86 | X-H torsion
[ 10167 10162 10161 10158 ] final -168.92 input  -65.29 | X-H torsion
[ 10718 10713 10712 10709 ] final   25.24 input   66.30 | X-H torsion
[ 10763 10752 10751 10750 ] final -165.59 input  -60.55 | X-H torsion
[ 11005 11000 10999 10996 ] final   34.26 input  -57.11 | X-H torsion

> <Gold.Protein.ActiveResidues>
 VAL166  LYS551  ARG553  GLY616  TRP617  ASP618  TYR619  PRO620  LYS621  CYS622 
 ASP623  PHE694  ASN695  SER759  ASP760  ASP761  ALA762  ILE779  LEU786  VAL792 
 PHE793  MET794  SER795  GLU796  ALA797  LYS798  CYS799  TRP800  GLU811  SER814 

> <Gold.Protein.RotatedAtoms>
  150.9288  133.6791  159.2815 H   0  0  0  0  0  0  0  0  0  0  0  0  # atno 6907 bound_to 6896
  151.4221  135.0998  159.9626 H   0  0  0  0  0  0  0  0  0  0  0  0  # atno 6908 bound_to 6896
  152.5016  133.8737  159.7366 H   0  0  0  0  0  0  0  0  0  0  0  0  # atno 6909 bound_to 6896
  144.8661  140.6295  143.5297 H   0  0  0  0  0  0  0  0  0  0  0  0  # atno 7974 bound_to 7965
  154.4437  140.1906  156.0738 H   0  0  0  0  0  0  0  0  0  0  0  0  # atno 8008 bound_to 7997
  156.0491  140.3310  155.7304 H   0  0  0  0  0  0  0  0  0  0  0  0  # atno 8009 bound_to 7997
  155.5584  140.0601  157.2825 H   0  0  0  0  0  0  0  0  0  0  0  0  # atno 8010 bound_to 7997
  139.5955  144.1122  152.1684 H   0  0  0  0  0  0  0  0  0  0  0  0  # atno 10167 bound_to 10162
  157.1907  130.6845  149.6149 H   0  0  0  0  0  0  0  0  0  0  0  0  # atno 10718 bound_to 10713
  154.6917  135.2972  154.9470 H   0  0  0  0  0  0  0  0  0  0  0  0  # atno 10763 bound_to 10752
  154.0431  135.6654  153.4796 H   0  0  0  0  0  0  0  0  0  0  0  0  # atno 10764 bound_to 10752
  153.0617  135.5112  154.8013 H   0  0  0  0  0  0  0  0  0  0  0  0  # atno 10765 bound_to 10752
  140.2547  134.3262  155.7878 H   0  0  0  0  0  0  0  0  0  0  0  0  # atno 11005 bound_to 11000
  145.4219  139.1562  143.4070 LP  0  0  0  0  0  0  0  0  0  0  0  0  # atno 17320 bound_to 7965
  146.2897  140.4329  142.8744 LP  0  0  0  0  0  0  0  0  0  0  0  0  # atno 17321 bound_to 7965
  140.0706  144.5782  150.7195 LP  0  0  0  0  0  0  0  0  0  0  0  0  # atno 17342 bound_to 10162
  140.7208  143.2587  151.4284 LP  0  0  0  0  0  0  0  0  0  0  0  0  # atno 17343 bound_to 10162
  155.9712  130.4615  150.6113 LP  0  0  0  0  0  0  0  0  0  0  0  0  # atno 17370 bound_to 10713
  157.3863  131.0789  151.1433 LP  0  0  0  0  0  0  0  0  0  0  0  0  # atno 17371 bound_to 10713
  141.2197  133.7374  156.9092 LP  0  0  0  0  0  0  0  0  0  0  0  0  # atno 17394 bound_to 11000
  140.1524  134.9221  157.2609 LP  0  0  0  0  0  0  0  0  0  0  0  0  # atno 17395 bound_to 11000

$$$$
