AV-unprocessed.smi:101|AV-procd|sdf|942|dock10
  -GOLD-   2262017463D 1   1.00000     0.00000
 Structure written by MMmdl.
 43 45  0  0  0  0  0  0  0  0  2 V2000
  148.1877  133.9722  158.4540 C   0  0  0  0  0  0  0  0  0  0  0  0
  148.1059  135.4878  158.4039 C   0  0  0  0  0  0  0  0  0  0  0  0
  148.5581  136.1997  157.3480 C   0  0  0  0  0  0  0  0  0  0  0  0
  148.4790  137.5809  157.3063 N   0  0  0  0  0  0  0  0  0  0  0  0
  148.9790  138.3514  156.1049 C   0  0  1  0  0  0  0  0  0  0  0  0
  150.0659  139.1439  156.4901 O   0  0  0  0  0  0  0  0  0  0  0  0
  151.1897  138.8828  155.6565 C   0  0  1  0  0  0  0  0  0  0  0  0
  152.4780  139.0988  156.4607 C   0  0  0  0  0  0  0  0  0  0  0  0
  152.4251  140.3554  157.1159 O   0  0  0  0  0  0  0  0  0  0  0  0
  152.1670  140.4192  158.4359 C   0  0  0  0  0  0  0  0  0  0  0  0
  151.9339  139.4306  159.1345 O   0  0  0  0  0  0  0  0  0  0  0  0
  152.1923  141.8135  158.9643 C   0  0  0  0  0  0  0  0  0  0  0  0
  151.9251  142.8917  158.0885 C   0  0  0  0  0  0  0  0  0  0  0  0
  151.9418  144.2192  158.5591 C   0  0  0  0  0  0  0  0  0  0  0  0
  152.2237  144.4846  159.9118 C   0  0  0  0  0  0  0  0  0  0  0  0
  152.4895  143.4208  160.7937 C   0  0  0  0  0  0  0  0  0  0  0  0
  152.4748  142.0926  160.3247 C   0  0  0  0  0  0  0  0  0  0  0  0
  150.9710  137.4461  155.1825 C   0  0  2  0  0  0  0  0  0  0  0  0
  151.6680  137.1309  153.9920 O   0  0  0  0  0  0  0  0  0  0  0  0
  149.4586  137.3788  155.0162 C   0  0  2  0  0  0  0  0  0  0  0  0
  149.0246  137.8052  153.7373 O   0  0  0  0  0  0  0  0  0  0  0  0
  147.8743  138.2821  158.3816 C   0  0  0  0  0  0  0  0  0  0  0  0
  147.7735  139.5060  158.2907 O   0  0  0  0  0  0  0  0  0  0  0  0
  147.4244  137.5732  159.4559 N   0  5  0  0  0  0  0  0  0  0  0  0
  147.5114  136.2139  159.5327 C   0  0  0  0  0  0  0  0  0  0  0  0
  147.1060  135.5870  160.5111 O   0  0  0  0  0  0  0  0  0  0  0  0
  148.6506  133.5702  157.5527 H   0  0  0  0  0  0  0  0  0  0  0  0
  147.1908  133.5401  158.5437 H   0  0  0  0  0  0  0  0  0  0  0  0
  148.7812  133.6508  159.3103 H   0  0  0  0  0  0  0  0  0  0  0  0
  148.9866  135.6673  156.5124 H   0  0  0  0  0  0  0  0  0  0  0  0
  148.1583  139.0016  155.7977 H   0  0  0  0  0  0  0  0  0  0  0  0
  151.1415  139.5740  154.8131 H   0  0  0  0  0  0  0  0  0  0  0  0
  152.5834  138.3127  157.2093 H   0  0  0  0  0  0  0  0  0  0  0  0
  153.3481  139.0447  155.8047 H   0  0  0  0  0  0  0  0  0  0  0  0
  151.7054  142.7127  157.0458 H   0  0  0  0  0  0  0  0  0  0  0  0
  151.7371  145.0342  157.8805 H   0  0  0  0  0  0  0  0  0  0  0  0
  152.2354  145.5026  160.2727 H   0  0  0  0  0  0  0  0  0  0  0  0
  152.7054  143.6230  161.8323 H   0  0  0  0  0  0  0  0  0  0  0  0
  152.6822  141.2996  161.0283 H   0  0  0  0  0  0  0  0  0  0  0  0
  151.2764  136.7526  155.9675 H   0  0  0  0  0  0  0  0  0  0  0  0
  151.0412  136.8116  153.3606 H   0  0  0  0  0  0  0  0  0  0  0  0
  149.0769  136.3709  155.1876 H   0  0  0  0  0  0  0  0  0  0  0  0
  148.8985  137.0389  153.1980 H   0  0  0  0  0  0  0  0  0  0  0  0
  1  2  1  0  0  0  0
  1 27  1  0  0  0  0
  1 28  1  0  0  0  0
  1 29  1  0  0  0  0
  2 25  1  0  0  0  0
  2  3  2  0  0  0  0
  3  4  1  0  0  0  0
  3 30  1  0  0  0  0
  4  5  1  0  0  0  0
  4 22  1  0  0  0  0
  5 20  1  0  0  0  0
  5  6  1  0  0  0  0
  5 31  1  0  0  0  0
  6  7  1  0  0  0  0
  7  8  1  0  0  0  0
  7 18  1  0  0  0  0
  7 32  1  0  0  0  0
  8  9  1  0  0  0  0
  8 33  1  0  0  0  0
  8 34  1  0  0  0  0
  9 10  1  0  0  0  0
 10 11  2  0  0  0  0
 10 12  1  0  0  0  0
 12 17  1  0  0  0  0
 12 13  2  0  0  0  0
 13 14  1  0  0  0  0
 13 35  1  0  0  0  0
 14 15  2  0  0  0  0
 14 36  1  0  0  0  0
 15 16  1  0  0  0  0
 15 37  1  0  0  0  0
 16 17  2  0  0  0  0
 16 38  1  0  0  0  0
 17 39  1  0  0  0  0
 18 19  1  0  0  0  0
 18 20  1  0  0  0  0
 18 40  1  0  0  0  0
 19 41  1  0  0  0  0
 20 21  1  0  0  0  0
 20 42  1  0  0  0  0
 21 43  1  0  0  0  0
 22 23  2  0  0  0  0
 22 24  1  0  0  0  0
 24 25  1  0  0  0  0
 25 26  2  0  0  0  0
M  CHG  1  24  -1
M  END
> <s_m_source_file>
AV-unprocessed.smi

> <i_m_source_file_index>
101

> <i_lp_mmshare_version>
43012

> <i_f3d_flags>
0

> <s_epik_input>
Tz1jMVtuSF1jKD1PKW4oW2NIXWMxW0NIM10pW0NAQEhdMk9bQ0BIXShbQ0BASF0oW09IXSlbQ0BIXTJbT0hdKVtDSDJdT0MoPU8pYzNbY0hdW2NIXVtjSF1bY0hdW2NIXTM=

> <s_epik_cmdline>
J2VwaWtfcHl0aG9uJywgJy1waCcsICc3LjAnLCAnLXRuJywgJzgnLCAnLW1hJywgJzIwMCcsICctbWV0YWxfYmluZGluZycsICctaW1hZScsICc8aW5maWxlLm1hZT4nLCAnLW9tYWUnLCAnPG91dGZpbGUubWFlPic=

> <r_lp_tautomer_probability>
0.999537

> <r_epik_Ionization_Penalty>
3.21006

> <r_epik_Ionization_Penalty_Charging>
5.75142e-08

> <r_epik_Ionization_Penalty_Neutral>
3.21006

> <r_epik_State_Penalty>
3.20925

> <r_epik_Charging_Adjusted_Penalty>
3.20925

> <i_epik_Tot_Q>
-1

> <i_epik_Tot_abs_Q>
1

> <r_epik_Metal_State_Penalty>
0.119957

> <b_epik_Metal_Only>
1

> <s_epik_Chemistry_Notes>
This compound has an ester and may undergo hydrolysis at high or low pH. This compound contains an acetal/aminal-like group ( X-CH(R)-Y where X, Y are N, S, or O) that may be acid/base labile, releasing an aldehyde.

> <s_lp_Force_Field>
OPLS_2005

> <r_lp_Energy>
44.5591

> <b_lp_Chiralities_Consistent>
1

> <s_lp_Variant>
AV-unprocessed.smi:101-30

> <Gold.Version>
5.8.1

> <Gold.Id.Protein>
6NUR|6NUR_protein|mol2

> <Gold.PLP.Fitness>
47.9517

> <Gold.PLP.PLP>
-37.1039

> <Gold.PLP.part.hbond>
-5.6490

> <Gold.PLP.part.metal>
0.0000

> <Gold.PLP.part.buried>
-2.1336

> <Gold.PLP.part.nonpolar>
-28.9798

> <Gold.PLP.part.repulsive>
0.0000

> <Gold.PLP.ligand.clash>
0.0000

> <Gold.PLP.ligand.torsion>
0.7229

> <Gold.PLP.Chemscore.Hbond>
4.0800

> <Gold.PLP.Chemscore.CHOScore>
0.0000

> <Gold.PLP.Chemscore.Metal>
0.0000

> <Gold.Chemscore.Hbonds>
donor molecule, donor type, donor heavy atom, donor atom, acceptor molecule, acceptor atom, score
      L1  H    19    41       P1  7949  0.67
      L1  H    21    43       P1  7948  1.00
      P1  H  6934  6947       L1    24  1.33
      P1  H 10752 10765       L1    19  1.00

> <Gold.PLP.Chemscore.Internal.Correction>
0.0536

> <Gold.Rescore>
     Score         DG    S(hbond)    S(metal)    S(lipo)     H(rot)  DE(clash)    DE(int)     intcor
     13.18     -16.87       2.59        0.00      94.87       3.27       1.34       2.35       ----

> <Gold.Chemscore.Fitness>
13.1846

> <Gold.Chemscore.DG>
-16.8709

> <Gold.Chemscore.ZeroCoef>
-5.4800

> <Gold.Chemscore.Hbond>
2.5902

> <Gold.Chemscore.Metal>
0.0000

> <Gold.Chemscore.Lipo>
94.8680

> <Gold.Chemscore.Internal_Hbond>
0.0000

> <Gold.Chemscore.DEClash>
1.3387

> <Gold.Chemscore.DEInternal>
2.3477

> <Gold.Chemscore.Rot>
3.2656

> <Gold.Chemscore.Internal.Correction>
   9.000000E+99

> <Gold.Chemscore.Hbonds>
donor molecule, donor type, donor heavy atom, donor atom, acceptor molecule, acceptor atom, score
      L1  H    19    41       P1  7949  0.22
      L1  H    21    43       P1  7948  0.92
      P1  H  6934  6947       L1    24  0.22
      P1  H 10752 10765       L1    19  0.41

> <Gold.Chemscore.Hbond.Weighted>
-8.6512

> <Gold.Chemscore.Metal.Weighted>
-0.0000

> <Gold.Chemscore.Lipo.Weighted>
-11.0996

> <Gold.Chemscore.Internal_Hbond.Weighted>
0.0000

> <Gold.Chemscore.DEClash.Weighted>
1.3387

> <Gold.Chemscore.DEInternal.Weighted>
2.3477

> <Gold.Chemscore.Rot.Weighted>
8.3598

> <Gold.Chemscore.Internal.Correction.Weighted>
   9.000000E+99

> <Gold.Protein.RotatedTorsions>
[ 6907 6896 6895 6894 ] final   -2.43 input  -60.11 | X-H torsion
[ 7974 7965 7964 7962 ] final   -0.36 input  175.53 | X-H torsion
[ 8008 7997 7996 7995 ] final   76.95 input   59.86 | X-H torsion
[ 10167 10162 10161 10158 ] final  -17.20 input  -65.29 | X-H torsion
[ 10718 10713 10712 10709 ] final  -77.60 input   66.30 | X-H torsion
[ 10763 10752 10751 10750 ] final  152.59 input  -60.55 | X-H torsion
[ 11005 11000 10999 10996 ] final   20.35 input  -57.11 | X-H torsion

> <Gold.Protein.ActiveResidues>
 VAL166  LYS551  ARG553  GLY616  TRP617  ASP618  TYR619  PRO620  LYS621  CYS622 
 ASP623  PHE694  ASN695  SER759  ASP760  ASP761  ALA762  ILE779  LEU786  VAL792 
 PHE793  MET794  SER795  GLU796  ALA797  LYS798  CYS799  TRP800  GLU811  SER814 

> <Gold.Protein.RotatedAtoms>
  151.5301  135.1068  159.9900 H   0  0  0  0  0  0  0  0  0  0  0  0  # atno 6907 bound_to 6896
  152.4582  133.7763  159.6837 H   0  0  0  0  0  0  0  0  0  0  0  0  # atno 6908 bound_to 6896
  150.8534  133.7687  159.3042 H   0  0  0  0  0  0  0  0  0  0  0  0  # atno 6909 bound_to 6896
  146.2428  140.1257  142.8339 H   0  0  0  0  0  0  0  0  0  0  0  0  # atno 7974 bound_to 7965
  155.8346  140.3465  155.5593 H   0  0  0  0  0  0  0  0  0  0  0  0  # atno 8008 bound_to 7997
  155.8206  140.0912  157.1871 H   0  0  0  0  0  0  0  0  0  0  0  0  # atno 8009 bound_to 7997
  154.4004  140.1431  156.3482 H   0  0  0  0  0  0  0  0  0  0  0  0  # atno 8010 bound_to 7997
  140.7244  143.5039  150.9834 H   0  0  0  0  0  0  0  0  0  0  0  0  # atno 10167 bound_to 10162
  156.0140  130.4496  150.3370 H   0  0  0  0  0  0  0  0  0  0  0  0  # atno 10718 bound_to 10713
  154.1224  135.2832  155.3205 H   0  0  0  0  0  0  0  0  0  0  0  0  # atno 10763 bound_to 10752
  154.6413  135.5401  153.7796 H   0  0  0  0  0  0  0  0  0  0  0  0  # atno 10764 bound_to 10752
  153.0308  135.6487  154.1378 H   0  0  0  0  0  0  0  0  0  0  0  0  # atno 10765 bound_to 10752
  140.4036  134.1692  155.7664 H   0  0  0  0  0  0  0  0  0  0  0  0  # atno 11005 bound_to 11000
  145.0368  140.8914  143.5076 LP  0  0  0  0  0  0  0  0  0  0  0  0  # atno 17320 bound_to 7965
  145.1331  139.2619  143.5529 LP  0  0  0  0  0  0  0  0  0  0  0  0  # atno 17321 bound_to 7965
  139.8750  143.7144  152.3163 LP  0  0  0  0  0  0  0  0  0  0  0  0  # atno 17342 bound_to 10162
  139.7406  144.7560  151.0658 LP  0  0  0  0  0  0  0  0  0  0  0  0  # atno 17343 bound_to 10162
  157.1467  131.0310  151.2904 LP  0  0  0  0  0  0  0  0  0  0  0  0  # atno 17370 bound_to 10713
  157.4427  130.7553  149.7083 LP  0  0  0  0  0  0  0  0  0  0  0  0  # atno 17371 bound_to 10713
  141.1848  133.8337  157.1128 LP  0  0  0  0  0  0  0  0  0  0  0  0  # atno 17394 bound_to 11000
  140.0318  134.9897  157.0796 LP  0  0  0  0  0  0  0  0  0  0  0  0  # atno 17395 bound_to 11000

$$$$
