AV-unprocessed.smi:1295|AV-procd|sdf|5410|dock6
  -GOLD-   22720 4563D 1   1.00000     0.00000
 Structure written by MMmdl.
 42 43  0  0  0  0  0  0  0  0  2 V2000
  152.0154  141.6079  157.8184 C   0  0  0  0  0  0  0  0  0  0  0  0
  151.7418  140.4285  156.9100 C   0  0  0  0  0  0  0  0  0  0  0  0
  150.6828  140.4242  156.1937 N   0  0  0  0  0  0  0  0  0  0  0  0
  150.4264  139.3339  155.3453 C   0  0  0  0  0  0  0  0  0  0  0  0
  149.1508  139.4185  154.5246 C   0  0  0  0  0  0  0  0  0  0  0  0
  151.2856  138.2767  155.2751 C   0  0  0  0  0  0  0  0  0  0  0  0
  151.0556  137.0748  154.3594 C   0  0  0  0  0  0  0  0  0  0  0  0
  150.3692  135.8698  155.0061 C   0  0  0  0  0  0  0  0  0  0  0  0
  150.8370  135.3593  156.0236 O   0  0  0  0  0  0  0  0  0  0  0  0
  149.2536  135.4328  154.4015 N   0  0  0  0  0  0  0  0  0  0  0  0
  148.3928  134.3390  154.8547 C   0  0  1  0  0  0  0  0  0  0  0  0
  146.9276  134.6501  154.4889 C   0  0  0  0  0  0  0  0  0  0  0  0
  146.6792  134.5771  152.9718 C   0  0  0  0  0  0  0  0  0  0  0  0
  147.1120  133.2176  152.4028 C   0  0  0  0  0  0  0  0  0  0  0  0
  148.5778  132.9074  152.7468 C   0  0  0  0  0  0  0  0  0  0  0  0
  148.8312  132.9727  154.2674 C   0  0  1  0  0  0  0  0  0  0  0  0
  150.2830  132.6022  154.6155 C   0  0  0  0  0  0  0  0  0  0  0  0
  152.4906  138.3169  156.1233 C   0  0  0  0  0  0  0  0  0  0  0  0
  153.2914  137.3829  156.1105 O   0  0  0  0  0  0  0  0  0  0  0  0
  152.6734  139.4150  156.9109 N   0  5  0  0  0  0  0  0  0  0  0  0
  151.1454  142.2626  157.8849 H   0  0  0  0  0  0  0  0  0  0  0  0
  152.8543  142.1896  157.4359 H   0  0  0  0  0  0  0  0  0  0  0  0
  152.2611  141.2652  158.8241 H   0  0  0  0  0  0  0  0  0  0  0  0
  149.3820  139.4421  153.4596 H   0  0  0  0  0  0  0  0  0  0  0  0
  148.5863  140.3203  154.7648 H   0  0  0  0  0  0  0  0  0  0  0  0
  148.5073  138.5615  154.7228 H   0  0  0  0  0  0  0  0  0  0  0  0
  150.4591  137.4101  153.5102 H   0  0  0  0  0  0  0  0  0  0  0  0
  151.9925  136.7341  153.9181 H   0  0  0  0  0  0  0  0  0  0  0  0
  148.9595  135.9161  153.5653 H   0  0  0  0  0  0  0  0  0  0  0  0
  148.4440  134.2716  155.9427 H   0  0  0  0  0  0  0  0  0  0  0  0
  146.2746  133.9349  154.9906 H   0  0  0  0  0  0  0  0  0  0  0  0
  146.6450  135.6334  154.8674 H   0  0  0  0  0  0  0  0  0  0  0  0
  145.6236  134.7486  152.7606 H   0  0  0  0  0  0  0  0  0  0  0  0
  147.2255  135.3756  152.4680 H   0  0  0  0  0  0  0  0  0  0  0  0
  146.4689  132.4329  152.8031 H   0  0  0  0  0  0  0  0  0  0  0  0
  146.9743  133.2068  151.3212 H   0  0  0  0  0  0  0  0  0  0  0  0
  148.8356  131.9172  152.3697 H   0  0  0  0  0  0  0  0  0  0  0  0
  149.2316  133.6110  152.2297 H   0  0  0  0  0  0  0  0  0  0  0  0
  148.1992  132.2130  154.7300 H   0  0  0  0  0  0  0  0  0  0  0  0
  150.9970  133.2758  154.1414 H   0  0  0  0  0  0  0  0  0  0  0  0
  150.5184  131.5906  154.2842 H   0  0  0  0  0  0  0  0  0  0  0  0
  150.4500  132.6432  155.6922 H   0  0  0  0  0  0  0  0  0  0  0  0
  1  2  1  0  0  0  0
  1 21  1  0  0  0  0
  1 22  1  0  0  0  0
  1 23  1  0  0  0  0
  2 20  1  0  0  0  0
  2  3  2  0  0  0  0
  3  4  1  0  0  0  0
  4  5  1  0  0  0  0
  4  6  2  0  0  0  0
  5 24  1  0  0  0  0
  5 25  1  0  0  0  0
  5 26  1  0  0  0  0
  6  7  1  0  0  0  0
  6 18  1  0  0  0  0
  7  8  1  0  0  0  0
  7 27  1  0  0  0  0
  7 28  1  0  0  0  0
  8  9  2  0  0  0  0
  8 10  1  0  0  0  0
 10 11  1  0  0  0  0
 10 29  1  0  0  0  0
 11 16  1  0  0  0  0
 11 12  1  0  0  0  0
 11 30  1  0  0  0  0
 12 13  1  0  0  0  0
 12 31  1  0  0  0  0
 12 32  1  0  0  0  0
 13 14  1  0  0  0  0
 13 33  1  0  0  0  0
 13 34  1  0  0  0  0
 14 15  1  0  0  0  0
 14 35  1  0  0  0  0
 14 36  1  0  0  0  0
 15 16  1  0  0  0  0
 15 37  1  0  0  0  0
 15 38  1  0  0  0  0
 16 17  1  0  0  0  0
 16 39  1  0  0  0  0
 17 40  1  0  0  0  0
 17 41  1  0  0  0  0
 17 42  1  0  0  0  0
 18 19  2  0  0  0  0
 18 20  1  0  0  0  0
M  CHG  1  20  -1
M  END
> <s_m_source_file>
AV-unprocessed.smi

> <i_m_source_file_index>
1295

> <i_lp_mmshare_version>
43012

> <i_f3d_flags>
0

> <s_epik_input>
W0NIM11jMW5jKFtDSDNdKWMoYyg9TylbbkhdMSlbQ0gyXUMoPU8pW05IXVtDQEBIXTJbQ0gyXVtDSDJdW0NIMl1bQ0gyXVtDQEhdMltDSDNd

> <s_epik_cmdline>
J2VwaWtfcHl0aG9uJywgJy1waCcsICc3LjAnLCAnLXRuJywgJzgnLCAnLW1hJywgJzIwMCcsICctbWV0YWxfYmluZGluZycsICctaW1hZScsICc8aW5maWxlLm1hZT4nLCAnLW9tYWUnLCAnPG91dGZpbGUubWFlPic=

> <r_lp_tautomer_probability>
0.839158

> <r_epik_Ionization_Penalty>
6.67742

> <r_epik_Ionization_Penalty_Charging>
7.78154e-08

> <r_epik_Ionization_Penalty_Neutral>
6.67742

> <r_epik_State_Penalty>
4.51991

> <r_epik_Charging_Adjusted_Penalty>
4.51991

> <i_epik_Tot_Q>
-1

> <i_epik_Tot_abs_Q>
1

> <r_epik_Metal_State_Penalty>
0.853272

> <b_epik_Metal_Only>
1

> <s_lp_Force_Field>
OPLS_2005

> <r_lp_Energy>
15.7399

> <b_lp_Chiralities_Consistent>
1

> <s_lp_Variant>
AV-unprocessed.smi:1295-10

> <Gold.Version>
5.8.1

> <Gold.Id.Protein>
6NUR|6NUR_protein|mol2

> <Gold.PLP.Fitness>
37.0289

> <Gold.PLP.PLP>
-28.4938

> <Gold.PLP.part.hbond>
-3.0000

> <Gold.PLP.part.metal>
0.0000

> <Gold.PLP.part.buried>
-2.2189

> <Gold.PLP.part.nonpolar>
-23.7639

> <Gold.PLP.part.repulsive>
0.0642

> <Gold.PLP.ligand.clash>
0.0000

> <Gold.PLP.ligand.torsion>
0.7412

> <Gold.PLP.Chemscore.Hbond>
3.3367

> <Gold.PLP.Chemscore.CHOScore>
0.0000

> <Gold.PLP.Chemscore.Metal>
0.0000

> <Gold.Chemscore.Hbonds>
donor molecule, donor type, donor heavy atom, donor atom, acceptor molecule, acceptor atom, score
      L1  H    10    29       P1  7948  1.00
      P1  H  7997  8009       L1    20  2.00
      P1  H 10752 10765       L1    19  0.39

> <Gold.PLP.Chemscore.Internal.Correction>
0.0074

> <Gold.Rescore>
     Score         DG    S(hbond)    S(metal)    S(lipo)     H(rot)  DE(clash)    DE(int)     intcor
     15.46     -16.66       2.15        0.00      65.66       1.45       0.43       0.77       ----

> <Gold.Chemscore.Fitness>
15.4561

> <Gold.Chemscore.DG>
-16.6597

> <Gold.Chemscore.ZeroCoef>
-5.4800

> <Gold.Chemscore.Hbond>
2.1548

> <Gold.Chemscore.Metal>
0.0000

> <Gold.Chemscore.Lipo>
65.6577

> <Gold.Chemscore.Internal_Hbond>
0.0000

> <Gold.Chemscore.DEClash>
0.4323

> <Gold.Chemscore.DEInternal>
0.7713

> <Gold.Chemscore.Rot>
1.4450

> <Gold.Chemscore.Internal.Correction>
   9.000000E+99

> <Gold.Chemscore.Hbonds>
donor molecule, donor type, donor heavy atom, donor atom, acceptor molecule, acceptor atom, score
      L1  H    10    29       P1  7948  0.93
      P1  H  7997  8009       L1    20  0.51
      P1  H 10752 10765       L1    19  0.40

> <Gold.Chemscore.Hbond.Weighted>
-7.1970

> <Gold.Chemscore.Metal.Weighted>
-0.0000

> <Gold.Chemscore.Lipo.Weighted>
-7.6820

> <Gold.Chemscore.Internal_Hbond.Weighted>
0.0000

> <Gold.Chemscore.DEClash.Weighted>
0.4323

> <Gold.Chemscore.DEInternal.Weighted>
0.7713

> <Gold.Chemscore.Rot.Weighted>
3.6992

> <Gold.Chemscore.Internal.Correction.Weighted>
   9.000000E+99

> <Gold.Protein.RotatedTorsions>
[ 6907 6896 6895 6894 ] final  128.61 input  -60.11 | X-H torsion
[ 7974 7965 7964 7962 ] final   -5.80 input  175.53 | X-H torsion
[ 8008 7997 7996 7995 ] final -176.74 input   59.86 | X-H torsion
[ 10167 10162 10161 10158 ] final  111.73 input  -65.29 | X-H torsion
[ 10718 10713 10712 10709 ] final  156.00 input   66.30 | X-H torsion
[ 10763 10752 10751 10750 ] final -131.35 input  -60.55 | X-H torsion
[ 11005 11000 10999 10996 ] final  110.03 input  -57.11 | X-H torsion

> <Gold.Protein.ActiveResidues>
 VAL166  LYS551  ARG553  GLY616  TRP617  ASP618  TYR619  PRO620  LYS621  CYS622 
 ASP623  PHE694  ASN695  SER759  ASP760  ASP761  ALA762  ILE779  LEU786  VAL792 
 PHE793  MET794  SER795  GLU796  ALA797  LYS798  CYS799  TRP800  GLU811  SER814 

> <Gold.Protein.RotatedAtoms>
  152.3703  133.6409  159.6081 H   0  0  0  0  0  0  0  0  0  0  0  0  # atno 6907 bound_to 6896
  150.7663  133.9282  159.3427 H   0  0  0  0  0  0  0  0  0  0  0  0  # atno 6908 bound_to 6896
  151.7105  135.0914  160.0318 H   0  0  0  0  0  0  0  0  0  0  0  0  # atno 6909 bound_to 6896
  146.2345  140.2075  142.8334 H   0  0  0  0  0  0  0  0  0  0  0  0  # atno 7974 bound_to 7965
  155.9985  140.1215  157.0570 H   0  0  0  0  0  0  0  0  0  0  0  0  # atno 8008 bound_to 7997
  154.4234  140.1111  156.5732 H   0  0  0  0  0  0  0  0  0  0  0  0  # atno 8009 bound_to 7997
  155.6245  140.3472  155.4665 H   0  0  0  0  0  0  0  0  0  0  0  0  # atno 8010 bound_to 7997
  139.6589  144.7129  151.1903 H   0  0  0  0  0  0  0  0  0  0  0  0  # atno 10167 bound_to 10162
  157.2108  131.0697  151.1971 H   0  0  0  0  0  0  0  0  0  0  0  0  # atno 10718 bound_to 10713
  154.8751  135.3833  154.4232 H   0  0  0  0  0  0  0  0  0  0  0  0  # atno 10763 bound_to 10752
  153.4934  135.7030  153.5877 H   0  0  0  0  0  0  0  0  0  0  0  0  # atno 10764 bound_to 10752
  153.4240  135.3894  155.2096 H   0  0  0  0  0  0  0  0  0  0  0  0  # atno 10765 bound_to 10752
  139.8873  134.9473  156.6216 H   0  0  0  0  0  0  0  0  0  0  0  0  # atno 11005 bound_to 11000
  144.9733  140.8389  143.5442 LP  0  0  0  0  0  0  0  0  0  0  0  0  # atno 17320 bound_to 7965
  145.2059  139.2229  143.5168 LP  0  0  0  0  0  0  0  0  0  0  0  0  # atno 17321 bound_to 7965
  140.7571  143.6027  150.8684 LP  0  0  0  0  0  0  0  0  0  0  0  0  # atno 17342 bound_to 10162
  139.9682  143.6086  152.2981 LP  0  0  0  0  0  0  0  0  0  0  0  0  # atno 17343 bound_to 10162
  157.3674  130.7163  149.6542 LP  0  0  0  0  0  0  0  0  0  0  0  0  # atno 17370 bound_to 10713
  155.9691  130.4208  150.4441 LP  0  0  0  0  0  0  0  0  0  0  0  0  # atno 17371 bound_to 10713
  140.7735  133.8719  155.8510 LP  0  0  0  0  0  0  0  0  0  0  0  0  # atno 17394 bound_to 11000
  140.9822  134.1391  157.4484 LP  0  0  0  0  0  0  0  0  0  0  0  0  # atno 17395 bound_to 11000

$$$$
