AV-unprocessed.smi:1975|AV-procd|sdf|7982|dock10
  -GOLD-   2272010163D 1   1.00000     0.00000
 Structure written by MMmdl.
 33 34  0  0  0  0  0  0  0  0  1 V2000
  151.9106  145.4150  159.4710 C   0  0  0  0  0  0  0  0  0  0  0  0
  151.0162  144.2097  159.7976 C   0  0  0  0  0  0  0  0  0  0  0  0
  151.6330  142.9487  159.4772 N   0  0  0  0  0  0  0  0  0  0  0  0
  152.8885  142.6158  159.9414 C   0  0  0  0  0  0  0  0  0  0  0  0
  153.4893  141.4473  159.6361 C   0  0  0  0  0  0  0  0  0  0  0  0
  154.7886  141.1214  160.1235 C   0  0  0  0  0  0  0  0  0  0  0  0
  155.8333  140.8388  160.5336 N   0  0  0  0  0  0  0  0  0  0  0  0
  152.8303  140.4609  158.7834 C   0  0  0  0  0  0  0  0  0  0  0  0
  153.3427  139.3858  158.4676 O   0  0  0  0  0  0  0  0  0  0  0  0
  151.5395  140.8203  158.3182 N   0  0  0  0  0  0  0  0  0  0  0  0
  150.8193  139.8852  157.4259 C   0  0  0  0  0  0  0  0  0  0  0  0
  150.6075  140.4335  156.0059 C   0  0  0  0  0  0  0  0  0  0  0  0
  151.5279  140.4474  155.1870 O   0  0  0  0  0  0  0  0  0  0  0  0
  149.3725  140.8785  155.7331 N   0  0  0  0  0  0  0  0  0  0  0  0
  148.9441  141.4258  154.4866 C   0  0  0  0  0  0  0  0  0  0  0  0
  147.5543  142.0216  154.4211 C   0  0  0  0  0  0  0  0  0  0  0  0
  147.8360  140.7064  153.7487 C   0  0  0  0  0  0  0  0  0  0  0  0
  150.9255  142.0550  158.6403 C   0  0  0  0  0  0  0  0  0  0  0  0
  149.8106  142.3415  158.1959 O   0  0  0  0  0  0  0  0  0  0  0  0
  151.4225  146.3461  159.7595 H   0  0  0  0  0  0  0  0  0  0  0  0
  152.1316  145.4759  158.4050 H   0  0  0  0  0  0  0  0  0  0  0  0
  152.8585  145.3571  160.0065 H   0  0  0  0  0  0  0  0  0  0  0  0
  150.7960  144.1724  160.8653 H   0  0  0  0  0  0  0  0  0  0  0  0
  150.0550  144.2471  159.2815 H   0  0  0  0  0  0  0  0  0  0  0  0
  153.4136  143.3190  160.5720 H   0  0  0  0  0  0  0  0  0  0  0  0
  151.3406  138.9298  157.3492 H   0  0  0  0  0  0  0  0  0  0  0  0
  149.8483  139.6206  157.8483 H   0  0  0  0  0  0  0  0  0  0  0  0
  148.6801  140.8255  156.4662 H   0  0  0  0  0  0  0  0  0  0  0  0
  149.6993  141.9029  153.8634 H   0  0  0  0  0  0  0  0  0  0  0  0
  146.9493  142.0039  155.3257 H   0  0  0  0  0  0  0  0  0  0  0  0
  147.4113  142.8914  153.7833 H   0  0  0  0  0  0  0  0  0  0  0  0
  147.8803  140.6984  152.6615 H   0  0  0  0  0  0  0  0  0  0  0  0
  147.4184  139.8105  154.2040 H   0  0  0  0  0  0  0  0  0  0  0  0
  1  2  1  0  0  0  0
  1 20  1  0  0  0  0
  1 21  1  0  0  0  0
  1 22  1  0  0  0  0
  2  3  1  0  0  0  0
  2 23  1  0  0  0  0
  2 24  1  0  0  0  0
  3 18  1  0  0  0  0
  3  4  1  0  0  0  0
  4  5  2  0  0  0  0
  4 25  1  0  0  0  0
  5  6  1  0  0  0  0
  5  8  1  0  0  0  0
  6  7  3  0  0  0  0
  8  9  2  0  0  0  0
  8 10  1  0  0  0  0
 10 11  1  0  0  0  0
 10 18  1  0  0  0  0
 11 12  1  0  0  0  0
 11 26  1  0  0  0  0
 11 27  1  0  0  0  0
 12 13  2  0  0  0  0
 12 14  1  0  0  0  0
 14 15  1  0  0  0  0
 14 28  1  0  0  0  0
 15 17  1  0  0  0  0
 15 16  1  0  0  0  0
 15 29  1  0  0  0  0
 16 17  1  0  0  0  0
 16 30  1  0  0  0  0
 16 31  1  0  0  0  0
 17 32  1  0  0  0  0
 17 33  1  0  0  0  0
 18 19  2  0  0  0  0
M  END
> <s_m_source_file>
AV-unprocessed.smi

> <i_m_source_file_index>
1975

> <i_lp_mmshare_version>
43012

> <i_f3d_flags>
0

> <s_epik_input>
W0NIM11bQ0gyXW4xW2NIXWMoQyNOKWMoPU8pbihjMT1PKVtDSDJdQyg9TylbTkhdW0NIXTJbQ0gyXVtDSDJdMg==

> <s_epik_cmdline>
J2VwaWtfcHl0aG9uJywgJy1waCcsICc3LjAnLCAnLXRuJywgJzgnLCAnLW1hJywgJzIwMCcsICctbWV0YWxfYmluZGluZycsICctaW1hZScsICc8aW5maWxlLm1hZT4nLCAnLW9tYWUnLCAnPG91dGZpbGUubWFlPic=

> <r_lp_tautomer_probability>
1

> <r_epik_Ionization_Penalty>
2.07081e-08

> <r_epik_Ionization_Penalty_Charging>
3.77987e-11

> <r_epik_Ionization_Penalty_Neutral>
2.06703e-08

> <r_epik_State_Penalty>
-0

> <r_epik_Charging_Adjusted_Penalty>
3.77987e-11

> <i_epik_Tot_Q>
0

> <i_epik_Tot_abs_Q>
0

> <r_epik_Metal_State_Penalty>
-0

> <b_epik_Metal_Only>
0

> <s_lp_Force_Field>
OPLS_2005

> <r_lp_Energy>
17.9293

> <b_lp_Chiralities_Consistent>
1

> <s_lp_Variant>
AV-unprocessed.smi:1975-1

> <Gold.Version>
5.8.1

> <Gold.Id.Protein>
6NUR|6NUR_protein|mol2

> <Gold.PLP.Fitness>
46.2671

> <Gold.PLP.PLP>
-41.3211

> <Gold.PLP.part.hbond>
-3.0000

> <Gold.PLP.part.metal>
0.0000

> <Gold.PLP.part.buried>
-3.6150

> <Gold.PLP.part.nonpolar>
-35.5921

> <Gold.PLP.part.repulsive>
0.2451

> <Gold.PLP.ligand.clash>
0.0000

> <Gold.PLP.ligand.torsion>
0.3181

> <Gold.PLP.Chemscore.Hbond>
1.8460

> <Gold.PLP.Chemscore.CHOScore>
0.0000

> <Gold.PLP.Chemscore.Metal>
0.0000

> <Gold.Chemscore.Hbonds>
donor molecule, donor type, donor heavy atom, donor atom, acceptor molecule, acceptor atom, score
      P1  H  7989  7998       L1    13  0.88
      P1  H  7997  8009       L1     9  0.93

> <Gold.PLP.Chemscore.Internal.Correction>
0.0443

> <Gold.Rescore>
     Score         DG    S(hbond)    S(metal)    S(lipo)     H(rot)  DE(clash)    DE(int)     intcor
     11.41     -13.10       1.15        0.00      73.62       1.89       0.15       1.54       ----

> <Gold.Chemscore.Fitness>
11.4077

> <Gold.Chemscore.DG>
-13.0993

> <Gold.Chemscore.ZeroCoef>
-5.4800

> <Gold.Chemscore.Hbond>
1.1491

> <Gold.Chemscore.Metal>
0.0000

> <Gold.Chemscore.Lipo>
73.6207

> <Gold.Chemscore.Internal_Hbond>
0.0000

> <Gold.Chemscore.DEClash>
0.1504

> <Gold.Chemscore.DEInternal>
1.5412

> <Gold.Chemscore.Rot>
1.8876

> <Gold.Chemscore.Internal.Correction>
   9.000000E+99

> <Gold.Chemscore.Hbonds>
donor molecule, donor type, donor heavy atom, donor atom, acceptor molecule, acceptor atom, score
      P1  H  7989  7998       L1    13  0.87
      P1  H  7997  8009       L1     9  0.20

> <Gold.Chemscore.Hbond.Weighted>
-3.8379

> <Gold.Chemscore.Metal.Weighted>
-0.0000

> <Gold.Chemscore.Lipo.Weighted>
-8.6136

> <Gold.Chemscore.Internal_Hbond.Weighted>
0.0000

> <Gold.Chemscore.DEClash.Weighted>
0.1504

> <Gold.Chemscore.DEInternal.Weighted>
1.5412

> <Gold.Chemscore.Rot.Weighted>
4.8323

> <Gold.Chemscore.Internal.Correction.Weighted>
   9.000000E+99

> <Gold.Protein.RotatedTorsions>
[ 6907 6896 6895 6894 ] final   87.66 input  -60.11 | X-H torsion
[ 7974 7965 7964 7962 ] final  151.02 input  175.53 | X-H torsion
[ 8008 7997 7996 7995 ] final  161.83 input   59.86 | X-H torsion
[ 10167 10162 10161 10158 ] final  -18.47 input  -65.29 | X-H torsion
[ 10718 10713 10712 10709 ] final  179.24 input   66.30 | X-H torsion
[ 10763 10752 10751 10750 ] final   64.80 input  -60.55 | X-H torsion
[ 11005 11000 10999 10996 ] final  118.64 input  -57.11 | X-H torsion

> <Gold.Protein.ActiveResidues>
 VAL166  LYS551  ARG553  GLY616  TRP617  ASP618  TYR619  PRO620  LYS621  CYS622 
 ASP623  PHE694  ASN695  SER759  ASP760  ASP761  ALA762  ILE779  LEU786  VAL792 
 PHE793  MET794  SER795  GLU796  ALA797  LYS798  CYS799  TRP800  GLU811  SER814 

> <Gold.Protein.RotatedAtoms>
  152.5414  134.2242  159.8799 H   0  0  0  0  0  0  0  0  0  0  0  0  # atno 6907 bound_to 6896
  151.2218  133.4491  159.2608 H   0  0  0  0  0  0  0  0  0  0  0  0  # atno 6908 bound_to 6896
  151.0798  134.9864  159.8406 H   0  0  0  0  0  0  0  0  0  0  0  0  # atno 6909 bound_to 6896
  144.8322  139.6483  143.6053 H   0  0  0  0  0  0  0  0  0  0  0  0  # atno 7974 bound_to 7965
  156.2075  140.1767  156.7767 H   0  0  0  0  0  0  0  0  0  0  0  0  # atno 8008 bound_to 7997
  154.5676  140.0688  156.8945 H   0  0  0  0  0  0  0  0  0  0  0  0  # atno 8009 bound_to 7997
  155.2732  140.3344  155.4266 H   0  0  0  0  0  0  0  0  0  0  0  0  # atno 8010 bound_to 7997
  140.7259  143.4914  150.9987 H   0  0  0  0  0  0  0  0  0  0  0  0  # atno 10167 bound_to 10162
  156.8787  130.9808  151.3064 H   0  0  0  0  0  0  0  0  0  0  0  0  # atno 10718 bound_to 10713
  153.0070  135.5380  154.6567 H   0  0  0  0  0  0  0  0  0  0  0  0  # atno 10763 bound_to 10752
  154.5786  135.2848  155.0758 H   0  0  0  0  0  0  0  0  0  0  0  0  # atno 10764 bound_to 10752
  154.1896  135.6502  153.5109 H   0  0  0  0  0  0  0  0  0  0  0  0  # atno 10765 bound_to 10752
  139.9117  134.9622  156.7534 H   0  0  0  0  0  0  0  0  0  0  0  0  # atno 11005 bound_to 11000
  146.2624  139.6441  142.9352 LP  0  0  0  0  0  0  0  0  0  0  0  0  # atno 17320 bound_to 7965
  145.4871  141.0438  143.2614 LP  0  0  0  0  0  0  0  0  0  0  0  0  # atno 17321 bound_to 7965
  139.8618  143.7305  152.3173 LP  0  0  0  0  0  0  0  0  0  0  0  0  # atno 17342 bound_to 10162
  139.7523  144.7531  151.0488 LP  0  0  0  0  0  0  0  0  0  0  0  0  # atno 17343 bound_to 10162
  157.6153  130.8613  149.9018 LP  0  0  0  0  0  0  0  0  0  0  0  0  # atno 17370 bound_to 10713
  156.0688  130.3688  150.0820 LP  0  0  0  0  0  0  0  0  0  0  0  0  # atno 17371 bound_to 10713
  140.6756  133.9521  155.7881 LP  0  0  0  0  0  0  0  0  0  0  0  0  # atno 17394 bound_to 11000
  141.0547  134.0434  157.3738 LP  0  0  0  0  0  0  0  0  0  0  0  0  # atno 17395 bound_to 11000

$$$$
