AV-unprocessed.smi:3161|AV-procd|sdf|12057|dock10
  -GOLD-   2272017483D 1   1.00000     0.00000
 Structure written by MMmdl.
 41 42  0  0  0  0  0  0  0  0  2 V2000
  145.0821  130.4924  151.2408 C   0  0  0  0  0  0  0  0  0  0  0  0
  144.8096  131.9387  150.9431 C   0  0  0  0  0  0  0  0  0  0  0  0
  143.6408  132.5049  150.3593 C   0  0  0  0  0  0  0  0  0  0  0  0
  143.7189  133.8186  150.2238 N   0  0  0  0  0  0  0  0  0  0  0  0
  144.9347  134.1372  150.7174 N   0  0  0  0  0  0  0  0  0  0  0  0
  145.3771  135.5211  150.7100 C   0  0  0  0  0  0  0  0  0  0  0  0
  145.3821  136.1346  152.1235 C   0  0  2  0  0  0  0  0  0  0  0  0
  143.9518  136.4108  152.6131 C   0  0  0  0  0  0  0  0  0  0  0  0
  146.1906  137.3743  152.1359 N   0  3  0  0  0  0  0  0  0  0  0  0
  146.2295  138.0925  153.4257 C   0  0  0  0  0  0  0  0  0  0  0  0
  147.3795  139.1085  153.4441 C   0  0  1  0  0  0  0  0  0  0  0  0
  146.9216  140.4881  153.9553 C   0  0  0  0  0  0  0  0  0  0  0  0
  148.1129  141.4470  154.0630 C   0  0  0  0  0  0  0  0  0  0  0  0
  149.2229  140.8019  154.8998 C   0  0  0  0  0  0  0  0  0  0  0  0
  149.5648  139.4090  154.3487 C   0  0  0  0  0  0  0  0  0  0  0  0
  148.3911  138.6031  154.3140 O   0  0  0  0  0  0  0  0  0  0  0  0
  145.6139  133.0218  151.1597 C   0  0  0  0  0  0  0  0  0  0  0  0
  144.1615  129.9342  151.4125 H   0  0  0  0  0  0  0  0  0  0  0  0
  145.7005  130.3716  152.1305 H   0  0  0  0  0  0  0  0  0  0  0  0
  145.6046  130.0055  150.4174 H   0  0  0  0  0  0  0  0  0  0  0  0
  142.7439  132.0017  150.0289 H   0  0  0  0  0  0  0  0  0  0  0  0
  146.3694  135.5766  150.2589 H   0  0  0  0  0  0  0  0  0  0  0  0
  144.7072  136.0837  150.0582 H   0  0  0  0  0  0  0  0  0  0  0  0
  145.8446  135.4103  152.7962 H   0  0  0  0  0  0  0  0  0  0  0  0
  143.3523  135.5002  152.6015 H   0  0  0  0  0  0  0  0  0  0  0  0
  143.4511  137.1447  151.9807 H   0  0  0  0  0  0  0  0  0  0  0  0
  143.9424  136.7898  153.6351 H   0  0  0  0  0  0  0  0  0  0  0  0
  147.1422  137.1081  151.9223 H   0  0  0  0  0  0  0  0  0  0  0  0
  145.2777  138.6013  153.5802 H   0  0  0  0  0  0  0  0  0  0  0  0
  146.3530  137.3811  154.2433 H   0  0  0  0  0  0  0  0  0  0  0  0
  147.7841  139.2112  152.4352 H   0  0  0  0  0  0  0  0  0  0  0  0
  146.1662  140.9077  153.2899 H   0  0  0  0  0  0  0  0  0  0  0  0
  146.4514  140.3813  154.9338 H   0  0  0  0  0  0  0  0  0  0  0  0
  148.4905  141.6774  153.0661 H   0  0  0  0  0  0  0  0  0  0  0  0
  147.8018  142.3929  154.5073 H   0  0  0  0  0  0  0  0  0  0  0  0
  150.1101  141.4360  154.9044 H   0  0  0  0  0  0  0  0  0  0  0  0
  148.8963  140.7120  155.9365 H   0  0  0  0  0  0  0  0  0  0  0  0
  150.0009  139.4799  153.3511 H   0  0  0  0  0  0  0  0  0  0  0  0
  150.3058  138.9252  154.9854 H   0  0  0  0  0  0  0  0  0  0  0  0
  146.6054  133.0891  151.5830 H   0  0  0  0  0  0  0  0  0  0  0  0
  145.8651  137.9947  151.4083 H   0  0  0  0  0  0  0  0  0  0  0  0
  1  2  1  0  0  0  0
  1 18  1  0  0  0  0
  1 19  1  0  0  0  0
  1 20  1  0  0  0  0
  2 17  2  0  0  0  0
  2  3  1  0  0  0  0
  3  4  2  0  0  0  0
  3 21  1  0  0  0  0
  4  5  1  0  0  0  0
  5  6  1  0  0  0  0
  5 17  1  0  0  0  0
  6  7  1  0  0  0  0
  6 22  1  0  0  0  0
  6 23  1  0  0  0  0
  7  8  1  0  0  0  0
  7  9  1  0  0  0  0
  7 24  1  0  0  0  0
  8 25  1  0  0  0  0
  8 26  1  0  0  0  0
  8 27  1  0  0  0  0
  9 10  1  0  0  0  0
  9 28  1  0  0  0  0
  9 41  1  0  0  0  0
 10 11  1  0  0  0  0
 10 29  1  0  0  0  0
 10 30  1  0  0  0  0
 11 16  1  0  0  0  0
 11 12  1  0  0  0  0
 11 31  1  0  0  0  0
 12 13  1  0  0  0  0
 12 32  1  0  0  0  0
 12 33  1  0  0  0  0
 13 14  1  0  0  0  0
 13 34  1  0  0  0  0
 13 35  1  0  0  0  0
 14 15  1  0  0  0  0
 14 36  1  0  0  0  0
 14 37  1  0  0  0  0
 15 16  1  0  0  0  0
 15 38  1  0  0  0  0
 15 39  1  0  0  0  0
 17 40  1  0  0  0  0
M  CHG  1   9   1
M  END
> <s_m_source_file>
AV-unprocessed.smi

> <i_m_source_file_index>
3161

> <i_lp_mmshare_version>
43012

> <i_f3d_flags>
0

> <s_epik_input>
W0NIM11jMVtjSF1ubihbY0hdMSlbQ0gyXVtDQEhdKFtDSDNdKVtOSF1bQ0gyXVtDQEBIXTJbQ0gyXVtDSDJdW0NIMl1bQ0gyXU8y

> <s_epik_cmdline>
J2VwaWtfcHl0aG9uJywgJy1waCcsICc3LjAnLCAnLXRuJywgJzgnLCAnLW1hJywgJzIwMCcsICctbWV0YWxfYmluZGluZycsICctaW1hZScsICc8aW5maWxlLm1hZT4nLCAnLW9tYWUnLCAnPG91dGZpbGUubWFlPic=

> <r_lp_tautomer_probability>
1

> <r_epik_Ionization_Penalty>
0.00849661

> <r_epik_Ionization_Penalty_Charging>
0.00848754

> <r_epik_Ionization_Penalty_Neutral>
9.06711e-06

> <r_epik_State_Penalty>
0.00639836

> <r_epik_Charging_Adjusted_Penalty>
0.0148859

> <i_epik_Tot_Q>
1

> <i_epik_Tot_abs_Q>
1

> <r_epik_Metal_State_Penalty>
0.00639921

> <b_epik_Metal_Only>
0

> <s_lp_Force_Field>
OPLS_2005

> <r_lp_Energy>
12.1076

> <b_lp_Chiralities_Consistent>
1

> <s_lp_Variant>
AV-unprocessed.smi:3161-3

> <Gold.Version>
5.8.1

> <Gold.Id.Protein>
6NUR|6NUR_protein|mol2

> <Gold.PLP.Fitness>
39.9732

> <Gold.PLP.PLP>
-33.8418

> <Gold.PLP.part.hbond>
-1.0000

> <Gold.PLP.part.metal>
0.0000

> <Gold.PLP.part.buried>
-4.8291

> <Gold.PLP.part.nonpolar>
-29.8171

> <Gold.PLP.part.repulsive>
1.0610

> <Gold.PLP.ligand.clash>
0.0000

> <Gold.PLP.ligand.torsion>
0.9992

> <Gold.PLP.Chemscore.Hbond>
2.0000

> <Gold.PLP.Chemscore.CHOScore>
0.7041

> <Gold.PLP.Chemscore.Metal>
0.0000

> <Gold.Chemscore.Hbonds>
donor molecule, donor type, donor heavy atom, donor atom, acceptor molecule, acceptor atom, score
      L1  H     9    28       P1  7948  2.00
      L1  C     3    21       P1 10952  0.89

> <Gold.PLP.Chemscore.Internal.Correction>
0.0174

> <Gold.Rescore>
     Score         DG    S(hbond)    S(metal)    S(lipo)     H(rot)  DE(clash)    DE(int)     intcor
     14.26     -15.31       0.99        0.00      90.13       1.57       0.01       1.04       ----

> <Gold.Chemscore.Fitness>
14.2629

> <Gold.Chemscore.DG>
-15.3138

> <Gold.Chemscore.ZeroCoef>
-5.4800

> <Gold.Chemscore.Hbond>
0.9916

> <Gold.Chemscore.Metal>
0.0000

> <Gold.Chemscore.Lipo>
90.1259

> <Gold.Chemscore.Internal_Hbond>
0.0000

> <Gold.Chemscore.DEClash>
0.0060

> <Gold.Chemscore.DEInternal>
1.0449

> <Gold.Chemscore.Rot>
1.5714

> <Gold.Chemscore.Internal.Correction>
   9.000000E+99

> <Gold.Chemscore.Hbonds>
donor molecule, donor type, donor heavy atom, donor atom, acceptor molecule, acceptor atom, score
      L1  H     9    28       P1  7948  0.97

> <Gold.Chemscore.Hbond.Weighted>
-3.3119

> <Gold.Chemscore.Metal.Weighted>
-0.0000

> <Gold.Chemscore.Lipo.Weighted>
-10.5447

> <Gold.Chemscore.Internal_Hbond.Weighted>
0.0000

> <Gold.Chemscore.DEClash.Weighted>
0.0060

> <Gold.Chemscore.DEInternal.Weighted>
1.0449

> <Gold.Chemscore.Rot.Weighted>
4.0228

> <Gold.Chemscore.Internal.Correction.Weighted>
   9.000000E+99

> <Gold.Protein.RotatedTorsions>
[ 6907 6896 6895 6894 ] final -117.10 input  -60.11 | X-H torsion
[ 7974 7965 7964 7962 ] final  -88.79 input  175.53 | X-H torsion
[ 8008 7997 7996 7995 ] final  151.44 input   59.86 | X-H torsion
[ 10167 10162 10161 10158 ] final  -72.42 input  -65.29 | X-H torsion
[ 10718 10713 10712 10709 ] final   43.61 input   66.30 | X-H torsion
[ 10763 10752 10751 10750 ] final   99.40 input  -60.55 | X-H torsion
[ 11005 11000 10999 10996 ] final   16.30 input  -57.11 | X-H torsion

> <Gold.Protein.ActiveResidues>
 VAL166  LYS551  ARG553  GLY616  TRP617  ASP618  TYR619  PRO620  LYS621  CYS622 
 ASP623  PHE694  ASN695  SER759  ASP760  ASP761  ALA762  ILE779  LEU786  VAL792 
 PHE793  MET794  SER795  GLU796  ALA797  LYS798  CYS799  TRP800  GLU811  SER814 

> <Gold.Protein.RotatedAtoms>
  150.8109  133.8423  159.3182 H   0  0  0  0  0  0  0  0  0  0  0  0  # atno 6907 bound_to 6896
  151.6208  135.1030  160.0111 H   0  0  0  0  0  0  0  0  0  0  0  0  # atno 6908 bound_to 6896
  152.4201  133.7062  159.6509 H   0  0  0  0  0  0  0  0  0  0  0  0  # atno 6909 bound_to 6896
  145.4484  140.9560  143.2036 H   0  0  0  0  0  0  0  0  0  0  0  0  # atno 7974 bound_to 7965
  156.2673  140.2047  156.6177 H   0  0  0  0  0  0  0  0  0  0  0  0  # atno 8008 bound_to 7997
  154.6782  140.0543  157.0262 H   0  0  0  0  0  0  0  0  0  0  0  0  # atno 8009 bound_to 7997
  155.1039  140.3209  155.4542 H   0  0  0  0  0  0  0  0  0  0  0  0  # atno 8010 bound_to 7997
  140.5194  143.2333  151.7456 H   0  0  0  0  0  0  0  0  0  0  0  0  # atno 10167 bound_to 10162
  157.4178  130.7951  149.7487 H   0  0  0  0  0  0  0  0  0  0  0  0  # atno 10718 bound_to 10713
  153.3009  135.4115  155.1252 H   0  0  0  0  0  0  0  0  0  0  0  0  # atno 10763 bound_to 10752
  154.8549  135.3541  154.5853 H   0  0  0  0  0  0  0  0  0  0  0  0  # atno 10764 bound_to 10752
  153.6278  135.7062  153.5345 H   0  0  0  0  0  0  0  0  0  0  0  0  # atno 10765 bound_to 10752
  140.4487  134.1247  155.7699 H   0  0  0  0  0  0  0  0  0  0  0  0  # atno 11005 bound_to 11000
  144.8077  139.6021  143.7043 LP  0  0  0  0  0  0  0  0  0  0  0  0  # atno 17320 bound_to 7965
  146.2518  139.6215  142.9422 LP  0  0  0  0  0  0  0  0  0  0  0  0  # atno 17321 bound_to 7965
  139.4919  144.4277  151.9908 LP  0  0  0  0  0  0  0  0  0  0  0  0  # atno 17342 bound_to 10162
  140.3373  144.3246  150.5974 LP  0  0  0  0  0  0  0  0  0  0  0  0  # atno 17343 bound_to 10162
  155.9870  130.3970  150.3183 LP  0  0  0  0  0  0  0  0  0  0  0  0  # atno 17370 bound_to 10713
  157.1328  131.0276  151.2962 LP  0  0  0  0  0  0  0  0  0  0  0  0  # atno 17371 bound_to 10713
  141.1674  133.8677  157.1675 LP  0  0  0  0  0  0  0  0  0  0  0  0  # atno 17394 bound_to 11000
  140.0021  135.0023  157.0213 LP  0  0  0  0  0  0  0  0  0  0  0  0  # atno 17395 bound_to 11000

$$$$
