AV-unprocessed.smi:601|AV-procd|sdf|3032|dock7
  -GOLD-   2262023543D 1   1.00000     0.00000
 Structure written by MMmdl.
 50 51  0  0  0  0  0  0  0  0  1 V2000
  151.8291  136.3248  159.2281 C   0  0  0  0  0  0  0  0  0  0  0  0
  152.0630  136.6997  157.7605 C   0  0  0  0  0  0  0  0  0  0  0  0
  151.8954  138.2039  157.5041 C   0  0  0  0  0  0  0  0  0  0  0  0
  150.4185  138.6372  157.4881 C   0  0  0  0  0  0  0  0  0  0  0  0
  150.2669  140.0687  157.1869 N   0  0  0  0  0  0  0  0  0  0  0  0
  150.8357  141.0141  157.9805 C   0  0  0  0  0  0  0  0  0  0  0  0
  151.5804  140.7124  158.9154 O   0  0  0  0  0  0  0  0  0  0  0  0
  150.5055  142.5098  157.7367 C   0  0  1  0  0  0  0  0  0  0  0  0
  150.0214  143.2721  158.9772 C   0  0  0  0  0  0  0  0  0  0  0  0
  151.3000  143.7425  159.6597 C   0  0  0  0  0  0  0  0  0  0  0  0
  152.3863  143.5612  158.5954 C   0  0  0  0  0  0  0  0  0  0  0  0
  151.6859  143.2305  157.4012 O   0  0  0  0  0  0  0  0  0  0  0  0
  149.4742  140.4014  156.0740 C   0  0  0  0  0  0  0  0  0  0  0  0
  148.2086  140.8958  156.2185 C   0  0  0  0  0  0  0  0  0  0  0  0
  147.6808  141.1061  157.4842 N   0  0  0  0  0  0  0  0  0  0  0  0
  147.4095  141.2013  155.1127 N   0  0  0  0  0  0  0  0  0  0  0  0
  146.0657  141.7355  155.2150 C   0  0  0  0  0  0  0  0  0  0  0  0
  145.8561  142.9844  154.3424 C   0  0  0  0  0  0  0  0  0  0  0  0
  144.4010  143.4622  154.3502 C   0  0  0  0  0  0  0  0  0  0  0  0
  147.8848  140.9509  153.8027 C   0  0  0  0  0  0  0  0  0  0  0  0
  147.2212  141.1597  152.7866 O   0  0  0  0  0  0  0  0  0  0  0  0
  149.1704  140.4351  153.6821 N   0  0  0  0  0  0  0  0  0  0  0  0
  150.0250  140.1329  154.7392 C   0  0  0  0  0  0  0  0  0  0  0  0
  151.1404  139.6707  154.5017 O   0  0  0  0  0  0  0  0  0  0  0  0
  149.5113  140.2587  152.7483 H   0  0  0  0  0  0  0  0  0  0  0  0
  151.9577  135.2531  159.3811 H   0  0  0  0  0  0  0  0  0  0  0  0
  150.8193  136.5868  159.5454 H   0  0  0  0  0  0  0  0  0  0  0  0
  152.5316  136.8414  159.8826 H   0  0  0  0  0  0  0  0  0  0  0  0
  153.0650  136.3869  157.4646 H   0  0  0  0  0  0  0  0  0  0  0  0
  151.3672  136.1418  157.1328 H   0  0  0  0  0  0  0  0  0  0  0  0
  152.4378  138.7603  158.2691 H   0  0  0  0  0  0  0  0  0  0  0  0
  152.3601  138.4593  156.5513 H   0  0  0  0  0  0  0  0  0  0  0  0
  149.8813  138.0456  156.7449 H   0  0  0  0  0  0  0  0  0  0  0  0
  149.9454  138.4020  158.4431 H   0  0  0  0  0  0  0  0  0  0  0  0
  149.7680  142.5951  156.9383 H   0  0  0  0  0  0  0  0  0  0  0  0
  149.4369  144.1370  158.6615 H   0  0  0  0  0  0  0  0  0  0  0  0
  149.3856  142.6798  159.6365 H   0  0  0  0  0  0  0  0  0  0  0  0
  151.2133  144.7819  159.9775 H   0  0  0  0  0  0  0  0  0  0  0  0
  151.5244  143.1400  160.5408 H   0  0  0  0  0  0  0  0  0  0  0  0
  152.9875  144.4598  158.4564 H   0  0  0  0  0  0  0  0  0  0  0  0
  153.0577  142.7438  158.8628 H   0  0  0  0  0  0  0  0  0  0  0  0
  148.2082  140.9033  158.3214 H   0  0  0  0  0  0  0  0  0  0  0  0
  146.7300  141.4187  157.6190 H   0  0  0  0  0  0  0  0  0  0  0  0
  145.3816  140.9344  154.9367 H   0  0  0  0  0  0  0  0  0  0  0  0
  145.8563  141.9302  156.2685 H   0  0  0  0  0  0  0  0  0  0  0  0
  146.4992  143.7933  154.6906 H   0  0  0  0  0  0  0  0  0  0  0  0
  146.1580  142.7711  153.3164 H   0  0  0  0  0  0  0  0  0  0  0  0
  144.2789  144.3460  153.7237 H   0  0  0  0  0  0  0  0  0  0  0  0
  144.0783  143.7217  155.3589 H   0  0  0  0  0  0  0  0  0  0  0  0
  143.7311  142.6898  153.9710 H   0  0  0  0  0  0  0  0  0  0  0  0
  1  2  1  0  0  0  0
  1 26  1  0  0  0  0
  1 27  1  0  0  0  0
  1 28  1  0  0  0  0
  2  3  1  0  0  0  0
  2 29  1  0  0  0  0
  2 30  1  0  0  0  0
  3  4  1  0  0  0  0
  3 31  1  0  0  0  0
  3 32  1  0  0  0  0
  4  5  1  0  0  0  0
  4 33  1  0  0  0  0
  4 34  1  0  0  0  0
  5  6  1  0  0  0  0
  5 13  1  0  0  0  0
  6  7  2  0  0  0  0
  6  8  1  0  0  0  0
  8 12  1  0  0  0  0
  8  9  1  0  0  0  0
  8 35  1  0  0  0  0
  9 10  1  0  0  0  0
  9 36  1  0  0  0  0
  9 37  1  0  0  0  0
 10 11  1  0  0  0  0
 10 38  1  0  0  0  0
 10 39  1  0  0  0  0
 11 12  1  0  0  0  0
 11 40  1  0  0  0  0
 11 41  1  0  0  0  0
 13 23  1  0  0  0  0
 13 14  2  0  0  0  0
 14 15  1  0  0  0  0
 14 16  1  0  0  0  0
 15 42  1  0  0  0  0
 15 43  1  0  0  0  0
 16 17  1  0  0  0  0
 16 20  1  0  0  0  0
 17 18  1  0  0  0  0
 17 44  1  0  0  0  0
 17 45  1  0  0  0  0
 18 19  1  0  0  0  0
 18 46  1  0  0  0  0
 18 47  1  0  0  0  0
 19 48  1  0  0  0  0
 19 49  1  0  0  0  0
 19 50  1  0  0  0  0
 20 21  2  0  0  0  0
 20 22  1  0  0  0  0
 22 25  1  0  0  0  0
 22 23  1  0  0  0  0
 23 24  2  0  0  0  0
M  END
> <s_m_source_file>
AV-unprocessed.smi

> <i_m_source_file_index>
601

> <i_lp_mmshare_version>
43012

> <i_f3d_flags>
0

> <s_epik_input>
TzFbQ0gyXVtDSDJdW0NIMl1bQ0BIXTFDKD1PKU4oW0NIMl1bQ0gyXVtDSDJdW0NIM10pYzJjKFtOSDJdKW4oW0NIMl1bQ0gyXVtDSDNdKWMoPU8pW25IXWMyPU8=

> <s_epik_cmdline>
J2VwaWtfcHl0aG9uJywgJy1waCcsICc3LjAnLCAnLXRuJywgJzgnLCAnLW1hJywgJzIwMCcsICctbWV0YWxfYmluZGluZycsICctaW1hZScsICc8aW5maWxlLm1hZT4nLCAnLW9tYWUnLCAnPG91dGZpbGUubWFlPic=

> <r_lp_tautomer_probability>
1

> <r_epik_Ionization_Penalty>
6.19718e-05

> <r_epik_Ionization_Penalty_Charging>
2.78773e-05

> <r_epik_Ionization_Penalty_Neutral>
3.40944e-05

> <r_epik_State_Penalty>
-0

> <r_epik_Charging_Adjusted_Penalty>
2.78773e-05

> <i_epik_Tot_Q>
0

> <i_epik_Tot_abs_Q>
0

> <r_epik_Metal_State_Penalty>
0.0271358

> <b_epik_Metal_Only>
0

> <s_lp_Force_Field>
OPLS_2005

> <r_lp_Energy>
41.2463

> <b_lp_Chiralities_Consistent>
1

> <s_lp_Variant>
AV-unprocessed.smi:601-2

> <Gold.Version>
5.8.1

> <Gold.Id.Protein>
6NUR|6NUR_protein|mol2

> <Gold.PLP.Fitness>
44.3241

> <Gold.PLP.PLP>
-39.6126

> <Gold.PLP.part.hbond>
-1.8401

> <Gold.PLP.part.metal>
0.0000

> <Gold.PLP.part.buried>
-4.4666

> <Gold.PLP.part.nonpolar>
-34.5535

> <Gold.PLP.part.repulsive>
0.6513

> <Gold.PLP.ligand.clash>
0.0000

> <Gold.PLP.ligand.torsion>
1.6003

> <Gold.PLP.Chemscore.Hbond>
1.8288

> <Gold.PLP.Chemscore.CHOScore>
0.0000

> <Gold.PLP.Chemscore.Metal>
0.0000

> <Gold.Chemscore.Hbonds>
donor molecule, donor type, donor heavy atom, donor atom, acceptor molecule, acceptor atom, score
      L1  H    22    25       P1  7957  1.00
      P1  H  7989  7998       L1    24  0.85

> <Gold.PLP.Chemscore.Internal.Correction>
2.4259

> <Gold.Rescore>
     Score         DG    S(hbond)    S(metal)    S(lipo)     H(rot)  DE(clash)    DE(int)     intcor
     10.10     -14.53       1.46        0.00      78.51       1.96       0.15       4.28       ----

> <Gold.Chemscore.Fitness>
10.1041

> <Gold.Chemscore.DG>
-14.5288

> <Gold.Chemscore.ZeroCoef>
-5.4800

> <Gold.Chemscore.Hbond>
1.4616

> <Gold.Chemscore.Metal>
0.0000

> <Gold.Chemscore.Lipo>
78.5077

> <Gold.Chemscore.Internal_Hbond>
0.0000

> <Gold.Chemscore.DEClash>
0.1475

> <Gold.Chemscore.DEInternal>
4.2771

> <Gold.Chemscore.Rot>
1.9603

> <Gold.Chemscore.Internal.Correction>
   9.000000E+99

> <Gold.Chemscore.Hbonds>
donor molecule, donor type, donor heavy atom, donor atom, acceptor molecule, acceptor atom, score
      L1  H    22    25       P1  7957  0.99
      P1  H  7989  7998       L1    24  0.15

> <Gold.Chemscore.Hbond.Weighted>
-4.8819

> <Gold.Chemscore.Metal.Weighted>
-0.0000

> <Gold.Chemscore.Lipo.Weighted>
-9.1854

> <Gold.Chemscore.Internal_Hbond.Weighted>
0.0000

> <Gold.Chemscore.DEClash.Weighted>
0.1475

> <Gold.Chemscore.DEInternal.Weighted>
4.2771

> <Gold.Chemscore.Rot.Weighted>
5.0185

> <Gold.Chemscore.Internal.Correction.Weighted>
   9.000000E+99

> <Gold.Protein.RotatedTorsions>
[ 6907 6896 6895 6894 ] final   -0.49 input  -60.11 | X-H torsion
[ 7974 7965 7964 7962 ] final  102.51 input  175.53 | X-H torsion
[ 8008 7997 7996 7995 ] final  -54.28 input   59.86 | X-H torsion
[ 10167 10162 10161 10158 ] final   69.82 input  -65.29 | X-H torsion
[ 10718 10713 10712 10709 ] final  -80.47 input   66.30 | X-H torsion
[ 10763 10752 10751 10750 ] final   72.06 input  -60.55 | X-H torsion
[ 11005 11000 10999 10996 ] final   26.63 input  -57.11 | X-H torsion

> <Gold.Protein.ActiveResidues>
 VAL166  LYS551  ARG553  GLY616  TRP617  ASP618  TYR619  PRO620  LYS621  CYS622 
 ASP623  PHE694  ASN695  SER759  ASP760  ASP761  ALA762  ILE779  LEU786  VAL792 
 PHE793  MET794  SER795  GLU796  ALA797  LYS798  CYS799  TRP800  GLU811  SER814 

> <Gold.Protein.RotatedAtoms>
  151.5614  135.1065  159.9973 H   0  0  0  0  0  0  0  0  0  0  0  0  # atno 6907 bound_to 6896
  152.4445  133.7505  159.6702 H   0  0  0  0  0  0  0  0  0  0  0  0  # atno 6908 bound_to 6896
  150.8357  133.7949  159.3104 H   0  0  0  0  0  0  0  0  0  0  0  0  # atno 6909 bound_to 6896
  145.3581  139.2424  143.3522 H   0  0  0  0  0  0  0  0  0  0  0  0  # atno 7974 bound_to 7965
  154.4158  140.1180  156.5290 H   0  0  0  0  0  0  0  0  0  0  0  0  # atno 8008 bound_to 7997
  155.6625  140.3496  155.4768 H   0  0  0  0  0  0  0  0  0  0  0  0  # atno 8009 bound_to 7997
  155.9701  140.1140  157.0809 H   0  0  0  0  0  0  0  0  0  0  0  0  # atno 8010 bound_to 7997
  140.0637  144.5211  150.7276 H   0  0  0  0  0  0  0  0  0  0  0  0  # atno 10167 bound_to 10162
  156.0069  130.4575  150.3805 H   0  0  0  0  0  0  0  0  0  0  0  0  # atno 10718 bound_to 10713
  153.0436  135.5114  154.7686 H   0  0  0  0  0  0  0  0  0  0  0  0  # atno 10763 bound_to 10752
  154.6604  135.2938  154.9875 H   0  0  0  0  0  0  0  0  0  0  0  0  # atno 10764 bound_to 10752
  154.0728  135.6675  153.4879 H   0  0  0  0  0  0  0  0  0  0  0  0  # atno 10765 bound_to 10752
  140.3350  134.2396  155.7697 H   0  0  0  0  0  0  0  0  0  0  0  0  # atno 11005 bound_to 11000
  146.2939  140.4210  142.8729 LP  0  0  0  0  0  0  0  0  0  0  0  0  # atno 17320 bound_to 7965
  144.8667  140.7216  143.6073 LP  0  0  0  0  0  0  0  0  0  0  0  0  # atno 17321 bound_to 7965
  140.7159  143.2544  151.4434 LP  0  0  0  0  0  0  0  0  0  0  0  0  # atno 17342 bound_to 10162
  139.5878  144.1566  152.2051 LP  0  0  0  0  0  0  0  0  0  0  0  0  # atno 17343 bound_to 10162
  157.1885  131.0409  151.2712 LP  0  0  0  0  0  0  0  0  0  0  0  0  # atno 17370 bound_to 10713
  157.4082  130.7371  149.6819 LP  0  0  0  0  0  0  0  0  0  0  0  0  # atno 17371 bound_to 10713
  141.2053  133.7862  157.0237 LP  0  0  0  0  0  0  0  0  0  0  0  0  # atno 17394 bound_to 11000
  140.0829  134.9638  157.1653 LP  0  0  0  0  0  0  0  0  0  0  0  0  # atno 17395 bound_to 11000

$$$$
