AV-unprocessed.smi:845|AV-procd|sdf|3932|dock9
  -GOLD-   22720 1393D 1   1.00000     0.00000
 Structure written by MMmdl.
 42 43  0  0  0  0  0  0  0  0  3 V2000
  148.3353  133.5932  153.5622 C   0  0  0  0  0  0  0  0  0  0  0  0
  149.5436  134.1652  154.3306 C   0  0  0  0  0  0  0  0  0  0  0  0
  150.2878  133.0054  155.0199 C   0  0  0  0  0  0  0  0  0  0  0  0
  149.1232  135.2918  155.3189 C   0  0  1  0  0  0  0  0  0  0  0  0
  149.5968  135.0143  156.7770 C   0  0  0  0  0  0  0  0  0  0  0  0
  148.8040  135.6905  157.7983 N   0  0  0  0  0  0  0  0  0  0  0  0
  149.2912  136.3925  158.8308 C   0  0  0  0  0  0  0  0  0  0  0  0
  150.5095  136.5312  158.9605 O   0  0  0  0  0  0  0  0  0  0  0  0
  148.3348  136.8686  159.6582 N   0  5  0  0  0  0  0  0  0  0  0  0
  147.8874  136.1115  160.6728 C   0  0  0  0  0  0  0  0  0  0  0  0
  147.5162  136.6186  161.8537 N   0  0  0  0  0  0  0  0  0  0  0  0
  147.0759  135.6513  162.7587 C   0  0  0  0  0  0  0  0  0  0  0  0
  147.1061  134.3790  162.2521 C   0  0  0  0  0  0  0  0  0  0  0  0
  147.6918  134.3576  160.6131 S   0  0  0  0  0  0  0  0  0  0  0  0
  149.5524  136.6211  154.7793 N   0  3  0  0  0  0  0  0  0  0  0  0
  148.6290  137.7520  155.0439 C   0  0  0  0  0  0  0  0  0  0  0  0
  149.0563  138.9773  154.2199 C   0  0  0  0  0  0  0  0  0  0  0  0
  150.4058  139.3134  154.5232 O   0  0  0  0  0  0  0  0  0  0  0  0
  151.3083  138.2610  154.2015 C   0  0  0  0  0  0  0  0  0  0  0  0
  150.9625  137.0111  155.0270 C   0  0  0  0  0  0  0  0  0  0  0  0
  147.5908  133.1826  154.2453 H   0  0  0  0  0  0  0  0  0  0  0  0
  148.6417  132.7928  152.8881 H   0  0  0  0  0  0  0  0  0  0  0  0
  147.8443  134.3486  152.9485 H   0  0  0  0  0  0  0  0  0  0  0  0
  150.2276  134.5884  153.5941 H   0  0  0  0  0  0  0  0  0  0  0  0
  149.7054  132.5946  155.8454 H   0  0  0  0  0  0  0  0  0  0  0  0
  151.2560  133.3163  155.4108 H   0  0  0  0  0  0  0  0  0  0  0  0
  150.4853  132.1938  154.3190 H   0  0  0  0  0  0  0  0  0  0  0  0
  148.0321  135.2878  155.3275 H   0  0  0  0  0  0  0  0  0  0  0  0
  149.5708  133.9472  156.9969 H   0  0  0  0  0  0  0  0  0  0  0  0
  150.6366  135.3164  156.9024 H   0  0  0  0  0  0  0  0  0  0  0  0
  147.8001  135.6108  157.7264 H   0  0  0  0  0  0  0  0  0  0  0  0
  146.7576  135.9584  163.7437 H   0  0  0  0  0  0  0  0  0  0  0  0
  146.8208  133.4588  162.7391 H   0  0  0  0  0  0  0  0  0  0  0  0
  147.6070  137.4738  154.7838 H   0  0  0  0  0  0  0  0  0  0  0  0
  148.6334  138.0164  156.0997 H   0  0  0  0  0  0  0  0  0  0  0  0
  148.9493  138.7842  153.1513 H   0  0  0  0  0  0  0  0  0  0  0  0
  148.4181  139.8293  154.4553 H   0  0  0  0  0  0  0  0  0  0  0  0
  151.2672  138.0450  153.1326 H   0  0  0  0  0  0  0  0  0  0  0  0
  152.3249  138.5869  154.4221 H   0  0  0  0  0  0  0  0  0  0  0  0
  151.1180  137.2239  156.0850 H   0  0  0  0  0  0  0  0  0  0  0  0
  151.6335  136.1952  154.7584 H   0  0  0  0  0  0  0  0  0  0  0  0
  149.4904  136.4965  153.7792 H   0  0  0  0  0  0  0  0  0  0  0  0
  1  2  1  0  0  0  0
  1 21  1  0  0  0  0
  1 22  1  0  0  0  0
  1 23  1  0  0  0  0
  2  3  1  0  0  0  0
  2  4  1  0  0  0  0
  2 24  1  0  0  0  0
  3 25  1  0  0  0  0
  3 26  1  0  0  0  0
  3 27  1  0  0  0  0
  4  5  1  0  0  0  0
  4 15  1  0  0  0  0
  4 28  1  0  0  0  0
  5  6  1  0  0  0  0
  5 29  1  0  0  0  0
  5 30  1  0  0  0  0
  6  7  1  0  0  0  0
  6 31  1  0  0  0  0
  7  8  2  0  0  0  0
  7  9  1  0  0  0  0
  9 10  1  0  0  0  0
 10 14  1  0  0  0  0
 10 11  2  0  0  0  0
 11 12  1  0  0  0  0
 12 13  2  0  0  0  0
 12 32  1  0  0  0  0
 13 14  1  0  0  0  0
 13 33  1  0  0  0  0
 15 20  1  0  0  0  0
 15 16  1  0  0  0  0
 15 42  1  0  0  0  0
 16 17  1  0  0  0  0
 16 34  1  0  0  0  0
 16 35  1  0  0  0  0
 17 18  1  0  0  0  0
 17 36  1  0  0  0  0
 17 37  1  0  0  0  0
 18 19  1  0  0  0  0
 19 20  1  0  0  0  0
 19 38  1  0  0  0  0
 19 39  1  0  0  0  0
 20 40  1  0  0  0  0
 20 41  1  0  0  0  0
M  CHG  1   9  -1
M  CHG  1  15   1
M  END
> <s_m_source_file>
AV-unprocessed.smi

> <i_m_source_file_index>
845

> <i_lp_mmshare_version>
43012

> <i_f3d_flags>
0

> <s_epik_input>
W0NIMl0xW0NIMl1PW0NIMl1bQ0gyXU4xW0NASF0oW0NIXShbQ0gzXSlbQ0gzXSlbQ0gyXVtOSF1DKD1PKVtOSF1jMm5bY0hdW2NIXXMy

> <s_epik_cmdline>
J2VwaWtfcHl0aG9uJywgJy1waCcsICc3LjAnLCAnLXRuJywgJzgnLCAnLW1hJywgJzIwMCcsICctbWV0YWxfYmluZGluZycsICctaW1hZScsICc8aW5maWxlLm1hZT4nLCAnLW9tYWUnLCAnPG91dGZpbGUubWFlPic=

> <r_lp_tautomer_probability>
0.999

> <r_epik_Ionization_Penalty>
7.97104

> <r_epik_Ionization_Penalty_Charging>
6.58021

> <r_epik_Ionization_Penalty_Neutral>
1.39083

> <r_epik_State_Penalty>
6.69807

> <r_epik_Charging_Adjusted_Penalty>
13.2783

> <i_epik_Tot_Q>
0

> <i_epik_Tot_abs_Q>
2

> <r_epik_Metal_State_Penalty>
2.62985

> <b_epik_Metal_Only>
1

> <s_lp_Force_Field>
OPLS_2005

> <r_lp_Energy>
19.9677

> <b_lp_Chiralities_Consistent>
1

> <s_lp_Variant>
AV-unprocessed.smi:845-6

> <Gold.Version>
5.8.1

> <Gold.Id.Protein>
6NUR|6NUR_protein|mol2

> <Gold.PLP.Fitness>
45.9964

> <Gold.PLP.PLP>
-36.2953

> <Gold.PLP.part.hbond>
-6.0048

> <Gold.PLP.part.metal>
0.0000

> <Gold.PLP.part.buried>
-2.2541

> <Gold.PLP.part.nonpolar>
-27.3117

> <Gold.PLP.part.repulsive>
0.2443

> <Gold.PLP.ligand.clash>
0.0000

> <Gold.PLP.ligand.torsion>
3.2878

> <Gold.PLP.Chemscore.Hbond>
5.2922

> <Gold.PLP.Chemscore.CHOScore>
0.0000

> <Gold.PLP.Chemscore.Metal>
0.0000

> <Gold.Chemscore.Hbonds>
donor molecule, donor type, donor heavy atom, donor atom, acceptor molecule, acceptor atom, score
      L1  H    15    42       P1  7948  2.00
      P1  H  6896  6907       L1     8  1.00
      P1  H  6931  6943       L1    11  0.44
      P1  H  7989  7998       L1    18  0.33

> <Gold.PLP.Chemscore.Internal.Correction>
0.4000

> <Gold.Rescore>
     Score         DG    S(hbond)    S(metal)    S(lipo)     H(rot)  DE(clash)    DE(int)     intcor
     16.56     -20.18       3.16        0.00      73.92       1.76       0.21       3.41       ----

> <Gold.Chemscore.Fitness>
16.5616

> <Gold.Chemscore.DG>
-20.1751

> <Gold.Chemscore.ZeroCoef>
-5.4800

> <Gold.Chemscore.Hbond>
3.1612

> <Gold.Chemscore.Metal>
0.0000

> <Gold.Chemscore.Lipo>
73.9154

> <Gold.Chemscore.Internal_Hbond>
0.0000

> <Gold.Chemscore.DEClash>
0.2070

> <Gold.Chemscore.DEInternal>
3.4065

> <Gold.Chemscore.Rot>
1.7623

> <Gold.Chemscore.Internal.Correction>
   9.000000E+99

> <Gold.Chemscore.Hbonds>
donor molecule, donor type, donor heavy atom, donor atom, acceptor molecule, acceptor atom, score
      L1  H    15    42       P1  7948  0.76
      P1  H  6896  6907       L1     8  0.55
      P1  H  6931  6943       L1    11  0.08
      P1  H  7989  7998       L1    18  0.03

> <Gold.Chemscore.Hbond.Weighted>
-10.5585

> <Gold.Chemscore.Metal.Weighted>
-0.0000

> <Gold.Chemscore.Lipo.Weighted>
-8.6481

> <Gold.Chemscore.Internal_Hbond.Weighted>
0.0000

> <Gold.Chemscore.DEClash.Weighted>
0.2070

> <Gold.Chemscore.DEInternal.Weighted>
3.4065

> <Gold.Chemscore.Rot.Weighted>
4.5116

> <Gold.Chemscore.Internal.Correction.Weighted>
   9.000000E+99

> <Gold.Protein.RotatedTorsions>
[ 6907 6896 6895 6894 ] final  -29.72 input  -60.11 | X-H torsion
[ 7974 7965 7964 7962 ] final -133.62 input  175.53 | X-H torsion
[ 8008 7997 7996 7995 ] final  -31.09 input   59.86 | X-H torsion
[ 10167 10162 10161 10158 ] final -107.40 input  -65.29 | X-H torsion
[ 10718 10713 10712 10709 ] final   84.24 input   66.30 | X-H torsion
[ 10763 10752 10751 10750 ] final -177.28 input  -60.55 | X-H torsion
[ 11005 11000 10999 10996 ] final   68.12 input  -57.11 | X-H torsion

> <Gold.Protein.ActiveResidues>
 VAL166  LYS551  ARG553  GLY616  TRP617  ASP618  TYR619  PRO620  LYS621  CYS622 
 ASP623  PHE694  ASN695  SER759  ASP760  ASP761  ALA762  ILE779  LEU786  VAL792 
 PHE793  MET794  SER795  GLU796  ALA797  LYS798  CYS799  TRP800  GLU811  SER814 

> <Gold.Protein.RotatedAtoms>
  151.1153  135.0049  159.8512 H   0  0  0  0  0  0  0  0  0  0  0  0  # atno 6907 bound_to 6896
  152.5445  134.1787  159.8637 H   0  0  0  0  0  0  0  0  0  0  0  0  # atno 6908 bound_to 6896
  151.1841  133.4662  159.2627 H   0  0  0  0  0  0  0  0  0  0  0  0  # atno 6909 bound_to 6896
  144.9176  140.6974  143.4985 H   0  0  0  0  0  0  0  0  0  0  0  0  # atno 7974 bound_to 7965
  154.4226  140.1774  156.1510 H   0  0  0  0  0  0  0  0  0  0  0  0  # atno 8008 bound_to 7997
  155.9915  140.3368  155.6733 H   0  0  0  0  0  0  0  0  0  0  0  0  # atno 8009 bound_to 7997
  155.6366  140.0675  157.2622 H   0  0  0  0  0  0  0  0  0  0  0  0  # atno 8010 bound_to 7997
  140.1774  143.3994  152.1308 H   0  0  0  0  0  0  0  0  0  0  0  0  # atno 10167 bound_to 10162
  157.6894  131.0125  150.2643 H   0  0  0  0  0  0  0  0  0  0  0  0  # atno 10718 bound_to 10713
  154.5621  135.2821  155.0909 H   0  0  0  0  0  0  0  0  0  0  0  0  # atno 10763 bound_to 10752
  154.2314  135.6373  153.5180 H   0  0  0  0  0  0  0  0  0  0  0  0  # atno 10764 bound_to 10752
  153.0032  135.5538  154.6218 H   0  0  0  0  0  0  0  0  0  0  0  0  # atno 10765 bound_to 10752
  139.9730  134.6869  156.0409 H   0  0  0  0  0  0  0  0  0  0  0  0  # atno 11005 bound_to 11000
  145.3349  139.1749  143.4517 LP  0  0  0  0  0  0  0  0  0  0  0  0  # atno 17320 bound_to 7965
  146.3189  140.3383  142.8646 LP  0  0  0  0  0  0  0  0  0  0  0  0  # atno 17321 bound_to 7965
  139.5311  144.7160  151.5053 LP  0  0  0  0  0  0  0  0  0  0  0  0  # atno 17342 bound_to 10162
  140.6542  143.8633  150.6817 LP  0  0  0  0  0  0  0  0  0  0  0  0  # atno 17343 bound_to 10162
  156.3217  130.3787  149.7569 LP  0  0  0  0  0  0  0  0  0  0  0  0  # atno 17370 bound_to 10713
  156.5137  130.8184  151.3178 LP  0  0  0  0  0  0  0  0  0  0  0  0  # atno 17371 bound_to 10713
  141.1409  133.6565  156.3726 LP  0  0  0  0  0  0  0  0  0  0  0  0  # atno 17394 bound_to 11000
  140.5254  134.6264  157.5332 LP  0  0  0  0  0  0  0  0  0  0  0  0  # atno 17395 bound_to 11000

$$$$
