AV-unprocessed.smi:1565|AV-procd|sdf|6297|dock6
  -GOLD-   22720 6493D 1   1.00000     0.00000
 Structure written by MMmdl.
 40 41  0  0  0  0  0  0  0  0  1 V2000
  149.4162  142.9570  157.5041 C   0  0  0  0  0  0  0  0  0  0  0  0
  150.9248  143.1889  157.3055 C   0  0  2  0  0  0  0  0  0  0  0  0
  151.7902  141.9844  157.7251 C   0  0  0  0  0  0  0  0  0  0  0  0
  151.8850  141.8887  159.1791 N   0  0  0  0  0  0  0  0  0  0  0  0
  152.3961  140.6715  159.6776 C   0  0  0  0  0  0  0  0  0  0  0  0
  153.4933  140.6753  160.5704 C   0  0  0  0  0  0  0  0  0  0  0  0
  153.9855  139.4502  161.0600 C   0  0  0  0  0  0  0  0  0  0  0  0
  153.3677  138.2491  160.6535 C   0  0  0  0  0  0  0  0  0  0  0  0
  153.8782  136.9234  161.1392 C   0  0  0  0  0  0  0  0  0  0  0  0
  153.6391  135.8891  160.5158 O   0  0  0  0  0  0  0  0  0  0  0  0
  154.6444  136.9654  162.2408 N   0  0  0  0  0  0  0  0  0  0  0  0
  155.2926  135.8134  162.8588 C   0  0  0  0  0  0  0  0  0  0  0  0
  154.8845  135.6440  164.3320 C   0  0  0  0  0  0  0  0  0  0  0  0
  155.5636  136.5161  165.0758 F   0  0  0  0  0  0  0  0  0  0  0  0
  153.5811  135.8711  164.4950 F   0  0  0  0  0  0  0  0  0  0  0  0
  155.1713  134.4114  164.7513 F   0  0  0  0  0  0  0  0  0  0  0  0
  152.2902  138.3438  159.7450 C   0  0  0  0  0  0  0  0  0  0  0  0
  151.8156  139.5154  159.2725 N   0  0  0  0  0  0  0  0  0  0  0  0
  152.3256  143.1299  159.8094 C   0  0  0  0  0  0  0  0  0  0  0  0
  151.4196  144.2982  159.3826 C   0  0  1  0  0  0  0  0  0  0  0  0
  151.9279  145.6406  159.9185 C   0  0  0  0  0  0  0  0  0  0  0  0
  151.3802  144.3765  157.9582 O   0  0  0  0  0  0  0  0  0  0  0  0
  149.0696  142.1274  156.8876 H   0  0  0  0  0  0  0  0  0  0  0  0
  148.8459  143.8409  157.2183 H   0  0  0  0  0  0  0  0  0  0  0  0
  149.1667  142.7164  158.5372 H   0  0  0  0  0  0  0  0  0  0  0  0
  151.0798  143.3516  156.2386 H   0  0  0  0  0  0  0  0  0  0  0  0
  151.3865  141.0761  157.2795 H   0  0  0  0  0  0  0  0  0  0  0  0
  152.7987  142.1036  157.3272 H   0  0  0  0  0  0  0  0  0  0  0  0
  153.9693  141.5966  160.8715 H   0  0  0  0  0  0  0  0  0  0  0  0
  154.8255  139.4416  161.7396 H   0  0  0  0  0  0  0  0  0  0  0  0
  154.8092  137.8639  162.6708 H   0  0  0  0  0  0  0  0  0  0  0  0
  155.0020  134.9268  162.2946 H   0  0  0  0  0  0  0  0  0  0  0  0
  156.3776  135.8899  162.7702 H   0  0  0  0  0  0  0  0  0  0  0  0
  151.7894  137.4600  159.3775 H   0  0  0  0  0  0  0  0  0  0  0  0
  152.2995  143.0319  160.8955 H   0  0  0  0  0  0  0  0  0  0  0  0
  153.3596  143.3294  159.5241 H   0  0  0  0  0  0  0  0  0  0  0  0
  150.4130  144.1406  159.7702 H   0  0  0  0  0  0  0  0  0  0  0  0
  151.9640  145.6396  161.0082 H   0  0  0  0  0  0  0  0  0  0  0  0
  151.2746  146.4562  159.6084 H   0  0  0  0  0  0  0  0  0  0  0  0
  152.9309  145.8587  159.5501 H   0  0  0  0  0  0  0  0  0  0  0  0
  1  2  1  0  0  0  0
  1 23  1  0  0  0  0
  1 24  1  0  0  0  0
  1 25  1  0  0  0  0
  2 22  1  0  0  0  0
  2  3  1  0  0  0  0
  2 26  1  0  0  0  0
  3  4  1  0  0  0  0
  3 27  1  0  0  0  0
  3 28  1  0  0  0  0
  4  5  1  0  0  0  0
  4 19  1  0  0  0  0
  5 18  1  0  0  0  0
  5  6  2  0  0  0  0
  6  7  1  0  0  0  0
  6 29  1  0  0  0  0
  7  8  2  0  0  0  0
  7 30  1  0  0  0  0
  8  9  1  0  0  0  0
  8 17  1  0  0  0  0
  9 10  2  0  0  0  0
  9 11  1  0  0  0  0
 11 12  1  0  0  0  0
 11 31  1  0  0  0  0
 12 13  1  0  0  0  0
 12 32  1  0  0  0  0
 12 33  1  0  0  0  0
 13 14  1  0  0  0  0
 13 15  1  0  0  0  0
 13 16  1  0  0  0  0
 17 18  2  0  0  0  0
 17 34  1  0  0  0  0
 19 20  1  0  0  0  0
 19 35  1  0  0  0  0
 19 36  1  0  0  0  0
 20 21  1  0  0  0  0
 20 22  1  0  0  0  0
 20 37  1  0  0  0  0
 21 38  1  0  0  0  0
 21 39  1  0  0  0  0
 21 40  1  0  0  0  0
M  END
> <s_m_source_file>
AV-unprocessed.smi

> <i_m_source_file_index>
1565

> <i_lp_mmshare_version>
43012

> <i_f3d_flags>
0

> <s_epik_input>
W0NIM11bQ0BASF0xW0NIMl1OKFtDSDJdW0NASF0oTzEpW0NIM10pYzJbY0hdW2NIXWMoW2NIXW4yKUMoPU8pW05IXVtDSDJdQyhGKShGKUY=

> <s_epik_cmdline>
J2VwaWtfcHl0aG9uJywgJy1waCcsICc3LjAnLCAnLXRuJywgJzgnLCAnLW1hJywgJzIwMCcsICctbWV0YWxfYmluZGluZycsICctaW1hZScsICc8aW5maWxlLm1hZT4nLCAnLW9tYWUnLCAnPG91dGZpbGUubWFlPic=

> <r_lp_tautomer_probability>
1

> <r_epik_Ionization_Penalty>
1.48031e-05

> <r_epik_Ionization_Penalty_Charging>
0

> <r_epik_Ionization_Penalty_Neutral>
1.48031e-05

> <r_epik_State_Penalty>
-0

> <r_epik_Charging_Adjusted_Penalty>
0

> <i_epik_Tot_Q>
0

> <i_epik_Tot_abs_Q>
0

> <r_epik_Metal_State_Penalty>
0.00620302

> <b_epik_Metal_Only>
0

> <s_lp_Force_Field>
OPLS_2005

> <r_lp_Energy>
19.6517

> <b_lp_Chiralities_Consistent>
1

> <s_lp_Variant>
AV-unprocessed.smi:1565-1

> <Gold.Version>
5.8.1

> <Gold.Id.Protein>
6NUR|6NUR_protein|mol2

> <Gold.PLP.Fitness>
37.0662

> <Gold.PLP.PLP>
-34.8962

> <Gold.PLP.part.hbond>
-1.0000

> <Gold.PLP.part.metal>
0.0000

> <Gold.PLP.part.buried>
-2.1007

> <Gold.PLP.part.nonpolar>
-31.5676

> <Gold.PLP.part.repulsive>
0.1441

> <Gold.PLP.ligand.clash>
0.0000

> <Gold.PLP.ligand.torsion>
0.5846

> <Gold.PLP.Chemscore.Hbond>
1.0000

> <Gold.PLP.Chemscore.CHOScore>
0.0000

> <Gold.PLP.Chemscore.Metal>
0.0000

> <Gold.Chemscore.Hbonds>
donor molecule, donor type, donor heavy atom, donor atom, acceptor molecule, acceptor atom, score
      P1  H  6896  6909       L1    10  1.00

> <Gold.PLP.Chemscore.Internal.Correction>
0.3392

> <Gold.Rescore>
     Score         DG    S(hbond)    S(metal)    S(lipo)     H(rot)  DE(clash)    DE(int)     intcor
     15.41     -16.17       1.00        0.00      91.41       1.31       0.35       0.42       ----

> <Gold.Chemscore.Fitness>
15.4098

> <Gold.Chemscore.DG>
-16.1740

> <Gold.Chemscore.ZeroCoef>
-5.4800

> <Gold.Chemscore.Hbond>
1.0000

> <Gold.Chemscore.Metal>
0.0000

> <Gold.Chemscore.Lipo>
91.4137

> <Gold.Chemscore.Internal_Hbond>
0.0000

> <Gold.Chemscore.DEClash>
0.3490

> <Gold.Chemscore.DEInternal>
0.4152

> <Gold.Chemscore.Rot>
1.3052

> <Gold.Chemscore.Internal.Correction>
   9.000000E+99

> <Gold.Chemscore.Hbonds>
donor molecule, donor type, donor heavy atom, donor atom, acceptor molecule, acceptor atom, score
      P1  H  6896  6909       L1    10  1.00

> <Gold.Chemscore.Hbond.Weighted>
-3.3400

> <Gold.Chemscore.Metal.Weighted>
-0.0000

> <Gold.Chemscore.Lipo.Weighted>
-10.6954

> <Gold.Chemscore.Internal_Hbond.Weighted>
0.0000

> <Gold.Chemscore.DEClash.Weighted>
0.3490

> <Gold.Chemscore.DEInternal.Weighted>
0.4152

> <Gold.Chemscore.Rot.Weighted>
3.3414

> <Gold.Chemscore.Internal.Correction.Weighted>
   9.000000E+99

> <Gold.Protein.RotatedTorsions>
[ 6907 6896 6895 6894 ] final  163.35 input  -60.11 | X-H torsion
[ 7974 7965 7964 7962 ] final  -72.19 input  175.53 | X-H torsion
[ 8008 7997 7996 7995 ] final   51.48 input   59.86 | X-H torsion
[ 10167 10162 10161 10158 ] final  -65.58 input  -65.29 | X-H torsion
[ 10718 10713 10712 10709 ] final  136.17 input   66.30 | X-H torsion
[ 10763 10752 10751 10750 ] final  140.81 input  -60.55 | X-H torsion
[ 11005 11000 10999 10996 ] final -151.54 input  -57.11 | X-H torsion

> <Gold.Protein.ActiveResidues>
 VAL166  LYS551  ARG553  GLY616  TRP617  ASP618  TYR619  PRO620  LYS621  CYS622 
 ASP623  PHE694  ASN695  SER759  ASP760  ASP761  ALA762  ILE779  LEU786  VAL792 
 PHE793  MET794  SER795  GLU796  ALA797  LYS798  CYS799  TRP800  GLU811  SER814 

> <Gold.Protein.RotatedAtoms>
  151.9265  133.3599  159.3915 H   0  0  0  0  0  0  0  0  0  0  0  0  # atno 6907 bound_to 6896
  150.7026  134.4582  159.5377 H   0  0  0  0  0  0  0  0  0  0  0  0  # atno 6908 bound_to 6896
  152.2214  134.8409  160.0536 H   0  0  0  0  0  0  0  0  0  0  0  0  # atno 6909 bound_to 6896
  145.6684  140.9229  143.0896 H   0  0  0  0  0  0  0  0  0  0  0  0  # atno 7974 bound_to 7965
  155.4361  140.3452  155.4285 H   0  0  0  0  0  0  0  0  0  0  0  0  # atno 8008 bound_to 7997
  156.1307  140.1513  156.9100 H   0  0  0  0  0  0  0  0  0  0  0  0  # atno 8009 bound_to 7997
  154.4893  140.0846  156.7537 H   0  0  0  0  0  0  0  0  0  0  0  0  # atno 8010 bound_to 7997
  140.5719  143.2318  151.6520 H   0  0  0  0  0  0  0  0  0  0  0  0  # atno 10167 bound_to 10162
  157.4495  131.1064  151.0050 H   0  0  0  0  0  0  0  0  0  0  0  0  # atno 10718 bound_to 10713
  153.9288  135.2992  155.3446 H   0  0  0  0  0  0  0  0  0  0  0  0  # atno 10763 bound_to 10752
  154.7537  135.4968  153.9339 H   0  0  0  0  0  0  0  0  0  0  0  0  # atno 10764 bound_to 10752
  153.1102  135.6757  153.9618 H   0  0  0  0  0  0  0  0  0  0  0  0  # atno 10765 bound_to 10752
  140.7285  134.3647  157.5171 H   0  0  0  0  0  0  0  0  0  0  0  0  # atno 11005 bound_to 11000
  144.7065  139.8540  143.7428 LP  0  0  0  0  0  0  0  0  0  0  0  0  # atno 17320 bound_to 7965
  146.1066  139.4067  143.0313 LP  0  0  0  0  0  0  0  0  0  0  0  0  # atno 17321 bound_to 7965
  139.5122  144.3483  152.0676 LP  0  0  0  0  0  0  0  0  0  0  0  0  # atno 17342 bound_to 10162
  140.2622  144.4055  150.6181 LP  0  0  0  0  0  0  0  0  0  0  0  0  # atno 17343 bound_to 10162
  157.0885  130.5932  149.5435 LP  0  0  0  0  0  0  0  0  0  0  0  0  # atno 17370 bound_to 10713
  155.9981  130.5054  150.7558 LP  0  0  0  0  0  0  0  0  0  0  0  0  # atno 17371 bound_to 10713
  139.8831  134.9002  156.2784 LP  0  0  0  0  0  0  0  0  0  0  0  0  # atno 17394 bound_to 11000
  140.9941  133.7190  156.0859 LP  0  0  0  0  0  0  0  0  0  0  0  0  # atno 17395 bound_to 11000

$$$$
