#       Name:                AV-unprocessed.smi:2583
#       Creating user name   scv26
#       Creation time:       Fri Mar 27 14:15:24 2020


#       File generated by GOLD software.
#

@<TRIPOS>MOLECULE
AV-unprocessed.smi:2583
    58    60     1
SMALL
NO_CHARGES


@<TRIPOS>ATOM
      1 ****        -5.2354   6.5438   0.7487 C.3            1 S1                 0.0000
      2 ****        -5.2766   5.0906   0.3252 C.ar           1 S1                 0.0000
      3 ****        -6.4787   4.4903  -0.1030 C.ar           1 S1                 0.0000
      4 ****        -6.5673   3.1970  -0.4781 N.ar           1 S1                 0.0000
      5 ****        -5.4432   2.4505  -0.4433 C.ar           1 S1                 0.0000
      6 ****        -4.1843   2.9490  -0.0469 C.ar           1 S1                 0.0000
      7 ****        -3.0839   2.0505  -0.0353 N.am           1 S1                 0.0000
      8 ****        -1.7721   2.3373  -0.0884 C.2            1 S1                 0.0000
      9 ****        -1.2958   3.4650  -0.2136 O.2            1 S1                 0.0000
     10 ****        -1.0318   1.2225  -0.0077 N.am           1 S1                 0.0000
     11 ****         0.4271   1.1618  -0.0349 C.3            1 S1                 0.0000
     12 ****         0.9001   0.4469  -1.3145 C.3            1 S1                 0.0000
     13 ****         2.4217   0.2043  -1.2871 C.3            1 S1                 0.0000
     14 ****         2.8385  -0.5672  -0.0809 N.4            1 S1                 1.0000
     15 ****         2.4434  -2.0169  -0.0796 C.3            1 S1                 0.0000
     16 ****         2.9626  -2.7659   1.1713 C.3            1 S1                 0.0000
     17 ****         2.6649  -4.2737   1.1131 C.3            1 S1                 0.0000
     18 ****         3.2748  -4.8593  -0.0770 N.3            1 S1                 0.0000
     19 ****         3.0498  -6.2980  -0.0771 C.3            1 S1                 0.0000
     20 ****         2.6709  -4.2738  -1.2703 C.3            1 S1                 0.0000
     21 ****         2.9691  -2.7662  -1.3274 C.3            1 S1                 0.0000
     22 ****         2.4612   0.1977   1.1420 C.3            1 S1                 0.0000
     23 ****         0.9410   0.4335   1.2207 C.3            1 S1                 0.0000
     24 ****        -4.1078   4.3037   0.3570 C.ar           1 S1                 0.0000
     25 ****        -6.2100   7.0191   0.6327 H              1 S1                 0.0000
     26 ****        -4.5137   7.0931   0.1435 H              1 S1                 0.0000
     27 ****        -4.9380   6.6233   1.7946 H              1 S1                 0.0000
     28 ****        -7.3966   5.0585  -0.1404 H              1 S1                 0.0000
     29 ****        -5.5530   1.4195  -0.7468 H              1 S1                 0.0000
     30 ****        -3.3268   1.0707  -0.0297 H              1 S1                 0.0000
     31 ****        -1.5183   0.3427   0.0851 H              1 S1                 0.0000
     32 ****         0.8530   2.1669  -0.0333 H              1 S1                 0.0000
     33 ****         0.3748  -0.5011  -1.4356 H              1 S1                 0.0000
     34 ****         0.6423   1.0475  -2.1875 H              1 S1                 0.0000
     35 ****         2.7590  -0.2614  -2.2106 H              1 S1                 0.0000
     36 ****         2.9312   1.1688  -1.2649 H              1 S1                 0.0000
     37 ****         1.3559  -2.0889  -0.0812 H              1 S1                 0.0000
     38 ****         4.0369  -2.6105   1.2821 H              1 S1                 0.0000
     39 ****         2.4934  -2.3844   2.0768 H              1 S1                 0.0000
     40 ****         3.0688  -4.7566   2.0039 H              1 S1                 0.0000
     41 ****         1.5876  -4.4494   1.1147 H              1 S1                 0.0000
     42 ****         3.5047  -6.7560  -0.9563 H              1 S1                 0.0000
     43 ****         1.9852  -6.5370  -0.0792 H              1 S1                 0.0000
     44 ****         3.5012  -6.7556   0.8039 H              1 S1                 0.0000
     45 ****         3.0794  -4.7571  -2.1588 H              1 S1                 0.0000
     46 ****         1.5938  -4.4497  -1.2775 H              1 S1                 0.0000
     47 ****         2.5058  -2.3844  -2.2360 H              1 S1                 0.0000
     48 ****         4.0441  -2.6107  -1.4322 H              1 S1                 0.0000
     49 ****         2.8321  -0.2700   2.0516 H              1 S1                 0.0000
     50 ****         2.9657   1.1643   1.1065 H              1 S1                 0.0000
     51 ****         0.7084   1.0232   2.1082 H              1 S1                 0.0000
     52 ****         0.4233  -0.5182   1.3461 H              1 S1                 0.0000
     53 ****        -3.1861   4.7454   0.7033 H              1 S1                 0.0000
     54 ****         3.8485  -0.5741  -0.0966 H              1 S1                 0.0000
     55 ****        -7.4384   2.8040  -0.7726 LP             1 S1                 0.0000
     56 ****        -1.9007   4.2581  -0.2849 LP             1 S1                 0.0000
     57 ****        -0.3039   3.5882  -0.2441 LP             1 S1                 0.0000
     58 ****         4.2575  -4.6741  -0.0748 LP             1 S1                 0.0000
@<TRIPOS>BOND
    1    1    2 1     
    2    1   25 1     
    3    1   26 1     
    4    1   27 1     
    5    2   24 ar    
    6    2    3 ar    
    7    3    4 ar    
    8    3   28 1     
    9    4    5 ar    
   10    5    6 ar    
   11    5   29 1     
   12    6    7 1     
   13    6   24 ar    
   14    7    8 am    
   15    7   30 1     
   16    8    9 2     
   17    8   10 am    
   18   10   11 1     
   19   10   31 1     
   20   11   23 1     
   21   11   12 1     
   22   11   32 1     
   23   12   13 1     
   24   12   33 1     
   25   12   34 1     
   26   13   14 1     
   27   13   35 1     
   28   13   36 1     
   29   14   15 1     
   30   14   22 1     
   31   14   54 1     
   32   15   21 1     
   33   15   16 1     
   34   15   37 1     
   35   16   17 1     
   36   16   38 1     
   37   16   39 1     
   38   17   18 1     
   39   17   40 1     
   40   17   41 1     
   41   18   19 1     
   42   18   20 1     
   43   19   42 1     
   44   19   43 1     
   45   19   44 1     
   46   20   21 1     
   47   20   45 1     
   48   20   46 1     
   49   21   47 1     
   50   21   48 1     
   51   22   23 1     
   52   22   49 1     
   53   22   50 1     
   54   23   51 1     
   55   23   52 1     
   56   24   53 1     
   57    4   55 1     
   58    9   56 1     
   59    9   57 1     
   60   18   58 1     
@<TRIPOS>SUBSTRUCTURE
      1 S1             1
@<TRIPOS>SET
LONE_PAIRS      STATIC     ATOMS    <user>   **** ""
4 55 56 57 58
DONOR_HYDROGENS      STATIC     ATOMS    <user>   **** ""
3 30 31 54
ATOM$BLUE        STATIC     ATOMS    COLORGROUP SYSTEM
4 55 56 57 58
ATOM$RED        STATIC     ATOMS    COLORGROUP SYSTEM
3 30 31 54
