AV-unprocessed.smi:169|AV-procd|sdf|1402|dock2
  -GOLD-   2262019153D 1   1.00000     0.00000
 Structure written by MMmdl.
 56 60  0  0  0  0  0  0  0  0  2 V2000
  152.0839  144.4624  157.8295 C   0  0  0  0  0  0  0  0  0  0  0  0
  151.2978  143.4642  158.6976 C   0  0  0  0  0  0  0  0  0  0  0  0
  151.1908  142.1068  158.1015 N   0  3  2  0  0  0  0  0  0  0  0  0
  152.4290  141.2784  158.3264 C   0  0  0  0  0  0  0  0  0  0  0  0
  152.2148  139.7213  158.2297 C   0  0  0  0  0  0  0  0  0  0  0  0
  151.2232  139.3157  157.1218 C   0  0  3  0  0  0  0  0  0  0  0  0
  151.2866  138.9589  155.6310 C   0  0  0  0  0  0  0  0  0  0  0  0
  150.3746  140.0831  155.0387 C   0  0  0  0  0  0  0  0  0  0  0  0
  149.8198  140.8666  156.2748 C   0  0  2  0  0  0  0  0  0  0  0  0
  150.6572  142.1314  156.6875 C   0  0  0  0  0  0  0  0  0  0  0  0
  149.9041  139.8838  157.3376 N   0  0  0  0  0  0  0  0  0  0  0  0
  148.8445  139.0733  157.5951 C   0  0  0  0  0  0  0  0  0  0  0  0
  147.7224  139.1772  156.8347 N   0  0  0  0  0  0  0  0  0  0  0  0
  146.6728  138.3837  157.0655 C   0  0  0  0  0  0  0  0  0  0  0  0
  146.5398  137.4230  157.9813 N   0  0  0  0  0  0  0  0  0  0  0  0
  147.6714  137.2939  158.7312 C   0  0  0  0  0  0  0  0  0  0  0  0
  148.8571  138.0725  158.6082 C   0  0  0  0  0  0  0  0  0  0  0  0
  149.7980  137.6456  159.5379 N   0  0  0  0  0  0  0  0  0  0  0  0
  149.1974  136.6835  160.1831 C   0  0  0  0  0  0  0  0  0  0  0  0
  147.9230  136.3915  159.7510 N   0  0  0  0  0  0  0  0  0  0  0  0
  147.0299  135.3680  160.2781 C   0  0  0  0  0  0  0  0  0  0  0  0
  146.5757  135.5845  161.7409 C   0  0  0  0  0  0  0  0  0  0  0  0
  145.5925  134.4432  162.0548 C   0  0  0  0  0  0  0  0  0  0  0  0
  144.4402  134.4702  161.2363 O   0  0  0  0  0  0  0  0  0  0  0  0
  147.6766  135.8760  162.7776 C   0  0  0  0  0  0  0  0  0  0  0  0
  147.4073  137.2948  162.7330 O   0  0  0  0  0  0  0  0  0  0  0  0
  146.1365  137.0136  162.1059 C   0  0  0  0  0  0  0  0  0  0  0  0
  152.1192  145.4400  158.3108 H   0  0  0  0  0  0  0  0  0  0  0  0
  151.6231  144.5995  156.8513 H   0  0  0  0  0  0  0  0  0  0  0  0
  153.1140  144.1414  157.6749 H   0  0  0  0  0  0  0  0  0  0  0  0
  151.7664  143.3858  159.6793 H   0  0  0  0  0  0  0  0  0  0  0  0
  150.2940  143.8502  158.8803 H   0  0  0  0  0  0  0  0  0  0  0  0
  153.1896  141.5897  157.6087 H   0  0  0  0  0  0  0  0  0  0  0  0
  152.8437  141.4977  159.3113 H   0  0  0  0  0  0  0  0  0  0  0  0
  153.1731  139.2161  158.0977 H   0  0  0  0  0  0  0  0  0  0  0  0
  151.8202  139.3637  159.1814 H   0  0  0  0  0  0  0  0  0  0  0  0
  151.8558  140.0658  156.6625 H   0  0  0  0  0  0  0  0  0  0  0  0
  152.2891  138.9279  155.1920 H   0  0  0  0  0  0  0  0  0  0  0  0
  150.8323  137.9822  155.4605 H   0  0  0  0  0  0  0  0  0  0  0  0
  150.9132  140.7336  154.3490 H   0  0  0  0  0  0  0  0  0  0  0  0
  149.5550  139.6289  154.4804 H   0  0  0  0  0  0  0  0  0  0  0  0
  148.7949  141.1720  156.0708 H   0  0  0  0  0  0  0  0  0  0  0  0
  150.0029  142.9963  156.5695 H   0  0  0  0  0  0  0  0  0  0  0  0
  151.4838  142.2999  155.9961 H   0  0  0  0  0  0  0  0  0  0  0  0
  145.8193  138.5378  156.4218 H   0  0  0  0  0  0  0  0  0  0  0  0
  149.6759  136.1542  160.9939 H   0  0  0  0  0  0  0  0  0  0  0  0
  146.1625  135.3181  159.6187 H   0  0  0  0  0  0  0  0  0  0  0  0
  147.5346  134.4066  160.1733 H   0  0  0  0  0  0  0  0  0  0  0  0
  146.0724  133.4729  161.9226 H   0  0  0  0  0  0  0  0  0  0  0  0
  145.2632  134.4916  163.0934 H   0  0  0  0  0  0  0  0  0  0  0  0
  144.6104  135.0306  160.4945 H   0  0  0  0  0  0  0  0  0  0  0  0
  147.4831  135.4649  163.7695 H   0  0  0  0  0  0  0  0  0  0  0  0
  148.6871  135.6252  162.4601 H   0  0  0  0  0  0  0  0  0  0  0  0
  145.9304  137.6569  161.2519 H   0  0  0  0  0  0  0  0  0  0  0  0
  145.3170  137.0685  162.8239 H   0  0  0  0  0  0  0  0  0  0  0  0
  150.4680  141.6563  158.6450 H   0  0  0  0  0  0  0  0  0  0  0  0
  1  2  1  0  0  0  0
  1 28  1  0  0  0  0
  1 29  1  0  0  0  0
  1 30  1  0  0  0  0
  2  3  1  0  0  0  0
  2 31  1  0  0  0  0
  2 32  1  0  0  0  0
  3 10  1  0  0  0  0
  3  4  1  0  0  0  0
  3 56  1  0  0  0  0
  4  5  1  0  0  0  0
  4 33  1  0  0  0  0
  4 34  1  0  0  0  0
  5  6  1  0  0  0  0
  5 35  1  0  0  0  0
  5 36  1  0  0  0  0
  6 11  1  0  0  0  0
  6  7  1  0  0  0  0
  6 37  1  0  0  0  0
  7  8  1  0  0  0  0
  7 38  1  0  0  0  0
  7 39  1  0  0  0  0
  8  9  1  0  0  0  0
  8 40  1  0  0  0  0
  8 41  1  0  0  0  0
  9 10  1  0  0  0  0
  9 11  1  0  0  0  0
  9 42  1  0  0  0  0
 10 43  1  0  0  0  0
 10 44  1  0  0  0  0
 11 12  1  0  0  0  0
 12 17  1  0  0  0  0
 12 13  2  0  0  0  0
 13 14  1  0  0  0  0
 14 15  2  0  0  0  0
 14 45  1  0  0  0  0
 15 16  1  0  0  0  0
 16 20  1  0  0  0  0
 16 17  2  0  0  0  0
 17 18  1  0  0  0  0
 18 19  2  0  0  0  0
 19 20  1  0  0  0  0
 19 46  1  0  0  0  0
 20 21  1  0  0  0  0
 21 22  1  0  0  0  0
 21 47  1  0  0  0  0
 21 48  1  0  0  0  0
 22 27  1  0  0  0  0
 22 23  1  0  0  0  0
 22 25  1  0  0  0  0
 23 24  1  0  0  0  0
 23 49  1  0  0  0  0
 23 50  1  0  0  0  0
 24 51  1  0  0  0  0
 25 26  1  0  0  0  0
 25 52  1  0  0  0  0
 25 53  1  0  0  0  0
 26 27  1  0  0  0  0
 27 54  1  0  0  0  0
 27 55  1  0  0  0  0
M  CHG  1   3   1
M  END
> <s_m_source_file>
AV-unprocessed.smi

> <i_m_source_file_index>
169

> <i_lp_mmshare_version>
43012

> <i_f3d_flags>
0

> <s_epik_input>
W0NASF0xMltDSDJdW0NIMl1OKFtDSDJdW0NIM10pW0NIMl1bQ0BIXShbQ0gyXVtDSDJdMSlOMmMobltjSF1uMyljKGMzNCluW2NIXW40W0NIMl1DNShbQ0gyXVtPSF0pW0NIMl1PW0NIMl01

> <s_epik_cmdline>
J2VwaWtfcHl0aG9uJywgJy1waCcsICc3LjAnLCAnLXRuJywgJzgnLCAnLW1hJywgJzIwMCcsICctbWV0YWxfYmluZGluZycsICctaW1hZScsICc8aW5maWxlLm1hZT4nLCAnLW9tYWUnLCAnPG91dGZpbGUubWFlPic=

> <r_lp_tautomer_probability>
1

> <r_epik_Ionization_Penalty>
0.00274162

> <r_epik_Ionization_Penalty_Charging>
0.00243722

> <r_epik_Ionization_Penalty_Neutral>
0.000304399

> <r_epik_State_Penalty>
-0

> <r_epik_Charging_Adjusted_Penalty>
0.00243722

> <i_epik_Tot_Q>
1

> <i_epik_Tot_abs_Q>
1

> <r_epik_Metal_State_Penalty>
-0

> <b_epik_Metal_Only>
0

> <s_lp_Force_Field>
OPLS_2005

> <r_lp_Energy>
131.144

> <b_lp_Chiralities_Consistent>
1

> <s_lp_Variant>
AV-unprocessed.smi:169-5

> <Gold.Version>
5.8.1

> <Gold.Id.Protein>
6NUR|6NUR_protein|mol2

> <Gold.PLP.Fitness>
43.0254

> <Gold.PLP.PLP>
-41.0645

> <Gold.PLP.part.hbond>
-2.3093

> <Gold.PLP.part.metal>
0.0000

> <Gold.PLP.part.buried>
-5.4033

> <Gold.PLP.part.nonpolar>
-33.2554

> <Gold.PLP.part.repulsive>
0.0605

> <Gold.PLP.ligand.clash>
0.0000

> <Gold.PLP.ligand.torsion>
0.3638

> <Gold.PLP.Chemscore.Hbond>
0.7454

> <Gold.PLP.Chemscore.CHOScore>
0.0000

> <Gold.PLP.Chemscore.Metal>
0.0000

> <Gold.Chemscore.Hbonds>
donor molecule, donor type, donor heavy atom, donor atom, acceptor molecule, acceptor atom, score
      P1  H  6931  6943       L1    26  0.67

> <Gold.PLP.Chemscore.Internal.Correction>
0.4522

> <Gold.Rescore>
     Score         DG    S(hbond)    S(metal)    S(lipo)     H(rot)  DE(clash)    DE(int)     intcor
     13.86     -14.38       0.85        0.00     109.09       2.62       0.21       0.31       ----

> <Gold.Chemscore.Fitness>
13.8559

> <Gold.Chemscore.DG>
-14.3810

> <Gold.Chemscore.ZeroCoef>
-5.4800

> <Gold.Chemscore.Hbond>
0.8524

> <Gold.Chemscore.Metal>
0.0000

> <Gold.Chemscore.Lipo>
109.0944

> <Gold.Chemscore.Internal_Hbond>
0.0000

> <Gold.Chemscore.DEClash>
0.2110

> <Gold.Chemscore.DEInternal>
0.3140

> <Gold.Chemscore.Rot>
2.6212

> <Gold.Chemscore.Internal.Correction>
   9.000000E+99

> <Gold.Chemscore.Hbonds>
donor molecule, donor type, donor heavy atom, donor atom, acceptor molecule, acceptor atom, score
      P1  H  6931  6943       L1    26  0.45

> <Gold.Chemscore.Hbond.Weighted>
-2.8471

> <Gold.Chemscore.Metal.Weighted>
-0.0000

> <Gold.Chemscore.Lipo.Weighted>
-12.7640

> <Gold.Chemscore.Internal_Hbond.Weighted>
0.0000

> <Gold.Chemscore.DEClash.Weighted>
0.2110

> <Gold.Chemscore.DEInternal.Weighted>
0.3140

> <Gold.Chemscore.Rot.Weighted>
6.7102

> <Gold.Chemscore.Internal.Correction.Weighted>
   9.000000E+99

> <Gold.Protein.RotatedTorsions>
[ 6907 6896 6895 6894 ] final   99.51 input  -60.11 | X-H torsion
[ 7974 7965 7964 7962 ] final  124.55 input  175.53 | X-H torsion
[ 8008 7997 7996 7995 ] final  147.99 input   59.86 | X-H torsion
[ 10167 10162 10161 10158 ] final   97.77 input  -65.29 | X-H torsion
[ 10718 10713 10712 10709 ] final -120.54 input   66.30 | X-H torsion
[ 10763 10752 10751 10750 ] final  -97.05 input  -60.55 | X-H torsion
[ 11005 11000 10999 10996 ] final   29.57 input  -57.11 | X-H torsion

> <Gold.Protein.ActiveResidues>
 VAL166  LYS551  ARG553  GLY616  TRP617  ASP618  TYR619  PRO620  LYS621  CYS622 
 ASP623  PHE694  ASN695  SER759  ASP760  ASP761  ALA762  ILE779  LEU786  VAL792 
 PHE793  MET794  SER795  GLU796  ALA797  LYS798  CYS799  TRP800  GLU811  SER814 

> <Gold.Protein.RotatedAtoms>
  152.5390  134.0418  159.8070 H   0  0  0  0  0  0  0  0  0  0  0  0  # atno 6907 bound_to 6896
  151.0573  133.5566  159.2644 H   0  0  0  0  0  0  0  0  0  0  0  0  # atno 6908 bound_to 6896
  151.2478  135.0619  159.9104 H   0  0  0  0  0  0  0  0  0  0  0  0  # atno 6909 bound_to 6896
  145.0831  139.3642  143.4899 H   0  0  0  0  0  0  0  0  0  0  0  0  # atno 7974 bound_to 7965
  156.2806  140.2140  156.5627 H   0  0  0  0  0  0  0  0  0  0  0  0  # atno 8008 bound_to 7997
  154.7200  140.0504  157.0653 H   0  0  0  0  0  0  0  0  0  0  0  0  # atno 8009 bound_to 7997
  155.0491  140.3154  155.4701 H   0  0  0  0  0  0  0  0  0  0  0  0  # atno 8010 bound_to 7997
  139.7770  144.6902  151.0076 H   0  0  0  0  0  0  0  0  0  0  0  0  # atno 10167 bound_to 10162
  156.1266  130.6364  150.9553 H   0  0  0  0  0  0  0  0  0  0  0  0  # atno 10718 bound_to 10713
  154.7294  135.5061  153.8939 H   0  0  0  0  0  0  0  0  0  0  0  0  # atno 10763 bound_to 10752
  153.0935  135.6666  153.9816 H   0  0  0  0  0  0  0  0  0  0  0  0  # atno 10764 bound_to 10752
  153.9621  135.3047  155.3412 H   0  0  0  0  0  0  0  0  0  0  0  0  # atno 10765 bound_to 10752
  140.3035  134.2730  155.7749 H   0  0  0  0  0  0  0  0  0  0  0  0  # atno 11005 bound_to 11000
  146.3531  140.0630  142.8628 LP  0  0  0  0  0  0  0  0  0  0  0  0  # atno 17320 bound_to 7965
  145.1155  140.9431  143.4631 LP  0  0  0  0  0  0  0  0  0  0  0  0  # atno 17321 bound_to 7965
  140.7817  143.4525  151.0393 LP  0  0  0  0  0  0  0  0  0  0  0  0  # atno 17342 bound_to 10162
  139.8207  143.7824  152.3176 LP  0  0  0  0  0  0  0  0  0  0  0  0  # atno 17343 bound_to 10162
  157.6447  131.0905  150.8178 LP  0  0  0  0  0  0  0  0  0  0  0  0  # atno 17370 bound_to 10713
  156.8267  130.5002  149.5336 LP  0  0  0  0  0  0  0  0  0  0  0  0  # atno 17371 bound_to 10713
  141.2123  133.7662  156.9802 LP  0  0  0  0  0  0  0  0  0  0  0  0  # atno 17394 bound_to 11000
  140.1088  134.9490  157.2034 LP  0  0  0  0  0  0  0  0  0  0  0  0  # atno 17395 bound_to 11000

$$$$
