AV-unprocessed.smi:610|AV-procd|sdf|3054|dock5
  -GOLD-   2262023573D 1   1.00000     0.00000
 Structure written by MMmdl.
 39 40  0  0  0  0  0  0  0  0  3 V2000
  144.3978  136.8686  154.3083 C   0  0  0  0  0  0  0  0  0  0  0  0
  143.5783  136.8820  153.0108 C   0  0  1  0  0  0  0  0  0  0  0  0
  143.0412  135.4730  152.6791 C   0  0  0  0  0  0  0  0  0  0  0  0
  143.9220  134.7179  151.7809 N   0  0  0  0  0  0  0  0  0  0  0  0
  144.3519  133.4245  151.9332 C   0  0  0  0  0  0  0  0  0  0  0  0
  145.1555  133.1503  150.8566 C   0  0  0  0  0  0  0  0  0  0  0  0
  145.1757  134.2838  150.0890 N   0  3  0  0  0  0  0  0  0  0  0  0
  144.4192  135.2334  150.6489 C   0  0  0  0  0  0  0  0  0  0  0  0
  142.4847  137.8422  153.1561 N   0  0  0  0  0  0  0  0  0  0  0  0
  141.2974  137.6090  153.7427 C   0  0  0  0  0  0  0  0  0  0  0  0
  141.0066  136.5156  154.2289 O   0  0  0  0  0  0  0  0  0  0  0  0
  140.2620  138.7580  153.7886 C   0  0  0  0  0  0  0  0  0  0  0  0
  140.9282  139.9663  153.2684 N   0  3  0  0  0  0  0  0  0  0  0  0
  139.0112  138.4095  152.9596 C   0  0  0  0  0  0  0  0  0  0  0  0
  138.1016  137.6037  153.8996 C   0  0  0  0  0  0  0  0  0  0  0  0
  138.5387  137.9593  155.3294 C   0  0  0  0  0  0  0  0  0  0  0  0
  139.6423  139.0142  155.1781 C   0  0  0  0  0  0  0  0  0  0  0  0
  145.2460  136.1878  154.2295 H   0  0  0  0  0  0  0  0  0  0  0  0
  143.7931  136.5480  155.1575 H   0  0  0  0  0  0  0  0  0  0  0  0
  144.7931  137.8593  154.5352 H   0  0  0  0  0  0  0  0  0  0  0  0
  144.2486  137.2032  152.2113 H   0  0  0  0  0  0  0  0  0  0  0  0
  142.9399  134.8837  153.5913 H   0  0  0  0  0  0  0  0  0  0  0  0
  142.0480  135.5312  152.2304 H   0  0  0  0  0  0  0  0  0  0  0  0
  144.0667  132.8134  152.7774 H   0  0  0  0  0  0  0  0  0  0  0  0
  145.6986  132.2564  150.5859 H   0  0  0  0  0  0  0  0  0  0  0  0
  144.2501  136.2236  150.2647 H   0  0  0  0  0  0  0  0  0  0  0  0
  142.6455  138.7637  152.7752 H   0  0  0  0  0  0  0  0  0  0  0  0
  140.4289  140.3088  152.4601 H   0  0  0  0  0  0  0  0  0  0  0  0
  141.8765  139.7363  153.0068 H   0  0  0  0  0  0  0  0  0  0  0  0
  138.4954  139.3254  152.6668 H   0  0  0  0  0  0  0  0  0  0  0  0
  139.2265  137.8651  152.0391 H   0  0  0  0  0  0  0  0  0  0  0  0
  137.0509  137.8392  153.7265 H   0  0  0  0  0  0  0  0  0  0  0  0
  138.2264  136.5345  153.7268 H   0  0  0  0  0  0  0  0  0  0  0  0
  137.7098  138.3306  155.9330 H   0  0  0  0  0  0  0  0  0  0  0  0
  138.9312  137.0711  155.8263 H   0  0  0  0  0  0  0  0  0  0  0  0
  140.3551  138.9971  156.0036 H   0  0  0  0  0  0  0  0  0  0  0  0
  139.1825  140.0039  155.1933 H   0  0  0  0  0  0  0  0  0  0  0  0
  140.9429  140.6787  153.9840 H   0  0  0  0  0  0  0  0  0  0  0  0
  145.6839  134.3879  149.2194 H   0  0  0  0  0  0  0  0  0  0  0  0
  1  2  1  0  0  0  0
  1 18  1  0  0  0  0
  1 19  1  0  0  0  0
  1 20  1  0  0  0  0
  2  3  1  0  0  0  0
  2  9  1  0  0  0  0
  2 21  1  0  0  0  0
  3  4  1  0  0  0  0
  3 22  1  0  0  0  0
  3 23  1  0  0  0  0
  4  8  1  0  0  0  0
  4  5  1  0  0  0  0
  5  6  2  0  0  0  0
  5 24  1  0  0  0  0
  6  7  1  0  0  0  0
  6 25  1  0  0  0  0
  7  8  2  0  0  0  0
  7 39  1  0  0  0  0
  8 26  1  0  0  0  0
  9 10  1  0  0  0  0
  9 27  1  0  0  0  0
 10 11  2  0  0  0  0
 10 12  1  0  0  0  0
 12 17  1  0  0  0  0
 12 13  1  0  0  0  0
 12 14  1  0  0  0  0
 13 28  1  0  0  0  0
 13 29  1  0  0  0  0
 13 38  1  0  0  0  0
 14 15  1  0  0  0  0
 14 30  1  0  0  0  0
 14 31  1  0  0  0  0
 15 16  1  0  0  0  0
 15 32  1  0  0  0  0
 15 33  1  0  0  0  0
 16 17  1  0  0  0  0
 16 34  1  0  0  0  0
 16 35  1  0  0  0  0
 17 36  1  0  0  0  0
 17 37  1  0  0  0  0
M  CHG  1   7   1
M  CHG  1  13   1
M  END
> <s_m_source_file>
AV-unprocessed.smi

> <i_m_source_file_index>
610

> <i_lp_mmshare_version>
43012

> <i_f3d_flags>
0

> <s_epik_input>
W2NIXTFuW2NIXVtjSF1uMVtDSDJdW0NAQEhdKFtDSDNdKVtOSF1DKD1PKUMyKFtOSDJdKVtDSDJdW0NIMl1bQ0gyXVtDSDJdMg==

> <s_epik_cmdline>
J2VwaWtfcHl0aG9uJywgJy1waCcsICc3LjAnLCAnLXRuJywgJzgnLCAnLW1hJywgJzIwMCcsICctbWV0YWxfYmluZGluZycsICctaW1hZScsICc8aW5maWxlLm1hZT4nLCAnLW9tYWUnLCAnPG91dGZpbGUubWFlPic=

> <r_lp_tautomer_probability>
1

> <r_epik_Ionization_Penalty>
0.349719

> <r_epik_Ionization_Penalty_Charging>
0.0753376

> <r_epik_Ionization_Penalty_Neutral>
0.274381

> <r_epik_State_Penalty>
0.326418

> <r_epik_Charging_Adjusted_Penalty>
0.401755

> <i_epik_Tot_Q>
2

> <i_epik_Tot_abs_Q>
2

> <r_epik_Metal_State_Penalty>
0.608513

> <b_epik_Metal_Only>
0

> <s_lp_Force_Field>
OPLS_2005

> <r_lp_Energy>
30.9651

> <b_lp_Chiralities_Consistent>
1

> <s_lp_Variant>
AV-unprocessed.smi:610-2

> <Gold.Version>
5.8.1

> <Gold.Id.Protein>
6NUR|6NUR_protein|mol2

> <Gold.PLP.Fitness>
47.4476

> <Gold.PLP.PLP>
-29.5350

> <Gold.PLP.part.hbond>
-4.2544

> <Gold.PLP.part.metal>
0.0000

> <Gold.PLP.part.buried>
-5.6721

> <Gold.PLP.part.nonpolar>
-19.9198

> <Gold.PLP.part.repulsive>
0.1866

> <Gold.PLP.ligand.clash>
0.0000

> <Gold.PLP.ligand.torsion>
1.0454

> <Gold.PLP.Chemscore.Hbond>
4.6880

> <Gold.PLP.Chemscore.CHOScore>
1.9602

> <Gold.PLP.Chemscore.Metal>
0.0000

> <Gold.Chemscore.Hbonds>
donor molecule, donor type, donor heavy atom, donor atom, acceptor molecule, acceptor atom, score
      L1  H     7    39       P1  7921  1.00
      L1  H     9    27       P1 10175  1.00
      L1  H    13    28       P1 10160  0.91
      L1  H    13    29       P1 10175  1.76
      L1  C     5    24       P1 10957  0.67
      L1  C     8    26       P1 10171  1.00

> <Gold.PLP.Chemscore.Internal.Correction>
0.0587

> <Gold.Rescore>
     Score         DG    S(hbond)    S(metal)    S(lipo)     H(rot)  DE(clash)    DE(int)     intcor
     14.45     -17.45       3.47        0.00      48.40       2.06       0.00       3.00       ----

> <Gold.Chemscore.Fitness>
14.4481

> <Gold.Chemscore.DG>
-17.4459

> <Gold.Chemscore.ZeroCoef>
-5.4800

> <Gold.Chemscore.Hbond>
3.4693

> <Gold.Chemscore.Metal>
0.0000

> <Gold.Chemscore.Lipo>
48.4035

> <Gold.Chemscore.Internal_Hbond>
0.0000

> <Gold.Chemscore.DEClash>
0.0000

> <Gold.Chemscore.DEInternal>
2.9978

> <Gold.Chemscore.Rot>
2.0644

> <Gold.Chemscore.Internal.Correction>
   9.000000E+99

> <Gold.Chemscore.Hbonds>
donor molecule, donor type, donor heavy atom, donor atom, acceptor molecule, acceptor atom, score
      L1  H     7    39       P1  7921  0.82
      L1  H     9    27       P1 10175  0.98
      L1  H    13    28       P1 10160  0.89
      L1  H    13    29       P1 10175  0.43

> <Gold.Chemscore.Hbond.Weighted>
-11.5874

> <Gold.Chemscore.Metal.Weighted>
-0.0000

> <Gold.Chemscore.Lipo.Weighted>
-5.6632

> <Gold.Chemscore.Internal_Hbond.Weighted>
0.0000

> <Gold.Chemscore.DEClash.Weighted>
0.0000

> <Gold.Chemscore.DEInternal.Weighted>
2.9978

> <Gold.Chemscore.Rot.Weighted>
5.2848

> <Gold.Chemscore.Internal.Correction.Weighted>
   9.000000E+99

> <Gold.Protein.RotatedTorsions>
[ 6907 6896 6895 6894 ] final  -20.85 input  -60.11 | X-H torsion
[ 7974 7965 7964 7962 ] final   28.10 input  175.53 | X-H torsion
[ 8008 7997 7996 7995 ] final  139.02 input   59.86 | X-H torsion
[ 10167 10162 10161 10158 ] final   49.38 input  -65.29 | X-H torsion
[ 10718 10713 10712 10709 ] final   64.55 input   66.30 | X-H torsion
[ 10763 10752 10751 10750 ] final  -35.94 input  -60.55 | X-H torsion
[ 11005 11000 10999 10996 ] final -166.31 input  -57.11 | X-H torsion

> <Gold.Protein.ActiveResidues>
 VAL166  LYS551  ARG553  GLY616  TRP617  ASP618  TYR619  PRO620  LYS621  CYS622 
 ASP623  PHE694  ASN695  SER759  ASP760  ASP761  ALA762  ILE779  LEU786  VAL792 
 PHE793  MET794  SER795  GLU796  ALA797  LYS798  CYS799  TRP800  GLU811  SER814 

> <Gold.Protein.RotatedAtoms>
  151.2421  135.0592  159.9028 H   0  0  0  0  0  0  0  0  0  0  0  0  # atno 6907 bound_to 6896
  152.5392  134.0423  159.8083 H   0  0  0  0  0  0  0  0  0  0  0  0  # atno 6908 bound_to 6896
  151.0619  133.5488  159.2665 H   0  0  0  0  0  0  0  0  0  0  0  0  # atno 6909 bound_to 6896
  146.1747  139.7101  142.8942 H   0  0  0  0  0  0  0  0  0  0  0  0  # atno 7974 bound_to 7965
  156.2993  140.2378  156.4168 H   0  0  0  0  0  0  0  0  0  0  0  0  # atno 8008 bound_to 7997
  154.8391  140.0429  157.1549 H   0  0  0  0  0  0  0  0  0  0  0  0  # atno 8009 bound_to 7997
  154.9123  140.2992  155.5263 H   0  0  0  0  0  0  0  0  0  0  0  0  # atno 8010 bound_to 7997
  140.2834  144.3130  150.6258 H   0  0  0  0  0  0  0  0  0  0  0  0  # atno 10167 bound_to 10162
  157.6047  130.9166  149.9860 H   0  0  0  0  0  0  0  0  0  0  0  0  # atno 10718 bound_to 10713
  153.8716  135.6830  153.4774 H   0  0  0  0  0  0  0  0  0  0  0  0  # atno 10763 bound_to 10752
  153.1284  135.4708  154.9307 H   0  0  0  0  0  0  0  0  0  0  0  0  # atno 10764 bound_to 10752
  154.7711  135.3239  154.8137 H   0  0  0  0  0  0  0  0  0  0  0  0  # atno 10765 bound_to 10752
  140.5659  134.5287  157.5152 H   0  0  0  0  0  0  0  0  0  0  0  0  # atno 11005 bound_to 11000
  145.4243  141.0409  143.2946 LP  0  0  0  0  0  0  0  0  0  0  0  0  # atno 17320 bound_to 7965
  144.8218  139.5779  143.6983 LP  0  0  0  0  0  0  0  0  0  0  0  0  # atno 17321 bound_to 7965
  140.5792  143.2174  151.7459 LP  0  0  0  0  0  0  0  0  0  0  0  0  # atno 17342 bound_to 10162
  139.4956  144.4104  152.0086 LP  0  0  0  0  0  0  0  0  0  0  0  0  # atno 17343 bound_to 10162
  156.1130  130.3649  150.0017 LP  0  0  0  0  0  0  0  0  0  0  0  0  # atno 17370 bound_to 10713
  156.8112  130.9325  151.3644 LP  0  0  0  0  0  0  0  0  0  0  0  0  # atno 17371 bound_to 10713
  139.9385  134.7830  156.0739 LP  0  0  0  0  0  0  0  0  0  0  0  0  # atno 17394 bound_to 11000
  141.1086  133.6651  156.2924 LP  0  0  0  0  0  0  0  0  0  0  0  0  # atno 17395 bound_to 11000

$$$$
