AV-unprocessed.smi:3314|AV-procd|sdf|12732|dock9
  -GOLD-   2272019 73D 1   1.00000     0.00000
 Structure written by MMmdl.
 38 39  0  0  0  0  0  0  0  0  2 V2000
  151.2322  145.2523  158.9885 C   0  0  0  0  0  0  0  0  0  0  0  0
  151.7548  143.8311  159.0148 C   0  0  0  0  0  0  0  0  0  0  0  0
  152.4286  143.3285  160.1443 C   0  0  0  0  0  0  0  0  0  0  0  0
  152.8925  141.9990  160.1049 C   0  0  0  0  0  0  0  0  0  0  0  0
  153.6237  141.3938  161.2846 C   0  0  0  0  0  0  0  0  0  0  0  0
  152.7211  141.1902  159.0372 N   0  0  0  0  0  0  0  0  0  0  0  0
  152.0756  141.6648  157.9431 C   0  0  0  0  0  0  0  0  0  0  0  0
  151.8449  140.8968  156.7716 N   0  0  0  0  0  0  0  0  0  0  0  0
  152.2977  139.6630  156.4805 C   0  0  0  0  0  0  0  0  0  0  0  0
  153.0241  138.9937  157.2168 O   0  0  0  0  0  0  0  0  0  0  0  0
  151.8462  139.1031  155.1178 C   0  0  1  0  0  0  0  0  0  0  0  0
  151.4375  137.6103  155.1322 C   0  0  0  0  0  0  0  0  0  0  0  0
  150.1423  137.4105  155.8255 N   0  3  2  0  0  0  0  0  0  0  0  0
  149.7454  135.9884  155.8953 C   0  0  0  0  0  0  0  0  0  0  0  0
  149.0913  138.2700  155.2364 C   0  0  0  0  0  0  0  0  0  0  0  0
  149.5301  139.7430  155.2619 C   0  0  0  0  0  0  0  0  0  0  0  0
  150.7763  139.8861  154.5800 O   0  0  0  0  0  0  0  0  0  0  0  0
  151.5755  142.9854  157.9017 C   0  0  0  0  0  0  0  0  0  0  0  0
  151.4296  145.7654  159.9301 H   0  0  0  0  0  0  0  0  0  0  0  0
  150.1556  145.2566  158.8170 H   0  0  0  0  0  0  0  0  0  0  0  0
  151.7105  145.8150  158.1865 H   0  0  0  0  0  0  0  0  0  0  0  0
  152.5860  143.9452  161.0174 H   0  0  0  0  0  0  0  0  0  0  0  0
  153.7809  142.1303  162.0732 H   0  0  0  0  0  0  0  0  0  0  0  0
  154.5983  141.0158  160.9745 H   0  0  0  0  0  0  0  0  0  0  0  0
  153.0497  140.5656  161.7010 H   0  0  0  0  0  0  0  0  0  0  0  0
  151.2717  141.3404  156.0687 H   0  0  0  0  0  0  0  0  0  0  0  0
  152.6940  139.2112  154.4401 H   0  0  0  0  0  0  0  0  0  0  0  0
  151.3553  137.2455  154.1071 H   0  0  0  0  0  0  0  0  0  0  0  0
  152.2107  137.0095  155.6136 H   0  0  0  0  0  0  0  0  0  0  0  0
  149.5731  135.5795  154.8987 H   0  0  0  0  0  0  0  0  0  0  0  0
  148.8296  135.8738  156.4760 H   0  0  0  0  0  0  0  0  0  0  0  0
  150.5229  135.3961  156.3790 H   0  0  0  0  0  0  0  0  0  0  0  0
  148.8934  137.9562  154.2103 H   0  0  0  0  0  0  0  0  0  0  0  0
  148.1611  138.1511  155.7929 H   0  0  0  0  0  0  0  0  0  0  0  0
  148.7858  140.3613  154.7599 H   0  0  0  0  0  0  0  0  0  0  0  0
  149.5975  140.1113  156.2863 H   0  0  0  0  0  0  0  0  0  0  0  0
  151.0614  143.3514  157.0245 H   0  0  0  0  0  0  0  0  0  0  0  0
  150.2745  137.7221  156.7778 H   0  0  0  0  0  0  0  0  0  0  0  0
  1  2  1  0  0  0  0
  1 19  1  0  0  0  0
  1 20  1  0  0  0  0
  1 21  1  0  0  0  0
  2 18  1  0  0  0  0
  2  3  2  0  0  0  0
  3  4  1  0  0  0  0
  3 22  1  0  0  0  0
  4  5  1  0  0  0  0
  4  6  2  0  0  0  0
  5 23  1  0  0  0  0
  5 24  1  0  0  0  0
  5 25  1  0  0  0  0
  6  7  1  0  0  0  0
  7  8  1  0  0  0  0
  7 18  2  0  0  0  0
  8  9  1  0  0  0  0
  8 26  1  0  0  0  0
  9 10  2  0  0  0  0
  9 11  1  0  0  0  0
 11 17  1  0  0  0  0
 11 12  1  0  0  0  0
 11 27  1  0  0  0  0
 12 13  1  0  0  0  0
 12 28  1  0  0  0  0
 12 29  1  0  0  0  0
 13 14  1  0  0  0  0
 13 15  1  0  0  0  0
 13 38  1  0  0  0  0
 14 30  1  0  0  0  0
 14 31  1  0  0  0  0
 14 32  1  0  0  0  0
 15 16  1  0  0  0  0
 15 33  1  0  0  0  0
 15 34  1  0  0  0  0
 16 17  1  0  0  0  0
 16 35  1  0  0  0  0
 16 36  1  0  0  0  0
 18 37  1  0  0  0  0
M  CHG  1  13   1
M  END
> <s_m_source_file>
AV-unprocessed.smi

> <i_m_source_file_index>
3314

> <i_lp_mmshare_version>
43012

> <i_f3d_flags>
0

> <s_epik_input>
W0NIM11jMVtjSF1jKFtDSDNdKW5jKFtjSF0xKVtOSF1DKD1PKVtDQEBIXTJbQ0gyXU4oW0NIM10pW0NIMl1bQ0gyXU8y

> <s_epik_cmdline>
J2VwaWtfcHl0aG9uJywgJy1waCcsICc3LjAnLCAnLXRuJywgJzgnLCAnLW1hJywgJzIwMCcsICctbWV0YWxfYmluZGluZycsICctaW1hZScsICc8aW5maWxlLm1hZT4nLCAnLW9tYWUnLCAnPG91dGZpbGUubWFlPic=

> <r_epik_Ionization_Penalty>
0.32442

> <r_epik_Ionization_Penalty_Charging>
0.314023

> <r_epik_Ionization_Penalty_Neutral>
0.0103972

> <r_epik_State_Penalty>
0.29453

> <r_epik_Charging_Adjusted_Penalty>
0.608553

> <i_epik_Tot_Q>
1

> <i_epik_Tot_abs_Q>
1

> <r_epik_Metal_State_Penalty>
0.286909

> <b_epik_Metal_Only>
0

> <s_lp_Force_Field>
OPLS_2005

> <r_lp_Energy>
14.9445

> <b_lp_Chiralities_Consistent>
1

> <s_lp_Variant>
AV-unprocessed.smi:3314-2

> <Gold.Version>
5.8.1

> <Gold.Id.Protein>
6NUR|6NUR_protein|mol2

> <Gold.PLP.Fitness>
39.3032

> <Gold.PLP.PLP>
-34.4826

> <Gold.PLP.part.hbond>
-2.0000

> <Gold.PLP.part.metal>
0.0000

> <Gold.PLP.part.buried>
-3.2181

> <Gold.PLP.part.nonpolar>
-29.2067

> <Gold.PLP.part.repulsive>
0.2447

> <Gold.PLP.ligand.clash>
0.1743

> <Gold.PLP.ligand.torsion>
0.4269

> <Gold.PLP.Chemscore.Hbond>
1.9424

> <Gold.PLP.Chemscore.CHOScore>
0.0000

> <Gold.PLP.Chemscore.Metal>
0.0000

> <Gold.Chemscore.Hbonds>
donor molecule, donor type, donor heavy atom, donor atom, acceptor molecule, acceptor atom, score
      P1  H  7989  7998       L1    17  1.00
      P1  H  7997  8009       L1    10  0.89

> <Gold.PLP.Chemscore.Internal.Correction>
0.0216

> <Gold.Rescore>
     Score         DG    S(hbond)    S(metal)    S(lipo)     H(rot)  DE(clash)    DE(int)     intcor
     14.82     -17.68       1.25        0.00      90.43       1.00       0.21       2.66       ----

> <Gold.Chemscore.Fitness>
14.8153

> <Gold.Chemscore.DG>
-17.6778

> <Gold.Chemscore.ZeroCoef>
-5.4800

> <Gold.Chemscore.Hbond>
1.2508

> <Gold.Chemscore.Metal>
0.0000

> <Gold.Chemscore.Lipo>
90.4293

> <Gold.Chemscore.Internal_Hbond>
0.0000

> <Gold.Chemscore.DEClash>
0.2073

> <Gold.Chemscore.DEInternal>
2.6551

> <Gold.Chemscore.Rot>
1.0000

> <Gold.Chemscore.Internal.Correction>
   9.000000E+99

> <Gold.Chemscore.Hbonds>
donor molecule, donor type, donor heavy atom, donor atom, acceptor molecule, acceptor atom, score
      P1  H  7989  7998       L1    17  0.26
      P1  H  7997  8009       L1    10  0.17

> <Gold.Chemscore.Hbond.Weighted>
-4.1775

> <Gold.Chemscore.Metal.Weighted>
-0.0000

> <Gold.Chemscore.Lipo.Weighted>
-10.5802

> <Gold.Chemscore.Internal_Hbond.Weighted>
0.0000

> <Gold.Chemscore.DEClash.Weighted>
0.2073

> <Gold.Chemscore.DEInternal.Weighted>
2.6551

> <Gold.Chemscore.Rot.Weighted>
2.5600

> <Gold.Chemscore.Internal.Correction.Weighted>
   9.000000E+99

> <Gold.Protein.RotatedTorsions>
[ 6907 6896 6895 6894 ] final   37.79 input  -60.11 | X-H torsion
[ 7974 7965 7964 7962 ] final   10.79 input  175.53 | X-H torsion
[ 8008 7997 7996 7995 ] final  152.45 input   59.86 | X-H torsion
[ 10167 10162 10161 10158 ] final  -17.85 input  -65.29 | X-H torsion
[ 10718 10713 10712 10709 ] final  163.40 input   66.30 | X-H torsion
[ 10763 10752 10751 10750 ] final  -24.19 input  -60.55 | X-H torsion
[ 11005 11000 10999 10996 ] final -171.61 input  -57.11 | X-H torsion

> <Gold.Protein.ActiveResidues>
 VAL166  LYS551  ARG553  GLY616  TRP617  ASP618  TYR619  PRO620  LYS621  CYS622 
 ASP623  PHE694  ASN695  SER759  ASP760  ASP761  ALA762  ILE779  LEU786  VAL792 
 PHE793  MET794  SER795  GLU796  ALA797  LYS798  CYS799  TRP800  GLU811  SER814 

> <Gold.Protein.RotatedAtoms>
  152.1478  134.9012  160.0549 H   0  0  0  0  0  0  0  0  0  0  0  0  # atno 6907 bound_to 6896
  152.0055  133.3836  159.4207 H   0  0  0  0  0  0  0  0  0  0  0  0  # atno 6908 bound_to 6896
  150.6872  134.3709  159.5035 H   0  0  0  0  0  0  0  0  0  0  0  0  # atno 6909 bound_to 6896
  146.2382  139.9581  142.8462 H   0  0  0  0  0  0  0  0  0  0  0  0  # atno 7974 bound_to 7965
  156.2628  140.2020  156.6335 H   0  0  0  0  0  0  0  0  0  0  0  0  # atno 8008 bound_to 7997
  154.6664  140.0555  157.0143 H   0  0  0  0  0  0  0  0  0  0  0  0  # atno 8009 bound_to 7997
  155.1201  140.3224  155.4502 H   0  0  0  0  0  0  0  0  0  0  0  0  # atno 8010 bound_to 7997
  140.7252  143.4974  150.9913 H   0  0  0  0  0  0  0  0  0  0  0  0  # atno 10167 bound_to 10162
  157.1091  131.0463  151.2465 H   0  0  0  0  0  0  0  0  0  0  0  0  # atno 10718 bound_to 10713
  153.6798  135.6967  153.5121 H   0  0  0  0  0  0  0  0  0  0  0  0  # atno 10763 bound_to 10752
  153.2494  135.4280  155.0780 H   0  0  0  0  0  0  0  0  0  0  0  0  # atno 10764 bound_to 10752
  154.8403  135.3527  154.6341 H   0  0  0  0  0  0  0  0  0  0  0  0  # atno 10765 bound_to 10752
  140.5062  134.5845  157.5004 H   0  0  0  0  0  0  0  0  0  0  0  0  # atno 11005 bound_to 11000
  145.1797  140.9761  143.4273 LP  0  0  0  0  0  0  0  0  0  0  0  0  # atno 17320 bound_to 7965
  144.9953  139.3649  143.6194 LP  0  0  0  0  0  0  0  0  0  0  0  0  # atno 17321 bound_to 7965
  139.8682  143.7227  152.3168 LP  0  0  0  0  0  0  0  0  0  0  0  0  # atno 17342 bound_to 10162
  139.7466  144.7545  151.0570 LP  0  0  0  0  0  0  0  0  0  0  0  0  # atno 17343 bound_to 10162
  157.4575  130.7634  149.7206 LP  0  0  0  0  0  0  0  0  0  0  0  0  # atno 17370 bound_to 10713
  155.9855  130.3982  150.3259 LP  0  0  0  0  0  0  0  0  0  0  0  0  # atno 17371 bound_to 10713
  139.9684  134.7333  156.0090 LP  0  0  0  0  0  0  0  0  0  0  0  0  # atno 17394 bound_to 11000
  141.1409  133.6565  156.3728 LP  0  0  0  0  0  0  0  0  0  0  0  0  # atno 17395 bound_to 11000

$$$$
