AV-unprocessed.smi:511|AV-procd|sdf|2766|dock5
  -GOLD-   2262023233D 1   1.00000     0.00000
 Structure written by MMmdl.
 45 47  0  0  0  0  0  0  0  0  3 V2000
  150.2887  142.1590  157.1877 C   0  0  0  0  0  0  0  0  0  0  0  0
  149.7427  141.4609  156.0824 O   0  0  0  0  0  0  0  0  0  0  0  0
  150.5700  140.3922  155.6551 C   0  0  0  0  0  0  0  0  0  0  0  0
  149.8931  139.6802  154.4772 C   0  0  0  0  0  0  0  0  0  0  0  0
  149.4186  138.3514  154.8575 N   0  0  0  0  0  0  0  0  0  0  0  0
  148.1616  137.8420  154.7573 C   0  0  0  0  0  0  0  0  0  0  0  0
  147.1137  138.5598  154.1808 N   0  0  0  0  0  0  0  0  0  0  0  0
  146.8895  138.6930  152.7428 C   0  0  0  0  0  0  0  0  0  0  0  0
  145.7705  137.7509  152.2605 C   0  0  0  0  0  0  0  0  0  0  0  0
  144.5143  137.9859  153.0121 N   0  3  0  0  0  0  0  0  0  0  0  0
  143.4132  137.1033  152.5716 C   0  0  0  0  0  0  0  0  0  0  0  0
  144.7324  137.9402  154.4775 C   0  0  0  0  0  0  0  0  0  0  0  0
  145.8767  138.8846  154.8844 C   0  0  0  0  0  0  0  0  0  0  0  0
  148.0117  136.6185  155.2678 N   0  0  0  0  0  0  0  0  0  0  0  0
  149.2908  136.3062  155.7031 C   0  0  0  0  0  0  0  0  0  0  0  0
  150.1540  137.3306  155.4681 C   0  0  0  0  0  0  0  0  0  0  0  0
  151.5854  137.3022  155.8411 C   0  0  0  0  0  0  0  0  0  0  0  0
  152.3176  138.2642  155.6193 O   0  0  0  0  0  0  0  0  0  0  0  0
  151.9418  136.1181  156.4324 N   0  5  0  0  0  0  0  0  0  0  0  0
  151.1036  135.0533  156.6844 C   0  0  0  0  0  0  0  0  0  0  0  0
  151.5074  134.0200  157.2194 O   0  0  0  0  0  0  0  0  0  0  0  0
  149.7807  135.1309  156.3349 N   0  0  0  0  0  0  0  0  0  0  0  0
  148.8647  134.0167  156.5953 C   0  0  0  0  0  0  0  0  0  0  0  0
  149.6199  142.9703  157.4748 H   0  0  0  0  0  0  0  0  0  0  0  0
  151.2583  142.5939  156.9407 H   0  0  0  0  0  0  0  0  0  0  0  0
  150.4093  141.5007  158.0489 H   0  0  0  0  0  0  0  0  0  0  0  0
  151.5488  140.7724  155.3591 H   0  0  0  0  0  0  0  0  0  0  0  0
  150.7246  139.6908  156.4768 H   0  0  0  0  0  0  0  0  0  0  0  0
  149.0689  140.2919  154.1206 H   0  0  0  0  0  0  0  0  0  0  0  0
  150.5749  139.5896  153.6324 H   0  0  0  0  0  0  0  0  0  0  0  0
  146.6463  139.7301  152.5086 H   0  0  0  0  0  0  0  0  0  0  0  0
  147.8025  138.4511  152.1989 H   0  0  0  0  0  0  0  0  0  0  0  0
  145.5942  137.9013  151.1949 H   0  0  0  0  0  0  0  0  0  0  0  0
  146.0819  136.7128  152.3901 H   0  0  0  0  0  0  0  0  0  0  0  0
  143.6482  136.0561  152.7659 H   0  0  0  0  0  0  0  0  0  0  0  0
  143.2309  137.2209  151.5029 H   0  0  0  0  0  0  0  0  0  0  0  0
  142.4897  137.3496  153.0962 H   0  0  0  0  0  0  0  0  0  0  0  0
  143.8156  138.2260  154.9940 H   0  0  0  0  0  0  0  0  0  0  0  0
  144.9668  136.9184  154.7813 H   0  0  0  0  0  0  0  0  0  0  0  0
  146.0442  138.8235  155.9605 H   0  0  0  0  0  0  0  0  0  0  0  0
  145.6064  139.9202  154.6735 H   0  0  0  0  0  0  0  0  0  0  0  0
  148.8582  133.7649  157.6568 H   0  0  0  0  0  0  0  0  0  0  0  0
  149.1736  133.1320  156.0369 H   0  0  0  0  0  0  0  0  0  0  0  0
  147.8369  134.2410  156.3107 H   0  0  0  0  0  0  0  0  0  0  0  0
  144.2301  138.9312  152.7984 H   0  0  0  0  0  0  0  0  0  0  0  0
  1  2  1  0  0  0  0
  1 24  1  0  0  0  0
  1 25  1  0  0  0  0
  1 26  1  0  0  0  0
  2  3  1  0  0  0  0
  3  4  1  0  0  0  0
  3 27  1  0  0  0  0
  3 28  1  0  0  0  0
  4  5  1  0  0  0  0
  4 29  1  0  0  0  0
  4 30  1  0  0  0  0
  5 16  1  0  0  0  0
  5  6  1  0  0  0  0
  6  7  1  0  0  0  0
  6 14  2  0  0  0  0
  7 13  1  0  0  0  0
  7  8  1  0  0  0  0
  8  9  1  0  0  0  0
  8 31  1  0  0  0  0
  8 32  1  0  0  0  0
  9 10  1  0  0  0  0
  9 33  1  0  0  0  0
  9 34  1  0  0  0  0
 10 11  1  0  0  0  0
 10 12  1  0  0  0  0
 10 45  1  0  0  0  0
 11 35  1  0  0  0  0
 11 36  1  0  0  0  0
 11 37  1  0  0  0  0
 12 13  1  0  0  0  0
 12 38  1  0  0  0  0
 12 39  1  0  0  0  0
 13 40  1  0  0  0  0
 13 41  1  0  0  0  0
 14 15  1  0  0  0  0
 15 22  1  0  0  0  0
 15 16  2  0  0  0  0
 16 17  1  0  0  0  0
 17 18  2  0  0  0  0
 17 19  1  0  0  0  0
 19 20  1  0  0  0  0
 20 21  2  0  0  0  0
 20 22  1  0  0  0  0
 22 23  1  0  0  0  0
 23 42  1  0  0  0  0
 23 43  1  0  0  0  0
 23 44  1  0  0  0  0
M  CHG  1  10   1
M  CHG  1  19  -1
M  END
> <s_m_source_file>
AV-unprocessed.smi

> <i_m_source_file_index>
511

> <i_lp_mmshare_version>
43012

> <i_f3d_flags>
0

> <s_epik_input>
W0NIM11uMWMoPU8pW25IXWMoPU8pYyhjMTIpbihbQ0gyXVtDSDJdT1tDSDNdKWMobjIpTjNbQ0gyXVtDSDJdTihbQ0gzXSlbQ0gyXVtDSDJdMw==

> <s_epik_cmdline>
J2VwaWtfcHl0aG9uJywgJy1waCcsICc3LjAnLCAnLXRuJywgJzgnLCAnLW1hJywgJzIwMCcsICctbWV0YWxfYmluZGluZycsICctaW1hZScsICc8aW5maWxlLm1hZT4nLCAnLW9tYWUnLCAnPG91dGZpbGUubWFlPic=

> <r_epik_Ionization_Penalty>
5.9833

> <r_epik_Ionization_Penalty_Charging>
0.125752

> <r_epik_Ionization_Penalty_Neutral>
5.85754

> <r_epik_State_Penalty>
5.9139

> <r_epik_Charging_Adjusted_Penalty>
6.03966

> <i_epik_Tot_Q>
0

> <i_epik_Tot_abs_Q>
2

> <r_epik_Metal_State_Penalty>
1.87741

> <b_epik_Metal_Only>
1

> <s_lp_Force_Field>
OPLS_2005

> <r_lp_Energy>
51.0512

> <b_lp_Chiralities_Consistent>
1

> <s_lp_Variant>
AV-unprocessed.smi:511-3

> <Gold.Version>
5.8.1

> <Gold.Id.Protein>
6NUR|6NUR_protein|mol2

> <Gold.PLP.Fitness>
37.5342

> <Gold.PLP.PLP>
-27.7824

> <Gold.PLP.part.hbond>
-3.0000

> <Gold.PLP.part.metal>
0.0000

> <Gold.PLP.part.buried>
-2.0134

> <Gold.PLP.part.nonpolar>
-23.0380

> <Gold.PLP.part.repulsive>
0.1862

> <Gold.PLP.ligand.clash>
0.0000

> <Gold.PLP.ligand.torsion>
1.6475

> <Gold.PLP.Chemscore.Hbond>
4.1622

> <Gold.PLP.Chemscore.CHOScore>
0.0000

> <Gold.PLP.Chemscore.Metal>
0.0000

> <Gold.Chemscore.Hbonds>
donor molecule, donor type, donor heavy atom, donor atom, acceptor molecule, acceptor atom, score
      L1  H    10    45       P1 10175  2.00
      P1  H  6896  6908       L1    21  0.26
      P1  H 10752 10763       L1    19  2.00

> <Gold.PLP.Chemscore.Internal.Correction>
0.5601

> <Gold.Rescore>
     Score         DG    S(hbond)    S(metal)    S(lipo)     H(rot)  DE(clash)    DE(int)     intcor
      9.46     -12.27       1.54        0.00      46.70       1.49       0.03       2.78       ----

> <Gold.Chemscore.Fitness>
9.4600

> <Gold.Chemscore.DG>
-12.2697

> <Gold.Chemscore.ZeroCoef>
-5.4800

> <Gold.Chemscore.Hbond>
1.5403

> <Gold.Chemscore.Metal>
0.0000

> <Gold.Chemscore.Lipo>
46.6951

> <Gold.Chemscore.Internal_Hbond>
0.0000

> <Gold.Chemscore.DEClash>
0.0281

> <Gold.Chemscore.DEInternal>
2.7816

> <Gold.Chemscore.Rot>
1.4915

> <Gold.Chemscore.Internal.Correction>
   9.000000E+99

> <Gold.Chemscore.Hbonds>
donor molecule, donor type, donor heavy atom, donor atom, acceptor molecule, acceptor atom, score
      L1  H    10    45       P1 10175  1.00
      P1  H  6896  6908       L1    21  0.25
      P1  H 10752 10763       L1    19  0.22

> <Gold.Chemscore.Hbond.Weighted>
-5.1447

> <Gold.Chemscore.Metal.Weighted>
-0.0000

> <Gold.Chemscore.Lipo.Weighted>
-5.4633

> <Gold.Chemscore.Internal_Hbond.Weighted>
0.0000

> <Gold.Chemscore.DEClash.Weighted>
0.0281

> <Gold.Chemscore.DEInternal.Weighted>
2.7816

> <Gold.Chemscore.Rot.Weighted>
3.8183

> <Gold.Chemscore.Internal.Correction.Weighted>
   9.000000E+99

> <Gold.Protein.RotatedTorsions>
[ 6907 6896 6895 6894 ] final   72.53 input  -60.11 | X-H torsion
[ 7974 7965 7964 7962 ] final    5.22 input  175.53 | X-H torsion
[ 8008 7997 7996 7995 ] final   87.47 input   59.86 | X-H torsion
[ 10167 10162 10161 10158 ] final   90.44 input  -65.29 | X-H torsion
[ 10718 10713 10712 10709 ] final -154.79 input   66.30 | X-H torsion
[ 10763 10752 10751 10750 ] final  106.94 input  -60.55 | X-H torsion
[ 11005 11000 10999 10996 ] final  -53.89 input  -57.11 | X-H torsion

> <Gold.Protein.ActiveResidues>
 VAL166  LYS551  ARG553  GLY616  TRP617  ASP618  TYR619  PRO620  LYS621  CYS622 
 ASP623  PHE694  ASN695  SER759  ASP760  ASP761  ALA762  ILE779  LEU786  VAL792 
 PHE793  MET794  SER795  GLU796  ALA797  LYS798  CYS799  TRP800  GLU811  SER814 

> <Gold.Protein.RotatedAtoms>
  152.4873  134.4558  159.9588 H   0  0  0  0  0  0  0  0  0  0  0  0  # atno 6907 bound_to 6896
  151.4551  133.3601  159.2809 H   0  0  0  0  0  0  0  0  0  0  0  0  # atno 6908 bound_to 6896
  150.8994  134.8430  159.7410 H   0  0  0  0  0  0  0  0  0  0  0  0  # atno 6909 bound_to 6896
  146.2441  140.0416  142.8381 H   0  0  0  0  0  0  0  0  0  0  0  0  # atno 7974 bound_to 7965
  155.9757  140.3381  155.6617 H   0  0  0  0  0  0  0  0  0  0  0  0  # atno 8008 bound_to 7997
  155.6615  140.0716  157.2570 H   0  0  0  0  0  0  0  0  0  0  0  0  # atno 8009 bound_to 7997
  154.4178  140.1708  156.1769 H   0  0  0  0  0  0  0  0  0  0  0  0  # atno 8010 bound_to 7997
  139.8473  144.6611  150.9211 H   0  0  0  0  0  0  0  0  0  0  0  0  # atno 10167 bound_to 10162
  156.5041  130.8405  151.2621 H   0  0  0  0  0  0  0  0  0  0  0  0  # atno 10718 bound_to 10713
  153.3999  135.3860  155.1980 H   0  0  0  0  0  0  0  0  0  0  0  0  # atno 10763 bound_to 10752
  154.8728  135.3769  154.4632 H   0  0  0  0  0  0  0  0  0  0  0  0  # atno 10764 bound_to 10752
  153.5128  135.7087  153.5834 H   0  0  0  0  0  0  0  0  0  0  0  0  # atno 10765 bound_to 10752
  141.0999  133.6619  156.4239 H   0  0  0  0  0  0  0  0  0  0  0  0  # atno 11005 bound_to 11000
  145.1064  140.9378  143.4682 LP  0  0  0  0  0  0  0  0  0  0  0  0  # atno 17320 bound_to 7965
  145.0620  139.3098  143.5875 LP  0  0  0  0  0  0  0  0  0  0  0  0  # atno 17321 bound_to 7965
  140.7791  143.3859  151.1395 LP  0  0  0  0  0  0  0  0  0  0  0  0  # atno 17342 bound_to 10162
  139.7500  143.8793  152.3074 LP  0  0  0  0  0  0  0  0  0  0  0  0  # atno 17343 bound_to 10162
  157.7459  130.9972  150.2807 LP  0  0  0  0  0  0  0  0  0  0  0  0  # atno 17370 bound_to 10713
  156.3304  130.3799  149.7496 LP  0  0  0  0  0  0  0  0  0  0  0  0  # atno 17371 bound_to 10713
  140.5049  134.6450  157.5262 LP  0  0  0  0  0  0  0  0  0  0  0  0  # atno 17394 bound_to 11000
  139.9847  134.7081  155.9796 LP  0  0  0  0  0  0  0  0  0  0  0  0  # atno 17395 bound_to 11000

$$$$
