AV-unprocessed.smi:1878|AV-procd|sdf|7626|dock2
  -GOLD-   22720 9353D 1   1.00000     0.00000
 Structure written by MMmdl.
 35 36  0  0  0  0  0  0  0  0  1 V2000
  145.9850  138.6025  154.5758 O   0  0  0  0  0  0  0  0  0  0  0  0
  146.7798  137.9353  153.9141 C   0  0  0  0  0  0  0  0  0  0  0  0
  146.4035  137.0007  153.0308 N   0  0  0  0  0  0  0  0  0  0  0  0
  145.0227  136.6208  152.7481 C   0  0  0  0  0  0  0  0  0  0  0  0
  144.9395  135.3433  151.8954 C   0  0  0  0  0  0  0  0  0  0  0  0
  145.6443  134.3782  152.4844 F   0  0  0  0  0  0  0  0  0  0  0  0
  143.6723  134.9421  151.7897 F   0  0  0  0  0  0  0  0  0  0  0  0
  145.4377  135.5495  150.6764 F   0  0  0  0  0  0  0  0  0  0  0  0
  148.1184  138.0491  153.9599 N   0  0  0  0  0  0  0  0  0  0  0  0
  148.9048  138.9125  154.7694 C   0  0  0  0  0  0  0  0  0  0  0  0
  148.4568  139.5002  155.9763 C   0  0  0  0  0  0  0  0  0  0  0  0
  149.3382  140.3271  156.6987 C   0  0  0  0  0  0  0  0  0  0  0  0
  150.6411  140.5348  156.2015 C   0  0  0  0  0  0  0  0  0  0  0  0
  151.5141  141.3640  156.9222 N   0  0  0  0  0  0  0  0  0  0  0  0
  151.1192  142.7599  157.0162 C   0  0  0  0  0  0  0  0  0  0  0  0
  151.9840  143.3521  158.1319 C   0  0  0  0  0  0  0  0  0  0  0  0
  152.4149  142.1470  158.9771 C   0  0  0  0  0  0  0  0  0  0  0  0
  151.7852  140.9353  158.2844 C   0  0  0  0  0  0  0  0  0  0  0  0
  151.0807  139.9635  155.0548 N   0  0  0  0  0  0  0  0  0  0  0  0
  150.2310  139.1722  154.3667 C   0  0  0  0  0  0  0  0  0  0  0  0
  147.1228  136.5013  152.5286 H   0  0  0  0  0  0  0  0  0  0  0  0
  144.4605  136.4974  153.6754 H   0  0  0  0  0  0  0  0  0  0  0  0
  144.5533  137.4483  152.2153 H   0  0  0  0  0  0  0  0  0  0  0  0
  148.6351  137.4895  153.2973 H   0  0  0  0  0  0  0  0  0  0  0  0
  147.4672  139.3248  156.3682 H   0  0  0  0  0  0  0  0  0  0  0  0
  149.0184  140.7891  157.6215 H   0  0  0  0  0  0  0  0  0  0  0  0
  151.2759  143.2773  156.0692 H   0  0  0  0  0  0  0  0  0  0  0  0
  150.0634  142.8448  157.2767 H   0  0  0  0  0  0  0  0  0  0  0  0
  152.8626  143.8413  157.7097 H   0  0  0  0  0  0  0  0  0  0  0  0
  151.4370  144.0950  158.7133 H   0  0  0  0  0  0  0  0  0  0  0  0
  153.5022  142.0622  158.9757 H   0  0  0  0  0  0  0  0  0  0  0  0
  152.0893  142.2292  160.0143 H   0  0  0  0  0  0  0  0  0  0  0  0
  150.8591  140.6547  158.7885 H   0  0  0  0  0  0  0  0  0  0  0  0
  152.4519  140.0726  158.2998 H   0  0  0  0  0  0  0  0  0  0  0  0
  150.6238  138.7360  153.4595 H   0  0  0  0  0  0  0  0  0  0  0  0
  1  2  2  0  0  0  0
  2  3  1  0  0  0  0
  2  9  1  0  0  0  0
  3  4  1  0  0  0  0
  3 21  1  0  0  0  0
  4  5  1  0  0  0  0
  4 22  1  0  0  0  0
  4 23  1  0  0  0  0
  5  6  1  0  0  0  0
  5  7  1  0  0  0  0
  5  8  1  0  0  0  0
  9 10  1  0  0  0  0
  9 24  1  0  0  0  0
 10 20  1  0  0  0  0
 10 11  2  0  0  0  0
 11 12  1  0  0  0  0
 11 25  1  0  0  0  0
 12 13  2  0  0  0  0
 12 26  1  0  0  0  0
 13 14  1  0  0  0  0
 13 19  1  0  0  0  0
 14 18  1  0  0  0  0
 14 15  1  0  0  0  0
 15 16  1  0  0  0  0
 15 27  1  0  0  0  0
 15 28  1  0  0  0  0
 16 17  1  0  0  0  0
 16 29  1  0  0  0  0
 16 30  1  0  0  0  0
 17 18  1  0  0  0  0
 17 31  1  0  0  0  0
 17 32  1  0  0  0  0
 18 33  1  0  0  0  0
 18 34  1  0  0  0  0
 19 20  2  0  0  0  0
 20 35  1  0  0  0  0
M  END
> <s_m_source_file>
AV-unprocessed.smi

> <i_m_source_file_index>
1878

> <i_lp_mmshare_version>
43012

> <i_f3d_flags>
0

> <s_epik_input>
RkMoRikoRilbQ0gyXVtOSF1DKD1PKVtOSF1jMVtjSF1bY0hdYyhuW2NIXTEpTjJbQ0gyXVtDSDJdW0NIMl1bQ0gyXTI=

> <s_epik_cmdline>
J2VwaWtfcHl0aG9uJywgJy1waCcsICc3LjAnLCAnLXRuJywgJzgnLCAnLW1hJywgJzIwMCcsICctbWV0YWxfYmluZGluZycsICctaW1hZScsICc8aW5maWxlLm1hZT4nLCAnLW9tYWUnLCAnPG91dGZpbGUubWFlPic=

> <r_lp_tautomer_probability>
1

> <r_epik_Ionization_Penalty>
0.0792036

> <r_epik_Ionization_Penalty_Charging>
0

> <r_epik_Ionization_Penalty_Neutral>
0.0792036

> <r_epik_State_Penalty>
0.0695266

> <r_epik_Charging_Adjusted_Penalty>
0.0695266

> <i_epik_Tot_Q>
0

> <i_epik_Tot_abs_Q>
0

> <r_epik_Metal_State_Penalty>
0.068466

> <b_epik_Metal_Only>
0

> <s_lp_Force_Field>
OPLS_2005

> <r_lp_Energy>
32.2563

> <b_lp_Chiralities_Consistent>
1

> <s_lp_Variant>
AV-unprocessed.smi:1878-1

> <Gold.Version>
5.8.1

> <Gold.Id.Protein>
6NUR|6NUR_protein|mol2

> <Gold.PLP.Fitness>
40.1694

> <Gold.PLP.PLP>
-29.6334

> <Gold.PLP.part.hbond>
-3.0000

> <Gold.PLP.part.metal>
0.0000

> <Gold.PLP.part.buried>
-3.9587

> <Gold.PLP.part.nonpolar>
-23.4249

> <Gold.PLP.part.repulsive>
0.1495

> <Gold.PLP.ligand.clash>
0.0000

> <Gold.PLP.ligand.torsion>
0.2066

> <Gold.PLP.Chemscore.Hbond>
2.7000

> <Gold.PLP.Chemscore.CHOScore>
0.9371

> <Gold.PLP.Chemscore.Metal>
0.0000

> <Gold.Chemscore.Hbonds>
donor molecule, donor type, donor heavy atom, donor atom, acceptor molecule, acceptor atom, score
      L1  H     3    21       P1  7948  1.00
      L1  H     9    24       P1  7948  1.00
      P1  H  7989  7998       L1    19  0.65
      L1  C    20    35       P1  7957  0.19

> <Gold.PLP.Chemscore.Internal.Correction>
0.0378

> <Gold.Rescore>
     Score         DG    S(hbond)    S(metal)    S(lipo)     H(rot)  DE(clash)    DE(int)     intcor
     15.98     -16.59       2.10        0.00      64.09       1.33       0.18       0.43       ----

> <Gold.Chemscore.Fitness>
15.9784

> <Gold.Chemscore.DG>
-16.5869

> <Gold.Chemscore.ZeroCoef>
-5.4800

> <Gold.Chemscore.Hbond>
2.1012

> <Gold.Chemscore.Metal>
0.0000

> <Gold.Chemscore.Lipo>
64.0874

> <Gold.Chemscore.Internal_Hbond>
0.0000

> <Gold.Chemscore.DEClash>
0.1765

> <Gold.Chemscore.DEInternal>
0.4320

> <Gold.Chemscore.Rot>
1.3317

> <Gold.Chemscore.Internal.Correction>
   9.000000E+99

> <Gold.Chemscore.Hbonds>
donor molecule, donor type, donor heavy atom, donor atom, acceptor molecule, acceptor atom, score
      L1  H     3    21       P1  7948  0.97
      L1  H     9    24       P1  7948  0.99
      P1  H  7989  7998       L1    19  0.06

> <Gold.Chemscore.Hbond.Weighted>
-7.0179

> <Gold.Chemscore.Metal.Weighted>
-0.0000

> <Gold.Chemscore.Lipo.Weighted>
-7.4982

> <Gold.Chemscore.Internal_Hbond.Weighted>
0.0000

> <Gold.Chemscore.DEClash.Weighted>
0.1765

> <Gold.Chemscore.DEInternal.Weighted>
0.4320

> <Gold.Chemscore.Rot.Weighted>
3.4092

> <Gold.Chemscore.Internal.Correction.Weighted>
   9.000000E+99

> <Gold.Protein.RotatedTorsions>
[ 6907 6896 6895 6894 ] final  -96.26 input  -60.11 | X-H torsion
[ 7974 7965 7964 7962 ] final  -70.99 input  175.53 | X-H torsion
[ 8008 7997 7996 7995 ] final  132.54 input   59.86 | X-H torsion
[ 10167 10162 10161 10158 ] final   86.00 input  -65.29 | X-H torsion
[ 10718 10713 10712 10709 ] final  -24.24 input   66.30 | X-H torsion
[ 10763 10752 10751 10750 ] final    8.87 input  -60.55 | X-H torsion
[ 11005 11000 10999 10996 ] final   25.01 input  -57.11 | X-H torsion

> <Gold.Protein.ActiveResidues>
 VAL166  LYS551  ARG553  GLY616  TRP617  ASP618  TYR619  PRO620  LYS621  CYS622 
 ASP623  PHE694  ASN695  SER759  ASP760  ASP761  ALA762  ILE779  LEU786  VAL792 
 PHE793  MET794  SER795  GLU796  ALA797  LYS798  CYS799  TRP800  GLU811  SER814 

> <Gold.Protein.RotatedAtoms>
  150.6984  134.1531  159.4147 H   0  0  0  0  0  0  0  0  0  0  0  0  # atno 6907 bound_to 6896
  151.9513  135.0165  160.0551 H   0  0  0  0  0  0  0  0  0  0  0  0  # atno 6908 bound_to 6896
  152.2008  133.4805  159.5094 H   0  0  0  0  0  0  0  0  0  0  0  0  # atno 6909 bound_to 6896
  145.6839  140.9178  143.0818 H   0  0  0  0  0  0  0  0  0  0  0  0  # atno 7974 bound_to 7965
  156.2983  140.2544  156.3105 H   0  0  0  0  0  0  0  0  0  0  0  0  # atno 8008 bound_to 7997
  154.9330  140.0398  157.2077 H   0  0  0  0  0  0  0  0  0  0  0  0  # atno 8009 bound_to 7997
  154.8199  140.2858  155.5798 H   0  0  0  0  0  0  0  0  0  0  0  0  # atno 8010 bound_to 7997
  139.8919  144.6380  150.8729 H   0  0  0  0  0  0  0  0  0  0  0  0  # atno 10167 bound_to 10162
  156.4803  130.4544  149.6815 H   0  0  0  0  0  0  0  0  0  0  0  0  # atno 10718 bound_to 10713
  153.2203  135.6880  153.8008 H   0  0  0  0  0  0  0  0  0  0  0  0  # atno 10763 bound_to 10752
  153.7209  135.3267  155.3267 H   0  0  0  0  0  0  0  0  0  0  0  0  # atno 10764 bound_to 10752
  154.8266  135.4613  154.1047 H   0  0  0  0  0  0  0  0  0  0  0  0  # atno 10765 bound_to 10752
  140.3525  134.2214  155.7679 H   0  0  0  0  0  0  0  0  0  0  0  0  # atno 11005 bound_to 11000
  144.7017  139.8732  143.7442 LP  0  0  0  0  0  0  0  0  0  0  0  0  # atno 17320 bound_to 7965
  146.0941  139.3932  143.0387 LP  0  0  0  0  0  0  0  0  0  0  0  0  # atno 17321 bound_to 7965
  140.7725  143.3503  151.2028 LP  0  0  0  0  0  0  0  0  0  0  0  0  # atno 17342 bound_to 10162
  139.7102  143.9390  152.2944 LP  0  0  0  0  0  0  0  0  0  0  0  0  # atno 17343 bound_to 10162
  156.3528  130.7441  151.2403 LP  0  0  0  0  0  0  0  0  0  0  0  0  # atno 17370 bound_to 10713
  157.7484  131.0372  150.4446 LP  0  0  0  0  0  0  0  0  0  0  0  0  # atno 17371 bound_to 10713
  141.2008  133.7978  157.0471 LP  0  0  0  0  0  0  0  0  0  0  0  0  # atno 17394 bound_to 11000
  140.0692  134.9712  157.1438 LP  0  0  0  0  0  0  0  0  0  0  0  0  # atno 17395 bound_to 11000

$$$$
