AV-unprocessed.smi:134|AV-procd|sdf|1168|dock8
  -GOLD-   2262018313D 1   1.00000     0.00000
 Structure written by MMmdl.
 51 54  0  0  0  0  0  0  0  0  1 V2000
  150.3345  137.7745  159.6564 O   0  0  0  0  0  0  0  0  0  0  0  0
  150.7085  137.5498  158.5065 C   0  0  0  0  0  0  0  0  0  0  0  0
  151.7948  138.4557  157.8960 C   0  0  0  0  0  0  0  0  0  0  0  0
  151.2927  139.6831  157.2332 N   0  0  0  0  0  0  0  0  0  0  0  0
  151.7124  140.9426  157.7300 C   0  0  0  0  0  0  0  0  0  0  0  0
  152.4832  141.0252  158.6870 O   0  0  0  0  0  0  0  0  0  0  0  0
  151.1606  142.1065  157.0463 C   0  0  0  0  0  0  0  0  0  0  0  0
  151.4984  143.3410  157.4557 F   0  0  0  0  0  0  0  0  0  0  0  0
  150.3092  141.9642  156.0102 C   0  0  0  0  0  0  0  0  0  0  0  0
  149.9109  140.7288  155.5317 N   0  0  0  0  0  0  0  0  0  0  0  0
  148.9589  140.6002  154.3604 C   0  0  1  0  0  0  0  0  0  0  0  0
  147.6136  140.0374  154.8271 C   0  0  0  0  0  0  0  0  0  0  0  0
  146.8519  141.2999  155.1617 C   0  0  0  0  0  0  0  0  0  0  0  0
  147.3607  142.2582  154.0898 C   0  0  0  0  0  0  0  0  0  0  0  0
  148.7081  141.8683  153.8259 O   0  0  0  0  0  0  0  0  0  0  0  0
  150.3935  139.5535  156.1477 C   0  0  0  0  0  0  0  0  0  0  0  0
  150.0306  138.4436  155.7526 O   0  0  0  0  0  0  0  0  0  0  0  0
  150.2427  136.5395  157.7472 N   0  0  0  0  0  0  0  0  0  0  0  0
  149.2446  135.5737  158.0518 C   0  0  0  0  0  0  0  0  0  0  0  0
  148.4191  135.6672  159.1986 C   0  0  0  0  0  0  0  0  0  0  0  0
  147.4207  134.7035  159.4381 C   0  0  0  0  0  0  0  0  0  0  0  0
  147.2284  133.6446  158.5318 C   0  0  0  0  0  0  0  0  0  0  0  0
  148.0322  133.5519  157.3807 C   0  0  0  0  0  0  0  0  0  0  0  0
  149.0344  134.5125  157.1379 C   0  0  0  0  0  0  0  0  0  0  0  0
  150.0304  134.3596  155.6841 S   0  0  0  0  0  0  0  0  0  0  0  0
  149.0051  133.3015  154.7176 C   0  0  0  0  0  0  0  0  0  0  0  0
  149.4207  131.9863  154.4296 C   0  0  0  0  0  0  0  0  0  0  0  0
  148.6069  131.1490  153.6427 C   0  0  0  0  0  0  0  0  0  0  0  0
  147.3765  131.6253  153.1480 C   0  0  0  0  0  0  0  0  0  0  0  0
  146.3812  130.6008  152.1804 Cl  0  0  0  0  0  0  0  0  0  0  0  0
  146.9588  132.9386  153.4428 C   0  0  0  0  0  0  0  0  0  0  0  0
  147.7728  133.7776  154.2286 C   0  0  0  0  0  0  0  0  0  0  0  0
  152.5006  138.7123  158.6874 H   0  0  0  0  0  0  0  0  0  0  0  0
  152.3886  137.8529  157.2072 H   0  0  0  0  0  0  0  0  0  0  0  0
  149.9291  142.8636  155.5495 H   0  0  0  0  0  0  0  0  0  0  0  0
  149.4732  139.9794  153.6249 H   0  0  0  0  0  0  0  0  0  0  0  0
  147.1445  139.5140  153.9932 H   0  0  0  0  0  0  0  0  0  0  0  0
  147.7188  139.3492  155.6634 H   0  0  0  0  0  0  0  0  0  0  0  0
  145.7701  141.1671  155.1381 H   0  0  0  0  0  0  0  0  0  0  0  0
  147.1307  141.6557  156.1544 H   0  0  0  0  0  0  0  0  0  0  0  0
  146.7813  142.1421  153.1732 H   0  0  0  0  0  0  0  0  0  0  0  0
  147.2999  143.3018  154.3991 H   0  0  0  0  0  0  0  0  0  0  0  0
  150.7129  136.4042  156.8640 H   0  0  0  0  0  0  0  0  0  0  0  0
  148.5234  136.4810  159.8996 H   0  0  0  0  0  0  0  0  0  0  0  0
  146.7960  134.7824  160.3156 H   0  0  0  0  0  0  0  0  0  0  0  0
  146.4610  132.9073  158.7165 H   0  0  0  0  0  0  0  0  0  0  0  0
  147.8796  132.7397  156.6850 H   0  0  0  0  0  0  0  0  0  0  0  0
  150.3620  131.6171  154.8074 H   0  0  0  0  0  0  0  0  0  0  0  0
  148.9283  130.1424  153.4192 H   0  0  0  0  0  0  0  0  0  0  0  0
  146.0153  133.3045  153.0651 H   0  0  0  0  0  0  0  0  0  0  0  0
  147.4519  134.7850  154.4504 H   0  0  0  0  0  0  0  0  0  0  0  0
  1  2  2  0  0  0  0
  2  3  1  0  0  0  0
  2 18  1  0  0  0  0
  3  4  1  0  0  0  0
  3 33  1  0  0  0  0
  3 34  1  0  0  0  0
  4 16  1  0  0  0  0
  4  5  1  0  0  0  0
  5  6  2  0  0  0  0
  5  7  1  0  0  0  0
  7  8  1  0  0  0  0
  7  9  2  0  0  0  0
  9 10  1  0  0  0  0
  9 35  1  0  0  0  0
 10 11  1  0  0  0  0
 10 16  1  0  0  0  0
 11 15  1  0  0  0  0
 11 12  1  0  0  0  0
 11 36  1  0  0  0  0
 12 13  1  0  0  0  0
 12 37  1  0  0  0  0
 12 38  1  0  0  0  0
 13 14  1  0  0  0  0
 13 39  1  0  0  0  0
 13 40  1  0  0  0  0
 14 15  1  0  0  0  0
 14 41  1  0  0  0  0
 14 42  1  0  0  0  0
 16 17  2  0  0  0  0
 18 19  1  0  0  0  0
 18 43  1  0  0  0  0
 19 24  1  0  0  0  0
 19 20  2  0  0  0  0
 20 21  1  0  0  0  0
 20 44  1  0  0  0  0
 21 22  2  0  0  0  0
 21 45  1  0  0  0  0
 22 23  1  0  0  0  0
 22 46  1  0  0  0  0
 23 24  2  0  0  0  0
 23 47  1  0  0  0  0
 24 25  1  0  0  0  0
 25 26  1  0  0  0  0
 26 32  1  0  0  0  0
 26 27  2  0  0  0  0
 27 28  1  0  0  0  0
 27 48  1  0  0  0  0
 28 29  2  0  0  0  0
 28 49  1  0  0  0  0
 29 30  1  0  0  0  0
 29 31  1  0  0  0  0
 31 32  2  0  0  0  0
 31 50  1  0  0  0  0
 32 51  1  0  0  0  0
M  END
> <s_m_source_file>
AV-unprocessed.smi

> <i_m_source_file_index>
134

> <i_lp_mmshare_version>
43012

> <i_f3d_flags>
0

> <s_epik_input>
TzFbQ0gyXVtDSDJdW0NIMl1bQ0BIXTFuKGMyPU8pW2NIXWMoRiljKD1PKW4yW0NIMl1DKD1PKVtOSF1jM1tjSF1bY0hdW2NIXVtjSF1jM1NjNFtjSF1bY0hdYyhDbClbY0hdW2NIXTQ=

> <s_epik_cmdline>
J2VwaWtfcHl0aG9uJywgJy1waCcsICc3LjAnLCAnLXRuJywgJzgnLCAnLW1hJywgJzIwMCcsICctbWV0YWxfYmluZGluZycsICctaW1hZScsICc8aW5maWxlLm1hZT4nLCAnLW9tYWUnLCAnPG91dGZpbGUubWFlPic=

> <r_lp_tautomer_probability>
1

> <r_epik_Ionization_Penalty>
2.01717e-06

> <r_epik_Ionization_Penalty_Charging>
3.88729e-08

> <r_epik_Ionization_Penalty_Neutral>
1.9783e-06

> <r_epik_State_Penalty>
-0

> <r_epik_Charging_Adjusted_Penalty>
3.88729e-08

> <i_epik_Tot_Q>
0

> <i_epik_Tot_abs_Q>
0

> <r_epik_Metal_State_Penalty>
-0

> <b_epik_Metal_Only>
0

> <s_epik_Chemistry_Notes>
This compound contains an acetal/aminal-like group ( X-CH(R)-Y where X, Y are N, S, or O) that may be acid/base labile, releasing an aldehyde.

> <s_lp_Force_Field>
OPLS_2005

> <r_lp_Energy>
34.7756

> <b_lp_Chiralities_Consistent>
1

> <s_lp_Variant>
AV-unprocessed.smi:134-2

> <Gold.Version>
5.8.1

> <Gold.Id.Protein>
6NUR|6NUR_protein|mol2

> <Gold.PLP.Fitness>
46.6844

> <Gold.PLP.PLP>
-43.7476

> <Gold.PLP.part.hbond>
-2.0000

> <Gold.PLP.part.metal>
0.0000

> <Gold.PLP.part.buried>
-3.5210

> <Gold.PLP.part.nonpolar>
-38.2532

> <Gold.PLP.part.repulsive>
0.3091

> <Gold.PLP.ligand.clash>
0.0000

> <Gold.PLP.ligand.torsion>
0.7972

> <Gold.PLP.Chemscore.Hbond>
0.4800

> <Gold.PLP.Chemscore.CHOScore>
1.0000

> <Gold.PLP.Chemscore.Metal>
0.0000

> <Gold.Chemscore.Hbonds>
donor molecule, donor type, donor heavy atom, donor atom, acceptor molecule, acceptor atom, score
      P1  H  8011  8017       L1    15  0.51
      L1  C     9    35       P1  8028  1.00

> <Gold.PLP.Chemscore.Internal.Correction>
0.0912

> <Gold.Rescore>
     Score         DG    S(hbond)    S(metal)    S(lipo)     H(rot)  DE(clash)    DE(int)     intcor
      9.59     -13.07       0.58        0.00      91.08       1.95       0.20       3.28       ----

> <Gold.Chemscore.Fitness>
9.5918

> <Gold.Chemscore.DG>
-13.0719

> <Gold.Chemscore.ZeroCoef>
-5.4800

> <Gold.Chemscore.Hbond>
0.5808

> <Gold.Chemscore.Metal>
0.0000

> <Gold.Chemscore.Lipo>
91.0828

> <Gold.Chemscore.Internal_Hbond>
0.0000

> <Gold.Chemscore.DEClash>
0.1982

> <Gold.Chemscore.DEInternal>
3.2818

> <Gold.Chemscore.Rot>
1.9549

> <Gold.Chemscore.Internal.Correction>
   9.000000E+99

> <Gold.Chemscore.Hbonds>
donor molecule, donor type, donor heavy atom, donor atom, acceptor molecule, acceptor atom, score
      P1  H  8011  8017       L1    15  0.50

> <Gold.Chemscore.Hbond.Weighted>
-1.9398

> <Gold.Chemscore.Metal.Weighted>
-0.0000

> <Gold.Chemscore.Lipo.Weighted>
-10.6567

> <Gold.Chemscore.Internal_Hbond.Weighted>
0.0000

> <Gold.Chemscore.DEClash.Weighted>
0.1982

> <Gold.Chemscore.DEInternal.Weighted>
3.2818

> <Gold.Chemscore.Rot.Weighted>
5.0046

> <Gold.Chemscore.Internal.Correction.Weighted>
   9.000000E+99

> <Gold.Protein.RotatedTorsions>
[ 6907 6896 6895 6894 ] final -117.73 input  -60.11 | X-H torsion
[ 7974 7965 7964 7962 ] final  -59.24 input  175.53 | X-H torsion
[ 8008 7997 7996 7995 ] final   69.46 input   59.86 | X-H torsion
[ 10167 10162 10161 10158 ] final   27.50 input  -65.29 | X-H torsion
[ 10718 10713 10712 10709 ] final   98.65 input   66.30 | X-H torsion
[ 10763 10752 10751 10750 ] final  -48.72 input  -60.55 | X-H torsion
[ 11005 11000 10999 10996 ] final  -50.93 input  -57.11 | X-H torsion

> <Gold.Protein.ActiveResidues>
 VAL166  LYS551  ARG553  GLY616  TRP617  ASP618  TYR619  PRO620  LYS621  CYS622 
 ASP623  PHE694  ASN695  SER759  ASP760  ASP761  ALA762  ILE779  LEU786  VAL792 
 PHE793  MET794  SER795  GLU796  ALA797  LYS798  CYS799  TRP800  GLU811  SER814 

> <Gold.Protein.RotatedAtoms>
  150.8161  133.8335  159.3159 H   0  0  0  0  0  0  0  0  0  0  0  0  # atno 6907 bound_to 6896
  151.6107  135.1038  160.0090 H   0  0  0  0  0  0  0  0  0  0  0  0  # atno 6908 bound_to 6896
  152.4252  133.7142  159.6553 H   0  0  0  0  0  0  0  0  0  0  0  0  # atno 6909 bound_to 6896
  145.8299  140.8486  143.0089 H   0  0  0  0  0  0  0  0  0  0  0  0  # atno 7974 bound_to 7965
  155.7239  140.3493  155.5028 H   0  0  0  0  0  0  0  0  0  0  0  0  # atno 8008 bound_to 7997
  155.9244  140.1073  157.1203 H   0  0  0  0  0  0  0  0  0  0  0  0  # atno 8009 bound_to 7997
  154.4075  140.1243  156.4708 H   0  0  0  0  0  0  0  0  0  0  0  0  # atno 8010 bound_to 7997
  140.4932  144.0433  150.6305 H   0  0  0  0  0  0  0  0  0  0  0  0  # atno 10167 bound_to 10162
  157.6891  131.0646  150.4828 H   0  0  0  0  0  0  0  0  0  0  0  0  # atno 10718 bound_to 10713
  154.0824  135.6589  153.4840 H   0  0  0  0  0  0  0  0  0  0  0  0  # atno 10763 bound_to 10752
  153.0351  135.5183  154.7461 H   0  0  0  0  0  0  0  0  0  0  0  0  # atno 10764 bound_to 10752
  154.6560  135.3008  154.9895 H   0  0  0  0  0  0  0  0  0  0  0  0  # atno 10765 bound_to 10752
  141.0843  133.6646  156.3803 H   0  0  0  0  0  0  0  0  0  0  0  0  # atno 11005 bound_to 11000
  144.6740  140.0656  143.7474 LP  0  0  0  0  0  0  0  0  0  0  0  0  # atno 17320 bound_to 7965
  145.9583  139.2782  143.1171 LP  0  0  0  0  0  0  0  0  0  0  0  0  # atno 17321 bound_to 7965
  140.3708  143.2856  152.0280 LP  0  0  0  0  0  0  0  0  0  0  0  0  # atno 17342 bound_to 10162
  139.4856  144.6231  151.7216 LP  0  0  0  0  0  0  0  0  0  0  0  0  # atno 17343 bound_to 10162
  156.5159  130.4150  149.6276 LP  0  0  0  0  0  0  0  0  0  0  0  0  # atno 17370 bound_to 10713
  156.3198  130.7274  151.2184 LP  0  0  0  0  0  0  0  0  0  0  0  0  # atno 17371 bound_to 10713
  140.5398  134.6131  157.5376 LP  0  0  0  0  0  0  0  0  0  0  0  0  # atno 17394 bound_to 11000
  139.9660  134.7373  156.0138 LP  0  0  0  0  0  0  0  0  0  0  0  0  # atno 17395 bound_to 11000

$$$$
