AV-unprocessed.smi:703|AV-procd|sdf|3427|dock6
  -GOLD-   22720 0413D 1   1.00000     0.00000
 Structure written by MMmdl.
 38 39  0  0  0  0  0  0  0  0  2 V2000
  144.8425  134.8591  151.2392 C   0  0  0  0  0  0  0  0  0  0  0  0
  145.3017  136.2867  150.9135 C   0  0  0  0  0  0  0  0  0  0  0  0
  146.1897  136.8422  151.9615 N   0  3  2  0  0  0  0  0  0  0  0  0
  145.6027  136.9106  153.3143 C   0  0  0  0  0  0  0  0  0  0  0  0
  146.4919  137.8897  154.0842 C   0  0  1  0  0  0  0  0  0  0  0  0
  147.6930  137.1529  154.7137 C   0  0  0  0  0  0  0  0  0  0  0  0
  146.8506  138.9300  153.0021 C   0  0  1  0  0  0  0  0  0  0  0  0
  148.1855  139.5097  153.1961 N   0  0  0  0  0  0  0  0  0  0  0  0
  148.4042  140.6966  154.4302 S   0  0  0  0  0  0  0  0  0  0  0  0
  149.2620  141.7556  153.8771 O   0  0  0  0  0  0  0  0  0  0  0  0
  147.0774  141.0328  154.9691 O   0  0  0  0  0  0  0  0  0  0  0  0
  149.3427  139.7688  155.7157 C   0  0  0  0  0  0  0  0  0  0  0  0
  150.7221  139.4609  155.2073 C   0  0  0  0  0  0  0  0  0  0  0  0
  151.2046  138.2492  154.6397 C   0  0  0  0  0  0  0  0  0  0  0  0
  152.5118  138.5263  154.3609 C   0  0  0  0  0  0  0  0  0  0  0  0
  152.8161  139.7972  154.7262 O   0  0  0  0  0  0  0  0  0  0  0  0
  151.6673  140.3855  155.2671 N   0  0  0  0  0  0  0  0  0  0  0  0
  146.7202  138.1885  151.6576 C   0  0  0  0  0  0  0  0  0  0  0  0
  144.2441  134.4520  150.4240 H   0  0  0  0  0  0  0  0  0  0  0  0
  144.2296  134.8283  152.1402 H   0  0  0  0  0  0  0  0  0  0  0  0
  145.6941  134.1946  151.3876 H   0  0  0  0  0  0  0  0  0  0  0  0
  145.8476  136.2698  149.9692 H   0  0  0  0  0  0  0  0  0  0  0  0
  144.4405  136.9399  150.7669 H   0  0  0  0  0  0  0  0  0  0  0  0
  144.5891  137.3105  153.2506 H   0  0  0  0  0  0  0  0  0  0  0  0
  145.5441  135.9290  153.7858 H   0  0  0  0  0  0  0  0  0  0  0  0
  145.9243  138.3601  154.8885 H   0  0  0  0  0  0  0  0  0  0  0  0
  148.3237  136.6871  153.9555 H   0  0  0  0  0  0  0  0  0  0  0  0
  147.3563  136.3680  155.3912 H   0  0  0  0  0  0  0  0  0  0  0  0
  148.3155  137.8313  155.2978 H   0  0  0  0  0  0  0  0  0  0  0  0
  146.1092  139.7297  153.0361 H   0  0  0  0  0  0  0  0  0  0  0  0
  148.5833  139.8254  152.3117 H   0  0  0  0  0  0  0  0  0  0  0  0
  149.3751  140.3735  156.6228 H   0  0  0  0  0  0  0  0  0  0  0  0
  148.8001  138.8521  155.9455 H   0  0  0  0  0  0  0  0  0  0  0  0
  150.6749  137.3249  154.4620 H   0  0  0  0  0  0  0  0  0  0  0  0
  153.3157  137.9518  153.9244 H   0  0  0  0  0  0  0  0  0  0  0  0
  147.6724  138.0804  151.1373 H   0  0  0  0  0  0  0  0  0  0  0  0
  146.0461  138.7379  150.9983 H   0  0  0  0  0  0  0  0  0  0  0  0
  146.9945  136.2358  152.0304 H   0  0  0  0  0  0  0  0  0  0  0  0
  1  2  1  0  0  0  0
  1 19  1  0  0  0  0
  1 20  1  0  0  0  0
  1 21  1  0  0  0  0
  2  3  1  0  0  0  0
  2 22  1  0  0  0  0
  2 23  1  0  0  0  0
  3 18  1  0  0  0  0
  3  4  1  0  0  0  0
  3 38  1  0  0  0  0
  4  5  1  0  0  0  0
  4 24  1  0  0  0  0
  4 25  1  0  0  0  0
  5  6  1  0  0  0  0
  5  7  1  0  0  0  0
  5 26  1  0  0  0  0
  6 27  1  0  0  0  0
  6 28  1  0  0  0  0
  6 29  1  0  0  0  0
  7  8  1  0  0  0  0
  7 18  1  0  0  0  0
  7 30  1  0  0  0  0
  8  9  1  0  0  0  0
  8 31  1  0  0  0  0
  9 10  2  0  0  0  0
  9 11  2  0  0  0  0
  9 12  1  0  0  0  0
 12 13  1  0  0  0  0
 12 32  1  0  0  0  0
 12 33  1  0  0  0  0
 13 17  2  0  0  0  0
 13 14  1  0  0  0  0
 14 15  2  0  0  0  0
 14 34  1  0  0  0  0
 15 16  1  0  0  0  0
 15 35  1  0  0  0  0
 16 17  1  0  0  0  0
 18 36  1  0  0  0  0
 18 37  1  0  0  0  0
M  CHG  1   3   1
M  END
> <s_m_source_file>
AV-unprocessed.smi

> <i_m_source_file_index>
703

> <i_lp_mmshare_version>
43012

> <i_f3d_flags>
0

> <s_epik_input>
W0NIM11bQ0gyXU4xW0NIMl1bQ0BASF0oW0NIM10pW0NASF0oW0NIMl0xKVtOSF1TKD1PKSg9TylbQ0gyXWMyW2NIXVtjSF1vbjI=

> <s_epik_cmdline>
J2VwaWtfcHl0aG9uJywgJy1waCcsICc3LjAnLCAnLXRuJywgJzgnLCAnLW1hJywgJzIwMCcsICctbWV0YWxfYmluZGluZycsICctaW1hZScsICc8aW5maWxlLm1hZT4nLCAnLW9tYWUnLCAnPG91dGZpbGUubWFlPic=

> <r_epik_Ionization_Penalty>
0.00324529

> <r_epik_Ionization_Penalty_Charging>
0.0019384

> <r_epik_Ionization_Penalty_Neutral>
0.00130689

> <r_epik_State_Penalty>
0.00218682

> <r_epik_Charging_Adjusted_Penalty>
0.00412522

> <i_epik_Tot_Q>
1

> <i_epik_Tot_abs_Q>
1

> <r_epik_Metal_State_Penalty>
0.310831

> <b_epik_Metal_Only>
0

> <s_lp_Force_Field>
OPLS_2005

> <r_lp_Energy>
22.9594

> <b_lp_Chiralities_Consistent>
1

> <s_lp_Variant>
AV-unprocessed.smi:703-2

> <Gold.Version>
5.8.1

> <Gold.Id.Protein>
6NUR|6NUR_protein|mol2

> <Gold.PLP.Fitness>
41.5761

> <Gold.PLP.PLP>
-30.1756

> <Gold.PLP.part.hbond>
-6.9722

> <Gold.PLP.part.metal>
0.0000

> <Gold.PLP.part.buried>
0.6490

> <Gold.PLP.part.nonpolar>
-22.7874

> <Gold.PLP.part.repulsive>
0.4213

> <Gold.PLP.ligand.clash>
0.0000

> <Gold.PLP.ligand.torsion>
0.7696

> <Gold.PLP.Chemscore.Hbond>
4.2633

> <Gold.PLP.Chemscore.CHOScore>
0.0000

> <Gold.PLP.Chemscore.Metal>
0.0000

> <Gold.Chemscore.Hbonds>
donor molecule, donor type, donor heavy atom, donor atom, acceptor molecule, acceptor atom, score
      L1  H     3    38       P1  7948  1.70
      L1  H     8    31       P1  7957  1.00
      P1  H  7997  8009       L1    16  0.98
      P1  H  8011  8017       L1    10  0.59

> <Gold.PLP.Chemscore.Internal.Correction>
0.1499

> <Gold.Rescore>
     Score         DG    S(hbond)    S(metal)    S(lipo)     H(rot)  DE(clash)    DE(int)     intcor
     17.22     -19.74       3.40        0.00      67.19       1.94       1.61       0.91       ----

> <Gold.Chemscore.Fitness>
17.2216

> <Gold.Chemscore.DG>
-19.7376

> <Gold.Chemscore.ZeroCoef>
-5.4800

> <Gold.Chemscore.Hbond>
3.4021

> <Gold.Chemscore.Metal>
0.0000

> <Gold.Chemscore.Lipo>
67.1880

> <Gold.Chemscore.Internal_Hbond>
0.0000

> <Gold.Chemscore.DEClash>
1.6066

> <Gold.Chemscore.DEInternal>
0.9093

> <Gold.Chemscore.Rot>
1.9400

> <Gold.Chemscore.Internal.Correction>
   9.000000E+99

> <Gold.Chemscore.Hbonds>
donor molecule, donor type, donor heavy atom, donor atom, acceptor molecule, acceptor atom, score
      L1  H     3    38       P1  7948  0.82
      L1  H     8    31       P1  7957  0.95
      P1  H  7997  8009       L1    16  0.77
      P1  H  8011  8017       L1    10  0.58

> <Gold.Chemscore.Hbond.Weighted>
-11.3630

> <Gold.Chemscore.Metal.Weighted>
-0.0000

> <Gold.Chemscore.Lipo.Weighted>
-7.8610

> <Gold.Chemscore.Internal_Hbond.Weighted>
0.0000

> <Gold.Chemscore.DEClash.Weighted>
1.6066

> <Gold.Chemscore.DEInternal.Weighted>
0.9093

> <Gold.Chemscore.Rot.Weighted>
4.9665

> <Gold.Chemscore.Internal.Correction.Weighted>
   9.000000E+99

> <Gold.Protein.RotatedTorsions>
[ 6907 6896 6895 6894 ] final   -0.25 input  -60.11 | X-H torsion
[ 7974 7965 7964 7962 ] final  -93.97 input  175.53 | X-H torsion
[ 8008 7997 7996 7995 ] final -130.32 input   59.86 | X-H torsion
[ 10167 10162 10161 10158 ] final   91.89 input  -65.29 | X-H torsion
[ 10718 10713 10712 10709 ] final   41.64 input   66.30 | X-H torsion
[ 10763 10752 10751 10750 ] final   34.99 input  -60.55 | X-H torsion
[ 11005 11000 10999 10996 ] final   29.40 input  -57.11 | X-H torsion

> <Gold.Protein.ActiveResidues>
 VAL166  LYS551  ARG553  GLY616  TRP617  ASP618  TYR619  PRO620  LYS621  CYS622 
 ASP623  PHE694  ASN695  SER759  ASP760  ASP761  ALA762  ILE779  LEU786  VAL792 
 PHE793  MET794  SER795  GLU796  ALA797  LYS798  CYS799  TRP800  GLU811  SER814 

> <Gold.Protein.RotatedAtoms>
  151.5653  135.1064  159.9982 H   0  0  0  0  0  0  0  0  0  0  0  0  # atno 6907 bound_to 6896
  152.4427  133.7474  159.6685 H   0  0  0  0  0  0  0  0  0  0  0  0  # atno 6908 bound_to 6896
  150.8336  133.7982  159.3112 H   0  0  0  0  0  0  0  0  0  0  0  0  # atno 6909 bound_to 6896
  145.3795  140.9516  143.2402 H   0  0  0  0  0  0  0  0  0  0  0  0  # atno 7974 bound_to 7965
  155.2938  140.0449  157.3025 H   0  0  0  0  0  0  0  0  0  0  0  0  # atno 8008 bound_to 7997
  154.5526  140.2322  155.8429 H   0  0  0  0  0  0  0  0  0  0  0  0  # atno 8009 bound_to 7997
  156.1979  140.3033  155.9473 H   0  0  0  0  0  0  0  0  0  0  0  0  # atno 8010 bound_to 7997
  139.8330  144.6678  150.9377 H   0  0  0  0  0  0  0  0  0  0  0  0  # atno 10167 bound_to 10162
  157.3959  130.7832  149.7308 H   0  0  0  0  0  0  0  0  0  0  0  0  # atno 10718 bound_to 10713
  153.0139  135.6345  154.1756 H   0  0  0  0  0  0  0  0  0  0  0  0  # atno 10763 bound_to 10752
  154.1496  135.2830  155.3140 H   0  0  0  0  0  0  0  0  0  0  0  0  # atno 10764 bound_to 10752
  154.6063  135.5571  153.7488 H   0  0  0  0  0  0  0  0  0  0  0  0  # atno 10765 bound_to 10752
  140.3053  134.2710  155.7745 H   0  0  0  0  0  0  0  0  0  0  0  0  # atno 11005 bound_to 11000
  144.8518  139.5310  143.6853 LP  0  0  0  0  0  0  0  0  0  0  0  0  # atno 17320 bound_to 7965
  146.2848  139.6975  142.9203 LP  0  0  0  0  0  0  0  0  0  0  0  0  # atno 17321 bound_to 7965
  140.7805  143.3983  151.1192 LP  0  0  0  0  0  0  0  0  0  0  0  0  # atno 17342 bound_to 10162
  139.7635  143.8599  152.3105 LP  0  0  0  0  0  0  0  0  0  0  0  0  # atno 17343 bound_to 10162
  155.9810  130.4023  150.3495 LP  0  0  0  0  0  0  0  0  0  0  0  0  # atno 17370 bound_to 10713
  157.1617  131.0346  151.2838 LP  0  0  0  0  0  0  0  0  0  0  0  0  # atno 17371 bound_to 10713
  141.2119  133.7673  156.9828 LP  0  0  0  0  0  0  0  0  0  0  0  0  # atno 17394 bound_to 11000
  140.1073  134.9499  157.2012 LP  0  0  0  0  0  0  0  0  0  0  0  0  # atno 17395 bound_to 11000

$$$$
