AV-unprocessed.smi:2226|AV-procd|sdf|9014|dock4
  -GOLD-   2272012213D 1   1.00000     0.00000
 Structure written by MMmdl.
 40 42  0  0  0  0  0  0  0  0  2 V2000
  146.0539  143.2594  153.7911 C   0  0  0  0  0  0  0  0  0  0  0  0
  147.0809  142.6892  154.6954 N   0  3  2  0  0  0  0  0  0  0  0  0
  148.0467  141.7721  154.0426 C   0  0  1  0  0  0  0  0  0  0  0  0
  149.2797  141.6063  154.9618 C   0  0  0  0  0  0  0  0  0  0  0  0
  148.9310  141.1764  156.4014 C   0  0  0  0  0  0  0  0  0  0  0  0
  147.6990  141.9210  156.9551 C   0  0  0  0  0  0  0  0  0  0  0  0
  146.5473  142.0705  155.9334 C   0  0  2  0  0  0  0  0  0  0  0  0
  145.7804  140.7608  155.6228 C   0  0  0  0  0  0  0  0  0  0  0  0
  146.5534  139.7537  154.7402 C   0  0  1  0  0  0  0  0  0  0  0  0
  145.6032  138.8225  154.1336 N   0  0  0  0  0  0  0  0  0  0  0  0
  145.6702  137.4822  154.1527 C   0  0  0  0  0  0  0  0  0  0  0  0
  146.5920  136.8835  154.7159 O   0  0  0  0  0  0  0  0  0  0  0  0
  144.5861  136.9497  153.4696 N   0  0  0  0  0  0  0  0  0  0  0  0
  144.7730  136.2403  152.3987 C   0  0  0  0  0  0  0  0  0  0  0  0
  145.9149  135.8485  151.7046 N   0  0  0  0  0  0  0  0  0  0  0  0
  145.5247  135.0986  150.6306 C   0  0  0  0  0  0  0  0  0  0  0  0
  144.1976  135.0193  150.6442 C   0  0  0  0  0  0  0  0  0  0  0  0
  143.7098  135.7079  151.7140 O   0  0  0  0  0  0  0  0  0  0  0  0
  147.3670  140.4453  153.6218 C   0  0  0  0  0  0  0  0  0  0  0  0
  145.3898  142.4968  153.3853 H   0  0  0  0  0  0  0  0  0  0  0  0
  146.5276  143.7736  152.9544 H   0  0  0  0  0  0  0  0  0  0  0  0
  145.4432  143.9900  154.3223 H   0  0  0  0  0  0  0  0  0  0  0  0
  148.4033  142.2570  153.1326 H   0  0  0  0  0  0  0  0  0  0  0  0
  149.9908  140.9050  154.5237 H   0  0  0  0  0  0  0  0  0  0  0  0
  149.7989  142.5644  155.0102 H   0  0  0  0  0  0  0  0  0  0  0  0
  148.7792  140.1016  156.4509 H   0  0  0  0  0  0  0  0  0  0  0  0
  149.7872  141.3589  157.0515 H   0  0  0  0  0  0  0  0  0  0  0  0
  147.3431  141.4325  157.8628 H   0  0  0  0  0  0  0  0  0  0  0  0
  148.0148  142.9199  157.2598 H   0  0  0  0  0  0  0  0  0  0  0  0
  145.8333  142.7684  156.3732 H   0  0  0  0  0  0  0  0  0  0  0  0
  145.4745  140.2770  156.5512 H   0  0  0  0  0  0  0  0  0  0  0  0
  144.8493  141.0282  155.1212 H   0  0  0  0  0  0  0  0  0  0  0  0
  147.2413  139.1994  155.3729 H   0  0  0  0  0  0  0  0  0  0  0  0
  144.8170  139.2342  153.6516 H   0  0  0  0  0  0  0  0  0  0  0  0
  146.8800  136.0570  151.9185 H   0  0  0  0  0  0  0  0  0  0  0  0
  146.2592  134.6902  149.9523 H   0  0  0  0  0  0  0  0  0  0  0  0
  143.4853  134.5335  149.9940 H   0  0  0  0  0  0  0  0  0  0  0  0
  146.7031  140.6596  152.7831 H   0  0  0  0  0  0  0  0  0  0  0  0
  148.1106  139.7527  153.2261 H   0  0  0  0  0  0  0  0  0  0  0  0
  147.6238  143.4846  155.0005 H   0  0  0  0  0  0  0  0  0  0  0  0
  1  2  1  0  0  0  0
  1 20  1  0  0  0  0
  1 21  1  0  0  0  0
  1 22  1  0  0  0  0
  2  7  1  0  0  0  0
  2  3  1  0  0  0  0
  2 40  1  0  0  0  0
  3 19  1  0  0  0  0
  3  4  1  0  0  0  0
  3 23  1  0  0  0  0
  4  5  1  0  0  0  0
  4 24  1  0  0  0  0
  4 25  1  0  0  0  0
  5  6  1  0  0  0  0
  5 26  1  0  0  0  0
  5 27  1  0  0  0  0
  6  7  1  0  0  0  0
  6 28  1  0  0  0  0
  6 29  1  0  0  0  0
  7  8  1  0  0  0  0
  7 30  1  0  0  0  0
  8  9  1  0  0  0  0
  8 31  1  0  0  0  0
  8 32  1  0  0  0  0
  9 10  1  0  0  0  0
  9 19  1  0  0  0  0
  9 33  1  0  0  0  0
 10 34  1  0  0  0  0
 10 11  1  0  0  0  0
 11 13  1  0  0  0  0
 11 12  2  0  0  0  0
 13 14  2  0  0  0  0
 14 18  1  0  0  0  0
 14 15  1  0  0  0  0
 15 35  1  0  0  0  0
 15 16  1  0  0  0  0
 16 36  1  0  0  0  0
 16 17  2  0  0  0  0
 17 37  1  0  0  0  0
 17 18  1  0  0  0  0
 19 38  1  0  0  0  0
 19 39  1  0  0  0  0
M  CHG  1   2   1
M  END
> <s_m_source_file>
AV-unprocessed.smi

> <i_m_source_file_index>
2226

> <i_lp_mmshare_version>
43012

> <i_f3d_flags>
0

> <s_epik_input>
W0NIMl0xW0NIMl1bQ0gyXVtDQEhdKE4oW0NIM10pW0NIXTEyKVtDSDJdW0NASF0oW0NIMl0yKVtOSF1DKD1PKVtOSF1jM25bY0hdW2NIXW8z

> <s_epik_cmdline>
J2VwaWtfcHl0aG9uJywgJy1waCcsICc3LjAnLCAnLXRuJywgJzgnLCAnLW1hJywgJzIwMCcsICctbWV0YWxfYmluZGluZycsICctaW1hZScsICc8aW5maWxlLm1hZT4nLCAnLW9tYWUnLCAnPG91dGZpbGUubWFlPic=

> <r_lp_tautomer_probability>
0.107061

> <r_epik_Ionization_Penalty>
1.08307

> <r_epik_Ionization_Penalty_Charging>
1.08272

> <r_epik_Ionization_Penalty_Neutral>
0.000345913

> <r_epik_State_Penalty>
2.5744

> <r_epik_Charging_Adjusted_Penalty>
3.65713

> <i_epik_Tot_Q>
1

> <i_epik_Tot_abs_Q>
1

> <r_epik_Metal_State_Penalty>
3.72133

> <b_epik_Metal_Only>
0

> <s_lp_Force_Field>
OPLS_2005

> <r_lp_Energy>
58.9785

> <b_lp_Chiralities_Consistent>
1

> <s_lp_Variant>
AV-unprocessed.smi:2226-14

> <Gold.Version>
5.8.1

> <Gold.Id.Protein>
6NUR|6NUR_protein|mol2

> <Gold.PLP.Fitness>
41.8616

> <Gold.PLP.PLP>
-25.7152

> <Gold.PLP.part.hbond>
-3.0000

> <Gold.PLP.part.metal>
0.0000

> <Gold.PLP.part.buried>
-3.1814

> <Gold.PLP.part.nonpolar>
-21.0031

> <Gold.PLP.part.repulsive>
0.5546

> <Gold.PLP.ligand.clash>
0.0000

> <Gold.PLP.ligand.torsion>
0.6927

> <Gold.PLP.Chemscore.Hbond>
3.9500

> <Gold.PLP.Chemscore.CHOScore>
1.8920

> <Gold.PLP.Chemscore.Metal>
0.0000

> <Gold.Chemscore.Hbonds>
donor molecule, donor type, donor heavy atom, donor atom, acceptor molecule, acceptor atom, score
      L1  H     2    40       P1  8028  1.90
      L1  H    10    34       P1 10175  0.96
      L1  H    15    35       P1  7948  0.94
      L1  C    16    36       P1  7921  0.91
      L1  C    17    37       P1 10186  1.00

> <Gold.PLP.Chemscore.Internal.Correction>
0.0058

> <Gold.Rescore>
     Score         DG    S(hbond)    S(metal)    S(lipo)     H(rot)  DE(clash)    DE(int)     intcor
     16.58     -17.31       2.34        0.00      56.14       1.00       0.09       0.65       ----

> <Gold.Chemscore.Fitness>
16.5791

> <Gold.Chemscore.DG>
-17.3135

> <Gold.Chemscore.ZeroCoef>
-5.4800

> <Gold.Chemscore.Hbond>
2.3430

> <Gold.Chemscore.Metal>
0.0000

> <Gold.Chemscore.Lipo>
56.1371

> <Gold.Chemscore.Internal_Hbond>
0.0000

> <Gold.Chemscore.DEClash>
0.0881

> <Gold.Chemscore.DEInternal>
0.6463

> <Gold.Chemscore.Rot>
1.0000

> <Gold.Chemscore.Internal.Correction>
   9.000000E+99

> <Gold.Chemscore.Hbonds>
donor molecule, donor type, donor heavy atom, donor atom, acceptor molecule, acceptor atom, score
      L1  H     2    40       P1  8028  0.22
      L1  H    10    34       P1 10175  0.90
      L1  H    15    35       P1  7948  0.90

> <Gold.Chemscore.Hbond.Weighted>
-7.8255

> <Gold.Chemscore.Metal.Weighted>
-0.0000

> <Gold.Chemscore.Lipo.Weighted>
-6.5680

> <Gold.Chemscore.Internal_Hbond.Weighted>
0.0000

> <Gold.Chemscore.DEClash.Weighted>
0.0881

> <Gold.Chemscore.DEInternal.Weighted>
0.6463

> <Gold.Chemscore.Rot.Weighted>
2.5600

> <Gold.Chemscore.Internal.Correction.Weighted>
   9.000000E+99

> <Gold.Protein.RotatedTorsions>
[ 6907 6896 6895 6894 ] final  -34.27 input  -60.11 | X-H torsion
[ 7974 7965 7964 7962 ] final   87.47 input  175.53 | X-H torsion
[ 8008 7997 7996 7995 ] final  124.74 input   59.86 | X-H torsion
[ 10167 10162 10161 10158 ] final  -21.66 input  -65.29 | X-H torsion
[ 10718 10713 10712 10709 ] final -146.12 input   66.30 | X-H torsion
[ 10763 10752 10751 10750 ] final  143.73 input  -60.55 | X-H torsion
[ 11005 11000 10999 10996 ] final -158.34 input  -57.11 | X-H torsion

> <Gold.Protein.ActiveResidues>
 VAL166  LYS551  ARG553  GLY616  TRP617  ASP618  TYR619  PRO620  LYS621  CYS622 
 ASP623  PHE694  ASN695  SER759  ASP760  ASP761  ALA762  ILE779  LEU786  VAL792 
 PHE793  MET794  SER795  GLU796  ALA797  LYS798  CYS799  TRP800  GLU811  SER814 

> <Gold.Protein.RotatedAtoms>
  151.0548  134.9697  159.8229 H   0  0  0  0  0  0  0  0  0  0  0  0  # atno 6907 bound_to 6896
  152.5386  134.2491  159.8902 H   0  0  0  0  0  0  0  0  0  0  0  0  # atno 6908 bound_to 6896
  151.2508  133.4308  159.2645 H   0  0  0  0  0  0  0  0  0  0  0  0  # atno 6909 bound_to 6896
  145.5586  139.2302  143.2472 H   0  0  0  0  0  0  0  0  0  0  0  0  # atno 7974 bound_to 7965
  156.2811  140.2732  156.1837 H   0  0  0  0  0  0  0  0  0  0  0  0  # atno 8008 bound_to 7997
  155.0530  140.0386  157.2568 H   0  0  0  0  0  0  0  0  0  0  0  0  # atno 8009 bound_to 7997
  154.7179  140.2682  155.6573 H   0  0  0  0  0  0  0  0  0  0  0  0  # atno 8010 bound_to 7997
  140.7283  143.4607  151.0384 H   0  0  0  0  0  0  0  0  0  0  0  0  # atno 10167 bound_to 10162
  156.3910  130.7885  151.2088 H   0  0  0  0  0  0  0  0  0  0  0  0  # atno 10718 bound_to 10713
  153.9773  135.2945  155.3423 H   0  0  0  0  0  0  0  0  0  0  0  0  # atno 10763 bound_to 10752
  154.7289  135.5076  153.8934 H   0  0  0  0  0  0  0  0  0  0  0  0  # atno 10764 bound_to 10752
  153.0871  135.6697  154.0040 H   0  0  0  0  0  0  0  0  0  0  0  0  # atno 10765 bound_to 10752
  140.6547  134.4413  157.5235 H   0  0  0  0  0  0  0  0  0  0  0  0  # atno 11005 bound_to 11000
  146.1867  140.6410  142.9164 LP  0  0  0  0  0  0  0  0  0  0  0  0  # atno 17320 bound_to 7965
  144.7494  140.5152  143.6812 LP  0  0  0  0  0  0  0  0  0  0  0  0  # atno 17321 bound_to 7965
  139.8291  143.7715  152.3179 LP  0  0  0  0  0  0  0  0  0  0  0  0  # atno 17342 bound_to 10162
  139.7825  144.7439  151.0069 LP  0  0  0  0  0  0  0  0  0  0  0  0  # atno 17343 bound_to 10162
  157.7499  131.0315  150.4187 LP  0  0  0  0  0  0  0  0  0  0  0  0  # atno 17370 bound_to 10713
  156.4448  130.3999  149.6674 LP  0  0  0  0  0  0  0  0  0  0  0  0  # atno 17371 bound_to 10713
  139.9033  134.8505  156.1805 LP  0  0  0  0  0  0  0  0  0  0  0  0  # atno 17394 bound_to 11000
  141.0510  133.6889  156.1772 LP  0  0  0  0  0  0  0  0  0  0  0  0  # atno 17395 bound_to 11000

$$$$
