AV-unprocessed.smi:2580|AV-procd|sdf|10130|dock7
  -GOLD-   2272014143D 1   1.00000     0.00000
 Structure written by MMmdl.
 29 30  0  0  0  0  0  0  0  0  1 V2000
  148.5036  141.8322  156.5385 C   0  0  0  0  0  0  0  0  0  0  0  0
  149.2138  140.5999  155.9557 C   0  0  1  0  0  0  0  0  0  0  0  0
  148.6260  140.1276  154.6414 C   0  0  0  0  0  0  0  0  0  0  0  0
  149.7515  139.2650  154.0821 C   0  0  0  0  0  0  0  0  0  0  0  0
  150.9600  139.8525  154.5534 O   0  0  0  0  0  0  0  0  0  0  0  0
  150.6828  140.8263  155.5617 C   0  0  2  0  0  0  0  0  0  0  0  0
  151.6963  140.6973  156.7099 C   0  0  0  0  0  0  0  0  0  0  0  0
  152.5988  139.8624  156.6428 O   0  0  0  0  0  0  0  0  0  0  0  0
  151.5069  141.5285  157.7521 N   0  0  0  0  0  0  0  0  0  0  0  0
  152.2680  141.6453  158.9473 C   0  0  0  0  0  0  0  0  0  0  0  0
  152.8557  140.5845  159.5565 N   0  0  0  0  0  0  0  0  0  0  0  0
  153.5620  140.7779  160.6895 C   0  0  0  0  0  0  0  0  0  0  0  0
  153.7265  142.0402  161.2867 C   0  0  0  0  0  0  0  0  0  0  0  0
  153.1226  143.1486  160.6678 C   0  0  0  0  0  0  0  0  0  0  0  0
  152.3837  142.9531  159.4841 C   0  0  0  0  0  0  0  0  0  0  0  0
  151.6398  144.3160  158.7203 Cl  0  0  0  0  0  0  0  0  0  0  0  0
  148.5421  142.6766  155.8499 H   0  0  0  0  0  0  0  0  0  0  0  0
  148.9595  142.1485  157.4765 H   0  0  0  0  0  0  0  0  0  0  0  0
  147.4545  141.6155  156.7405 H   0  0  0  0  0  0  0  0  0  0  0  0
  149.1507  139.7807  156.6747 H   0  0  0  0  0  0  0  0  0  0  0  0
  147.6909  139.5797  154.7614 H   0  0  0  0  0  0  0  0  0  0  0  0
  148.4428  140.9750  153.9789 H   0  0  0  0  0  0  0  0  0  0  0  0
  149.6840  138.2502  154.4757 H   0  0  0  0  0  0  0  0  0  0  0  0
  149.7328  139.2088  152.9936 H   0  0  0  0  0  0  0  0  0  0  0  0
  150.7957  141.8107  155.1050 H   0  0  0  0  0  0  0  0  0  0  0  0
  150.7268  142.1650  157.6723 H   0  0  0  0  0  0  0  0  0  0  0  0
  154.0082  139.9000  161.1327 H   0  0  0  0  0  0  0  0  0  0  0  0
  154.2998  142.1544  162.1948 H   0  0  0  0  0  0  0  0  0  0  0  0
  153.2249  144.1352  161.0954 H   0  0  0  0  0  0  0  0  0  0  0  0
  1  2  1  0  0  0  0
  1 17  1  0  0  0  0
  1 18  1  0  0  0  0
  1 19  1  0  0  0  0
  2  6  1  0  0  0  0
  2  3  1  0  0  0  0
  2 20  1  0  0  0  0
  3  4  1  0  0  0  0
  3 21  1  0  0  0  0
  3 22  1  0  0  0  0
  4  5  1  0  0  0  0
  4 23  1  0  0  0  0
  4 24  1  0  0  0  0
  5  6  1  0  0  0  0
  6  7  1  0  0  0  0
  6 25  1  0  0  0  0
  7  8  2  0  0  0  0
  7  9  1  0  0  0  0
  9 10  1  0  0  0  0
  9 26  1  0  0  0  0
 10 15  1  0  0  0  0
 10 11  2  0  0  0  0
 11 12  1  0  0  0  0
 12 13  2  0  0  0  0
 12 27  1  0  0  0  0
 13 14  1  0  0  0  0
 13 28  1  0  0  0  0
 14 15  2  0  0  0  0
 14 29  1  0  0  0  0
 15 16  1  0  0  0  0
M  END
> <s_m_source_file>
AV-unprocessed.smi

> <i_m_source_file_index>
2580

> <i_lp_mmshare_version>
43012

> <i_f3d_flags>
0

> <s_epik_input>
W0NIM11bQ0BASF0xW0NIMl1bQ0gyXU9bQ0BIXTFDKD1PKVtOSF1jMm5bY0hdW2NIXVtjSF1jMkNs

> <s_epik_cmdline>
J2VwaWtfcHl0aG9uJywgJy1waCcsICc3LjAnLCAnLXRuJywgJzgnLCAnLW1hJywgJzIwMCcsICctbWV0YWxfYmluZGluZycsICctaW1hZScsICc8aW5maWxlLm1hZT4nLCAnLW9tYWUnLCAnPG91dGZpbGUubWFlPic=

> <r_lp_tautomer_probability>
1

> <r_epik_Ionization_Penalty>
4.32497e-05

> <r_epik_Ionization_Penalty_Charging>
0

> <r_epik_Ionization_Penalty_Neutral>
4.32497e-05

> <r_epik_State_Penalty>
-0

> <r_epik_Charging_Adjusted_Penalty>
0

> <i_epik_Tot_Q>
0

> <i_epik_Tot_abs_Q>
0

> <r_epik_Metal_State_Penalty>
-0

> <b_epik_Metal_Only>
0

> <s_lp_Force_Field>
OPLS_2005

> <r_lp_Energy>
21.1194

> <b_lp_Chiralities_Consistent>
1

> <s_lp_Variant>
AV-unprocessed.smi:2580-4

> <Gold.Version>
5.8.1

> <Gold.Id.Protein>
6NUR|6NUR_protein|mol2

> <Gold.PLP.Fitness>
38.0936

> <Gold.PLP.PLP>
-32.5932

> <Gold.PLP.part.hbond>
-2.0000

> <Gold.PLP.part.metal>
0.0000

> <Gold.PLP.part.buried>
-1.7913

> <Gold.PLP.part.nonpolar>
-27.2463

> <Gold.PLP.part.repulsive>
0.1503

> <Gold.PLP.ligand.clash>
0.0000

> <Gold.PLP.ligand.torsion>
0.2506

> <Gold.PLP.Chemscore.Hbond>
2.0000

> <Gold.PLP.Chemscore.CHOScore>
0.0000

> <Gold.PLP.Chemscore.Metal>
0.0000

> <Gold.Chemscore.Hbonds>
donor molecule, donor type, donor heavy atom, donor atom, acceptor molecule, acceptor atom, score
      P1  H  7989  7998       L1     5  0.85
      P1  H  7997  8008       L1     8  1.00

> <Gold.PLP.Chemscore.Internal.Correction>
0.0017

> <Gold.Rescore>
     Score         DG    S(hbond)    S(metal)    S(lipo)     H(rot)  DE(clash)    DE(int)     intcor
     17.81     -18.32       1.86        0.00      78.47       1.00       0.14       0.38       ----

> <Gold.Chemscore.Fitness>
17.8106

> <Gold.Chemscore.DG>
-18.3246

> <Gold.Chemscore.ZeroCoef>
-5.4800

> <Gold.Chemscore.Hbond>
1.8633

> <Gold.Chemscore.Metal>
0.0000

> <Gold.Chemscore.Lipo>
78.4724

> <Gold.Chemscore.Internal_Hbond>
0.0000

> <Gold.Chemscore.DEClash>
0.1363

> <Gold.Chemscore.DEInternal>
0.3777

> <Gold.Chemscore.Rot>
1.0000

> <Gold.Chemscore.Internal.Correction>
   9.000000E+99

> <Gold.Chemscore.Hbonds>
donor molecule, donor type, donor heavy atom, donor atom, acceptor molecule, acceptor atom, score
      P1  H  7989  7998       L1     5  0.12
      P1  H  7997  8008       L1     8  0.96

> <Gold.Chemscore.Hbond.Weighted>
-6.2233

> <Gold.Chemscore.Metal.Weighted>
-0.0000

> <Gold.Chemscore.Lipo.Weighted>
-9.1813

> <Gold.Chemscore.Internal_Hbond.Weighted>
0.0000

> <Gold.Chemscore.DEClash.Weighted>
0.1363

> <Gold.Chemscore.DEInternal.Weighted>
0.3777

> <Gold.Chemscore.Rot.Weighted>
2.5600

> <Gold.Chemscore.Internal.Correction.Weighted>
   9.000000E+99

> <Gold.Protein.RotatedTorsions>
[ 6907 6896 6895 6894 ] final -102.72 input  -60.11 | X-H torsion
[ 7974 7965 7964 7962 ] final   96.19 input  175.53 | X-H torsion
[ 8008 7997 7996 7995 ] final  -34.45 input   59.86 | X-H torsion
[ 10167 10162 10161 10158 ] final -152.35 input  -65.29 | X-H torsion
[ 10718 10713 10712 10709 ] final  -62.62 input   66.30 | X-H torsion
[ 10763 10752 10751 10750 ] final  173.52 input  -60.55 | X-H torsion
[ 11005 11000 10999 10996 ] final  100.87 input  -57.11 | X-H torsion

> <Gold.Protein.ActiveResidues>
 VAL166  LYS551  ARG553  GLY616  TRP617  ASP618  TYR619  PRO620  LYS621  CYS622 
 ASP623  PHE694  ASN695  SER759  ASP760  ASP761  ALA762  ILE779  LEU786  VAL792 
 PHE793  MET794  SER795  GLU796  ALA797  LYS798  CYS799  TRP800  GLU811  SER814 

> <Gold.Protein.RotatedAtoms>
  150.7208  134.0539  159.3807 H   0  0  0  0  0  0  0  0  0  0  0  0  # atno 6907 bound_to 6896
  151.8517  135.0553  160.0469 H   0  0  0  0  0  0  0  0  0  0  0  0  # atno 6908 bound_to 6896
  152.2785  133.5412  159.5519 H   0  0  0  0  0  0  0  0  0  0  0  0  # atno 6909 bound_to 6896
  145.4422  139.2300  143.3086 H   0  0  0  0  0  0  0  0  0  0  0  0  # atno 7974 bound_to 7965
  154.4120  140.1683  156.2051 H   0  0  0  0  0  0  0  0  0  0  0  0  # atno 8008 bound_to 7997
  155.9491  140.3402  155.6369 H   0  0  0  0  0  0  0  0  0  0  0  0  # atno 8009 bound_to 7997
  155.6893  140.0732  157.2445 H   0  0  0  0  0  0  0  0  0  0  0  0  # atno 8010 bound_to 7997
  139.7189  143.8988  152.2496 H   0  0  0  0  0  0  0  0  0  0  0  0  # atno 10167 bound_to 10162
  156.0843  130.4211  150.1161 H   0  0  0  0  0  0  0  0  0  0  0  0  # atno 10718 bound_to 10713
  154.4412  135.2762  155.1846 H   0  0  0  0  0  0  0  0  0  0  0  0  # atno 10763 bound_to 10752
  154.3712  135.6108  153.5745 H   0  0  0  0  0  0  0  0  0  0  0  0  # atno 10764 bound_to 10752
  152.9841  135.5858  154.4739 H   0  0  0  0  0  0  0  0  0  0  0  0  # atno 10765 bound_to 10752
  139.8772  134.9159  156.4821 H   0  0  0  0  0  0  0  0  0  0  0  0  # atno 11005 bound_to 11000
  146.2550  140.5171  142.8877 LP  0  0  0  0  0  0  0  0  0  0  0  0  # atno 17320 bound_to 7965
  144.8114  140.6393  143.6412 LP  0  0  0  0  0  0  0  0  0  0  0  0  # atno 17321 bound_to 7965
  139.8879  144.6982  150.8804 LP  0  0  0  0  0  0  0  0  0  0  0  0  # atno 17342 bound_to 10162
  140.7749  143.3609  151.1829 LP  0  0  0  0  0  0  0  0  0  0  0  0  # atno 17343 bound_to 10162
  156.9185  130.9675  151.3552 LP  0  0  0  0  0  0  0  0  0  0  0  0  # atno 17370 bound_to 10713
  157.5972  130.8486  149.8747 LP  0  0  0  0  0  0  0  0  0  0  0  0  # atno 17371 bound_to 10713
  140.8720  133.7981  155.9374 LP  0  0  0  0  0  0  0  0  0  0  0  0  # atno 17394 bound_to 11000
  140.8943  134.2457  157.5077 LP  0  0  0  0  0  0  0  0  0  0  0  0  # atno 17395 bound_to 11000

$$$$
