AV-unprocessed.smi:1287|AV-procd|sdf|5379|dock8
  -GOLD-   22720 4523D 1   1.00000     0.00000
 Structure written by MMmdl.
 44 45  0  0  0  0  0  0  0  0  1 V2000
  149.7100  133.0501  151.7729 C   0  0  0  0  0  0  0  0  0  0  0  0
  150.5748  133.3533  152.9915 C   0  0  0  0  0  0  0  0  0  0  0  0
  151.3246  132.4906  153.4480 O   0  0  0  0  0  0  0  0  0  0  0  0
  150.4618  134.5875  153.5080 N   0  0  0  0  0  0  0  0  0  0  0  0
  151.2134  135.0937  154.6554 C   0  0  2  0  0  0  0  0  0  0  0  0
  150.2772  135.1026  155.8753 C   0  0  0  0  0  0  0  0  0  0  0  0
  151.6822  136.5335  154.3919 C   0  0  0  0  0  0  0  0  0  0  0  0
  152.8318  136.8790  154.6702 O   0  0  0  0  0  0  0  0  0  0  0  0
  150.7753  137.3635  153.8549 N   0  0  0  0  0  0  0  0  0  0  0  0
  151.0004  138.7792  153.5813 C   0  0  0  0  0  0  0  0  0  0  0  0
  151.2714  139.6203  154.8216 C   0  0  0  0  0  0  0  0  0  0  0  0
  150.2816  140.4391  155.4056 C   0  0  0  0  0  0  0  0  0  0  0  0
  150.6044  141.1908  156.5513 C   0  0  0  0  0  0  0  0  0  0  0  0
  151.9116  141.1082  157.0873 C   0  0  0  0  0  0  0  0  0  0  0  0
  152.2560  141.8480  158.2400 N   0  0  0  0  0  0  0  0  0  0  0  0
  152.8115  141.1204  159.3801 C   0  0  0  0  0  0  0  0  0  0  0  0
  153.3853  142.1015  160.4161 C   0  0  0  0  0  0  0  0  0  0  0  0
  152.3822  143.0366  160.7978 O   0  0  0  0  0  0  0  0  0  0  0  0
  151.9357  143.8134  159.6914 C   0  0  0  0  0  0  0  0  0  0  0  0
  151.3128  142.8951  158.6256 C   0  0  0  0  0  0  0  0  0  0  0  0
  152.8640  140.3318  156.5131 N   0  0  0  0  0  0  0  0  0  0  0  0
  152.5489  139.6121  155.4158 C   0  0  0  0  0  0  0  0  0  0  0  0
  149.8691  133.7986  150.9957 H   0  0  0  0  0  0  0  0  0  0  0  0
  148.6544  133.0527  152.0459 H   0  0  0  0  0  0  0  0  0  0  0  0
  149.9542  132.0714  151.3582 H   0  0  0  0  0  0  0  0  0  0  0  0
  149.8262  135.2323  153.0612 H   0  0  0  0  0  0  0  0  0  0  0  0
  152.0687  134.4448  154.8558 H   0  0  0  0  0  0  0  0  0  0  0  0
  150.7877  135.4775  156.7634 H   0  0  0  0  0  0  0  0  0  0  0  0
  149.9285  134.0952  156.1041 H   0  0  0  0  0  0  0  0  0  0  0  0
  149.3970  135.7257  155.7090 H   0  0  0  0  0  0  0  0  0  0  0  0
  149.8560  136.9980  153.6525 H   0  0  0  0  0  0  0  0  0  0  0  0
  151.8229  138.8897  152.8726 H   0  0  0  0  0  0  0  0  0  0  0  0
  150.1131  139.1758  153.0877 H   0  0  0  0  0  0  0  0  0  0  0  0
  149.2876  140.4994  154.9874 H   0  0  0  0  0  0  0  0  0  0  0  0
  149.8529  141.8277  156.9931 H   0  0  0  0  0  0  0  0  0  0  0  0
  152.0291  140.5117  159.8357 H   0  0  0  0  0  0  0  0  0  0  0  0
  153.6011  140.4444  159.0489 H   0  0  0  0  0  0  0  0  0  0  0  0
  153.7206  141.5594  161.3004 H   0  0  0  0  0  0  0  0  0  0  0  0
  154.2544  142.6262  160.0159 H   0  0  0  0  0  0  0  0  0  0  0  0
  151.1977  144.5358  160.0404 H   0  0  0  0  0  0  0  0  0  0  0  0
  152.7672  144.3840  159.2746 H   0  0  0  0  0  0  0  0  0  0  0  0
  151.0089  143.5008  157.7732 H   0  0  0  0  0  0  0  0  0  0  0  0
  150.4098  142.4269  159.0191 H   0  0  0  0  0  0  0  0  0  0  0  0
  153.3433  139.0086  155.0017 H   0  0  0  0  0  0  0  0  0  0  0  0
  1  2  1  0  0  0  0
  1 23  1  0  0  0  0
  1 24  1  0  0  0  0
  1 25  1  0  0  0  0
  2  3  2  0  0  0  0
  2  4  1  0  0  0  0
  4  5  1  0  0  0  0
  4 26  1  0  0  0  0
  5  6  1  0  0  0  0
  5  7  1  0  0  0  0
  5 27  1  0  0  0  0
  6 28  1  0  0  0  0
  6 29  1  0  0  0  0
  6 30  1  0  0  0  0
  7  8  2  0  0  0  0
  7  9  1  0  0  0  0
  9 10  1  0  0  0  0
  9 31  1  0  0  0  0
 10 11  1  0  0  0  0
 10 32  1  0  0  0  0
 10 33  1  0  0  0  0
 11 22  1  0  0  0  0
 11 12  2  0  0  0  0
 12 13  1  0  0  0  0
 12 34  1  0  0  0  0
 13 14  2  0  0  0  0
 13 35  1  0  0  0  0
 14 15  1  0  0  0  0
 14 21  1  0  0  0  0
 15 20  1  0  0  0  0
 15 16  1  0  0  0  0
 16 17  1  0  0  0  0
 16 36  1  0  0  0  0
 16 37  1  0  0  0  0
 17 18  1  0  0  0  0
 17 38  1  0  0  0  0
 17 39  1  0  0  0  0
 18 19  1  0  0  0  0
 19 20  1  0  0  0  0
 19 40  1  0  0  0  0
 19 41  1  0  0  0  0
 20 42  1  0  0  0  0
 20 43  1  0  0  0  0
 21 22  2  0  0  0  0
 22 44  1  0  0  0  0
M  END
> <s_m_source_file>
AV-unprocessed.smi

> <i_m_source_file_index>
1287

> <i_lp_mmshare_version>
43012

> <i_f3d_flags>
0

> <s_epik_input>
W0NIM11DKD1PKVtOSF1bQ0BIXShbQ0gzXSlDKD1PKVtOSF1bQ0gyXWMxW2NIXVtjSF1jKG5bY0hdMSlOMltDSDJdW0NIMl1PW0NIMl1bQ0gyXTI=

> <s_epik_cmdline>
J2VwaWtfcHl0aG9uJywgJy1waCcsICc3LjAnLCAnLXRuJywgJzgnLCAnLW1hJywgJzIwMCcsICctbWV0YWxfYmluZGluZycsICctaW1hZScsICc8aW5maWxlLm1hZT4nLCAnLW9tYWUnLCAnPG91dGZpbGUubWFlPic=

> <r_lp_tautomer_probability>
1

> <r_epik_Ionization_Penalty>
0.00481935

> <r_epik_Ionization_Penalty_Charging>
0

> <r_epik_Ionization_Penalty_Neutral>
0.00481935

> <r_epik_State_Penalty>
0.00349439

> <r_epik_Charging_Adjusted_Penalty>
0.00349439

> <i_epik_Tot_Q>
0

> <i_epik_Tot_abs_Q>
0

> <r_epik_Metal_State_Penalty>
-0

> <b_epik_Metal_Only>
0

> <s_lp_Force_Field>
OPLS_2005

> <r_lp_Energy>
14.7746

> <b_lp_Chiralities_Consistent>
1

> <s_lp_Variant>
AV-unprocessed.smi:1287-1

> <Gold.Version>
5.8.1

> <Gold.Id.Protein>
6NUR|6NUR_protein|mol2

> <Gold.PLP.Fitness>
50.9176

> <Gold.PLP.PLP>
-43.0836

> <Gold.PLP.part.hbond>
-4.4765

> <Gold.PLP.part.metal>
0.0000

> <Gold.PLP.part.buried>
-4.6191

> <Gold.PLP.part.nonpolar>
-33.3977

> <Gold.PLP.part.repulsive>
0.2053

> <Gold.PLP.ligand.clash>
0.0000

> <Gold.PLP.ligand.torsion>
1.0438

> <Gold.PLP.Chemscore.Hbond>
3.1774

> <Gold.PLP.Chemscore.CHOScore>
0.0000

> <Gold.PLP.Chemscore.Metal>
0.0000

> <Gold.Chemscore.Hbonds>
donor molecule, donor type, donor heavy atom, donor atom, acceptor molecule, acceptor atom, score
      L1  H     9    31       P1  7948  0.50
      P1  H  7997  8009       L1    21  0.66

> <Gold.PLP.Chemscore.Internal.Correction>
0.3895

> <Gold.Rescore>
     Score         DG    S(hbond)    S(metal)    S(lipo)     H(rot)  DE(clash)    DE(int)     intcor
     16.76     -19.78       2.72        0.00      91.94       2.16       0.50       2.53       ----

> <Gold.Chemscore.Fitness>
16.7611

> <Gold.Chemscore.DG>
-19.7840

> <Gold.Chemscore.ZeroCoef>
-5.4800

> <Gold.Chemscore.Hbond>
2.7186

> <Gold.Chemscore.Metal>
0.0000

> <Gold.Chemscore.Lipo>
91.9441

> <Gold.Chemscore.Internal_Hbond>
0.0000

> <Gold.Chemscore.DEClash>
0.4970

> <Gold.Chemscore.DEInternal>
2.5259

> <Gold.Chemscore.Rot>
2.1616

> <Gold.Chemscore.Internal.Correction>
   9.000000E+99

> <Gold.Chemscore.Hbonds>
donor molecule, donor type, donor heavy atom, donor atom, acceptor molecule, acceptor atom, score
      L1  H     9    31       P1  7948  0.24
      P1  H  7997  8009       L1    21  0.36

> <Gold.Chemscore.Hbond.Weighted>
-9.0802

> <Gold.Chemscore.Metal.Weighted>
-0.0000

> <Gold.Chemscore.Lipo.Weighted>
-10.7575

> <Gold.Chemscore.Internal_Hbond.Weighted>
0.0000

> <Gold.Chemscore.DEClash.Weighted>
0.4970

> <Gold.Chemscore.DEInternal.Weighted>
2.5259

> <Gold.Chemscore.Rot.Weighted>
5.5336

> <Gold.Chemscore.Internal.Correction.Weighted>
   9.000000E+99

> <Gold.Protein.RotatedTorsions>
[ 6907 6896 6895 6894 ] final   38.72 input  -60.11 | X-H torsion
[ 7974 7965 7964 7962 ] final  175.53 input  175.53 | X-H torsion
[ 8008 7997 7996 7995 ] final  170.10 input   59.86 | X-H torsion
[ 10167 10162 10161 10158 ] final  138.31 input  -65.29 | X-H torsion
[ 10718 10713 10712 10709 ] final   77.36 input   66.30 | X-H torsion
[ 10763 10752 10751 10750 ] final  178.50 input  -60.55 | X-H torsion
[ 11005 11000 10999 10996 ] final  173.20 input  -57.11 | X-H torsion

> <Gold.Protein.ActiveResidues>
 VAL166  LYS551  ARG553  GLY616  TRP617  ASP618  TYR619  PRO620  LYS621  CYS622 
 ASP623  PHE694  ASN695  SER759  ASP760  ASP761  ALA762  ILE779  LEU786  VAL792 
 PHE793  MET794  SER795  GLU796  ALA797  LYS798  CYS799  TRP800  GLU811  SER814 

> <Gold.Protein.RotatedAtoms>
  152.1601  134.8919  160.0541 H   0  0  0  0  0  0  0  0  0  0  0  0  # atno 6907 bound_to 6896
  151.9918  133.3788  159.4155 H   0  0  0  0  0  0  0  0  0  0  0  0  # atno 6908 bound_to 6896
  150.6886  134.3851  159.5095 H   0  0  0  0  0  0  0  0  0  0  0  0  # atno 6909 bound_to 6896
  144.7200  139.9961  143.6440 H   0  0  0  0  0  0  0  0  0  0  0  0  # atno 7974 bound_to 7965
  156.1396  140.1547  156.8941 H   0  0  0  0  0  0  0  0  0  0  0  0  # atno 8008 bound_to 7997
  154.4976  140.0834  156.7769 H   0  0  0  0  0  0  0  0  0  0  0  0  # atno 8009 bound_to 7997
  155.4103  140.3418  155.4265 H   0  0  0  0  0  0  0  0  0  0  0  0  # atno 8010 bound_to 7997
  139.5115  144.6360  151.5694 H   0  0  0  0  0  0  0  0  0  0  0  0  # atno 10167 bound_to 10162
  157.6707  130.9818  150.1629 H   0  0  0  0  0  0  0  0  0  0  0  0  # atno 10718 bound_to 10713
  154.5085  135.2787  155.1362 H   0  0  0  0  0  0  0  0  0  0  0  0  # atno 10763 bound_to 10752
  154.2967  135.6256  153.5411 H   0  0  0  0  0  0  0  0  0  0  0  0  # atno 10764 bound_to 10752
  152.9914  135.5687  154.5544 H   0  0  0  0  0  0  0  0  0  0  0  0  # atno 10765 bound_to 10752
  140.3379  134.7301  157.4181 H   0  0  0  0  0  0  0  0  0  0  0  0  # atno 11005 bound_to 11000
  146.0373  139.3389  143.0719 LP  0  0  0  0  0  0  0  0  0  0  0  0  # atno 17320 bound_to 7965
  145.8378  140.9596  143.0815 LP  0  0  0  0  0  0  0  0  0  0  0  0  # atno 17321 bound_to 7965
  140.6110  143.9437  150.6453 LP  0  0  0  0  0  0  0  0  0  0  0  0  # atno 17342 bound_to 10162
  140.2679  143.3477  152.1264 LP  0  0  0  0  0  0  0  0  0  0  0  0  # atno 17343 bound_to 10162
  156.2401  130.3690  149.8346 LP  0  0  0  0  0  0  0  0  0  0  0  0  # atno 17370 bound_to 10713
  156.6148  130.8602  151.3462 LP  0  0  0  0  0  0  0  0  0  0  0  0  # atno 17371 bound_to 10713
  140.0805  134.5737  155.8545 LP  0  0  0  0  0  0  0  0  0  0  0  0  # atno 17394 bound_to 11000
  141.2046  133.6640  156.6132 LP  0  0  0  0  0  0  0  0  0  0  0  0  # atno 17395 bound_to 11000

$$$$
