AV-unprocessed.smi:652|AV-procd|sdf|3201|dock9
  -GOLD-   22720 0133D 1   1.00000     0.00000
 Structure written by MMmdl.
 49 50  0  0  0  0  0  0  0  0  3 V2000
  152.1671  144.8245  159.0402 C   0  0  0  0  0  0  0  0  0  0  0  0
  151.7261  143.3730  159.2710 C   0  0  0  0  0  0  0  0  0  0  0  0
  152.5786  142.6880  160.3512 C   0  0  0  0  0  0  0  0  0  0  0  0
  151.8029  142.6367  158.0121 N   0  0  0  0  0  0  0  0  0  0  0  0
  150.7565  142.1277  157.3432 C   0  0  0  0  0  0  0  0  0  0  0  0
  149.5928  142.2258  157.7335 O   0  0  0  0  0  0  0  0  0  0  0  0
  151.0869  141.3893  156.0417 C   0  0  0  0  0  0  0  0  0  0  0  0
  150.1961  140.1528  155.7974 C   0  0  0  0  0  0  0  0  0  0  0  0
  149.1586  140.3905  154.7624 N   0  3  2  0  0  0  0  0  0  0  0  0
  148.4287  141.6611  154.9836 C   0  0  0  0  0  0  0  0  0  0  0  0
  147.3954  141.8907  153.8695 C   0  0  0  0  0  0  0  0  0  0  0  0
  146.5060  140.7824  153.8124 O   0  0  0  0  0  0  0  0  0  0  0  0
  147.1738  139.5656  153.4987 C   0  0  2  0  0  0  0  0  0  0  0  0
  146.1000  138.4730  153.3693 C   0  0  0  0  0  0  0  0  0  0  0  0
  146.5896  137.3021  152.6561 N   0  0  0  0  0  0  0  0  0  0  0  0
  145.7014  136.3227  152.1924 C   0  0  0  0  0  0  0  0  0  0  0  0
  144.2987  136.3768  152.3655 C   0  0  0  0  0  0  0  0  0  0  0  0
  143.5228  135.3253  151.8489 C   0  0  0  0  0  0  0  0  0  0  0  0
  144.1956  134.2820  151.1889 C   0  0  0  0  0  0  0  0  0  0  0  0
  145.5381  134.2486  151.0340 N   0  0  0  0  0  0  0  0  0  0  0  0
  146.2530  135.2691  151.5393 N   0  3  0  0  0  0  0  0  0  0  0  0
  148.2022  139.2650  154.6106 C   0  0  0  0  0  0  0  0  0  0  0  0
  152.0890  145.4078  159.9581 H   0  0  0  0  0  0  0  0  0  0  0  0
  151.5444  145.3108  158.2886 H   0  0  0  0  0  0  0  0  0  0  0  0
  153.2022  144.8769  158.7009 H   0  0  0  0  0  0  0  0  0  0  0  0
  150.6877  143.3913  159.6071 H   0  0  0  0  0  0  0  0  0  0  0  0
  152.5271  143.2338  161.2937 H   0  0  0  0  0  0  0  0  0  0  0  0
  153.6268  142.6340  160.0558 H   0  0  0  0  0  0  0  0  0  0  0  0
  152.2341  141.6716  160.5444 H   0  0  0  0  0  0  0  0  0  0  0  0
  152.7250  142.5072  157.6212 H   0  0  0  0  0  0  0  0  0  0  0  0
  150.9740  142.0889  155.2122 H   0  0  0  0  0  0  0  0  0  0  0  0
  152.1389  141.1064  156.0773 H   0  0  0  0  0  0  0  0  0  0  0  0
  150.8002  139.2868  155.5211 H   0  0  0  0  0  0  0  0  0  0  0  0
  149.6946  139.8960  156.7325 H   0  0  0  0  0  0  0  0  0  0  0  0
  147.9309  141.6331  155.9543 H   0  0  0  0  0  0  0  0  0  0  0  0
  149.1315  142.4948  155.0076 H   0  0  0  0  0  0  0  0  0  0  0  0
  146.8205  142.7946  154.0714 H   0  0  0  0  0  0  0  0  0  0  0  0
  147.8848  142.0332  152.9047 H   0  0  0  0  0  0  0  0  0  0  0  0
  147.6819  139.6810  152.5391 H   0  0  0  0  0  0  0  0  0  0  0  0
  145.7435  138.1816  154.3581 H   0  0  0  0  0  0  0  0  0  0  0  0
  145.2441  138.8726  152.8237 H   0  0  0  0  0  0  0  0  0  0  0  0
  147.5788  137.2145  152.4738 H   0  0  0  0  0  0  0  0  0  0  0  0
  143.8162  137.1958  152.8777 H   0  0  0  0  0  0  0  0  0  0  0  0
  142.4479  135.3175  151.9539 H   0  0  0  0  0  0  0  0  0  0  0  0
  143.6443  133.4512  150.7734 H   0  0  0  0  0  0  0  0  0  0  0  0
  148.7399  138.3493  154.3675 H   0  0  0  0  0  0  0  0  0  0  0  0
  147.6910  139.0930  155.5593 H   0  0  0  0  0  0  0  0  0  0  0  0
  149.6440  140.4920  153.8823 H   0  0  0  0  0  0  0  0  0  0  0  0
  147.2665  135.2498  151.4246 H   0  0  0  0  0  0  0  0  0  0  0  0
  1  2  1  0  0  0  0
  1 23  1  0  0  0  0
  1 24  1  0  0  0  0
  1 25  1  0  0  0  0
  2  3  1  0  0  0  0
  2  4  1  0  0  0  0
  2 26  1  0  0  0  0
  3 27  1  0  0  0  0
  3 28  1  0  0  0  0
  3 29  1  0  0  0  0
  4  5  1  0  0  0  0
  4 30  1  0  0  0  0
  5  6  2  0  0  0  0
  5  7  1  0  0  0  0
  7  8  1  0  0  0  0
  7 31  1  0  0  0  0
  7 32  1  0  0  0  0
  8  9  1  0  0  0  0
  8 33  1  0  0  0  0
  8 34  1  0  0  0  0
  9 22  1  0  0  0  0
  9 10  1  0  0  0  0
  9 48  1  0  0  0  0
 10 11  1  0  0  0  0
 10 35  1  0  0  0  0
 10 36  1  0  0  0  0
 11 12  1  0  0  0  0
 11 37  1  0  0  0  0
 11 38  1  0  0  0  0
 12 13  1  0  0  0  0
 13 14  1  0  0  0  0
 13 22  1  0  0  0  0
 13 39  1  0  0  0  0
 14 15  1  0  0  0  0
 14 40  1  0  0  0  0
 14 41  1  0  0  0  0
 15 16  1  0  0  0  0
 15 42  1  0  0  0  0
 16 21  1  0  0  0  0
 16 17  2  0  0  0  0
 17 18  1  0  0  0  0
 17 43  1  0  0  0  0
 18 19  2  0  0  0  0
 18 44  1  0  0  0  0
 19 20  1  0  0  0  0
 19 45  1  0  0  0  0
 20 21  2  0  0  0  0
 21 49  1  0  0  0  0
 22 46  1  0  0  0  0
 22 47  1  0  0  0  0
M  CHG  1   9   1
M  CHG  1  21   1
M  END
> <s_m_source_file>
AV-unprocessed.smi

> <i_m_source_file_index>
652

> <i_lp_mmshare_version>
43012

> <i_f3d_flags>
0

> <s_epik_input>
W0NIM11bQ0hdKFtDSDNdKVtOSF1DKD1PKVtDSDJdW0NIMl1OMVtDSDJdW0NIMl1PW0NASF0oW0NIMl0xKVtDSDJdW05IXWMyW2NIXVtjSF1bY0hdbm4y

> <s_epik_cmdline>
J2VwaWtfcHl0aG9uJywgJy1waCcsICc3LjAnLCAnLXRuJywgJzgnLCAnLW1hJywgJzIwMCcsICctbWV0YWxfYmluZGluZycsICctaW1hZScsICc8aW5maWxlLm1hZT4nLCAnLW9tYWUnLCAnPG91dGZpbGUubWFlPic=

> <r_lp_tautomer_probability>
0.966961

> <r_epik_Ionization_Penalty>
2.79885

> <r_epik_Ionization_Penalty_Charging>
2.79884

> <r_epik_Ionization_Penalty_Neutral>
3.2567e-06

> <r_epik_State_Penalty>
2.43203

> <r_epik_Charging_Adjusted_Penalty>
5.23087

> <i_epik_Tot_Q>
2

> <i_epik_Tot_abs_Q>
2

> <r_epik_Metal_State_Penalty>
2.43963

> <b_epik_Metal_Only>
0

> <s_lp_Force_Field>
OPLS_2005

> <r_lp_Energy>
30.0621

> <b_lp_Chiralities_Consistent>
1

> <s_lp_Variant>
AV-unprocessed.smi:652-10

> <Gold.Version>
5.8.1

> <Gold.Id.Protein>
6NUR|6NUR_protein|mol2

> <Gold.PLP.Fitness>
47.4026

> <Gold.PLP.PLP>
-37.7832

> <Gold.PLP.part.hbond>
-2.0000

> <Gold.PLP.part.metal>
0.0000

> <Gold.PLP.part.buried>
-5.7248

> <Gold.PLP.part.nonpolar>
-31.3435

> <Gold.PLP.part.repulsive>
0.8023

> <Gold.PLP.ligand.clash>
0.0000

> <Gold.PLP.ligand.torsion>
0.9470

> <Gold.PLP.Chemscore.Hbond>
3.8080

> <Gold.PLP.Chemscore.CHOScore>
0.0000

> <Gold.PLP.Chemscore.Metal>
0.0000

> <Gold.Chemscore.Hbonds>
donor molecule, donor type, donor heavy atom, donor atom, acceptor molecule, acceptor atom, score
      L1  H    15    42       P1  7948  1.98
      L1  H    21    49       P1  7948  1.79

> <Gold.PLP.Chemscore.Internal.Correction>
0.0893

> <Gold.Rescore>
     Score         DG    S(hbond)    S(metal)    S(lipo)     H(rot)  DE(clash)    DE(int)     intcor
     15.17     -16.11       1.79        0.00      90.83       2.33       0.01       0.92       ----

> <Gold.Chemscore.Fitness>
15.1717

> <Gold.Chemscore.DG>
-16.1072

> <Gold.Chemscore.ZeroCoef>
-5.4800

> <Gold.Chemscore.Hbond>
1.7879

> <Gold.Chemscore.Metal>
0.0000

> <Gold.Chemscore.Lipo>
90.8284

> <Gold.Chemscore.Internal_Hbond>
0.0000

> <Gold.Chemscore.DEClash>
0.0141

> <Gold.Chemscore.DEInternal>
0.9214

> <Gold.Chemscore.Rot>
2.3326

> <Gold.Chemscore.Internal.Correction>
   9.000000E+99

> <Gold.Chemscore.Hbonds>
donor molecule, donor type, donor heavy atom, donor atom, acceptor molecule, acceptor atom, score
      L1  H    15    42       P1  7948  0.93
      L1  H    21    49       P1  7948  0.74

> <Gold.Chemscore.Hbond.Weighted>
-5.9716

> <Gold.Chemscore.Metal.Weighted>
-0.0000

> <Gold.Chemscore.Lipo.Weighted>
-10.6269

> <Gold.Chemscore.Internal_Hbond.Weighted>
0.0000

> <Gold.Chemscore.DEClash.Weighted>
0.0141

> <Gold.Chemscore.DEInternal.Weighted>
0.9214

> <Gold.Chemscore.Rot.Weighted>
5.9714

> <Gold.Chemscore.Internal.Correction.Weighted>
   9.000000E+99

> <Gold.Protein.RotatedTorsions>
[ 6907 6896 6895 6894 ] final -155.95 input  -60.11 | X-H torsion
[ 7974 7965 7964 7962 ] final -115.55 input  175.53 | X-H torsion
[ 8008 7997 7996 7995 ] final -132.93 input   59.86 | X-H torsion
[ 10167 10162 10161 10158 ] final  -75.41 input  -65.29 | X-H torsion
[ 10718 10713 10712 10709 ] final  115.81 input   66.30 | X-H torsion
[ 10763 10752 10751 10750 ] final  -38.01 input  -60.55 | X-H torsion
[ 11005 11000 10999 10996 ] final  146.63 input  -57.11 | X-H torsion

> <Gold.Protein.ActiveResidues>
 VAL166  LYS551  ARG553  GLY616  TRP617  ASP618  TYR619  PRO620  LYS621  CYS622 
 ASP623  PHE694  ASN695  SER759  ASP760  ASP761  ALA762  ILE779  LEU786  VAL792 
 PHE793  MET794  SER795  GLU796  ALA797  LYS798  CYS799  TRP800  GLU811  SER814 

> <Gold.Protein.RotatedAtoms>
  151.2803  133.4213  159.2626 H   0  0  0  0  0  0  0  0  0  0  0  0  # atno 6907 bound_to 6896
  151.0367  134.9578  159.8150 H   0  0  0  0  0  0  0  0  0  0  0  0  # atno 6908 bound_to 6896
  152.5357  134.2762  159.9043 H   0  0  0  0  0  0  0  0  0  0  0  0  # atno 6909 bound_to 6896
  145.1071  140.8588  143.3892 H   0  0  0  0  0  0  0  0  0  0  0  0  # atno 7974 bound_to 7965
  155.3370  140.0470  157.3044 H   0  0  0  0  0  0  0  0  0  0  0  0  # atno 8008 bound_to 7997
  154.5297  140.2253  155.8791 H   0  0  0  0  0  0  0  0  0  0  0  0  # atno 8009 bound_to 7997
  156.1776  140.3081  155.9095 H   0  0  0  0  0  0  0  0  0  0  0  0  # atno 8010 bound_to 7997
  140.4945  143.2373  151.7853 H   0  0  0  0  0  0  0  0  0  0  0  0  # atno 10167 bound_to 10162
  157.6199  131.1017  150.7382 H   0  0  0  0  0  0  0  0  0  0  0  0  # atno 10718 bound_to 10713
  153.9057  135.6797  153.4753 H   0  0  0  0  0  0  0  0  0  0  0  0  # atno 10763 bound_to 10752
  153.1105  135.4785  154.9024 H   0  0  0  0  0  0  0  0  0  0  0  0  # atno 10764 bound_to 10752
  154.7552  135.3195  154.8437 H   0  0  0  0  0  0  0  0  0  0  0  0  # atno 10765 bound_to 10752
  140.0809  134.9097  157.1499 H   0  0  0  0  0  0  0  0  0  0  0  0  # atno 11005 bound_to 11000
  145.0889  139.2904  143.5745 LP  0  0  0  0  0  0  0  0  0  0  0  0  # atno 17320 bound_to 7965
  146.3528  140.0420  142.8642 LP  0  0  0  0  0  0  0  0  0  0  0  0  # atno 17321 bound_to 7965
  139.4858  144.4605  151.9546 LP  0  0  0  0  0  0  0  0  0  0  0  0  # atno 17342 bound_to 10162
  140.3693  144.2876  150.5922 LP  0  0  0  0  0  0  0  0  0  0  0  0  # atno 17343 bound_to 10162
  156.7742  130.4838  149.5413 LP  0  0  0  0  0  0  0  0  0  0  0  0  # atno 17370 bound_to 10713
  156.1340  130.6198  151.0373 LP  0  0  0  0  0  0  0  0  0  0  0  0  # atno 17371 bound_to 10713
  140.3489  134.2621  155.7201 LP  0  0  0  0  0  0  0  0  0  0  0  0  # atno 17394 bound_to 11000
  141.2046  133.7881  157.0277 LP  0  0  0  0  0  0  0  0  0  0  0  0  # atno 17395 bound_to 11000

$$$$
