AV-unprocessed.smi:2526|AV-procd|sdf|9935|dock2
  -GOLD-   2272013583D 1   1.00000     0.00000
 Structure written by MMmdl.
 29 30  0  0  0  0  0  0  0  0  2 V2000
  152.5386  143.6758  160.9659 C   0  0  0  0  0  0  0  0  0  0  0  0
  152.0396  143.5626  159.6121 N   0  0  0  0  0  0  0  0  0  0  0  0
  151.7507  142.4231  158.8938 C   0  0  0  0  0  0  0  0  0  0  0  0
  151.2990  142.8122  157.6614 C   0  0  0  0  0  0  0  0  0  0  0  0
  150.8360  141.9689  156.4901 C   0  0  1  0  0  0  0  0  0  0  0  0
  151.8262  140.9381  156.1672 N   0  0  0  0  0  0  0  0  0  0  0  0
  151.7979  139.6488  156.5541 C   0  0  0  0  0  0  0  0  0  0  0  0
  152.7391  138.8928  156.3280 O   0  0  0  0  0  0  0  0  0  0  0  0
  150.5399  139.0989  157.2475 C   0  0  0  0  0  0  0  0  0  0  0  0
  149.5608  140.1797  157.7409 C   0  0  0  0  0  0  0  0  0  0  0  0
  149.4472  141.3277  156.7288 C   0  0  1  0  0  0  0  0  0  0  0  0
  148.4285  142.3149  157.1326 N   0  3  0  0  0  0  0  0  0  0  0  0
  151.3674  144.2344  157.7286 C   0  0  0  0  0  0  0  0  0  0  0  0
  151.8018  144.6790  158.8953 N   0  0  0  0  0  0  0  0  0  0  0  0
  152.6522  142.6853  161.4071 H   0  0  0  0  0  0  0  0  0  0  0  0
  151.8395  144.2545  161.5706 H   0  0  0  0  0  0  0  0  0  0  0  0
  153.5081  144.1749  160.9616 H   0  0  0  0  0  0  0  0  0  0  0  0
  151.8828  141.4378  159.3171 H   0  0  0  0  0  0  0  0  0  0  0  0
  150.7611  142.6010  155.6044 H   0  0  0  0  0  0  0  0  0  0  0  0
  152.6501  141.2499  155.6726 H   0  0  0  0  0  0  0  0  0  0  0  0
  150.0316  138.4600  156.5248 H   0  0  0  0  0  0  0  0  0  0  0  0
  150.8324  138.4535  158.0763 H   0  0  0  0  0  0  0  0  0  0  0  0
  148.5819  139.7289  157.9071 H   0  0  0  0  0  0  0  0  0  0  0  0
  149.8884  140.5590  158.7099 H   0  0  0  0  0  0  0  0  0  0  0  0
  149.1002  140.9047  155.7847 H   0  0  0  0  0  0  0  0  0  0  0  0
  148.5901  143.1828  156.6416 H   0  0  0  0  0  0  0  0  0  0  0  0
  148.4895  142.4752  158.1281 H   0  0  0  0  0  0  0  0  0  0  0  0
  151.1076  144.9543  156.9666 H   0  0  0  0  0  0  0  0  0  0  0  0
  147.5090  141.9653  156.9039 H   0  0  0  0  0  0  0  0  0  0  0  0
  1  2  1  0  0  0  0
  1 15  1  0  0  0  0
  1 16  1  0  0  0  0
  1 17  1  0  0  0  0
  2 14  1  0  0  0  0
  2  3  1  0  0  0  0
  3  4  2  0  0  0  0
  3 18  1  0  0  0  0
  4  5  1  0  0  0  0
  4 13  1  0  0  0  0
  5 11  1  0  0  0  0
  5  6  1  0  0  0  0
  5 19  1  0  0  0  0
  6  7  1  0  0  0  0
  6 20  1  0  0  0  0
  7  8  2  0  0  0  0
  7  9  1  0  0  0  0
  9 10  1  0  0  0  0
  9 21  1  0  0  0  0
  9 22  1  0  0  0  0
 10 11  1  0  0  0  0
 10 23  1  0  0  0  0
 10 24  1  0  0  0  0
 11 12  1  0  0  0  0
 11 25  1  0  0  0  0
 12 26  1  0  0  0  0
 12 27  1  0  0  0  0
 12 29  1  0  0  0  0
 13 14  2  0  0  0  0
 13 28  1  0  0  0  0
M  CHG  1  12   1
M  END
> <s_m_source_file>
AV-unprocessed.smi

> <i_m_source_file_index>
2526

> <i_lp_mmshare_version>
43012

> <i_f3d_flags>
0

> <s_epik_input>
W0NIM11uMVtjSF1jKFtjSF1uMSlbQ0BASF0yW05IXUMoPU8pW0NIMl1bQ0gyXVtDQEhdMltOSDJd

> <s_epik_cmdline>
J2VwaWtfcHl0aG9uJywgJy1waCcsICc3LjAnLCAnLXRuJywgJzgnLCAnLW1hJywgJzIwMCcsICctbWV0YWxfYmluZGluZycsICctaW1hZScsICc8aW5maWxlLm1hZT4nLCAnLW9tYWUnLCAnPG91dGZpbGUubWFlPic=

> <r_lp_tautomer_probability>
1

> <r_epik_Ionization_Penalty>
0.00878543

> <r_epik_Ionization_Penalty_Charging>
0.00874185

> <r_epik_Ionization_Penalty_Neutral>
4.35793e-05

> <r_epik_State_Penalty>
0.00660351

> <r_epik_Charging_Adjusted_Penalty>
0.0153454

> <i_epik_Tot_Q>
1

> <i_epik_Tot_abs_Q>
1

> <r_epik_Metal_State_Penalty>
0.00660727

> <b_epik_Metal_Only>
0

> <s_lp_Force_Field>
OPLS_2005

> <r_lp_Energy>
11.1602

> <b_lp_Chiralities_Consistent>
1

> <s_lp_Variant>
AV-unprocessed.smi:2526-2

> <Gold.Version>
5.8.1

> <Gold.Id.Protein>
6NUR|6NUR_protein|mol2

> <Gold.PLP.Fitness>
35.2045

> <Gold.PLP.PLP>
-24.1663

> <Gold.PLP.part.hbond>
-2.0000

> <Gold.PLP.part.metal>
0.0000

> <Gold.PLP.part.buried>
-2.1220

> <Gold.PLP.part.nonpolar>
-20.7185

> <Gold.PLP.part.repulsive>
0.2672

> <Gold.PLP.ligand.clash>
0.0000

> <Gold.PLP.ligand.torsion>
0.2229

> <Gold.PLP.Chemscore.Hbond>
3.0000

> <Gold.PLP.Chemscore.CHOScore>
0.8217

> <Gold.PLP.Chemscore.Metal>
0.0000

> <Gold.Chemscore.Hbonds>
donor molecule, donor type, donor heavy atom, donor atom, acceptor molecule, acceptor atom, score
      L1  H    12    26       P1  8028  2.00
      P1  H  7997  8008       L1     8  1.00
      L1  C    13    28       P1  8028  0.80

> <Gold.PLP.Chemscore.Internal.Correction>
0.0187

> <Gold.Rescore>
     Score         DG    S(hbond)    S(metal)    S(lipo)     H(rot)  DE(clash)    DE(int)     intcor
     14.68     -16.30       1.76        0.00      63.96       1.00       1.60       0.02       ----

> <Gold.Chemscore.Fitness>
14.6771

> <Gold.Chemscore.DG>
-16.2952

> <Gold.Chemscore.ZeroCoef>
-5.4800

> <Gold.Chemscore.Hbond>
1.7640

> <Gold.Chemscore.Metal>
0.0000

> <Gold.Chemscore.Lipo>
63.9621

> <Gold.Chemscore.Internal_Hbond>
0.0000

> <Gold.Chemscore.DEClash>
1.5962

> <Gold.Chemscore.DEInternal>
0.0218

> <Gold.Chemscore.Rot>
1.0000

> <Gold.Chemscore.Internal.Correction>
   9.000000E+99

> <Gold.Chemscore.Hbonds>
donor molecule, donor type, donor heavy atom, donor atom, acceptor molecule, acceptor atom, score
      L1  H    12    26       P1  8028  0.74
      P1  H  7997  8008       L1     8  0.43

> <Gold.Chemscore.Hbond.Weighted>
-5.8916

> <Gold.Chemscore.Metal.Weighted>
-0.0000

> <Gold.Chemscore.Lipo.Weighted>
-7.4836

> <Gold.Chemscore.Internal_Hbond.Weighted>
0.0000

> <Gold.Chemscore.DEClash.Weighted>
1.5962

> <Gold.Chemscore.DEInternal.Weighted>
0.0218

> <Gold.Chemscore.Rot.Weighted>
2.5600

> <Gold.Chemscore.Internal.Correction.Weighted>
   9.000000E+99

> <Gold.Protein.RotatedTorsions>
[ 6907 6896 6895 6894 ] final  -12.12 input  -60.11 | X-H torsion
[ 7974 7965 7964 7962 ] final  -34.23 input  175.53 | X-H torsion
[ 8008 7997 7996 7995 ] final  -48.72 input   59.86 | X-H torsion
[ 10167 10162 10161 10158 ] final  119.59 input  -65.29 | X-H torsion
[ 10718 10713 10712 10709 ] final    3.18 input   66.30 | X-H torsion
[ 10763 10752 10751 10750 ] final   48.26 input  -60.55 | X-H torsion
[ 11005 11000 10999 10996 ] final  -77.35 input  -57.11 | X-H torsion

> <Gold.Protein.ActiveResidues>
 VAL166  LYS551  ARG553  GLY616  TRP617  ASP618  TYR619  PRO620  LYS621  CYS622 
 ASP623  PHE694  ASN695  SER759  ASP760  ASP761  ALA762  ILE779  LEU786  VAL792 
 PHE793  MET794  SER795  GLU796  ALA797  LYS798  CYS799  TRP800  GLU811  SER814 

> <Gold.Protein.RotatedAtoms>
  151.3756  135.0930  159.9479 H   0  0  0  0  0  0  0  0  0  0  0  0  # atno 6907 bound_to 6896
  152.5123  133.9122  159.7504 H   0  0  0  0  0  0  0  0  0  0  0  0  # atno 6908 bound_to 6896
  150.9545  133.6458  159.2795 H   0  0  0  0  0  0  0  0  0  0  0  0  # atno 6909 bound_to 6896
  146.0846  140.6013  142.8892 H   0  0  0  0  0  0  0  0  0  0  0  0  # atno 7974 bound_to 7965
  154.4033  140.1314  156.4385 H   0  0  0  0  0  0  0  0  0  0  0  0  # atno 8008 bound_to 7997
  155.7482  140.3488  155.5117 H   0  0  0  0  0  0  0  0  0  0  0  0  # atno 8009 bound_to 7997
  155.8975  140.1013  157.1364 H   0  0  0  0  0  0  0  0  0  0  0  0  # atno 8010 bound_to 7997
  139.6036  144.7064  151.3005 H   0  0  0  0  0  0  0  0  0  0  0  0  # atno 10167 bound_to 10162
  156.8739  130.5630  149.5656 H   0  0  0  0  0  0  0  0  0  0  0  0  # atno 10718 bound_to 10713
  152.9793  135.5950  154.3897 H   0  0  0  0  0  0  0  0  0  0  0  0  # atno 10763 bound_to 10752
  154.3554  135.2767  155.2351 H   0  0  0  0  0  0  0  0  0  0  0  0  # atno 10764 bound_to 10752
  154.4372  135.6022  153.6161 H   0  0  0  0  0  0  0  0  0  0  0  0  # atno 10765 bound_to 10752
  141.1660  133.7019  156.7807 H   0  0  0  0  0  0  0  0  0  0  0  0  # atno 11005 bound_to 11000
  144.7317  140.4690  143.6933 LP  0  0  0  0  0  0  0  0  0  0  0  0  # atno 17320 bound_to 7965
  145.6153  139.1518  143.3053 LP  0  0  0  0  0  0  0  0  0  0  0  0  # atno 17321 bound_to 7965
  140.7268  143.6980  150.7868 LP  0  0  0  0  0  0  0  0  0  0  0  0  # atno 17342 bound_to 10162
  140.0561  143.5201  152.2650 LP  0  0  0  0  0  0  0  0  0  0  0  0  # atno 17343 bound_to 10162
  156.0712  130.5744  150.9386 LP  0  0  0  0  0  0  0  0  0  0  0  0  # atno 17370 bound_to 10713
  157.6179  131.0932  150.8676 LP  0  0  0  0  0  0  0  0  0  0  0  0  # atno 17371 bound_to 10713
  140.2396  134.8623  157.3560 LP  0  0  0  0  0  0  0  0  0  0  0  0  # atno 17394 bound_to 11000
  140.1809  134.4491  155.7773 LP  0  0  0  0  0  0  0  0  0  0  0  0  # atno 17395 bound_to 11000

$$$$
