#       Name:                AV-unprocessed.smi:48
#       Creating user name   scv26
#       Creation time:       Thu Mar 26 16:31:27 2020


#       File generated by GOLD software.
#

@<TRIPOS>MOLECULE
AV-unprocessed.smi:48
    41    43     1
SMALL
NO_CHARGES


@<TRIPOS>ATOM
      1 ****        -2.9916   1.3722  -2.5015 O.3            1 S1                 0.0000
      2 ****        -2.5831   0.3313  -1.6400 C.3            1 S1                 0.0000
      3 ****        -1.1076  -0.0139  -1.8923 C.3            1 S1                 0.0000
      4 ****        -0.2731   0.8915  -1.1803 O.3            1 S1                 0.0000
      5 ****         0.9788   0.3118  -0.9821 C.3            1 S1                 0.0000
      6 ****         1.4376   0.6731   0.3929 N.pl3          1 S1                 0.0000
      7 ****         2.6214   1.2142   0.7463 C.2            1 S1                 0.0000
      8 ****         2.8208   1.4639   2.0398 N.2            1 S1                 0.0000
      9 ****         1.6213   1.0435   2.5903 C.ar           1 S1                 0.0000
     10 ****         1.1319   1.0179   3.9188 C.ar           1 S1                 0.0000
     11 ****         2.0973   1.5838   5.2323 Cl             1 S1                 0.0000
     12 ****        -0.1153   0.5371   4.1376 N.ar           1 S1                 0.0000
     13 ****        -0.8425   0.1045   3.1004 C.ar           1 S1                 0.0000
     14 ****        -0.5161   0.0651   1.8035 N.ar           1 S1                 0.0000
     15 ****         0.7419   0.5499   1.5849 C.ar           1 S1                 0.0000
     16 ****         0.8235  -1.2113  -1.1347 C.3            1 S1                 0.0000
     17 ****         1.5457  -1.6796  -2.2592 O.3            1 S1                 0.0000
     18 ****        -0.6872  -1.3645  -1.3105 C.3            1 S1                 0.0000
     19 ****        -1.0544  -2.4572  -2.1323 O.3            1 S1                 0.0000
     20 ****        -0.8629   0.0239  -2.9559 H              1 S1                 0.0000
     21 ****         1.7195   0.7493  -1.6537 H              1 S1                 0.0000
     22 ****         1.1779  -1.7380  -0.2474 H              1 S1                 0.0000
     23 ****        -1.1494  -1.5001  -0.3325 H              1 S1                 0.0000
     24 ****        -3.9070   1.5485  -2.3465 H              1 S1                 0.0000
     25 ****        -2.7536   0.6084  -0.5992 H              1 S1                 0.0000
     26 ****        -3.2121  -0.5337  -1.8521 H              1 S1                 0.0000
     27 ****         3.3827   1.4358   0.0126 H              1 S1                 0.0000
     28 ****        -1.8276  -0.2655   3.3436 H              1 S1                 0.0000
     29 ****         2.4654  -1.5174  -2.1161 H              1 S1                 0.0000
     30 ****        -0.6818  -3.2449  -1.7669 H              1 S1                 0.0000
     31 ****        -2.8581   1.0945  -3.4528 LP             1 S1                 0.0000
     32 ****        -2.4537   2.1944  -2.3156 LP             1 S1                 0.0000
     33 ****        -0.6876   1.1006  -0.2946 LP             1 S1                 0.0000
     34 ****        -0.1702   1.7349  -1.7076 LP             1 S1                 0.0000
     35 ****         3.6234   1.8519   2.4929 LP             1 S1                 0.0000
     36 ****        -0.4891   0.5056   5.0646 LP             1 S1                 0.0000
     37 ****        -1.1191  -0.2772   1.0829 LP             1 S1                 0.0000
     38 ****         1.2420  -1.1956  -3.0799 LP             1 S1                 0.0000
     39 ****         1.3906  -2.6608  -2.3743 LP             1 S1                 0.0000
     40 ****        -0.7038  -2.3160  -3.0581 LP             1 S1                 0.0000
     41 ****        -2.0508  -2.5374  -2.1619 LP             1 S1                 0.0000
@<TRIPOS>BOND
    1    1    2 1     
    2    1   24 1     
    3    2    3 1     
    4    2   25 1     
    5    2   26 1     
    6    3   20 1     
    7    3   18 1     
    8    3    4 1     
    9    4    5 1     
   10    5   21 1     
   11    5    6 1     
   12    5   16 1     
   13    6   15 1     
   14    6    7 1     
   15    7    8 2     
   16    7   27 1     
   17    8    9 1     
   18    9   15 ar    
   19    9   10 ar    
   20   10   11 1     
   21   10   12 ar    
   22   12   13 ar    
   23   13   14 ar    
   24   13   28 1     
   25   14   15 ar    
   26   16   22 1     
   27   16   17 1     
   28   16   18 1     
   29   17   29 1     
   30   18   23 1     
   31   18   19 1     
   32   19   30 1     
   33    1   31 1     
   34    1   32 1     
   35    4   33 1     
   36    4   34 1     
   37    8   35 1     
   38   12   36 1     
   39   14   37 1     
   40   17   38 1     
   41   17   39 1     
   42   19   40 1     
   43   19   41 1     
@<TRIPOS>SUBSTRUCTURE
      1 S1             1
@<TRIPOS>SET
LONE_PAIRS      STATIC     ATOMS    <user>   **** ""
11 31 32 33 34 35 36 37 38 39 40 41
DONOR_HYDROGENS      STATIC     ATOMS    <user>   **** ""
3 24 29 30
ATOM$BLUE        STATIC     ATOMS    COLORGROUP SYSTEM
11 31 32 33 34 35 36 37 38 39 40 41
ATOM$RED        STATIC     ATOMS    COLORGROUP SYSTEM
3 24 29 30
