AV-unprocessed.smi:747|AV-procd|sdf|3581|dock3
  -GOLD-   22720 0573D 1   1.00000     0.00000
 Structure written by MMmdl.
 48 49  0  0  0  0  0  0  0  0  1 V2000
  152.9921  143.3913  160.5844 C   0  0  0  0  0  0  0  0  0  0  0  0
  152.3081  143.2208  159.3196 N   0  0  0  0  0  0  0  0  0  0  0  0
  152.0941  144.3483  158.4900 C   0  0  0  0  0  0  0  0  0  0  0  0
  152.4620  145.4818  158.7997 O   0  0  0  0  0  0  0  0  0  0  0  0
  151.4028  144.0541  157.2401 C   0  0  0  0  0  0  0  0  0  0  0  0
  151.0179  142.7947  156.9384 C   0  0  0  0  0  0  0  0  0  0  0  0
  151.2407  141.7106  157.7677 N   0  0  0  0  0  0  0  0  0  0  0  0
  150.8080  140.3711  157.3518 C   0  0  0  0  0  0  0  0  0  0  0  0
  150.4255  140.3282  155.8684 C   0  0  0  0  0  0  0  0  0  0  0  0
  151.2819  140.0976  155.0145 O   0  0  0  0  0  0  0  0  0  0  0  0
  149.1340  140.5592  155.5842 N   0  0  0  0  0  0  0  0  0  0  0  0
  148.5156  140.4954  154.2555 C   0  0  1  0  0  0  0  0  0  0  0  0
  147.5813  139.2566  154.1865 C   0  0  0  0  0  0  0  0  0  0  0  0
  147.9893  138.1023  155.1135 C   0  0  0  0  0  0  0  0  0  0  0  0
  148.2588  136.9268  154.5405 N   0  0  0  0  0  0  0  0  0  0  0  0
  148.0628  138.2690  156.3292 O   0  0  0  0  0  0  0  0  0  0  0  0
  147.7894  141.8363  153.9458 C   0  0  0  0  0  0  0  0  0  0  0  0
  146.7231  142.1940  155.0105 C   0  0  0  0  0  0  0  0  0  0  0  0
  145.9950  143.5103  154.6929 C   0  0  0  0  0  0  0  0  0  0  0  0
  145.3531  143.4735  153.3008 C   0  0  0  0  0  0  0  0  0  0  0  0
  146.4026  143.1499  152.2306 C   0  0  0  0  0  0  0  0  0  0  0  0
  147.1290  141.8320  152.5428 C   0  0  0  0  0  0  0  0  0  0  0  0
  151.9025  141.9071  158.9990 C   0  0  0  0  0  0  0  0  0  0  0  0
  152.1151  140.9588  159.7597 O   0  0  0  0  0  0  0  0  0  0  0  0
  153.2516  144.4347  160.7594 H   0  0  0  0  0  0  0  0  0  0  0  0
  153.8990  142.7851  160.5440 H   0  0  0  0  0  0  0  0  0  0  0  0
  152.3157  143.0444  161.3677 H   0  0  0  0  0  0  0  0  0  0  0  0
  151.1988  144.8557  156.5454 H   0  0  0  0  0  0  0  0  0  0  0  0
  150.5139  142.6286  155.9973 H   0  0  0  0  0  0  0  0  0  0  0  0
  151.5919  139.6419  157.5656 H   0  0  0  0  0  0  0  0  0  0  0  0
  149.9430  140.0554  157.9364 H   0  0  0  0  0  0  0  0  0  0  0  0
  148.5148  140.7525  156.3580 H   0  0  0  0  0  0  0  0  0  0  0  0
  149.2896  140.3669  153.4964 H   0  0  0  0  0  0  0  0  0  0  0  0
  146.5560  139.5577  154.4073 H   0  0  0  0  0  0  0  0  0  0  0  0
  147.5701  138.8422  153.1797 H   0  0  0  0  0  0  0  0  0  0  0  0
  148.5395  136.1397  155.1067 H   0  0  0  0  0  0  0  0  0  0  0  0
  148.1882  136.8329  153.5374 H   0  0  0  0  0  0  0  0  0  0  0  0
  148.5397  142.6287  153.9519 H   0  0  0  0  0  0  0  0  0  0  0  0
  145.9953  141.3852  155.0879 H   0  0  0  0  0  0  0  0  0  0  0  0
  147.1776  142.2964  155.9947 H   0  0  0  0  0  0  0  0  0  0  0  0
  145.2318  143.7031  155.4473 H   0  0  0  0  0  0  0  0  0  0  0  0
  146.7008  144.3401  154.7489 H   0  0  0  0  0  0  0  0  0  0  0  0
  144.5620  142.7230  153.2800 H   0  0  0  0  0  0  0  0  0  0  0  0
  144.8801  144.4312  153.0827 H   0  0  0  0  0  0  0  0  0  0  0  0
  145.9265  143.0877  151.2516 H   0  0  0  0  0  0  0  0  0  0  0  0
  147.1281  143.9623  152.1709 H   0  0  0  0  0  0  0  0  0  0  0  0
  147.8725  141.6636  151.7639 H   0  0  0  0  0  0  0  0  0  0  0  0
  146.4225  141.0036  152.4745 H   0  0  0  0  0  0  0  0  0  0  0  0
  1  2  1  0  0  0  0
  1 25  1  0  0  0  0
  1 26  1  0  0  0  0
  1 27  1  0  0  0  0
  2 23  1  0  0  0  0
  2  3  1  0  0  0  0
  3  4  2  0  0  0  0
  3  5  1  0  0  0  0
  5  6  2  0  0  0  0
  5 28  1  0  0  0  0
  6  7  1  0  0  0  0
  6 29  1  0  0  0  0
  7  8  1  0  0  0  0
  7 23  1  0  0  0  0
  8  9  1  0  0  0  0
  8 30  1  0  0  0  0
  8 31  1  0  0  0  0
  9 10  2  0  0  0  0
  9 11  1  0  0  0  0
 11 12  1  0  0  0  0
 11 32  1  0  0  0  0
 12 13  1  0  0  0  0
 12 17  1  0  0  0  0
 12 33  1  0  0  0  0
 13 14  1  0  0  0  0
 13 34  1  0  0  0  0
 13 35  1  0  0  0  0
 14 15  1  0  0  0  0
 14 16  2  0  0  0  0
 15 36  1  0  0  0  0
 15 37  1  0  0  0  0
 17 22  1  0  0  0  0
 17 18  1  0  0  0  0
 17 38  1  0  0  0  0
 18 19  1  0  0  0  0
 18 39  1  0  0  0  0
 18 40  1  0  0  0  0
 19 20  1  0  0  0  0
 19 41  1  0  0  0  0
 19 42  1  0  0  0  0
 20 21  1  0  0  0  0
 20 43  1  0  0  0  0
 20 44  1  0  0  0  0
 21 22  1  0  0  0  0
 21 45  1  0  0  0  0
 21 46  1  0  0  0  0
 22 47  1  0  0  0  0
 22 48  1  0  0  0  0
 23 24  2  0  0  0  0
M  END
> <s_m_source_file>
AV-unprocessed.smi

> <i_m_source_file_index>
747

> <i_lp_mmshare_version>
43012

> <i_f3d_flags>
0

> <s_epik_input>
W0NIM11uMWMoPU8pW2NIXVtjSF1uKGMxPU8pW0NIMl1DKD1PKVtOSF1bQ0BIXShbQ0gyXUMoPU8pW05IMl0pW0NIXTJbQ0gyXVtDSDJdW0NIMl1bQ0gyXVtDSDJdMg==

> <s_epik_cmdline>
J2VwaWtfcHl0aG9uJywgJy1waCcsICc3LjAnLCAnLXRuJywgJzgnLCAnLW1hJywgJzIwMCcsICctbWV0YWxfYmluZGluZycsICctaW1hZScsICc8aW5maWxlLm1hZT4nLCAnLW9tYWUnLCAnPG91dGZpbGUubWFlPic=

> <r_lp_tautomer_probability>
1

> <r_epik_Ionization_Penalty>
6.11221e-08

> <r_epik_Ionization_Penalty_Charging>
1.14855e-08

> <r_epik_Ionization_Penalty_Neutral>
4.96365e-08

> <r_epik_State_Penalty>
-0

> <r_epik_Charging_Adjusted_Penalty>
1.14855e-08

> <i_epik_Tot_Q>
0

> <i_epik_Tot_abs_Q>
0

> <r_epik_Metal_State_Penalty>
-0

> <b_epik_Metal_Only>
0

> <s_lp_Force_Field>
OPLS_2005

> <r_lp_Energy>
16.3445

> <b_lp_Chiralities_Consistent>
1

> <s_lp_Variant>
AV-unprocessed.smi:747-2

> <Gold.Version>
5.8.1

> <Gold.Id.Protein>
6NUR|6NUR_protein|mol2

> <Gold.PLP.Fitness>
46.6204

> <Gold.PLP.PLP>
-41.8831

> <Gold.PLP.part.hbond>
-1.7412

> <Gold.PLP.part.metal>
0.0000

> <Gold.PLP.part.buried>
-5.2630

> <Gold.PLP.part.nonpolar>
-35.1597

> <Gold.PLP.part.repulsive>
0.2332

> <Gold.PLP.ligand.clash>
0.0000

> <Gold.PLP.ligand.torsion>
0.9907

> <Gold.PLP.Chemscore.Hbond>
1.2480

> <Gold.PLP.Chemscore.CHOScore>
0.9475

> <Gold.PLP.Chemscore.Metal>
0.0000

> <Gold.Chemscore.Hbonds>
donor molecule, donor type, donor heavy atom, donor atom, acceptor molecule, acceptor atom, score
      L1  H    15    37       P1  7948  0.98
      P1  H  7989  7998       L1    10  1.00
      L1  C     6    29       P1  8028  0.34

> <Gold.PLP.Chemscore.Internal.Correction>
0.1322

> <Gold.Rescore>
     Score         DG    S(hbond)    S(metal)    S(lipo)     H(rot)  DE(clash)    DE(int)     intcor
      9.69     -12.43       1.82        0.00      71.05       2.91       0.12       2.62       ----

> <Gold.Chemscore.Fitness>
9.6926

> <Gold.Chemscore.DG>
-12.4272

> <Gold.Chemscore.ZeroCoef>
-5.4800

> <Gold.Chemscore.Hbond>
1.8234

> <Gold.Chemscore.Metal>
0.0000

> <Gold.Chemscore.Lipo>
71.0457

> <Gold.Chemscore.Internal_Hbond>
0.0000

> <Gold.Chemscore.DEClash>
0.1188

> <Gold.Chemscore.DEInternal>
2.6157

> <Gold.Chemscore.Rot>
2.9122

> <Gold.Chemscore.Internal.Correction>
   9.000000E+99

> <Gold.Chemscore.Hbonds>
donor molecule, donor type, donor heavy atom, donor atom, acceptor molecule, acceptor atom, score
      L1  H    15    37       P1  7948  0.93
      P1  H  7989  7998       L1    10  0.99

> <Gold.Chemscore.Hbond.Weighted>
-6.0901

> <Gold.Chemscore.Metal.Weighted>
-0.0000

> <Gold.Chemscore.Lipo.Weighted>
-8.3123

> <Gold.Chemscore.Internal_Hbond.Weighted>
0.0000

> <Gold.Chemscore.DEClash.Weighted>
0.1188

> <Gold.Chemscore.DEInternal.Weighted>
2.6157

> <Gold.Chemscore.Rot.Weighted>
7.4553

> <Gold.Chemscore.Internal.Correction.Weighted>
   9.000000E+99

> <Gold.Protein.RotatedTorsions>
[ 6907 6896 6895 6894 ] final  123.33 input  -60.11 | X-H torsion
[ 7974 7965 7964 7962 ] final  177.69 input  175.53 | X-H torsion
[ 8008 7997 7996 7995 ] final  117.14 input   59.86 | X-H torsion
[ 10167 10162 10161 10158 ] final  -43.60 input  -65.29 | X-H torsion
[ 10718 10713 10712 10709 ] final   70.83 input   66.30 | X-H torsion
[ 10763 10752 10751 10750 ] final -127.39 input  -60.55 | X-H torsion
[ 11005 11000 10999 10996 ] final   72.81 input  -57.11 | X-H torsion

> <Gold.Protein.ActiveResidues>
 VAL166  LYS551  ARG553  GLY616  TRP617  ASP618  TYR619  PRO620  LYS621  CYS622 
 ASP623  PHE694  ASN695  SER759  ASP760  ASP761  ALA762  ILE779  LEU786  VAL792 
 PHE793  MET794  SER795  GLU796  ALA797  LYS798  CYS799  TRP800  GLU811  SER814 

> <Gold.Protein.RotatedAtoms>
  152.4171  133.7055  159.6448 H   0  0  0  0  0  0  0  0  0  0  0  0  # atno 6907 bound_to 6896
  150.8047  133.8521  159.3217 H   0  0  0  0  0  0  0  0  0  0  0  0  # atno 6908 bound_to 6896
  151.6248  135.1030  160.0161 H   0  0  0  0  0  0  0  0  0  0  0  0  # atno 6909 bound_to 6896
  144.7166  140.0284  143.6439 H   0  0  0  0  0  0  0  0  0  0  0  0  # atno 7974 bound_to 7965
  156.2478  140.2902  156.0632 H   0  0  0  0  0  0  0  0  0  0  0  0  # atno 8008 bound_to 7997
  155.1752  140.0403  157.2888 H   0  0  0  0  0  0  0  0  0  0  0  0  # atno 8009 bound_to 7997
  154.6298  140.2496  155.7455 H   0  0  0  0  0  0  0  0  0  0  0  0  # atno 8010 bound_to 7997
  140.6928  143.2974  151.3375 H   0  0  0  0  0  0  0  0  0  0  0  0  # atno 10167 bound_to 10162
  157.6420  130.9497  150.0705 H   0  0  0  0  0  0  0  0  0  0  0  0  # atno 10718 bound_to 10713
  154.8752  135.3963  154.3586 H   0  0  0  0  0  0  0  0  0  0  0  0  # atno 10763 bound_to 10752
  153.4362  135.7026  153.6204 H   0  0  0  0  0  0  0  0  0  0  0  0  # atno 10764 bound_to 10752
  153.4804  135.3770  155.2408 H   0  0  0  0  0  0  0  0  0  0  0  0  # atno 10765 bound_to 10752
  139.9472  134.7292  156.0950 H   0  0  0  0  0  0  0  0  0  0  0  0  # atno 11005 bound_to 11000
  146.0122  139.3180  143.0863 LP  0  0  0  0  0  0  0  0  0  0  0  0  # atno 17320 bound_to 7965
  145.8668  140.9443  143.0671 LP  0  0  0  0  0  0  0  0  0  0  0  0  # atno 17321 bound_to 7965
  139.6349  144.0650  152.2507 LP  0  0  0  0  0  0  0  0  0  0  0  0  # atno 17342 bound_to 10162
  140.0137  144.6205  150.7626 LP  0  0  0  0  0  0  0  0  0  0  0  0  # atno 17343 bound_to 10162
  156.1710  130.3646  149.9164 LP  0  0  0  0  0  0  0  0  0  0  0  0  # atno 17370 bound_to 10713
  156.7140  130.8981  151.3612 LP  0  0  0  0  0  0  0  0  0  0  0  0  # atno 17371 bound_to 10713
  141.1125  133.6638  156.3014 LP  0  0  0  0  0  0  0  0  0  0  0  0  # atno 17394 bound_to 11000
  140.5806  134.5749  157.5478 LP  0  0  0  0  0  0  0  0  0  0  0  0  # atno 17395 bound_to 11000

$$$$
