AV-unprocessed.smi:1795|AV-procd|sdf|7250|dock4
  -GOLD-   22720 8503D 1   1.00000     0.00000
 Structure written by MMmdl.
 48 49  0  0  0  0  0  0  0  0  2 V2000
  145.1823  146.9701  158.2742 C   0  0  0  0  0  0  0  0  0  0  0  0
  144.5379  145.7200  158.8998 C   0  0  1  0  0  0  0  0  0  0  0  0
  144.6170  144.4705  158.0031 C   0  0  0  0  0  0  0  0  0  0  0  0
  145.9993  143.9232  157.9433 N   0  3  2  0  0  0  0  0  0  0  0  0
  146.1231  142.7902  156.9682 C   0  0  1  0  0  0  0  0  0  0  0  0
  146.2386  143.3542  155.5340 C   0  0  0  0  0  0  0  0  0  0  0  0
  147.2940  141.8159  157.2783 C   0  0  0  0  0  0  0  0  0  0  0  0
  148.6048  142.4485  157.1553 N   0  0  0  0  0  0  0  0  0  0  0  0
  149.7838  141.8525  157.3920 C   0  0  0  0  0  0  0  0  0  0  0  0
  149.8898  140.6720  157.7261 O   0  0  0  0  0  0  0  0  0  0  0  0
  151.0317  142.7282  157.2173 C   0  0  0  0  0  0  0  0  0  0  0  0
  151.6953  143.0348  158.4951 N   0  0  0  0  0  0  0  0  0  0  0  0
  152.4217  141.9954  159.1100 C   0  0  0  0  0  0  0  0  0  0  0  0
  153.0631  142.1715  160.2760 C   0  0  0  0  0  0  0  0  0  0  0  0
  152.9967  143.4703  160.9026 C   0  0  0  0  0  0  0  0  0  0  0  0
  152.3013  144.4703  160.3252 C   0  0  0  0  0  0  0  0  0  0  0  0
  151.5950  144.2813  159.0528 C   0  0  0  0  0  0  0  0  0  0  0  0
  150.9518  145.1870  158.5208 O   0  0  0  0  0  0  0  0  0  0  0  0
  146.4837  143.6597  159.3250 C   0  0  0  0  0  0  0  0  0  0  0  0
  146.3963  144.9309  160.1905 C   0  0  2  0  0  0  0  0  0  0  0  0
  146.7994  144.6632  161.6450 C   0  0  0  0  0  0  0  0  0  0  0  0
  145.0612  145.4240  160.1922 O   0  0  0  0  0  0  0  0  0  0  0  0
  144.6637  147.2539  157.3582 H   0  0  0  0  0  0  0  0  0  0  0  0
  146.2293  146.8130  158.0163 H   0  0  0  0  0  0  0  0  0  0  0  0
  145.1291  147.8179  158.9576 H   0  0  0  0  0  0  0  0  0  0  0  0
  143.4833  145.9528  159.0506 H   0  0  0  0  0  0  0  0  0  0  0  0
  143.9505  143.7019  158.3982 H   0  0  0  0  0  0  0  0  0  0  0  0
  144.2422  144.7205  157.0119 H   0  0  0  0  0  0  0  0  0  0  0  0
  145.2053  142.2029  157.0287 H   0  0  0  0  0  0  0  0  0  0  0  0
  146.2101  142.5635  154.7849 H   0  0  0  0  0  0  0  0  0  0  0  0
  147.1735  143.8997  155.4022 H   0  0  0  0  0  0  0  0  0  0  0  0
  145.4262  144.0330  155.2814 H   0  0  0  0  0  0  0  0  0  0  0  0
  147.1693  141.3714  158.2674 H   0  0  0  0  0  0  0  0  0  0  0  0
  147.3040  140.9916  156.5653 H   0  0  0  0  0  0  0  0  0  0  0  0
  148.6166  143.4201  156.8796 H   0  0  0  0  0  0  0  0  0  0  0  0
  151.7137  142.2130  156.5399 H   0  0  0  0  0  0  0  0  0  0  0  0
  150.7675  143.6560  156.7062 H   0  0  0  0  0  0  0  0  0  0  0  0
  152.4177  141.0536  158.5809 H   0  0  0  0  0  0  0  0  0  0  0  0
  153.6116  141.3621  160.7350 H   0  0  0  0  0  0  0  0  0  0  0  0
  153.5064  143.6408  161.8395 H   0  0  0  0  0  0  0  0  0  0  0  0
  152.2626  145.4353  160.8087 H   0  0  0  0  0  0  0  0  0  0  0  0
  145.8996  142.8522  159.7697 H   0  0  0  0  0  0  0  0  0  0  0  0
  147.5270  143.3464  159.3187 H   0  0  0  0  0  0  0  0  0  0  0  0
  147.0682  145.6910  159.7914 H   0  0  0  0  0  0  0  0  0  0  0  0
  147.8248  144.2984  161.7084 H   0  0  0  0  0  0  0  0  0  0  0  0
  146.1498  143.9179  162.1048 H   0  0  0  0  0  0  0  0  0  0  0  0
  146.7349  145.5739  162.2410 H   0  0  0  0  0  0  0  0  0  0  0  0
  146.5915  144.6594  157.5858 H   0  0  0  0  0  0  0  0  0  0  0  0
  1  2  1  0  0  0  0
  1 23  1  0  0  0  0
  1 24  1  0  0  0  0
  1 25  1  0  0  0  0
  2 22  1  0  0  0  0
  2  3  1  0  0  0  0
  2 26  1  0  0  0  0
  3  4  1  0  0  0  0
  3 27  1  0  0  0  0
  3 28  1  0  0  0  0
  4  5  1  0  0  0  0
  4 19  1  0  0  0  0
  4 48  1  0  0  0  0
  5  6  1  0  0  0  0
  5  7  1  0  0  0  0
  5 29  1  0  0  0  0
  6 30  1  0  0  0  0
  6 31  1  0  0  0  0
  6 32  1  0  0  0  0
  7  8  1  0  0  0  0
  7 33  1  0  0  0  0
  7 34  1  0  0  0  0
  8  9  1  0  0  0  0
  8 35  1  0  0  0  0
  9 10  2  0  0  0  0
  9 11  1  0  0  0  0
 11 12  1  0  0  0  0
 11 36  1  0  0  0  0
 11 37  1  0  0  0  0
 12 17  1  0  0  0  0
 12 13  1  0  0  0  0
 13 14  2  0  0  0  0
 13 38  1  0  0  0  0
 14 15  1  0  0  0  0
 14 39  1  0  0  0  0
 15 16  2  0  0  0  0
 15 40  1  0  0  0  0
 16 17  1  0  0  0  0
 16 41  1  0  0  0  0
 17 18  2  0  0  0  0
 19 20  1  0  0  0  0
 19 42  1  0  0  0  0
 19 43  1  0  0  0  0
 20 21  1  0  0  0  0
 20 22  1  0  0  0  0
 20 44  1  0  0  0  0
 21 45  1  0  0  0  0
 21 46  1  0  0  0  0
 21 47  1  0  0  0  0
M  CHG  1   4   1
M  END
> <s_m_source_file>
AV-unprocessed.smi

> <i_m_source_file_index>
1795

> <i_lp_mmshare_version>
43012

> <i_f3d_flags>
0

> <s_epik_input>
W0NIM11bQ0BASF0xW0NIMl1OKFtDSDJdW0NASF0oTzEpW0NIM10pW0NASF0oW0NIM10pW0NIMl1bTkhdQyg9TylbQ0gyXW4yW2NIXVtjSF1bY0hdW2NIXWMyPU8=

> <s_epik_cmdline>
J2VwaWtfcHl0aG9uJywgJy1waCcsICc3LjAnLCAnLXRuJywgJzgnLCAnLW1hJywgJzIwMCcsICctbWV0YWxfYmluZGluZycsICctaW1hZScsICc8aW5maWxlLm1hZT4nLCAnLW9tYWUnLCAnPG91dGZpbGUubWFlPic=

> <r_lp_tautomer_probability>
1

> <r_epik_Ionization_Penalty>
0.656654

> <r_epik_Ionization_Penalty_Charging>
0.656654

> <r_epik_Ionization_Penalty_Neutral>
8.90321e-08

> <r_epik_State_Penalty>
0.675641

> <r_epik_Charging_Adjusted_Penalty>
1.33229

> <i_epik_Tot_Q>
1

> <i_epik_Tot_abs_Q>
1

> <r_epik_Metal_State_Penalty>
0.675691

> <b_epik_Metal_Only>
0

> <s_lp_Force_Field>
OPLS_2005

> <r_lp_Energy>
30.8259

> <b_lp_Chiralities_Consistent>
1

> <s_lp_Variant>
AV-unprocessed.smi:1795-14

> <Gold.Version>
5.8.1

> <Gold.Id.Protein>
6NUR|6NUR_protein|mol2

> <Gold.PLP.Fitness>
41.9615

> <Gold.PLP.PLP>
-36.4502

> <Gold.PLP.part.hbond>
-2.0418

> <Gold.PLP.part.metal>
0.0000

> <Gold.PLP.part.buried>
-4.8127

> <Gold.PLP.part.nonpolar>
-29.5701

> <Gold.PLP.part.repulsive>
0.3531

> <Gold.PLP.ligand.clash>
0.0000

> <Gold.PLP.ligand.torsion>
0.8568

> <Gold.PLP.Chemscore.Hbond>
2.3798

> <Gold.PLP.Chemscore.CHOScore>
0.0000

> <Gold.PLP.Chemscore.Metal>
0.0000

> <Gold.Chemscore.Hbonds>
donor molecule, donor type, donor heavy atom, donor atom, acceptor molecule, acceptor atom, score
      L1  H     4    48       P1  8029  1.60
      L1  H     8    35       P1  8028  1.00

> <Gold.PLP.Chemscore.Internal.Correction>
0.0856

> <Gold.Rescore>
     Score         DG    S(hbond)    S(metal)    S(lipo)     H(rot)  DE(clash)    DE(int)     intcor
     11.59     -12.51       0.71        0.00      81.20       1.89       0.08       0.85       ----

> <Gold.Chemscore.Fitness>
11.5861

> <Gold.Chemscore.DG>
-12.5081

> <Gold.Chemscore.ZeroCoef>
-5.4800

> <Gold.Chemscore.Hbond>
0.7061

> <Gold.Chemscore.Metal>
0.0000

> <Gold.Chemscore.Lipo>
81.1999

> <Gold.Chemscore.Internal_Hbond>
0.0000

> <Gold.Chemscore.DEClash>
0.0766

> <Gold.Chemscore.DEInternal>
0.8454

> <Gold.Chemscore.Rot>
1.8870

> <Gold.Chemscore.Internal.Correction>
   9.000000E+99

> <Gold.Chemscore.Hbonds>
donor molecule, donor type, donor heavy atom, donor atom, acceptor molecule, acceptor atom, score
      L1  H     4    48       P1  8029  0.12
      L1  H     8    35       P1  8028  0.38

> <Gold.Chemscore.Hbond.Weighted>
-2.3584

> <Gold.Chemscore.Metal.Weighted>
-0.0000

> <Gold.Chemscore.Lipo.Weighted>
-9.5004

> <Gold.Chemscore.Internal_Hbond.Weighted>
0.0000

> <Gold.Chemscore.DEClash.Weighted>
0.0766

> <Gold.Chemscore.DEInternal.Weighted>
0.8454

> <Gold.Chemscore.Rot.Weighted>
4.8308

> <Gold.Chemscore.Internal.Correction.Weighted>
   9.000000E+99

> <Gold.Protein.RotatedTorsions>
[ 6907 6896 6895 6894 ] final  153.08 input  -60.11 | X-H torsion
[ 7974 7965 7964 7962 ] final  139.50 input  175.53 | X-H torsion
[ 8008 7997 7996 7995 ] final  159.97 input   59.86 | X-H torsion
[ 10167 10162 10161 10158 ] final -136.25 input  -65.29 | X-H torsion
[ 10718 10713 10712 10709 ] final -151.14 input   66.30 | X-H torsion
[ 10763 10752 10751 10750 ] final   -9.61 input  -60.55 | X-H torsion
[ 11005 11000 10999 10996 ] final  -42.85 input  -57.11 | X-H torsion

> <Gold.Protein.ActiveResidues>
 VAL166  LYS551  ARG553  GLY616  TRP617  ASP618  TYR619  PRO620  LYS621  CYS622 
 ASP623  PHE694  ASN695  SER759  ASP760  ASP761  ALA762  ILE779  LEU786  VAL792 
 PHE793  MET794  SER795  GLU796  ALA797  LYS798  CYS799  TRP800  GLU811  SER814 

> <Gold.Protein.RotatedAtoms>
  152.0778  133.4137  159.4487 H   0  0  0  0  0  0  0  0  0  0  0  0  # atno 6907 bound_to 6896
  150.6862  134.3018  159.4718 H   0  0  0  0  0  0  0  0  0  0  0  0  # atno 6908 bound_to 6896
  152.0856  134.9441  160.0623 H   0  0  0  0  0  0  0  0  0  0  0  0  # atno 6909 bound_to 6896
  144.9273  139.5091  143.5634 H   0  0  0  0  0  0  0  0  0  0  0  0  # atno 7974 bound_to 7965
  156.2204  140.1817  156.7491 H   0  0  0  0  0  0  0  0  0  0  0  0  # atno 8008 bound_to 7997
  154.5856  140.0659  156.9195 H   0  0  0  0  0  0  0  0  0  0  0  0  # atno 8009 bound_to 7997
  155.2426  140.3323  155.4293 H   0  0  0  0  0  0  0  0  0  0  0  0  # atno 8010 bound_to 7997
  139.8696  143.6974  152.2641 H   0  0  0  0  0  0  0  0  0  0  0  0  # atno 10167 bound_to 10162
  156.4554  130.8188  151.2418 H   0  0  0  0  0  0  0  0  0  0  0  0  # atno 10718 bound_to 10713
  153.4572  135.7015  153.6072 H   0  0  0  0  0  0  0  0  0  0  0  0  # atno 10763 bound_to 10752
  153.4382  135.3786  155.2212 H   0  0  0  0  0  0  0  0  0  0  0  0  # atno 10764 bound_to 10752
  154.8728  135.3967  154.3993 H   0  0  0  0  0  0  0  0  0  0  0  0  # atno 10765 bound_to 10752
  141.0344  133.6806  156.2652 H   0  0  0  0  0  0  0  0  0  0  0  0  # atno 11005 bound_to 11000
  146.3232  139.8197  142.8929 LP  0  0  0  0  0  0  0  0  0  0  0  0  # atno 17320 bound_to 7965
  145.3198  141.0241  143.3507 LP  0  0  0  0  0  0  0  0  0  0  0  0  # atno 17321 bound_to 7965
  139.7296  144.7585  151.0823 LP  0  0  0  0  0  0  0  0  0  0  0  0  # atno 17342 bound_to 10162
  140.7763  143.5105  150.9659 LP  0  0  0  0  0  0  0  0  0  0  0  0  # atno 17343 bound_to 10162
  157.7501  131.0124  150.3385 LP  0  0  0  0  0  0  0  0  0  0  0  0  # atno 17370 bound_to 10713
  156.3772  130.3874  149.7129 LP  0  0  0  0  0  0  0  0  0  0  0  0  # atno 17371 bound_to 10713
  140.6349  134.5226  157.5563 LP  0  0  0  0  0  0  0  0  0  0  0  0  # atno 17394 bound_to 11000
  139.9230  134.8111  156.1153 LP  0  0  0  0  0  0  0  0  0  0  0  0  # atno 17395 bound_to 11000

$$$$
