AV-unprocessed.smi:3106|AV-procd|sdf|11824|dock5
  -GOLD-   2272017193D 1   1.00000     0.00000
 Structure written by MMmdl.
 29 30  0  0  0  0  0  0  0  0  1 V2000
  151.4998  145.6129  159.9645 C   0  0  0  0  0  0  0  0  0  0  0  0
  152.1660  144.2912  160.2840 C   0  0  0  0  0  0  0  0  0  0  0  0
  152.1876  143.7955  161.6009 C   0  0  0  0  0  0  0  0  0  0  0  0
  152.8222  142.5639  161.8528 C   0  0  0  0  0  0  0  0  0  0  0  0
  153.4190  141.8575  160.7844 C   0  0  0  0  0  0  0  0  0  0  0  0
  154.0343  140.6294  161.1454 N   0  0  0  0  0  0  0  0  0  0  0  0
  154.4593  139.6390  160.3390 C   0  0  0  0  0  0  0  0  0  0  0  0
  154.3777  139.6528  159.1101 O   0  0  0  0  0  0  0  0  0  0  0  0
  155.0975  138.4378  161.0469 C   0  0  1  0  0  0  0  0  0  0  0  0
  155.0201  138.4992  162.5842 C   0  0  0  0  0  0  0  0  0  0  0  0
  154.0191  137.4164  162.9369 C   0  0  0  0  0  0  0  0  0  0  0  0
  154.2190  136.4262  161.7988 C   0  0  0  0  0  0  0  0  0  0  0  0
  154.3771  137.2665  160.6664 O   0  0  0  0  0  0  0  0  0  0  0  0
  153.3920  142.3428  159.5179 N   0  0  0  0  0  0  0  0  0  0  0  0
  152.7845  143.5238  159.2774 C   0  0  0  0  0  0  0  0  0  0  0  0
  150.5134  145.6636  160.4263 H   0  0  0  0  0  0  0  0  0  0  0  0
  151.3782  145.7441  158.8888 H   0  0  0  0  0  0  0  0  0  0  0  0
  152.1012  146.4390  160.3449 H   0  0  0  0  0  0  0  0  0  0  0  0
  151.7268  144.3481  162.4068 H   0  0  0  0  0  0  0  0  0  0  0  0
  152.8484  142.1700  162.8585 H   0  0  0  0  0  0  0  0  0  0  0  0
  154.1702  140.4860  162.1352 H   0  0  0  0  0  0  0  0  0  0  0  0
  156.1389  138.3288  160.7388 H   0  0  0  0  0  0  0  0  0  0  0  0
  155.9948  138.2571  163.0097 H   0  0  0  0  0  0  0  0  0  0  0  0
  154.7271  139.4729  162.9793 H   0  0  0  0  0  0  0  0  0  0  0  0
  154.1892  136.9784  163.9207 H   0  0  0  0  0  0  0  0  0  0  0  0
  153.0054  137.8185  162.9090 H   0  0  0  0  0  0  0  0  0  0  0  0
  155.1260  135.8383  161.9474 H   0  0  0  0  0  0  0  0  0  0  0  0
  153.3780  135.7431  161.6791 H   0  0  0  0  0  0  0  0  0  0  0  0
  152.7953  143.8631  158.2521 H   0  0  0  0  0  0  0  0  0  0  0  0
  1  2  1  0  0  0  0
  1 16  1  0  0  0  0
  1 17  1  0  0  0  0
  1 18  1  0  0  0  0
  2 15  1  0  0  0  0
  2  3  2  0  0  0  0
  3  4  1  0  0  0  0
  3 19  1  0  0  0  0
  4  5  2  0  0  0  0
  4 20  1  0  0  0  0
  5  6  1  0  0  0  0
  5 14  1  0  0  0  0
  6  7  1  0  0  0  0
  6 21  1  0  0  0  0
  7  8  2  0  0  0  0
  7  9  1  0  0  0  0
  9 13  1  0  0  0  0
  9 10  1  0  0  0  0
  9 22  1  0  0  0  0
 10 11  1  0  0  0  0
 10 23  1  0  0  0  0
 10 24  1  0  0  0  0
 11 12  1  0  0  0  0
 11 25  1  0  0  0  0
 11 26  1  0  0  0  0
 12 13  1  0  0  0  0
 12 27  1  0  0  0  0
 12 28  1  0  0  0  0
 14 15  2  0  0  0  0
 15 29  1  0  0  0  0
M  END
> <s_m_source_file>
AV-unprocessed.smi

> <i_m_source_file_index>
3106

> <i_lp_mmshare_version>
43012

> <i_f3d_flags>
0

> <s_epik_input>
W0NIM11jMVtjSF1bY0hdYyhuW2NIXTEpW05IXUMoPU8pW0NAQEhdMltDSDJdW0NIMl1bQ0gyXU8y

> <s_epik_cmdline>
J2VwaWtfcHl0aG9uJywgJy1waCcsICc3LjAnLCAnLXRuJywgJzgnLCAnLW1hJywgJzIwMCcsICctbWV0YWxfYmluZGluZycsICctaW1hZScsICc8aW5maWxlLm1hZT4nLCAnLW9tYWUnLCAnPG91dGZpbGUubWFlPic=

> <r_epik_Ionization_Penalty>
0.00356606

> <r_epik_Ionization_Penalty_Charging>
0

> <r_epik_Ionization_Penalty_Neutral>
0.00356606

> <r_epik_State_Penalty>
0.00372088

> <r_epik_Charging_Adjusted_Penalty>
0.00372088

> <i_epik_Tot_Q>
0

> <i_epik_Tot_abs_Q>
0

> <r_epik_Metal_State_Penalty>
-0

> <b_epik_Metal_Only>
0

> <s_lp_Force_Field>
OPLS_2005

> <r_lp_Energy>
20.6895

> <b_lp_Chiralities_Consistent>
1

> <s_lp_Variant>
AV-unprocessed.smi:3106-2

> <Gold.Version>
5.8.1

> <Gold.Id.Protein>
6NUR|6NUR_protein|mol2

> <Gold.PLP.Fitness>
40.0355

> <Gold.PLP.PLP>
-37.1820

> <Gold.PLP.part.hbond>
-1.0000

> <Gold.PLP.part.metal>
0.0000

> <Gold.PLP.part.buried>
-5.0616

> <Gold.PLP.part.nonpolar>
-31.2066

> <Gold.PLP.part.repulsive>
0.0099

> <Gold.PLP.ligand.clash>
0.0000

> <Gold.PLP.ligand.torsion>
0.0769

> <Gold.PLP.Chemscore.Hbond>
1.0000

> <Gold.PLP.Chemscore.CHOScore>
0.0000

> <Gold.PLP.Chemscore.Metal>
0.0000

> <Gold.Chemscore.Hbonds>
donor molecule, donor type, donor heavy atom, donor atom, acceptor molecule, acceptor atom, score
      P1  H  7997  8009       L1     8  1.00

> <Gold.PLP.Chemscore.Internal.Correction>
0.0074

> <Gold.Rescore>
     Score         DG    S(hbond)    S(metal)    S(lipo)     H(rot)  DE(clash)    DE(int)     intcor
     15.51     -16.88       0.98        0.00      91.39       1.00       0.06       1.31       ----

> <Gold.Chemscore.Fitness>
15.5052

> <Gold.Chemscore.DG>
-16.8810

> <Gold.Chemscore.ZeroCoef>
-5.4800

> <Gold.Chemscore.Hbond>
0.9784

> <Gold.Chemscore.Metal>
0.0000

> <Gold.Chemscore.Lipo>
91.3934

> <Gold.Chemscore.Internal_Hbond>
0.0000

> <Gold.Chemscore.DEClash>
0.0613

> <Gold.Chemscore.DEInternal>
1.3145

> <Gold.Chemscore.Rot>
1.0000

> <Gold.Chemscore.Internal.Correction>
   9.000000E+99

> <Gold.Chemscore.Hbonds>
donor molecule, donor type, donor heavy atom, donor atom, acceptor molecule, acceptor atom, score
      P1  H  7997  8009       L1     8  0.99

> <Gold.Chemscore.Hbond.Weighted>
-3.2680

> <Gold.Chemscore.Metal.Weighted>
-0.0000

> <Gold.Chemscore.Lipo.Weighted>
-10.6930

> <Gold.Chemscore.Internal_Hbond.Weighted>
0.0000

> <Gold.Chemscore.DEClash.Weighted>
0.0613

> <Gold.Chemscore.DEInternal.Weighted>
1.3145

> <Gold.Chemscore.Rot.Weighted>
2.5600

> <Gold.Chemscore.Internal.Correction.Weighted>
   9.000000E+99

> <Gold.Protein.RotatedTorsions>
[ 6907 6896 6895 6894 ] final   36.10 input  -60.11 | X-H torsion
[ 7974 7965 7964 7962 ] final  -25.39 input  175.53 | X-H torsion
[ 8008 7997 7996 7995 ] final  130.00 input   59.86 | X-H torsion
[ 10167 10162 10161 10158 ] final  178.59 input  -65.29 | X-H torsion
[ 10718 10713 10712 10709 ] final   97.23 input   66.30 | X-H torsion
[ 10763 10752 10751 10750 ] final   81.75 input  -60.55 | X-H torsion
[ 11005 11000 10999 10996 ] final -131.52 input  -57.11 | X-H torsion

> <Gold.Protein.ActiveResidues>
 VAL166  LYS551  ARG553  GLY616  TRP617  ASP618  TYR619  PRO620  LYS621  CYS622 
 ASP623  PHE694  ASN695  SER759  ASP760  ASP761  ALA762  ILE779  LEU786  VAL792 
 PHE793  MET794  SER795  GLU796  ALA797  LYS798  CYS799  TRP800  GLU811  SER814 

> <Gold.Protein.RotatedAtoms>
  152.1252  134.9176  160.0561 H   0  0  0  0  0  0  0  0  0  0  0  0  # atno 6907 bound_to 6896
  152.0302  133.3929  159.4302 H   0  0  0  0  0  0  0  0  0  0  0  0  # atno 6908 bound_to 6896
  150.6852  134.3451  159.4928 H   0  0  0  0  0  0  0  0  0  0  0  0  # atno 6909 bound_to 6896
  146.1494  140.4880  142.8618 H   0  0  0  0  0  0  0  0  0  0  0  0  # atno 7974 bound_to 7965
  156.2947  140.2606  156.2691 H   0  0  0  0  0  0  0  0  0  0  0  0  # atno 8008 bound_to 7997
  154.9713  140.0391  157.2254 H   0  0  0  0  0  0  0  0  0  0  0  0  # atno 8009 bound_to 7997
  154.7856  140.2803  155.6035 H   0  0  0  0  0  0  0  0  0  0  0  0  # atno 8010 bound_to 7997
  139.5300  144.2662  152.0666 H   0  0  0  0  0  0  0  0  0  0  0  0  # atno 10167 bound_to 10162
  157.6915  131.0603  150.4612 H   0  0  0  0  0  0  0  0  0  0  0  0  # atno 10718 bound_to 10713
  153.1144  135.4754  154.9089 H   0  0  0  0  0  0  0  0  0  0  0  0  # atno 10763 bound_to 10752
  154.7513  135.3107  154.8555 H   0  0  0  0  0  0  0  0  0  0  0  0  # atno 10764 bound_to 10752
  153.9135  135.6862  153.4803 H   0  0  0  0  0  0  0  0  0  0  0  0  # atno 10765 bound_to 10752
  140.9251  134.1393  157.4282 H   0  0  0  0  0  0  0  0  0  0  0  0  # atno 11005 bound_to 11000
  144.7885  140.5985  143.6557 LP  0  0  0  0  0  0  0  0  0  0  0  0  # atno 17320 bound_to 7965
  145.4859  139.1492  143.3736 LP  0  0  0  0  0  0  0  0  0  0  0  0  # atno 17321 bound_to 7965
  140.2124  144.4550  150.6380 LP  0  0  0  0  0  0  0  0  0  0  0  0  # atno 17342 bound_to 10162
  140.6472  143.2216  151.6159 LP  0  0  0  0  0  0  0  0  0  0  0  0  # atno 17343 bound_to 10162
  156.4956  130.4105  149.6382 LP  0  0  0  0  0  0  0  0  0  0  0  0  # atno 17370 bound_to 10713
  156.3376  130.7365  151.2305 LP  0  0  0  0  0  0  0  0  0  0  0  0  # atno 17371 bound_to 10713
  139.8784  134.9985  156.5905 LP  0  0  0  0  0  0  0  0  0  0  0  0  # atno 17394 bound_to 11000
  140.7937  133.8562  155.8667 LP  0  0  0  0  0  0  0  0  0  0  0  0  # atno 17395 bound_to 11000

$$$$
