AV-unprocessed.smi:2784|AV-procd|sdf|10737|dock10
  -GOLD-   2272015173D 1   1.00000     0.00000
 Structure written by MMmdl.
 31 32  0  0  0  0  0  0  0  0  1 V2000
  153.4286  141.7090  160.7544 C   0  0  0  0  0  0  0  0  0  0  0  0
  153.3627  142.6914  159.7337 O   0  0  0  0  0  0  0  0  0  0  0  0
  152.0627  143.2353  159.5485 C   0  0  1  0  0  0  0  0  0  0  0  0
  151.7304  144.2990  160.6036 C   0  0  0  0  0  0  0  0  0  0  0  0
  150.8112  145.2772  159.8811 C   0  0  0  0  0  0  0  0  0  0  0  0
  151.3942  145.3519  158.4711 C   0  0  0  0  0  0  0  0  0  0  0  0
  151.9790  143.9571  158.1837 C   0  0  2  0  0  0  0  0  0  0  0  0
  151.1239  143.2358  157.2442 N   0  0  0  0  0  0  0  0  0  0  0  0
  151.1333  141.9087  157.0497 C   0  0  0  0  0  0  0  0  0  0  0  0
  151.9062  141.1663  157.6639 O   0  0  0  0  0  0  0  0  0  0  0  0
  150.2147  141.5575  156.0731 N   0  0  0  0  0  0  0  0  0  0  0  0
  150.4332  140.4992  155.3548 C   0  0  0  0  0  0  0  0  0  0  0  0
  151.4771  139.5781  155.3210 N   0  0  0  0  0  0  0  0  0  0  0  0
  151.2001  138.6565  154.3503 C   0  0  0  0  0  0  0  0  0  0  0  0
  150.0356  138.9797  153.7956 C   0  0  0  0  0  0  0  0  0  0  0  0
  149.5424  140.1027  154.3896 O   0  0  0  0  0  0  0  0  0  0  0  0
  154.4480  141.3307  160.8290 H   0  0  0  0  0  0  0  0  0  0  0  0
  152.7741  140.8655  160.5315 H   0  0  0  0  0  0  0  0  0  0  0  0
  153.1530  142.1188  161.7266 H   0  0  0  0  0  0  0  0  0  0  0  0
  151.3118  142.4431  159.5911 H   0  0  0  0  0  0  0  0  0  0  0  0
  151.2735  143.8761  161.4984 H   0  0  0  0  0  0  0  0  0  0  0  0
  152.6403  144.8185  160.9077 H   0  0  0  0  0  0  0  0  0  0  0  0
  149.7992  144.8720  159.8418 H   0  0  0  0  0  0  0  0  0  0  0  0
  150.7648  146.2508  160.3694 H   0  0  0  0  0  0  0  0  0  0  0  0
  150.6556  145.6744  157.7362 H   0  0  0  0  0  0  0  0  0  0  0  0
  152.1999  146.0871  158.4575 H   0  0  0  0  0  0  0  0  0  0  0  0
  152.9718  144.0793  157.7456 H   0  0  0  0  0  0  0  0  0  0  0  0
  150.4755  143.7877  156.7014 H   0  0  0  0  0  0  0  0  0  0  0  0
  152.3110  139.5574  155.8907 H   0  0  0  0  0  0  0  0  0  0  0  0
  151.8859  137.8455  154.1546 H   0  0  0  0  0  0  0  0  0  0  0  0
  149.4514  138.5334  153.0044 H   0  0  0  0  0  0  0  0  0  0  0  0
  1  2  1  0  0  0  0
  1 17  1  0  0  0  0
  1 18  1  0  0  0  0
  1 19  1  0  0  0  0
  2  3  1  0  0  0  0
  3  7  1  0  0  0  0
  3  4  1  0  0  0  0
  3 20  1  0  0  0  0
  4  5  1  0  0  0  0
  4 21  1  0  0  0  0
  4 22  1  0  0  0  0
  5  6  1  0  0  0  0
  5 23  1  0  0  0  0
  5 24  1  0  0  0  0
  6  7  1  0  0  0  0
  6 25  1  0  0  0  0
  6 26  1  0  0  0  0
  7  8  1  0  0  0  0
  7 27  1  0  0  0  0
  8 28  1  0  0  0  0
  8  9  1  0  0  0  0
  9 11  1  0  0  0  0
  9 10  2  0  0  0  0
 11 12  2  0  0  0  0
 12 16  1  0  0  0  0
 12 13  1  0  0  0  0
 13 29  1  0  0  0  0
 13 14  1  0  0  0  0
 14 30  1  0  0  0  0
 14 15  2  0  0  0  0
 15 31  1  0  0  0  0
 15 16  1  0  0  0  0
M  END
> <s_m_source_file>
AV-unprocessed.smi

> <i_m_source_file_index>
2784

> <i_lp_mmshare_version>
43012

> <i_f3d_flags>
0

> <s_epik_input>
W0NIM11PW0NAQEhdMVtDSDJdW0NIMl1bQ0gyXVtDQEhdMVtOSF1DKD1PKVtOSF1jMm5bY0hdW2NIXW8y

> <s_epik_cmdline>
J2VwaWtfcHl0aG9uJywgJy1waCcsICc3LjAnLCAnLXRuJywgJzgnLCAnLW1hJywgJzIwMCcsICctbWV0YWxfYmluZGluZycsICctaW1hZScsICc8aW5maWxlLm1hZT4nLCAnLW9tYWUnLCAnPG91dGZpbGUubWFlPic=

> <r_lp_tautomer_probability>
0.107061

> <r_epik_Ionization_Penalty>
1.29244

> <r_epik_Ionization_Penalty_Charging>
1.29208

> <r_epik_Ionization_Penalty_Neutral>
0.000359742

> <r_epik_State_Penalty>
2.59896

> <r_epik_Charging_Adjusted_Penalty>
3.89105

> <i_epik_Tot_Q>
0

> <i_epik_Tot_abs_Q>
0

> <r_epik_Metal_State_Penalty>
3.62496

> <b_epik_Metal_Only>
0

> <s_lp_Force_Field>
OPLS_2005

> <r_lp_Energy>
42.837

> <b_lp_Chiralities_Consistent>
1

> <s_lp_Variant>
AV-unprocessed.smi:2784-12

> <Gold.Version>
5.8.1

> <Gold.Id.Protein>
6NUR|6NUR_protein|mol2

> <Gold.PLP.Fitness>
40.7423

> <Gold.PLP.PLP>
-34.9188

> <Gold.PLP.part.hbond>
-0.7735

> <Gold.PLP.part.metal>
0.0000

> <Gold.PLP.part.buried>
-4.6613

> <Gold.PLP.part.nonpolar>
-29.2270

> <Gold.PLP.part.repulsive>
0.3350

> <Gold.PLP.ligand.clash>
0.0000

> <Gold.PLP.ligand.torsion>
0.5518

> <Gold.PLP.Chemscore.Hbond>
0.8613

> <Gold.PLP.Chemscore.CHOScore>
1.4461

> <Gold.PLP.Chemscore.Metal>
0.0000

> <Gold.Chemscore.Hbonds>
donor molecule, donor type, donor heavy atom, donor atom, acceptor molecule, acceptor atom, score
      L1  H     8    28       P1  8028  0.83
      L1  C    15    31       P1  7948  0.88
      L1  C    15    31       P1  7957  0.53

> <Gold.PLP.Chemscore.Internal.Correction>
0.0052

> <Gold.Rescore>
     Score         DG    S(hbond)    S(metal)    S(lipo)     H(rot)  DE(clash)    DE(int)     intcor
     11.93     -15.10       0.99        0.00      83.01       1.32       0.08       3.09       ----

> <Gold.Chemscore.Fitness>
11.9285

> <Gold.Chemscore.DG>
-15.0980

> <Gold.Chemscore.ZeroCoef>
-5.4800

> <Gold.Chemscore.Hbond>
0.9863

> <Gold.Chemscore.Metal>
0.0000

> <Gold.Chemscore.Lipo>
83.0075

> <Gold.Chemscore.Internal_Hbond>
0.0000

> <Gold.Chemscore.DEClash>
0.0777

> <Gold.Chemscore.DEInternal>
3.0918

> <Gold.Chemscore.Rot>
1.3235

> <Gold.Chemscore.Internal.Correction>
   9.000000E+99

> <Gold.Chemscore.Hbonds>
donor molecule, donor type, donor heavy atom, donor atom, acceptor molecule, acceptor atom, score
      L1  H     8    28       P1  8028  0.80

> <Gold.Chemscore.Hbond.Weighted>
-3.2943

> <Gold.Chemscore.Metal.Weighted>
-0.0000

> <Gold.Chemscore.Lipo.Weighted>
-9.7119

> <Gold.Chemscore.Internal_Hbond.Weighted>
0.0000

> <Gold.Chemscore.DEClash.Weighted>
0.0777

> <Gold.Chemscore.DEInternal.Weighted>
3.0918

> <Gold.Chemscore.Rot.Weighted>
3.3882

> <Gold.Chemscore.Internal.Correction.Weighted>
   9.000000E+99

> <Gold.Protein.RotatedTorsions>
[ 6907 6896 6895 6894 ] final  -25.62 input  -60.11 | X-H torsion
[ 7974 7965 7964 7962 ] final   79.51 input  175.53 | X-H torsion
[ 8008 7997 7996 7995 ] final   40.43 input   59.86 | X-H torsion
[ 10167 10162 10161 10158 ] final  -54.76 input  -65.29 | X-H torsion
[ 10718 10713 10712 10709 ] final  -60.40 input   66.30 | X-H torsion
[ 10763 10752 10751 10750 ] final -163.27 input  -60.55 | X-H torsion
[ 11005 11000 10999 10996 ] final  -77.51 input  -57.11 | X-H torsion

> <Gold.Protein.ActiveResidues>
 VAL166  LYS551  ARG553  GLY616  TRP617  ASP618  TYR619  PRO620  LYS621  CYS622 
 ASP623  PHE694  ASN695  SER759  ASP760  ASP761  ALA762  ILE779  LEU786  VAL792 
 PHE793  MET794  SER795  GLU796  ALA797  LYS798  CYS799  TRP800  GLU811  SER814 

> <Gold.Protein.RotatedAtoms>
  151.1726  135.0325  159.8757 H   0  0  0  0  0  0  0  0  0  0  0  0  # atno 6907 bound_to 6896
  152.5448  134.1153  159.8386 H   0  0  0  0  0  0  0  0  0  0  0  0  # atno 6908 bound_to 6896
  151.1261  133.5023  159.2633 H   0  0  0  0  0  0  0  0  0  0  0  0  # atno 6909 bound_to 6896
  145.6633  139.2477  143.1910 H   0  0  0  0  0  0  0  0  0  0  0  0  # atno 7974 bound_to 7965
  155.2530  140.3354  155.4280 H   0  0  0  0  0  0  0  0  0  0  0  0  # atno 8008 bound_to 7997
  156.2207  140.1808  156.7526 H   0  0  0  0  0  0  0  0  0  0  0  0  # atno 8009 bound_to 7997
  154.5821  140.0652  156.9104 H   0  0  0  0  0  0  0  0  0  0  0  0  # atno 8010 bound_to 7997
  140.6413  143.2509  151.4982 H   0  0  0  0  0  0  0  0  0  0  0  0  # atno 10167 bound_to 10162
  156.0993  130.4188  150.0848 H   0  0  0  0  0  0  0  0  0  0  0  0  # atno 10718 bound_to 10713
  154.7137  135.3011  154.9156 H   0  0  0  0  0  0  0  0  0  0  0  0  # atno 10763 bound_to 10752
  154.0050  135.6702  153.4765 H   0  0  0  0  0  0  0  0  0  0  0  0  # atno 10764 bound_to 10752
  153.0776  135.5026  154.8351 H   0  0  0  0  0  0  0  0  0  0  0  0  # atno 10765 bound_to 10752
  141.1660  133.7025  156.7831 H   0  0  0  0  0  0  0  0  0  0  0  0  # atno 11005 bound_to 11000
  146.1107  140.7432  142.9505 LP  0  0  0  0  0  0  0  0  0  0  0  0  # atno 17320 bound_to 7965
  144.7081  140.3934  143.7102 LP  0  0  0  0  0  0  0  0  0  0  0  0  # atno 17321 bound_to 7965
  139.5622  144.2129  152.1709 LP  0  0  0  0  0  0  0  0  0  0  0  0  # atno 17342 bound_to 10162
  140.1400  144.5211  150.6750 LP  0  0  0  0  0  0  0  0  0  0  0  0  # atno 17343 bound_to 10162
  156.8839  130.9566  151.3596 LP  0  0  0  0  0  0  0  0  0  0  0  0  # atno 17370 bound_to 10713
  157.6161  130.8619  149.9030 LP  0  0  0  0  0  0  0  0  0  0  0  0  # atno 17371 bound_to 10713
  140.2380  134.8635  157.3545 LP  0  0  0  0  0  0  0  0  0  0  0  0  # atno 17394 bound_to 11000
  140.1824  134.4473  155.7764 LP  0  0  0  0  0  0  0  0  0  0  0  0  # atno 17395 bound_to 11000

$$$$
