#       Name:                AV-unprocessed.smi:276
#       Creating user name   scv26
#       Creation time:       Thu Mar 26 21:36:01 2020


#       File generated by GOLD software.
#

@<TRIPOS>MOLECULE
AV-unprocessed.smi:276
    67    71     1
SMALL
NO_CHARGES


@<TRIPOS>ATOM
      1 ****        -6.3210   0.1200  -3.8223 C.3            1 S1                 0.0000
      2 ****        -5.2169  -0.6181  -3.3299 O.3            1 S1                 0.0000
      3 ****        -4.2989   0.1883  -2.6086 C.3            1 S1                 0.0000
      4 ****        -4.7387   0.5311  -1.1802 C.3            1 S1                 0.0000
      5 ****        -3.2895   0.2814  -0.7180 C.3            1 S1                 0.0000
      6 ****        -2.5049   1.5242  -0.7046 N.3            1 S1                 0.0000
      7 ****        -2.9196   2.5367   0.2618 C.3            1 S1                 0.0000
      8 ****        -1.1611   1.3796  -0.6740 C.ar           1 S1                 0.0000
      9 ****        -0.4415   2.1511  -1.5266 N.ar           1 S1                 0.0000
     10 ****         0.8909   2.0527  -1.5555 C.ar           1 S1                 0.0000
     11 ****         1.6865   1.2666  -0.8271 N.ar           1 S1                 0.0000
     12 ****         0.9658   0.5014   0.0416 C.ar           1 S1                 0.0000
     13 ****        -0.4498   0.4968   0.1893 C.ar           1 S1                 0.0000
     14 ****        -0.8170  -0.4070   1.1799 N.2            1 S1                 0.0000
     15 ****         0.3149  -0.9134   1.5870 C.2            1 S1                 0.0000
     16 ****         1.4352  -0.4238   0.9558 N.pl3          1 S1                 0.0000
     17 ****         2.8143  -0.8022   1.2050 C.3            1 S1                 0.0000
     18 ****         3.5386   0.1980   2.1260 C.3            1 S1                 0.0000
     19 ****         2.9025   0.2632   3.3885 O.3            1 S1                 0.0000
     20 ****         5.0380  -0.1217   2.2901 C.3            1 S1                 0.0000
     21 ****         5.8288   0.7788   3.2424 C.3            1 S1                 0.0000
     22 ****         6.9996  -0.1150   3.5848 C.3            1 S1                 0.0000
     23 ****         6.3335  -1.4867   3.6683 C.3            1 S1                 0.0000
     24 ****         5.2534  -1.4577   2.7385 O.3            1 S1                 0.0000
     25 ****        -3.1312  -0.5992  -1.9872 C.3            1 S1                 0.0000
     26 ****        -3.2210  -2.1310  -1.8592 C.3            1 S1                 0.0000
     27 ****        -2.3333  -2.2317  -3.1026 C.3            1 S1                 0.0000
     28 ****        -1.8236  -0.8273  -2.7698 C.3            1 S1                 0.0000
     29 ****        -6.9892  -0.5439  -4.3707 H              1 S1                 0.0000
     30 ****        -5.9952   0.9075  -4.5028 H              1 S1                 0.0000
     31 ****        -6.8904   0.5727  -3.0097 H              1 S1                 0.0000
     32 ****        -3.9493   1.0596  -3.1668 H              1 S1                 0.0000
     33 ****        -5.1229   1.5438  -1.0617 H              1 S1                 0.0000
     34 ****        -5.4355  -0.2018  -0.7700 H              1 S1                 0.0000
     35 ****        -3.2501  -0.2817   0.2143 H              1 S1                 0.0000
     36 ****        -2.1242   3.2498   0.4866 H              1 S1                 0.0000
     37 ****        -3.2277   2.0706   1.1984 H              1 S1                 0.0000
     38 ****        -3.7622   3.1069  -0.1282 H              1 S1                 0.0000
     39 ****         1.3913   2.6949  -2.2651 H              1 S1                 0.0000
     40 ****         0.3647  -1.6598   2.3663 H              1 S1                 0.0000
     41 ****         2.8284  -1.8043   1.6360 H              1 S1                 0.0000
     42 ****         3.3266  -0.8688   0.2444 H              1 S1                 0.0000
     43 ****         3.4576   1.1932   1.6869 H              1 S1                 0.0000
     44 ****         2.9987  -0.5755   3.8135 H              1 S1                 0.0000
     45 ****         5.5097  -0.0580   1.3079 H              1 S1                 0.0000
     46 ****         6.1292   1.7217   2.7847 H              1 S1                 0.0000
     47 ****         5.2645   1.0036   4.1479 H              1 S1                 0.0000
     48 ****         7.7311  -0.1005   2.7755 H              1 S1                 0.0000
     49 ****         7.5041   0.1717   4.5078 H              1 S1                 0.0000
     50 ****         7.0258  -2.3000   3.4501 H              1 S1                 0.0000
     51 ****         5.9241  -1.6494   4.6660 H              1 S1                 0.0000
     52 ****        -2.7260  -2.5064  -0.9618 H              1 S1                 0.0000
     53 ****        -4.2183  -2.5572  -1.9699 H              1 S1                 0.0000
     54 ****        -1.5768  -3.0159  -3.0632 H              1 S1                 0.0000
     55 ****        -2.9067  -2.2649  -4.0306 H              1 S1                 0.0000
     56 ****        -1.6825  -0.1745  -3.6316 H              1 S1                 0.0000
     57 ****        -0.9309  -0.8711  -2.1465 H              1 S1                 0.0000
     58 ****        -4.7388  -1.0336  -4.1037 LP             1 S1                 0.0000
     59 ****        -5.5571  -1.3367  -2.7234 LP             1 S1                 0.0000
     60 ****        -2.7415   1.8720  -1.6119 LP             1 S1                 0.0000
     61 ****        -0.9084   2.7940  -2.1339 LP             1 S1                 0.0000
     62 ****         2.6829   1.2420  -0.9080 LP             1 S1                 0.0000
     63 ****        -1.7380  -0.6203   1.5060 LP             1 S1                 0.0000
     64 ****         1.9319   0.4716   3.2676 LP             1 S1                 0.0000
     65 ****         3.3294   0.9755   3.9457 LP             1 S1                 0.0000
     66 ****         5.4737  -2.0392   1.9554 LP             1 S1                 0.0000
     67 ****         4.4239  -1.7966   3.1825 LP             1 S1                 0.0000
@<TRIPOS>BOND
    1    1    2 1     
    2    1   29 1     
    3    1   30 1     
    4    1   31 1     
    5    2    3 1     
    6    3   25 1     
    7    3    4 1     
    8    3   32 1     
    9    4    5 1     
   10    4   33 1     
   11    4   34 1     
   12    5    6 1     
   13    5   25 1     
   14    5   35 1     
   15    6    7 1     
   16    6    8 1     
   17    7   36 1     
   18    7   37 1     
   19    7   38 1     
   20    8   13 ar    
   21    8    9 ar    
   22    9   10 ar    
   23   10   11 ar    
   24   10   39 1     
   25   11   12 ar    
   26   12   16 1     
   27   12   13 ar    
   28   13   14 1     
   29   14   15 2     
   30   15   16 1     
   31   15   40 1     
   32   16   17 1     
   33   17   18 1     
   34   17   41 1     
   35   17   42 1     
   36   18   19 1     
   37   18   20 1     
   38   18   43 1     
   39   19   44 1     
   40   20   24 1     
   41   20   21 1     
   42   20   45 1     
   43   21   22 1     
   44   21   46 1     
   45   21   47 1     
   46   22   23 1     
   47   22   48 1     
   48   22   49 1     
   49   23   24 1     
   50   23   50 1     
   51   23   51 1     
   52   25   28 1     
   53   25   26 1     
   54   26   27 1     
   55   26   52 1     
   56   26   53 1     
   57   27   28 1     
   58   27   54 1     
   59   27   55 1     
   60   28   56 1     
   61   28   57 1     
   62    2   58 1     
   63    2   59 1     
   64    6   60 1     
   65    9   61 1     
   66   11   62 1     
   67   14   63 1     
   68   19   64 1     
   69   19   65 1     
   70   24   66 1     
   71   24   67 1     
@<TRIPOS>SUBSTRUCTURE
      1 S1             1
@<TRIPOS>SET
LONE_PAIRS      STATIC     ATOMS    <user>   **** ""
10 58 59 60 61 62 63 64 65 66 67
DONOR_HYDROGENS      STATIC     ATOMS    <user>   **** ""
1 44
ATOM$BLUE        STATIC     ATOMS    COLORGROUP SYSTEM
10 58 59 60 61 62 63 64 65 66 67
ATOM$RED        STATIC     ATOMS    COLORGROUP SYSTEM
1 44
