#       Name:                AV-unprocessed.smi:1358
#       Creating user name   scv26
#       Creation time:       Fri Mar 27 05:14:07 2020


#       File generated by GOLD software.
#

@<TRIPOS>MOLECULE
AV-unprocessed.smi:1358
    42    43     1
SMALL
NO_CHARGES


@<TRIPOS>ATOM
      1 ****        -4.2443   0.4795   0.6440 C.3            1 S1                 0.0000
      2 ****        -3.8201  -0.9861   0.4987 C.3            1 S1                 0.0000
      3 ****        -2.2952  -1.1537   0.4570 C.3            1 S1                 0.0000
      4 ****        -1.8638  -2.6215   0.3069 C.3            1 S1                 0.0000
      5 ****        -0.4135  -2.7256   0.2195 N.am           1 S1                 0.0000
      6 ****         0.4249  -2.7775   1.2665 C.2            1 S1                 0.0000
      7 ****         0.0505  -2.8498   2.4370 O.2            1 S1                 0.0000
      8 ****         1.9184  -2.7001   0.9418 C.3            1 S1                 0.0000
      9 ****         2.3563  -1.2638   0.8770 C.2            1 S1                 0.0000
     10 ****         3.2258  -0.6270   1.7288 C.2            1 S1                 0.0000
     11 ****         3.4419   1.0517   1.3099 S.3            1 S1                 0.0000
     12 ****         2.3184   0.8276  -0.0287 C.2            1 S1                 0.0000
     13 ****         1.9264   1.8740  -0.9147 N.am           1 S1                 0.0000
     14 ****         2.5377   3.1951  -0.8421 C.3            1 S1                 0.0000
     15 ****         1.8348   3.9837  -1.9435 C.3            1 S1                 0.0000
     16 ****         0.9119   3.0084  -2.4756 N.am           1 S1                 0.0000
     17 ****         0.9773   1.8193  -1.8727 C.2            1 S1                 0.0000
     18 ****         0.2698   0.8569  -2.1682 O.2            1 S1                 0.0000
     19 ****         1.8664  -0.4264  -0.1318 N.2            1 S1                 0.0000
     20 ****        -5.3304   0.5694   0.6702 H              1 S1                 0.0000
     21 ****        -3.8808   1.0787  -0.1912 H              1 S1                 0.0000
     22 ****        -3.8519   0.9135   1.5639 H              1 S1                 0.0000
     23 ****        -4.2295  -1.5633   1.3283 H              1 S1                 0.0000
     24 ****        -4.2581  -1.3980  -0.4110 H              1 S1                 0.0000
     25 ****        -1.8896  -0.5703  -0.3710 H              1 S1                 0.0000
     26 ****        -1.8618  -0.7369   1.3670 H              1 S1                 0.0000
     27 ****        -2.2430  -3.2222   1.1353 H              1 S1                 0.0000
     28 ****        -2.2885  -3.0431  -0.6044 H              1 S1                 0.0000
     29 ****        -0.0097  -2.6660  -0.7044 H              1 S1                 0.0000
     30 ****         2.4776  -3.2417   1.7058 H              1 S1                 0.0000
     31 ****         2.1175  -3.2067  -0.0036 H              1 S1                 0.0000
     32 ****         3.7443  -1.0413   2.5806 H              1 S1                 0.0000
     33 ****         2.3686   3.6445   0.1375 H              1 S1                 0.0000
     34 ****         3.6127   3.1332  -1.0177 H              1 S1                 0.0000
     35 ****         1.2973   4.8477  -1.5510 H              1 S1                 0.0000
     36 ****         2.5283   4.3163  -2.7167 H              1 S1                 0.0000
     37 ****         0.2739   3.2211  -3.2288 H              1 S1                 0.0000
     38 ****        -0.9265  -2.8728   2.6490 LP             1 S1                 0.0000
     39 ****         0.7234  -2.8855   3.1759 LP             1 S1                 0.0000
     40 ****         0.3684  -0.0067  -1.6737 LP             1 S1                 0.0000
     41 ****        -0.4038   0.9384  -2.9027 LP             1 S1                 0.0000
     42 ****         1.2448  -0.7332  -0.8525 LP             1 S1                 0.0000
@<TRIPOS>BOND
    1    1    2 1     
    2    1   20 1     
    3    1   21 1     
    4    1   22 1     
    5    2    3 1     
    6    2   23 1     
    7    2   24 1     
    8    3    4 1     
    9    3   25 1     
   10    3   26 1     
   11    4    5 1     
   12    4   27 1     
   13    4   28 1     
   14    5    6 am    
   15    5   29 1     
   16    6    7 2     
   17    6    8 1     
   18    8    9 1     
   19    8   30 1     
   20    8   31 1     
   21    9   19 1     
   22    9   10 2     
   23   10   11 1     
   24   10   32 1     
   25   11   12 1     
   26   12   13 1     
   27   12   19 2     
   28   13   17 am    
   29   13   14 1     
   30   14   15 1     
   31   14   33 1     
   32   14   34 1     
   33   15   16 1     
   34   15   35 1     
   35   15   36 1     
   36   16   17 am    
   37   16   37 1     
   38   17   18 2     
   39    7   38 1     
   40    7   39 1     
   41   18   40 1     
   42   18   41 1     
   43   19   42 1     
@<TRIPOS>SUBSTRUCTURE
      1 S1             1
@<TRIPOS>SET
LONE_PAIRS      STATIC     ATOMS    <user>   **** ""
5 38 39 40 41 42
DONOR_HYDROGENS      STATIC     ATOMS    <user>   **** ""
2 29 37
ATOM$BLUE        STATIC     ATOMS    COLORGROUP SYSTEM
5 38 39 40 41 42
ATOM$RED        STATIC     ATOMS    COLORGROUP SYSTEM
2 29 37
