AV-unprocessed.smi:3094|AV-procd|sdf|11789|dock1
  -GOLD-   2272017163D 1   1.00000     0.00000
 Structure written by MMmdl.
 30 31  0  0  0  0  0  0  0  0  2 V2000
  149.3149  141.3955  156.3979 C   0  0  0  0  0  0  0  0  0  0  0  0
  150.7217  141.0518  156.9058 C   0  0  1  0  0  0  0  0  0  0  0  0
  151.6169  140.5302  155.7609 C   0  0  0  0  0  0  0  0  0  0  0  0
  151.1751  139.2345  155.2343 N   0  0  0  0  0  0  0  0  0  0  0  0
  151.5169  137.9902  155.6985 C   0  0  0  0  0  0  0  0  0  0  0  0
  150.8809  137.0834  154.8903 C   0  0  0  0  0  0  0  0  0  0  0  0
  150.1744  137.8117  153.9712 N   0  3  0  0  0  0  0  0  0  0  0  0
  150.3501  139.1195  154.1852 C   0  0  0  0  0  0  0  0  0  0  0  0
  151.3002  142.2416  157.5299 N   0  0  0  0  0  0  0  0  0  0  0  0
  151.6716  142.3542  158.8152 C   0  0  0  0  0  0  0  0  0  0  0  0
  151.5761  141.4315  159.6259 O   0  0  0  0  0  0  0  0  0  0  0  0
  152.2307  143.6928  159.1688 C   0  0  0  0  0  0  0  0  0  0  0  0
  151.3265  144.8952  158.9919 C   0  0  0  0  0  0  0  0  0  0  0  0
  152.4761  144.6748  158.0414 C   0  0  0  0  0  0  0  0  0  0  0  0
  148.8316  140.5216  155.9601 H   0  0  0  0  0  0  0  0  0  0  0  0
  149.3458  142.1751  155.6357 H   0  0  0  0  0  0  0  0  0  0  0  0
  148.6784  141.7484  157.2101 H   0  0  0  0  0  0  0  0  0  0  0  0
  150.6087  140.2637  157.6527 H   0  0  0  0  0  0  0  0  0  0  0  0
  151.6064  141.2312  154.9251 H   0  0  0  0  0  0  0  0  0  0  0  0
  152.6555  140.4425  156.0844 H   0  0  0  0  0  0  0  0  0  0  0  0
  152.1761  137.8465  156.5423 H   0  0  0  0  0  0  0  0  0  0  0  0
  150.8794  136.0033  154.8997 H   0  0  0  0  0  0  0  0  0  0  0  0
  149.9212  139.9235  153.6141 H   0  0  0  0  0  0  0  0  0  0  0  0
  151.4148  143.0514  156.9371 H   0  0  0  0  0  0  0  0  0  0  0  0
  152.9252  143.7252  160.0072 H   0  0  0  0  0  0  0  0  0  0  0  0
  150.3208  144.7374  158.6060 H   0  0  0  0  0  0  0  0  0  0  0  0
  151.4170  145.6931  159.7259 H   0  0  0  0  0  0  0  0  0  0  0  0
  153.3451  145.3232  158.1320 H   0  0  0  0  0  0  0  0  0  0  0  0
  152.2333  144.3721  157.0243 H   0  0  0  0  0  0  0  0  0  0  0  0
  149.6034  137.4197  153.2328 H   0  0  0  0  0  0  0  0  0  0  0  0
  1  2  1  0  0  0  0
  1 15  1  0  0  0  0
  1 16  1  0  0  0  0
  1 17  1  0  0  0  0
  2  3  1  0  0  0  0
  2  9  1  0  0  0  0
  2 18  1  0  0  0  0
  3  4  1  0  0  0  0
  3 19  1  0  0  0  0
  3 20  1  0  0  0  0
  4  8  1  0  0  0  0
  4  5  1  0  0  0  0
  5  6  2  0  0  0  0
  5 21  1  0  0  0  0
  6  7  1  0  0  0  0
  6 22  1  0  0  0  0
  7  8  2  0  0  0  0
  7 30  1  0  0  0  0
  8 23  1  0  0  0  0
  9 10  1  0  0  0  0
  9 24  1  0  0  0  0
 10 11  2  0  0  0  0
 10 12  1  0  0  0  0
 12 14  1  0  0  0  0
 12 13  1  0  0  0  0
 12 25  1  0  0  0  0
 13 14  1  0  0  0  0
 13 26  1  0  0  0  0
 13 27  1  0  0  0  0
 14 28  1  0  0  0  0
 14 29  1  0  0  0  0
M  CHG  1   7   1
M  END
> <s_m_source_file>
AV-unprocessed.smi

> <i_m_source_file_index>
3094

> <i_lp_mmshare_version>
43012

> <i_f3d_flags>
0

> <s_epik_input>
W0NIMl0xW0NIMl1bQ0hdMUMoPU8pW05IXVtDQEhdKFtDSDNdKVtDSDJdbjJbY0hdW2NIXW5bY0hdMg==

> <s_epik_cmdline>
J2VwaWtfcHl0aG9uJywgJy1waCcsICc3LjAnLCAnLXRuJywgJzgnLCAnLW1hJywgJzIwMCcsICctbWV0YWxfYmluZGluZycsICctaW1hZScsICc8aW5maWxlLm1hZT4nLCAnLW9tYWUnLCAnPG91dGZpbGUubWFlPic=

> <r_lp_tautomer_probability>
1

> <r_epik_Ionization_Penalty>
0.244425

> <r_epik_Ionization_Penalty_Charging>
0

> <r_epik_Ionization_Penalty_Neutral>
0.244425

> <r_epik_State_Penalty>
0.23553

> <r_epik_Charging_Adjusted_Penalty>
0.23553

> <i_epik_Tot_Q>
1

> <i_epik_Tot_abs_Q>
1

> <r_epik_Metal_State_Penalty>
0.528799

> <b_epik_Metal_Only>
0

> <s_lp_Force_Field>
OPLS_2005

> <r_lp_Energy>
8.84251

> <b_lp_Chiralities_Consistent>
1

> <s_lp_Variant>
AV-unprocessed.smi:3094-2

> <Gold.Version>
5.8.1

> <Gold.Id.Protein>
6NUR|6NUR_protein|mol2

> <Gold.PLP.Fitness>
40.6834

> <Gold.PLP.PLP>
-32.5318

> <Gold.PLP.part.hbond>
-1.7380

> <Gold.PLP.part.metal>
0.0000

> <Gold.PLP.part.buried>
-3.8952

> <Gold.PLP.part.nonpolar>
-26.8511

> <Gold.PLP.part.repulsive>
0.1064

> <Gold.PLP.ligand.clash>
0.0000

> <Gold.PLP.ligand.torsion>
0.4616

> <Gold.PLP.Chemscore.Hbond>
2.0000

> <Gold.PLP.Chemscore.CHOScore>
0.9984

> <Gold.PLP.Chemscore.Metal>
0.0000

> <Gold.Chemscore.Hbonds>
donor molecule, donor type, donor heavy atom, donor atom, acceptor molecule, acceptor atom, score
      L1  H     7    30       P1  7948  2.00
      L1  C     8    23       P1  7957  0.95

> <Gold.PLP.Chemscore.Internal.Correction>
0.0797

> <Gold.Rescore>
     Score         DG    S(hbond)    S(metal)    S(lipo)     H(rot)  DE(clash)    DE(int)     intcor
     11.58     -12.04       0.92        0.00      71.41       1.90       0.03       0.43       ----

> <Gold.Chemscore.Fitness>
11.5765

> <Gold.Chemscore.DG>
-12.0421

> <Gold.Chemscore.ZeroCoef>
-5.4800

> <Gold.Chemscore.Hbond>
0.9209

> <Gold.Chemscore.Metal>
0.0000

> <Gold.Chemscore.Lipo>
71.4128

> <Gold.Chemscore.Internal_Hbond>
0.0000

> <Gold.Chemscore.DEClash>
0.0313

> <Gold.Chemscore.DEInternal>
0.4343

> <Gold.Chemscore.Rot>
1.9019

> <Gold.Chemscore.Internal.Correction>
   9.000000E+99

> <Gold.Chemscore.Hbonds>
donor molecule, donor type, donor heavy atom, donor atom, acceptor molecule, acceptor atom, score
      L1  H     7    30       P1  7948  0.78

> <Gold.Chemscore.Hbond.Weighted>
-3.0757

> <Gold.Chemscore.Metal.Weighted>
-0.0000

> <Gold.Chemscore.Lipo.Weighted>
-8.3553

> <Gold.Chemscore.Internal_Hbond.Weighted>
0.0000

> <Gold.Chemscore.DEClash.Weighted>
0.0313

> <Gold.Chemscore.DEInternal.Weighted>
0.4343

> <Gold.Chemscore.Rot.Weighted>
4.8689

> <Gold.Chemscore.Internal.Correction.Weighted>
   9.000000E+99

> <Gold.Protein.RotatedTorsions>
[ 6907 6896 6895 6894 ] final  -42.38 input  -60.11 | X-H torsion
[ 7974 7965 7964 7962 ] final   40.97 input  175.53 | X-H torsion
[ 8008 7997 7996 7995 ] final -114.85 input   59.86 | X-H torsion
[ 10167 10162 10161 10158 ] final   54.86 input  -65.29 | X-H torsion
[ 10718 10713 10712 10709 ] final  -12.92 input   66.30 | X-H torsion
[ 10763 10752 10751 10750 ] final  -86.80 input  -60.55 | X-H torsion
[ 11005 11000 10999 10996 ] final  162.05 input  -57.11 | X-H torsion

> <Gold.Protein.ActiveResidues>
 VAL166  LYS551  ARG553  GLY616  TRP617  ASP618  TYR619  PRO620  LYS621  CYS622 
 ASP623  PHE694  ASN695  SER759  ASP760  ASP761  ALA762  ILE779  LEU786  VAL792 
 PHE793  MET794  SER795  GLU796  ALA797  LYS798  CYS799  TRP800  GLU811  SER814 

> <Gold.Protein.RotatedAtoms>
  150.9559  134.8953  159.7700 H   0  0  0  0  0  0  0  0  0  0  0  0  # atno 6907 bound_to 6896
  152.5137  134.3741  159.9338 H   0  0  0  0  0  0  0  0  0  0  0  0  # atno 6908 bound_to 6896
  151.3755  133.3799  159.2739 H   0  0  0  0  0  0  0  0  0  0  0  0  # atno 6909 bound_to 6896
  146.0861  139.5470  142.9506 H   0  0  0  0  0  0  0  0  0  0  0  0  # atno 7974 bound_to 7965
  155.0428  140.0392  157.2515 H   0  0  0  0  0  0  0  0  0  0  0  0  # atno 8008 bound_to 7997
  154.7202  140.2710  155.6524 H   0  0  0  0  0  0  0  0  0  0  0  0  # atno 8009 bound_to 7997
  156.2814  140.2704  156.1872 H   0  0  0  0  0  0  0  0  0  0  0  0  # atno 8010 bound_to 7997
  140.2256  144.3741  150.6433 H   0  0  0  0  0  0  0  0  0  0  0  0  # atno 10167 bound_to 10162
  156.6376  130.4919  149.6106 H   0  0  0  0  0  0  0  0  0  0  0  0  # atno 10718 bound_to 10713
  154.6265  135.5436  153.7632 H   0  0  0  0  0  0  0  0  0  0  0  0  # atno 10763 bound_to 10752
  153.0263  135.6425  154.1364 H   0  0  0  0  0  0  0  0  0  0  0  0  # atno 10764 bound_to 10752
  154.1296  135.2915  155.3168 H   0  0  0  0  0  0  0  0  0  0  0  0  # atno 10765 bound_to 10752
  140.2219  134.8190  157.3229 H   0  0  0  0  0  0  0  0  0  0  0  0  # atno 11005 bound_to 11000
  145.6127  141.0337  143.1958 LP  0  0  0  0  0  0  0  0  0  0  0  0  # atno 17320 bound_to 7965
  144.7327  139.7678  143.7341 LP  0  0  0  0  0  0  0  0  0  0  0  0  # atno 17321 bound_to 7965
  140.6223  143.2177  151.6669 LP  0  0  0  0  0  0  0  0  0  0  0  0  # atno 17342 bound_to 10162
  139.5128  144.3464  152.0693 LP  0  0  0  0  0  0  0  0  0  0  0  0  # atno 17343 bound_to 10162
  156.2184  130.6722  151.1343 LP  0  0  0  0  0  0  0  0  0  0  0  0  # atno 17370 bound_to 10713
  157.7181  131.0698  150.6247 LP  0  0  0  0  0  0  0  0  0  0  0  0  # atno 17371 bound_to 10713
  140.1841  134.4453  155.7754 LP  0  0  0  0  0  0  0  0  0  0  0  0  # atno 17394 bound_to 11000
  141.2222  133.6997  156.7918 LP  0  0  0  0  0  0  0  0  0  0  0  0  # atno 17395 bound_to 11000

$$$$
