AV-unprocessed.smi:1697|AV-procd|sdf|6812|dock8
  -GOLD-   22720 7593D 1   1.00000     0.00000
 Structure written by MMmdl.
 53 55  0  0  0  0  0  0  0  0  1 V2000
  143.2758  145.5910  154.4448 C   0  0  0  0  0  0  0  0  0  0  0  0
  142.9375  144.4770  155.4452 C   0  0  0  0  0  0  0  0  0  0  0  0
  144.0901  144.0192  156.1405 O   0  0  0  0  0  0  0  0  0  0  0  0
  144.7868  142.9459  155.5184 C   0  0  0  0  0  0  0  0  0  0  0  0
  145.9257  142.4732  156.4361 C   0  0  0  0  0  0  0  0  0  0  0  0
  146.7998  141.4358  155.7116 C   0  0  0  0  0  0  0  0  0  0  0  0
  147.3653  141.9459  154.4606 N   0  0  0  0  0  0  0  0  0  0  0  0
  148.2383  140.9419  153.8471 C   0  0  0  0  0  0  0  0  0  0  0  0
  149.4407  140.4889  154.7002 C   0  0  1  0  0  0  0  0  0  0  0  0
  150.4234  139.9527  153.8360 O   0  0  0  0  0  0  0  0  0  0  0  0
  150.0465  141.6653  155.4889 C   0  0  0  0  0  0  0  0  0  0  0  0
  150.9468  141.2270  156.5409 N   0  0  0  0  0  0  0  0  0  0  0  0
  151.7184  140.1232  156.5361 C   0  0  0  0  0  0  0  0  0  0  0  0
  152.4726  139.9019  157.6086 N   0  0  0  0  0  0  0  0  0  0  0  0
  152.1528  140.9898  158.4027 C   0  0  0  0  0  0  0  0  0  0  0  0
  152.6128  141.3524  159.6876 C   0  0  0  0  0  0  0  0  0  0  0  0
  152.1422  142.5241  160.3219 C   0  0  0  0  0  0  0  0  0  0  0  0
  152.6621  142.8743  161.7049 C   0  0  0  0  0  0  0  0  0  0  0  0
  151.1971  143.3552  159.6683 C   0  0  0  0  0  0  0  0  0  0  0  0
  150.6771  144.6187  160.3308 C   0  0  0  0  0  0  0  0  0  0  0  0
  150.7280  143.0082  158.3840 C   0  0  0  0  0  0  0  0  0  0  0  0
  151.2016  141.8383  157.7640 C   0  0  0  0  0  0  0  0  0  0  0  0
  146.2805  142.3650  153.5653 C   0  0  0  0  0  0  0  0  0  0  0  0
  145.3776  143.4424  154.1905 C   0  0  0  0  0  0  0  0  0  0  0  0
  142.3939  145.8732  153.8695 H   0  0  0  0  0  0  0  0  0  0  0  0
  144.0421  145.2641  153.7415 H   0  0  0  0  0  0  0  0  0  0  0  0
  143.6398  146.4876  154.9465 H   0  0  0  0  0  0  0  0  0  0  0  0
  142.1674  144.7988  156.1479 H   0  0  0  0  0  0  0  0  0  0  0  0
  142.5229  143.6279  154.9015 H   0  0  0  0  0  0  0  0  0  0  0  0
  144.1244  142.1037  155.3072 H   0  0  0  0  0  0  0  0  0  0  0  0
  146.5406  143.3240  156.7332 H   0  0  0  0  0  0  0  0  0  0  0  0
  145.5215  142.0462  157.3540 H   0  0  0  0  0  0  0  0  0  0  0  0
  147.6057  141.1322  156.3811 H   0  0  0  0  0  0  0  0  0  0  0  0
  146.2104  140.5390  155.5136 H   0  0  0  0  0  0  0  0  0  0  0  0
  147.6534  140.0551  153.5975 H   0  0  0  0  0  0  0  0  0  0  0  0
  148.6015  141.3289  152.8937 H   0  0  0  0  0  0  0  0  0  0  0  0
  149.1490  139.7166  155.4102 H   0  0  0  0  0  0  0  0  0  0  0  0
  150.0219  139.7867  152.9967 H   0  0  0  0  0  0  0  0  0  0  0  0
  150.5859  142.3384  154.8212 H   0  0  0  0  0  0  0  0  0  0  0  0
  149.2529  142.2556  155.9489 H   0  0  0  0  0  0  0  0  0  0  0  0
  151.7266  139.4436  155.6963 H   0  0  0  0  0  0  0  0  0  0  0  0
  153.3329  140.7190  160.1845 H   0  0  0  0  0  0  0  0  0  0  0  0
  151.8419  142.9154  162.4220 H   0  0  0  0  0  0  0  0  0  0  0  0
  153.1607  143.8437  161.6915 H   0  0  0  0  0  0  0  0  0  0  0  0
  153.3797  142.1339  162.0599 H   0  0  0  0  0  0  0  0  0  0  0  0
  149.9623  145.1376  159.6916 H   0  0  0  0  0  0  0  0  0  0  0  0
  151.4971  145.3052  160.5417 H   0  0  0  0  0  0  0  0  0  0  0  0
  150.1751  144.3790  161.2682 H   0  0  0  0  0  0  0  0  0  0  0  0
  150.0103  143.6333  157.8734 H   0  0  0  0  0  0  0  0  0  0  0  0
  146.6853  142.7665  152.6380 H   0  0  0  0  0  0  0  0  0  0  0  0
  145.6747  141.5008  153.2885 H   0  0  0  0  0  0  0  0  0  0  0  0
  144.5763  143.7077  153.5002 H   0  0  0  0  0  0  0  0  0  0  0  0
  145.9580  144.3508  154.3590 H   0  0  0  0  0  0  0  0  0  0  0  0
  1  2  1  0  0  0  0
  1 25  1  0  0  0  0
  1 26  1  0  0  0  0
  1 27  1  0  0  0  0
  2  3  1  0  0  0  0
  2 28  1  0  0  0  0
  2 29  1  0  0  0  0
  3  4  1  0  0  0  0
  4 24  1  0  0  0  0
  4  5  1  0  0  0  0
  4 30  1  0  0  0  0
  5  6  1  0  0  0  0
  5 31  1  0  0  0  0
  5 32  1  0  0  0  0
  6  7  1  0  0  0  0
  6 33  1  0  0  0  0
  6 34  1  0  0  0  0
  7  8  1  0  0  0  0
  7 23  1  0  0  0  0
  8  9  1  0  0  0  0
  8 35  1  0  0  0  0
  8 36  1  0  0  0  0
  9 10  1  0  0  0  0
  9 11  1  0  0  0  0
  9 37  1  0  0  0  0
 10 38  1  0  0  0  0
 11 12  1  0  0  0  0
 11 39  1  0  0  0  0
 11 40  1  0  0  0  0
 12 22  1  0  0  0  0
 12 13  1  0  0  0  0
 13 14  2  0  0  0  0
 13 41  1  0  0  0  0
 14 15  1  0  0  0  0
 15 22  2  0  0  0  0
 15 16  1  0  0  0  0
 16 17  2  0  0  0  0
 16 42  1  0  0  0  0
 17 18  1  0  0  0  0
 17 19  1  0  0  0  0
 18 43  1  0  0  0  0
 18 44  1  0  0  0  0
 18 45  1  0  0  0  0
 19 20  1  0  0  0  0
 19 21  2  0  0  0  0
 20 46  1  0  0  0  0
 20 47  1  0  0  0  0
 20 48  1  0  0  0  0
 21 22  1  0  0  0  0
 21 49  1  0  0  0  0
 23 24  1  0  0  0  0
 23 50  1  0  0  0  0
 23 51  1  0  0  0  0
 24 52  1  0  0  0  0
 24 53  1  0  0  0  0
M  END
> <s_m_source_file>
AV-unprocessed.smi

> <i_m_source_file_index>
1697

> <i_lp_mmshare_version>
43012

> <i_f3d_flags>
0

> <s_epik_input>
W0NIM11bQ0gyXU9bQ0hdMVtDSDJdW0NIMl1OKFtDSDJdW0NIMl0xKVtDSDJdW0NASF0oW09IXSlbQ0gyXW4oW2NIXW4yKWMoYzIzKVtjSF1jKFtDSDNdKWMoW2NIXTMpW0NIM10=

> <s_epik_cmdline>
J2VwaWtfcHl0aG9uJywgJy1waCcsICc3LjAnLCAnLXRuJywgJzgnLCAnLW1hJywgJzIwMCcsICctbWV0YWxfYmluZGluZycsICctaW1hZScsICc8aW5maWxlLm1hZT4nLCAnLW9tYWUnLCAnPG91dGZpbGUubWFlPic=

> <r_epik_Ionization_Penalty>
1.9836

> <r_epik_Ionization_Penalty_Charging>
0

> <r_epik_Ionization_Penalty_Neutral>
1.9836

> <r_epik_State_Penalty>
2.07269

> <r_epik_Charging_Adjusted_Penalty>
2.07269

> <i_epik_Tot_Q>
0

> <i_epik_Tot_abs_Q>
0

> <r_epik_Metal_State_Penalty>
2.00215

> <b_epik_Metal_Only>
0

> <s_lp_Force_Field>
OPLS_2005

> <r_lp_Energy>
35.1996

> <b_lp_Chiralities_Consistent>
1

> <s_lp_Variant>
AV-unprocessed.smi:1697-10

> <Gold.Version>
5.8.1

> <Gold.Id.Protein>
6NUR|6NUR_protein|mol2

> <Gold.PLP.Fitness>
58.6202

> <Gold.PLP.PLP>
-51.5442

> <Gold.PLP.part.hbond>
-3.0000

> <Gold.PLP.part.metal>
0.0000

> <Gold.PLP.part.buried>
-6.1720

> <Gold.PLP.part.nonpolar>
-41.0917

> <Gold.PLP.part.repulsive>
0.2387

> <Gold.PLP.ligand.clash>
0.0213

> <Gold.PLP.ligand.torsion>
0.9035

> <Gold.PLP.Chemscore.Hbond>
2.9193

> <Gold.PLP.Chemscore.CHOScore>
0.0000

> <Gold.PLP.Chemscore.Metal>
0.0000

> <Gold.Chemscore.Hbonds>
donor molecule, donor type, donor heavy atom, donor atom, acceptor molecule, acceptor atom, score
      L1  H    10    38       P1  7957  1.00
      P1  H  7989  7998       L1    10  0.98
      P1  H  7997  8008       L1    14  0.71

> <Gold.PLP.Chemscore.Internal.Correction>
0.1467

> <Gold.Rescore>
     Score         DG    S(hbond)    S(metal)    S(lipo)     H(rot)  DE(clash)    DE(int)     intcor
     20.36     -22.46       2.26        0.00     128.79       2.19       0.16       1.94       ----

> <Gold.Chemscore.Fitness>
20.3617

> <Gold.Chemscore.DG>
-22.4648

> <Gold.Chemscore.ZeroCoef>
-5.4800

> <Gold.Chemscore.Hbond>
2.2557

> <Gold.Chemscore.Metal>
0.0000

> <Gold.Chemscore.Lipo>
128.7873

> <Gold.Chemscore.Internal_Hbond>
0.0000

> <Gold.Chemscore.DEClash>
0.1583

> <Gold.Chemscore.DEInternal>
1.9448

> <Gold.Chemscore.Rot>
2.1943

> <Gold.Chemscore.Internal.Correction>
   9.000000E+99

> <Gold.Chemscore.Hbonds>
donor molecule, donor type, donor heavy atom, donor atom, acceptor molecule, acceptor atom, score
      L1  H    10    38       P1  7957  0.99
      P1  H  7989  7998       L1    10  0.29
      P1  H  7997  8008       L1    14  0.13

> <Gold.Chemscore.Hbond.Weighted>
-7.5341

> <Gold.Chemscore.Metal.Weighted>
-0.0000

> <Gold.Chemscore.Lipo.Weighted>
-15.0681

> <Gold.Chemscore.Internal_Hbond.Weighted>
0.0000

> <Gold.Chemscore.DEClash.Weighted>
0.1583

> <Gold.Chemscore.DEInternal.Weighted>
1.9448

> <Gold.Chemscore.Rot.Weighted>
5.6174

> <Gold.Chemscore.Internal.Correction.Weighted>
   9.000000E+99

> <Gold.Protein.RotatedTorsions>
[ 6907 6896 6895 6894 ] final   -8.05 input  -60.11 | X-H torsion
[ 7974 7965 7964 7962 ] final   16.59 input  175.53 | X-H torsion
[ 8008 7997 7996 7995 ] final  -63.86 input   59.86 | X-H torsion
[ 10167 10162 10161 10158 ] final -173.68 input  -65.29 | X-H torsion
[ 10718 10713 10712 10709 ] final  111.87 input   66.30 | X-H torsion
[ 10763 10752 10751 10750 ] final -132.55 input  -60.55 | X-H torsion
[ 11005 11000 10999 10996 ] final  -40.66 input  -57.11 | X-H torsion

> <Gold.Protein.ActiveResidues>
 VAL166  LYS551  ARG553  GLY616  TRP617  ASP618  TYR619  PRO620  LYS621  CYS622 
 ASP623  PHE694  ASN695  SER759  ASP760  ASP761  ALA762  ILE779  LEU786  VAL792 
 PHE793  MET794  SER795  GLU796  ALA797  LYS798  CYS799  TRP800  GLU811  SER814 

> <Gold.Protein.RotatedAtoms>
  151.4398  135.1019  159.9666 H   0  0  0  0  0  0  0  0  0  0  0  0  # atno 6907 bound_to 6896
  152.4927  133.8540  159.7226 H   0  0  0  0  0  0  0  0  0  0  0  0  # atno 6908 bound_to 6896
  150.9096  133.6955  159.2885 H   0  0  0  0  0  0  0  0  0  0  0  0  # atno 6909 bound_to 6896
  146.2245  139.8725  142.8585 H   0  0  0  0  0  0  0  0  0  0  0  0  # atno 7974 bound_to 7965
  154.4578  140.0966  156.6808 H   0  0  0  0  0  0  0  0  0  0  0  0  # atno 8008 bound_to 7997
  155.5084  140.3475  155.4365 H   0  0  0  0  0  0  0  0  0  0  0  0  # atno 8009 bound_to 7997
  156.0813  140.1373  156.9698 H   0  0  0  0  0  0  0  0  0  0  0  0  # atno 8010 bound_to 7997
  139.5675  144.1721  152.1334 H   0  0  0  0  0  0  0  0  0  0  0  0  # atno 10167 bound_to 10162
  157.6422  131.0958  150.6812 H   0  0  0  0  0  0  0  0  0  0  0  0  # atno 10718 bound_to 10713
  154.8742  135.3794  154.4428 H   0  0  0  0  0  0  0  0  0  0  0  0  # atno 10763 bound_to 10752
  153.5111  135.7029  153.5785 H   0  0  0  0  0  0  0  0  0  0  0  0  # atno 10764 bound_to 10752
  153.4074  135.3933  155.1994 H   0  0  0  0  0  0  0  0  0  0  0  0  # atno 10765 bound_to 10752
  141.0191  133.6871  156.2352 H   0  0  0  0  0  0  0  0  0  0  0  0  # atno 11005 bound_to 11000
  145.2593  141.0071  143.3835 LP  0  0  0  0  0  0  0  0  0  0  0  0  # atno 17320 bound_to 7965
  144.9311  139.4297  143.6494 LP  0  0  0  0  0  0  0  0  0  0  0  0  # atno 17321 bound_to 7965
  140.1247  144.5342  150.6840 LP  0  0  0  0  0  0  0  0  0  0  0  0  # atno 17342 bound_to 10162
  140.6959  143.2403  151.5003 LP  0  0  0  0  0  0  0  0  0  0  0  0  # atno 17343 bound_to 10162
  156.7134  130.4659  149.5541 LP  0  0  0  0  0  0  0  0  0  0  0  0  # atno 17370 bound_to 10713
  156.1714  130.6439  151.0842 LP  0  0  0  0  0  0  0  0  0  0  0  0  # atno 17371 bound_to 10713
  140.6604  134.4973  157.5583 LP  0  0  0  0  0  0  0  0  0  0  0  0  # atno 17394 bound_to 11000
  139.9135  134.8295  156.1447 LP  0  0  0  0  0  0  0  0  0  0  0  0  # atno 17395 bound_to 11000

$$$$
