AV-unprocessed.smi:49|AV-procd|sdf|482|dock2
  -GOLD-   2262016343D 1   1.00000     0.00000
 Structure written by MMmdl.
 28 29  0  0  0  0  0  0  0  0  2 V2000
  151.5943  144.2357  157.3137 C   0  0  0  0  0  0  0  0  0  0  0  0
  151.1562  142.8305  157.7409 C   0  0  0  0  0  0  0  0  0  0  0  0
  150.6797  142.0035  156.5920 C   0  0  0  0  0  0  0  0  0  0  0  0
  149.6026  142.3439  155.8697 N   0  0  0  0  0  0  0  0  0  0  0  0
  149.5117  141.3500  154.9735 C   0  0  0  0  0  0  0  0  0  0  0  0
  148.4277  141.3322  153.9338 C   0  0  1  0  0  0  0  0  0  0  0  0
  147.4384  140.1661  154.0822 C   0  0  0  0  0  0  0  0  0  0  0  0
  146.2715  140.7674  154.8641 C   0  0  2  0  0  0  0  0  0  0  0  0
  145.0555  140.0943  154.6141 O   0  0  0  0  0  0  0  0  0  0  0  0
  146.2486  142.2178  154.3827 C   0  0  0  0  0  0  0  0  0  0  0  0
  147.6640  142.5764  154.1798 N   0  3  0  0  0  0  0  0  0  0  0  0
  150.4766  140.4320  155.1179 N   0  0  0  0  0  0  0  0  0  0  0  0
  151.2405  140.8598  156.1892 N   0  0  0  0  0  0  0  0  0  0  0  0
  148.8703  141.3499  152.9370 H   0  0  0  0  0  0  0  0  0  0  0  0
  146.4889  140.7358  155.9329 H   0  0  0  0  0  0  0  0  0  0  0  0
  149.0089  143.1540  155.9761 H   0  0  0  0  0  0  0  0  0  0  0  0
  151.9361  144.8140  158.1723 H   0  0  0  0  0  0  0  0  0  0  0  0
  150.7709  144.7813  156.8516 H   0  0  0  0  0  0  0  0  0  0  0  0
  152.4126  144.1911  156.5945 H   0  0  0  0  0  0  0  0  0  0  0  0
  151.9838  142.3164  158.2314 H   0  0  0  0  0  0  0  0  0  0  0  0
  150.3545  142.9005  158.4771 H   0  0  0  0  0  0  0  0  0  0  0  0
  147.0932  139.8714  153.0898 H   0  0  0  0  0  0  0  0  0  0  0  0
  147.8710  139.2828  154.5543 H   0  0  0  0  0  0  0  0  0  0  0  0
  144.6138  140.5155  153.8924 H   0  0  0  0  0  0  0  0  0  0  0  0
  145.7370  142.2948  153.4221 H   0  0  0  0  0  0  0  0  0  0  0  0
  145.7568  142.8915  155.0849 H   0  0  0  0  0  0  0  0  0  0  0  0
  148.0158  142.9881  155.0333 H   0  0  0  0  0  0  0  0  0  0  0  0
  147.7683  143.2309  153.4180 H   0  0  0  0  0  0  0  0  0  0  0  0
  1  2  1  0  0  0  0
  1 17  1  0  0  0  0
  1 18  1  0  0  0  0
  1 19  1  0  0  0  0
  2 20  1  0  0  0  0
  2 21  1  0  0  0  0
  2  3  1  0  0  0  0
  3  4  1  0  0  0  0
  3 13  2  0  0  0  0
  4 16  1  0  0  0  0
  4  5  1  0  0  0  0
  5 12  2  0  0  0  0
  5  6  1  0  0  0  0
  6 14  1  0  0  0  0
  6 11  1  0  0  0  0
  6  7  1  0  0  0  0
  7  8  1  0  0  0  0
  7 22  1  0  0  0  0
  7 23  1  0  0  0  0
  8 15  1  0  0  0  0
  8  9  1  0  0  0  0
  8 10  1  0  0  0  0
  9 24  1  0  0  0  0
 10 11  1  0  0  0  0
 10 25  1  0  0  0  0
 10 26  1  0  0  0  0
 11 27  1  0  0  0  0
 11 28  1  0  0  0  0
 12 13  1  0  0  0  0
M  CHG  1  11   1
M  END
> <s_m_source_file>
AV-unprocessed.smi

> <i_m_source_file_index>
49

> <i_lp_mmshare_version>
43012

> <i_f3d_flags>
0

> <s_epik_input>
W0NIM11bQ0gyXWMxbmMobltuSF0xKVtDQEBIXTJbQ0gyXVtDQEBIXShbT0hdKVtDSDJdW05IXTI=

> <s_epik_cmdline>
J2VwaWtfcHl0aG9uJywgJy1waCcsICc3LjAnLCAnLXRuJywgJzgnLCAnLW1hJywgJzIwMCcsICctbWV0YWxfYmluZGluZycsICctaW1hZScsICc8aW5maWxlLm1hZT4nLCAnLW9tYWUnLCAnPG91dGZpbGUubWFlPic=

> <r_lp_tautomer_probability>
0.0517155

> <r_epik_Ionization_Penalty>
0.939819

> <r_epik_Ionization_Penalty_Charging>
0.0688988

> <r_epik_Ionization_Penalty_Neutral>
0.87092

> <r_epik_State_Penalty>
2.1224

> <r_epik_Charging_Adjusted_Penalty>
2.1913

> <i_epik_Tot_Q>
1

> <i_epik_Tot_abs_Q>
1

> <r_epik_Metal_State_Penalty>
2.39725

> <b_epik_Metal_Only>
0

> <s_lp_Force_Field>
OPLS_2005

> <r_lp_Energy>
21.7602

> <b_lp_Chiralities_Consistent>
1

> <s_lp_Variant>
AV-unprocessed.smi:49-20

> <Gold.Version>
5.8.1

> <Gold.Id.Protein>
6NUR|6NUR_protein|mol2

> <Gold.PLP.Fitness>
39.3309

> <Gold.PLP.PLP>
-25.7558

> <Gold.PLP.part.hbond>
-3.8598

> <Gold.PLP.part.metal>
0.0000

> <Gold.PLP.part.buried>
-2.4168

> <Gold.PLP.part.nonpolar>
-19.5828

> <Gold.PLP.part.repulsive>
0.4481

> <Gold.PLP.ligand.clash>
0.0000

> <Gold.PLP.ligand.torsion>
0.0367

> <Gold.PLP.Chemscore.Hbond>
4.5440

> <Gold.PLP.Chemscore.CHOScore>
0.0000

> <Gold.PLP.Chemscore.Metal>
0.0000

> <Gold.Chemscore.Hbonds>
donor molecule, donor type, donor heavy atom, donor atom, acceptor molecule, acceptor atom, score
      L1  H     4    16       P1  8028  0.90
      L1  H     9    24       P1 10175  1.00
      L1  H    11    27       P1  8028  1.50
      P1  H  7989  7998       L1    12  0.99

> <Gold.PLP.Chemscore.Internal.Correction>
0.0165

> <Gold.Rescore>
     Score         DG    S(hbond)    S(metal)    S(lipo)     H(rot)  DE(clash)    DE(int)     intcor
     14.38     -14.74       2.57        0.00      47.15       1.89       0.03       0.33       ----

> <Gold.Chemscore.Fitness>
14.3831

> <Gold.Chemscore.DG>
-14.7377

> <Gold.Chemscore.ZeroCoef>
-5.4800

> <Gold.Chemscore.Hbond>
2.5675

> <Gold.Chemscore.Metal>
0.0000

> <Gold.Chemscore.Lipo>
47.1463

> <Gold.Chemscore.Internal_Hbond>
0.0000

> <Gold.Chemscore.DEClash>
0.0261

> <Gold.Chemscore.DEInternal>
0.3286

> <Gold.Chemscore.Rot>
1.8883

> <Gold.Chemscore.Internal.Correction>
   9.000000E+99

> <Gold.Chemscore.Hbonds>
donor molecule, donor type, donor heavy atom, donor atom, acceptor molecule, acceptor atom, score
      L1  H     4    16       P1  8028  0.85
      L1  H     9    24       P1 10175  0.97
      L1  H    11    27       P1  8028  0.67
      P1  H  7989  7998       L1    12  0.10

> <Gold.Chemscore.Hbond.Weighted>
-8.5755

> <Gold.Chemscore.Metal.Weighted>
-0.0000

> <Gold.Chemscore.Lipo.Weighted>
-5.5161

> <Gold.Chemscore.Internal_Hbond.Weighted>
0.0000

> <Gold.Chemscore.DEClash.Weighted>
0.0261

> <Gold.Chemscore.DEInternal.Weighted>
0.3286

> <Gold.Chemscore.Rot.Weighted>
4.8340

> <Gold.Chemscore.Internal.Correction.Weighted>
   9.000000E+99

> <Gold.Protein.RotatedTorsions>
[ 6907 6896 6895 6894 ] final -157.16 input  -60.11 | X-H torsion
[ 7974 7965 7964 7962 ] final   47.72 input  175.53 | X-H torsion
[ 8008 7997 7996 7995 ] final   53.31 input   59.86 | X-H torsion
[ 10167 10162 10161 10158 ] final  -90.16 input  -65.29 | X-H torsion
[ 10718 10713 10712 10709 ] final  158.67 input   66.30 | X-H torsion
[ 10763 10752 10751 10750 ] final  -93.75 input  -60.55 | X-H torsion
[ 11005 11000 10999 10996 ] final  -19.89 input  -57.11 | X-H torsion

> <Gold.Protein.ActiveResidues>
 VAL166  LYS551  ARG553  GLY616  TRP617  ASP618  TYR619  PRO620  LYS621  CYS622 
 ASP623  PHE694  ASN695  SER759  ASP760  ASP761  ALA762  ILE779  LEU786  VAL792 
 PHE793  MET794  SER795  GLU796  ALA797  LYS798  CYS799  TRP800  GLU811  SER814 

> <Gold.Protein.RotatedAtoms>
  151.2986  133.4132  159.2637 H   0  0  0  0  0  0  0  0  0  0  0  0  # atno 6907 bound_to 6896
  151.0215  134.9473  159.8072 H   0  0  0  0  0  0  0  0  0  0  0  0  # atno 6908 bound_to 6896
  152.5325  134.2949  159.9109 H   0  0  0  0  0  0  0  0  0  0  0  0  # atno 6909 bound_to 6896
  146.0272  139.4720  142.9860 H   0  0  0  0  0  0  0  0  0  0  0  0  # atno 7974 bound_to 7965
  155.4661  140.3463  155.4319 H   0  0  0  0  0  0  0  0  0  0  0  0  # atno 8008 bound_to 7997
  156.1130  140.1466  156.9341 H   0  0  0  0  0  0  0  0  0  0  0  0  # atno 8009 bound_to 7997
  154.4769  140.0882  156.7263 H   0  0  0  0  0  0  0  0  0  0  0  0  # atno 8010 bound_to 7997
  140.3576  143.2858  151.9652 H   0  0  0  0  0  0  0  0  0  0  0  0  # atno 10167 bound_to 10162
  157.1748  131.0618  151.2164 H   0  0  0  0  0  0  0  0  0  0  0  0  # atno 10718 bound_to 10713
  154.6989  135.5183  153.8498 H   0  0  0  0  0  0  0  0  0  0  0  0  # atno 10763 bound_to 10752
  153.0688  135.6594  154.0302 H   0  0  0  0  0  0  0  0  0  0  0  0  # atno 10764 bound_to 10752
  154.0165  135.2997  155.3366 H   0  0  0  0  0  0  0  0  0  0  0  0  # atno 10765 bound_to 10752
  140.8410  133.7926  155.9861 H   0  0  0  0  0  0  0  0  0  0  0  0  # atno 11005 bound_to 11000
  145.7099  141.0109  143.1459 LP  0  0  0  0  0  0  0  0  0  0  0  0  # atno 17320 bound_to 7965
  144.7014  139.8745  143.7443 LP  0  0  0  0  0  0  0  0  0  0  0  0  # atno 17321 bound_to 7965
  139.4818  144.6021  151.7587 LP  0  0  0  0  0  0  0  0  0  0  0  0  # atno 17342 bound_to 10162
  140.5158  144.0955  150.6008 LP  0  0  0  0  0  0  0  0  0  0  0  0  # atno 17343 bound_to 10162
  157.4009  130.7333  149.6766 LP  0  0  0  0  0  0  0  0  0  0  0  0  # atno 17370 bound_to 10713
  155.9733  130.4121  150.4014 LP  0  0  0  0  0  0  0  0  0  0  0  0  # atno 17371 bound_to 10713
  140.8895  134.2513  157.5102 LP  0  0  0  0  0  0  0  0  0  0  0  0  # atno 17394 bound_to 11000
  139.8703  134.9654  156.4528 LP  0  0  0  0  0  0  0  0  0  0  0  0  # atno 17395 bound_to 11000

$$$$
