AV-unprocessed.smi:2226|AV-procd|sdf|9002|dock2
  -GOLD-   2272012213D 1   1.00000     0.00000
 Structure written by MMmdl.
 40 42  0  0  0  0  0  0  0  0  2 V2000
  143.7942  132.4053  149.6240 C   0  0  0  0  0  0  0  0  0  0  0  0
  143.7991  133.6452  150.4365 N   0  3  2  0  0  0  0  0  0  0  0  0
  144.8888  134.5983  150.1143 C   0  0  1  0  0  0  0  0  0  0  0  0
  144.5263  135.9862  150.6935 C   0  0  0  0  0  0  0  0  0  0  0  0
  144.1761  135.9647  152.1959 C   0  0  0  0  0  0  0  0  0  0  0  0
  143.2991  134.7550  152.5799 C   0  0  0  0  0  0  0  0  0  0  0  0
  143.7255  133.4312  151.9024 C   0  0  2  0  0  0  0  0  0  0  0  0
  145.0378  132.8144  152.4483 C   0  0  0  0  0  0  0  0  0  0  0  0
  146.3245  133.5589  152.0232 C   0  0  1  0  0  0  0  0  0  0  0  0
  147.4760  132.6731  152.1942 N   0  0  0  0  0  0  0  0  0  0  0  0
  148.0574  132.3526  153.3608 C   0  0  0  0  0  0  0  0  0  0  0  0
  147.6790  132.7783  154.4522 O   0  0  0  0  0  0  0  0  0  0  0  0
  149.0932  131.5160  153.1763 N   0  0  0  0  0  0  0  0  0  0  0  0
  149.9436  130.9635  154.1678 C   0  0  0  0  0  0  0  0  0  0  0  0
  150.4755  131.6074  155.2079 N   0  0  0  0  0  0  0  0  0  0  0  0
  151.2203  130.6438  155.8727 C   0  0  0  0  0  0  0  0  0  0  0  0
  151.0952  129.4609  155.1902 C   0  0  0  0  0  0  0  0  0  0  0  0
  150.2852  129.6495  154.1024 O   0  0  0  0  0  0  0  0  0  0  0  0
  146.2678  134.0485  150.5577 C   0  0  0  0  0  0  0  0  0  0  0  0
  144.6778  131.7919  149.7984 H   0  0  0  0  0  0  0  0  0  0  0  0
  143.7558  132.6480  148.5617 H   0  0  0  0  0  0  0  0  0  0  0  0
  142.9146  131.8038  149.8551 H   0  0  0  0  0  0  0  0  0  0  0  0
  144.9196  134.7151  149.0300 H   0  0  0  0  0  0  0  0  0  0  0  0
  145.3301  136.6992  150.5071 H   0  0  0  0  0  0  0  0  0  0  0  0
  143.6605  136.3657  150.1488 H   0  0  0  0  0  0  0  0  0  0  0  0
  145.0811  135.9841  152.7972 H   0  0  0  0  0  0  0  0  0  0  0  0
  143.6567  136.8867  152.4598 H   0  0  0  0  0  0  0  0  0  0  0  0
  143.2765  134.6387  153.6640 H   0  0  0  0  0  0  0  0  0  0  0  0
  142.2721  134.9726  152.2831 H   0  0  0  0  0  0  0  0  0  0  0  0
  142.9257  132.7147  152.0948 H   0  0  0  0  0  0  0  0  0  0  0  0
  144.9938  132.7470  153.5361 H   0  0  0  0  0  0  0  0  0  0  0  0
  145.0947  131.7822  152.1001 H   0  0  0  0  0  0  0  0  0  0  0  0
  146.4484  134.4241  152.6685 H   0  0  0  0  0  0  0  0  0  0  0  0
  147.8628  132.2702  151.3530 H   0  0  0  0  0  0  0  0  0  0  0  0
  149.2976  131.2437  152.2263 H   0  0  0  0  0  0  0  0  0  0  0  0
  151.7758  130.8723  156.7705 H   0  0  0  0  0  0  0  0  0  0  0  0
  151.4893  128.4660  155.3360 H   0  0  0  0  0  0  0  0  0  0  0  0
  146.5278  133.2200  149.8975 H   0  0  0  0  0  0  0  0  0  0  0  0
  147.0401  134.8004  150.3907 H   0  0  0  0  0  0  0  0  0  0  0  0
  142.9417  134.1175  150.1871 H   0  0  0  0  0  0  0  0  0  0  0  0
  1  2  1  0  0  0  0
  1 20  1  0  0  0  0
  1 21  1  0  0  0  0
  1 22  1  0  0  0  0
  2  7  1  0  0  0  0
  2  3  1  0  0  0  0
  2 40  1  0  0  0  0
  3 19  1  0  0  0  0
  3  4  1  0  0  0  0
  3 23  1  0  0  0  0
  4  5  1  0  0  0  0
  4 24  1  0  0  0  0
  4 25  1  0  0  0  0
  5  6  1  0  0  0  0
  5 26  1  0  0  0  0
  5 27  1  0  0  0  0
  6  7  1  0  0  0  0
  6 28  1  0  0  0  0
  6 29  1  0  0  0  0
  7  8  1  0  0  0  0
  7 30  1  0  0  0  0
  8  9  1  0  0  0  0
  8 31  1  0  0  0  0
  8 32  1  0  0  0  0
  9 10  1  0  0  0  0
  9 19  1  0  0  0  0
  9 33  1  0  0  0  0
 10 11  1  0  0  0  0
 10 34  1  0  0  0  0
 11 12  2  0  0  0  0
 11 13  1  0  0  0  0
 13 14  1  0  0  0  0
 13 35  1  0  0  0  0
 14 18  1  0  0  0  0
 14 15  2  0  0  0  0
 15 16  1  0  0  0  0
 16 17  2  0  0  0  0
 16 36  1  0  0  0  0
 17 18  1  0  0  0  0
 17 37  1  0  0  0  0
 19 38  1  0  0  0  0
 19 39  1  0  0  0  0
M  CHG  1   2   1
M  END
> <s_m_source_file>
AV-unprocessed.smi

> <i_m_source_file_index>
2226

> <i_lp_mmshare_version>
43012

> <i_f3d_flags>
0

> <s_epik_input>
W0NIMl0xW0NIMl1bQ0gyXVtDQEhdKE4oW0NIM10pW0NIXTEyKVtDSDJdW0NASF0oW0NIMl0yKVtOSF1DKD1PKVtOSF1jM25bY0hdW2NIXW8z

> <s_epik_cmdline>
J2VwaWtfcHl0aG9uJywgJy1waCcsICc3LjAnLCAnLXRuJywgJzgnLCAnLW1hJywgJzIwMCcsICctbWV0YWxfYmluZGluZycsICctaW1hZScsICc8aW5maWxlLm1hZT4nLCAnLW9tYWUnLCAnPG91dGZpbGUubWFlPic=

> <r_lp_tautomer_probability>
0.785861

> <r_epik_Ionization_Penalty>
0.000929358

> <r_epik_Ionization_Penalty_Charging>
0.000890041

> <r_epik_Ionization_Penalty_Neutral>
3.93161e-05

> <r_epik_State_Penalty>
0.0312137

> <r_epik_Charging_Adjusted_Penalty>
0.0321037

> <i_epik_Tot_Q>
1

> <i_epik_Tot_abs_Q>
1

> <r_epik_Metal_State_Penalty>
0.0605703

> <b_epik_Metal_Only>
0

> <s_lp_Force_Field>
OPLS_2005

> <r_lp_Energy>
35.273

> <b_lp_Chiralities_Consistent>
1

> <s_lp_Variant>
AV-unprocessed.smi:2226-2

> <Gold.Version>
5.8.1

> <Gold.Id.Protein>
6NUR|6NUR_protein|mol2

> <Gold.PLP.Fitness>
38.2574

> <Gold.PLP.PLP>
-27.4320

> <Gold.PLP.part.hbond>
-3.0000

> <Gold.PLP.part.metal>
0.0000

> <Gold.PLP.part.buried>
1.6169

> <Gold.PLP.part.nonpolar>
-25.5855

> <Gold.PLP.part.repulsive>
0.1869

> <Gold.PLP.ligand.clash>
0.0000

> <Gold.PLP.ligand.torsion>
0.5906

> <Gold.PLP.Chemscore.Hbond>
4.0000

> <Gold.PLP.Chemscore.CHOScore>
0.0000

> <Gold.PLP.Chemscore.Metal>
0.0000

> <Gold.Chemscore.Hbonds>
donor molecule, donor type, donor heavy atom, donor atom, acceptor molecule, acceptor atom, score
      L1  H     2    40       P1 10186  1.89
      L1  H    10    34       P1 10747  0.84
      L1  H    13    35       P1 10747  0.95

> <Gold.PLP.Chemscore.Internal.Correction>
0.0066

> <Gold.Rescore>
     Score         DG    S(hbond)    S(metal)    S(lipo)     H(rot)  DE(clash)    DE(int)     intcor
     16.80     -17.97       2.22        0.00      65.33       1.00       0.73       0.44       ----

> <Gold.Chemscore.Fitness>
16.7965

> <Gold.Chemscore.DG>
-17.9676

> <Gold.Chemscore.ZeroCoef>
-5.4800

> <Gold.Chemscore.Hbond>
2.2166

> <Gold.Chemscore.Metal>
0.0000

> <Gold.Chemscore.Lipo>
65.3347

> <Gold.Chemscore.Internal_Hbond>
0.0000

> <Gold.Chemscore.DEClash>
0.7335

> <Gold.Chemscore.DEInternal>
0.4376

> <Gold.Chemscore.Rot>
1.0000

> <Gold.Chemscore.Internal.Correction>
   9.000000E+99

> <Gold.Chemscore.Hbonds>
donor molecule, donor type, donor heavy atom, donor atom, acceptor molecule, acceptor atom, score
      L1  H     2    40       P1 10186  0.86
      L1  H    10    34       P1 10747  0.80
      L1  H    13    35       P1 10747  0.21

> <Gold.Chemscore.Hbond.Weighted>
-7.4034

> <Gold.Chemscore.Metal.Weighted>
-0.0000

> <Gold.Chemscore.Lipo.Weighted>
-7.6442

> <Gold.Chemscore.Internal_Hbond.Weighted>
0.0000

> <Gold.Chemscore.DEClash.Weighted>
0.7335

> <Gold.Chemscore.DEInternal.Weighted>
0.4376

> <Gold.Chemscore.Rot.Weighted>
2.5600

> <Gold.Chemscore.Internal.Correction.Weighted>
   9.000000E+99

> <Gold.Protein.RotatedTorsions>
[ 6907 6896 6895 6894 ] final  -52.94 input  -60.11 | X-H torsion
[ 7974 7965 7964 7962 ] final  -91.25 input  175.53 | X-H torsion
[ 8008 7997 7996 7995 ] final   35.84 input   59.86 | X-H torsion
[ 10167 10162 10161 10158 ] final -138.15 input  -65.29 | X-H torsion
[ 10718 10713 10712 10709 ] final    3.63 input   66.30 | X-H torsion
[ 10763 10752 10751 10750 ] final  -41.81 input  -60.55 | X-H torsion
[ 11005 11000 10999 10996 ] final   33.88 input  -57.11 | X-H torsion

> <Gold.Protein.ActiveResidues>
 VAL166  LYS551  ARG553  GLY616  TRP617  ASP618  TYR619  PRO620  LYS621  CYS622 
 ASP623  PHE694  ASN695  SER759  ASP760  ASP761  ALA762  ILE779  LEU786  VAL792 
 PHE793  MET794  SER795  GLU796  ALA797  LYS798  CYS799  TRP800  GLU811  SER814 

> <Gold.Protein.RotatedAtoms>
  150.8472  134.7785  159.6979 H   0  0  0  0  0  0  0  0  0  0  0  0  # atno 6907 bound_to 6896
  152.4546  134.5316  159.9822 H   0  0  0  0  0  0  0  0  0  0  0  0  # atno 6908 bound_to 6896
  151.5444  133.3389  159.2977 H   0  0  0  0  0  0  0  0  0  0  0  0  # atno 6909 bound_to 6896
  145.4157  140.9548  143.2209 H   0  0  0  0  0  0  0  0  0  0  0  0  # atno 7974 bound_to 7965
  155.1776  140.3297  155.4381 H   0  0  0  0  0  0  0  0  0  0  0  0  # atno 8008 bound_to 7997
  156.2488  140.1932  156.6826 H   0  0  0  0  0  0  0  0  0  0  0  0  # atno 8009 bound_to 7997
  154.6293  140.0584  156.9699 H   0  0  0  0  0  0  0  0  0  0  0  0  # atno 8010 bound_to 7997
  139.8507  143.7203  152.2658 H   0  0  0  0  0  0  0  0  0  0  0  0  # atno 10167 bound_to 10162
  156.8806  130.5652  149.5653 H   0  0  0  0  0  0  0  0  0  0  0  0  # atno 10718 bound_to 10713
  153.9687  135.6731  153.4746 H   0  0  0  0  0  0  0  0  0  0  0  0  # atno 10763 bound_to 10752
  153.0803  135.4927  154.8486 H   0  0  0  0  0  0  0  0  0  0  0  0  # atno 10764 bound_to 10752
  154.7231  135.3121  154.8975 H   0  0  0  0  0  0  0  0  0  0  0  0  # atno 10765 bound_to 10752
  140.2586  134.3219  155.7865 H   0  0  0  0  0  0  0  0  0  0  0  0  # atno 11005 bound_to 11000
  144.8279  139.5678  143.6957 LP  0  0  0  0  0  0  0  0  0  0  0  0  # atno 17320 bound_to 7965
  146.2682  139.6572  142.9314 LP  0  0  0  0  0  0  0  0  0  0  0  0  # atno 17321 bound_to 7965
  139.7468  144.7545  151.0567 LP  0  0  0  0  0  0  0  0  0  0  0  0  # atno 17342 bound_to 10162
  140.7788  143.4906  150.9898 LP  0  0  0  0  0  0  0  0  0  0  0  0  # atno 17343 bound_to 10162
  156.0679  130.5718  150.9325 LP  0  0  0  0  0  0  0  0  0  0  0  0  # atno 17370 bound_to 10713
  157.6142  131.0934  150.8740 LP  0  0  0  0  0  0  0  0  0  0  0  0  # atno 17371 bound_to 10713
  141.2193  133.7396  156.9150 LP  0  0  0  0  0  0  0  0  0  0  0  0  # atno 17394 bound_to 11000
  140.1487  134.9245  157.2564 LP  0  0  0  0  0  0  0  0  0  0  0  0  # atno 17395 bound_to 11000

$$$$
