AV-unprocessed.smi:115|AV-procd|sdf|1126|dock2
  -GOLD-   2262018253D 1   1.00000     0.00000
 Structure written by MMmdl.
 55 57  0  0  0  0  0  0  0  0  1 V2000
  147.6422  133.9257  161.5583 C   0  0  0  0  0  0  0  0  0  0  0  0
  147.8843  134.8170  160.4838 O   0  0  0  0  0  0  0  0  0  0  0  0
  148.0964  134.1442  159.2528 C   0  0  0  0  0  0  0  0  0  0  0  0
  147.8007  135.1158  158.0920 C   0  0  1  0  0  0  0  0  0  0  0  0
  146.4955  135.9120  158.2634 C   0  0  0  0  0  0  0  0  0  0  0  0
  148.9354  135.9901  157.7513 N   0  0  0  0  0  0  0  0  0  0  0  0
  149.3829  137.0323  158.5626 C   0  0  0  0  0  0  0  0  0  0  0  0
  148.7610  137.3837  159.8774 C   0  0  0  0  0  0  0  0  0  0  0  0
  150.4354  137.6292  157.9378 C   0  0  0  0  0  0  0  0  0  0  0  0
  150.6808  136.9509  156.7150 C   0  0  0  0  0  0  0  0  0  0  0  0
  151.7077  137.2695  155.6898 C   0  0  0  0  0  0  0  0  0  0  0  0
  151.8529  136.6209  154.6528 O   0  0  0  0  0  0  0  0  0  0  0  0
  152.5940  138.4930  155.9896 C   0  0  0  0  0  0  0  0  0  0  0  0
  151.8273  139.7171  156.1858 N   0  0  0  0  0  0  0  0  0  0  0  0
  150.8473  140.0513  155.2178 C   0  0  0  0  0  0  0  0  0  0  0  0
  150.6262  139.3398  154.2363 O   0  0  0  0  0  0  0  0  0  0  0  0
  150.1457  141.3043  155.4743 C   0  0  0  0  0  0  0  0  0  0  0  0
  149.1964  141.7211  154.6193 F   0  0  0  0  0  0  0  0  0  0  0  0
  150.4379  142.0596  156.5550 C   0  0  0  0  0  0  0  0  0  0  0  0
  151.4037  141.7088  157.4837 N   0  0  0  0  0  0  0  0  0  0  0  0
  151.7168  142.5934  158.6705 C   0  0  1  0  0  0  0  0  0  0  0  0
  153.1591  143.1049  158.5836 C   0  0  0  0  0  0  0  0  0  0  0  0
  152.9758  144.4289  157.8750 C   0  0  0  0  0  0  0  0  0  0  0  0
  151.6389  144.8963  158.4394 C   0  0  0  0  0  0  0  0  0  0  0  0
  150.8749  143.7102  158.6459 O   0  0  0  0  0  0  0  0  0  0  0  0
  152.1404  140.5172  157.3110 C   0  0  0  0  0  0  0  0  0  0  0  0
  153.0303  140.2036  158.1052 O   0  0  0  0  0  0  0  0  0  0  0  0
  149.7714  135.9201  156.6255 C   0  0  0  0  0  0  0  0  0  0  0  0
  149.6135  134.8677  155.5624 C   0  0  0  0  0  0  0  0  0  0  0  0
  147.4835  134.4930  162.4753 H   0  0  0  0  0  0  0  0  0  0  0  0
  148.4912  133.2598  161.7176 H   0  0  0  0  0  0  0  0  0  0  0  0
  146.7519  133.3222  161.3777 H   0  0  0  0  0  0  0  0  0  0  0  0
  149.1190  133.7718  159.2217 H   0  0  0  0  0  0  0  0  0  0  0  0
  147.4277  133.2835  159.1971 H   0  0  0  0  0  0  0  0  0  0  0  0
  147.6358  134.4621  157.2376 H   0  0  0  0  0  0  0  0  0  0  0  0
  145.6483  135.2411  158.4066 H   0  0  0  0  0  0  0  0  0  0  0  0
  146.2889  136.5112  157.3761 H   0  0  0  0  0  0  0  0  0  0  0  0
  146.5217  136.5883  159.1153 H   0  0  0  0  0  0  0  0  0  0  0  0
  149.3332  138.1636  160.3801 H   0  0  0  0  0  0  0  0  0  0  0  0
  148.7295  136.5193  160.5409 H   0  0  0  0  0  0  0  0  0  0  0  0
  147.7447  137.7543  159.7423 H   0  0  0  0  0  0  0  0  0  0  0  0
  150.9745  138.4811  158.3255 H   0  0  0  0  0  0  0  0  0  0  0  0
  153.2023  138.3244  156.8793 H   0  0  0  0  0  0  0  0  0  0  0  0
  153.3059  138.6705  155.1819 H   0  0  0  0  0  0  0  0  0  0  0  0
  149.8893  142.9805  156.6831 H   0  0  0  0  0  0  0  0  0  0  0  0
  151.5093  141.9943  159.5586 H   0  0  0  0  0  0  0  0  0  0  0  0
  153.5340  143.2616  159.5956 H   0  0  0  0  0  0  0  0  0  0  0  0
  153.8197  142.4092  158.0648 H   0  0  0  0  0  0  0  0  0  0  0  0
  153.7878  145.1318  158.0625 H   0  0  0  0  0  0  0  0  0  0  0  0
  152.9002  144.2739  156.7981 H   0  0  0  0  0  0  0  0  0  0  0  0
  151.7859  145.3873  159.4020 H   0  0  0  0  0  0  0  0  0  0  0  0
  151.1245  145.5929  157.7774 H   0  0  0  0  0  0  0  0  0  0  0  0
  150.5660  134.6225  155.0962 H   0  0  0  0  0  0  0  0  0  0  0  0
  148.9340  135.2063  154.7803 H   0  0  0  0  0  0  0  0  0  0  0  0
  149.2410  133.9273  155.9570 H   0  0  0  0  0  0  0  0  0  0  0  0
  1  2  1  0  0  0  0
  1 30  1  0  0  0  0
  1 31  1  0  0  0  0
  1 32  1  0  0  0  0
  2  3  1  0  0  0  0
  3  4  1  0  0  0  0
  3 33  1  0  0  0  0
  3 34  1  0  0  0  0
  4  5  1  0  0  0  0
  4  6  1  0  0  0  0
  4 35  1  0  0  0  0
  5 36  1  0  0  0  0
  5 37  1  0  0  0  0
  5 38  1  0  0  0  0
  6 28  1  0  0  0  0
  6  7  1  0  0  0  0
  7  8  1  0  0  0  0
  7  9  2  0  0  0  0
  8 39  1  0  0  0  0
  8 40  1  0  0  0  0
  8 41  1  0  0  0  0
  9 10  1  0  0  0  0
  9 42  1  0  0  0  0
 10 11  1  0  0  0  0
 10 28  2  0  0  0  0
 11 12  2  0  0  0  0
 11 13  1  0  0  0  0
 13 14  1  0  0  0  0
 13 43  1  0  0  0  0
 13 44  1  0  0  0  0
 14 26  1  0  0  0  0
 14 15  1  0  0  0  0
 15 16  2  0  0  0  0
 15 17  1  0  0  0  0
 17 18  1  0  0  0  0
 17 19  2  0  0  0  0
 19 20  1  0  0  0  0
 19 45  1  0  0  0  0
 20 21  1  0  0  0  0
 20 26  1  0  0  0  0
 21 25  1  0  0  0  0
 21 22  1  0  0  0  0
 21 46  1  0  0  0  0
 22 23  1  0  0  0  0
 22 47  1  0  0  0  0
 22 48  1  0  0  0  0
 23 24  1  0  0  0  0
 23 49  1  0  0  0  0
 23 50  1  0  0  0  0
 24 25  1  0  0  0  0
 24 51  1  0  0  0  0
 24 52  1  0  0  0  0
 26 27  2  0  0  0  0
 28 29  1  0  0  0  0
 29 53  1  0  0  0  0
 29 54  1  0  0  0  0
 29 55  1  0  0  0  0
M  END
> <s_m_source_file>
AV-unprocessed.smi

> <i_m_source_file_index>
115

> <i_lp_mmshare_version>
43012

> <i_f3d_flags>
0

> <s_epik_input>
W0NIM11PW0NIMl1bQ0BIXShbQ0gzXSluMWMoW0NIM10pW2NIXWMoYzFbQ0gzXSlDKD1PKVtDSDJdbjJjKD1PKWMoRilbY0hdbihjMj1PKVtDQEBIXTNbQ0gyXVtDSDJdW0NIMl1PMw==

> <s_epik_cmdline>
J2VwaWtfcHl0aG9uJywgJy1waCcsICc3LjAnLCAnLXRuJywgJzgnLCAnLW1hJywgJzIwMCcsICctbWV0YWxfYmluZGluZycsICctaW1hZScsICc8aW5maWxlLm1hZT4nLCAnLW9tYWUnLCAnPG91dGZpbGUubWFlPic=

> <r_lp_tautomer_probability>
1

> <r_epik_Ionization_Penalty>
5.02611e-09

> <r_epik_Ionization_Penalty_Charging>
5.01743e-09

> <r_epik_Ionization_Penalty_Neutral>
8.68114e-12

> <r_epik_State_Penalty>
-0

> <r_epik_Charging_Adjusted_Penalty>
5.01743e-09

> <i_epik_Tot_Q>
0

> <i_epik_Tot_abs_Q>
0

> <r_epik_Metal_State_Penalty>
-0

> <b_epik_Metal_Only>
0

> <s_epik_Chemistry_Notes>
This compound contains an acetal/aminal-like group ( X-CH(R)-Y where X, Y are N, S, or O) that may be acid/base labile, releasing an aldehyde.

> <s_lp_Force_Field>
OPLS_2005

> <r_lp_Energy>
46.6669

> <b_lp_Chiralities_Consistent>
1

> <s_lp_Variant>
AV-unprocessed.smi:115-4

> <Gold.Version>
5.8.1

> <Gold.Id.Protein>
6NUR|6NUR_protein|mol2

> <Gold.PLP.Fitness>
55.4770

> <Gold.PLP.PLP>
-46.1114

> <Gold.PLP.part.hbond>
-2.7871

> <Gold.PLP.part.metal>
0.0000

> <Gold.PLP.part.buried>
-4.0037

> <Gold.PLP.part.nonpolar>
-41.0737

> <Gold.PLP.part.repulsive>
0.3863

> <Gold.PLP.ligand.clash>
0.0000

> <Gold.PLP.ligand.torsion>
0.5476

> <Gold.PLP.Chemscore.Hbond>
2.3008

> <Gold.PLP.Chemscore.CHOScore>
1.0000

> <Gold.PLP.Chemscore.Metal>
0.0000

> <Gold.Chemscore.Hbonds>
donor molecule, donor type, donor heavy atom, donor atom, acceptor molecule, acceptor atom, score
      P1  H  7997  8008       L1    27  0.90
      P1  H 10752 10765       L1    12  0.89
      L1  C    19    45       P1  8028  1.00

> <Gold.PLP.Chemscore.Internal.Correction>
0.5586

> <Gold.Rescore>
     Score         DG    S(hbond)    S(metal)    S(lipo)     H(rot)  DE(clash)    DE(int)     intcor
      7.31     -14.39       1.10        0.00      92.72       2.19       0.02       7.06       ----

> <Gold.Chemscore.Fitness>
7.3081

> <Gold.Chemscore.DG>
-14.3883

> <Gold.Chemscore.ZeroCoef>
-5.4800

> <Gold.Chemscore.Hbond>
1.1006

> <Gold.Chemscore.Metal>
0.0000

> <Gold.Chemscore.Lipo>
92.7202

> <Gold.Chemscore.Internal_Hbond>
0.0000

> <Gold.Chemscore.DEClash>
0.0233

> <Gold.Chemscore.DEInternal>
7.0569

> <Gold.Chemscore.Rot>
2.1938

> <Gold.Chemscore.Internal.Correction>
   9.000000E+99

> <Gold.Chemscore.Hbonds>
donor molecule, donor type, donor heavy atom, donor atom, acceptor molecule, acceptor atom, score
      P1  H  7997  8008       L1    27  0.53
      P1  H 10752 10765       L1    12  0.84

> <Gold.Chemscore.Hbond.Weighted>
-3.6761

> <Gold.Chemscore.Metal.Weighted>
-0.0000

> <Gold.Chemscore.Lipo.Weighted>
-10.8483

> <Gold.Chemscore.Internal_Hbond.Weighted>
0.0000

> <Gold.Chemscore.DEClash.Weighted>
0.0233

> <Gold.Chemscore.DEInternal.Weighted>
7.0569

> <Gold.Chemscore.Rot.Weighted>
5.6160

> <Gold.Chemscore.Internal.Correction.Weighted>
   9.000000E+99

> <Gold.Protein.RotatedTorsions>
[ 6907 6896 6895 6894 ] final  -58.54 input  -60.11 | X-H torsion
[ 7974 7965 7964 7962 ] final   67.72 input  175.53 | X-H torsion
[ 8008 7997 7996 7995 ] final  -91.41 input   59.86 | X-H torsion
[ 10167 10162 10161 10158 ] final  -46.81 input  -65.29 | X-H torsion
[ 10718 10713 10712 10709 ] final  -15.19 input   66.30 | X-H torsion
[ 10763 10752 10751 10750 ] final  179.61 input  -60.55 | X-H torsion
[ 11005 11000 10999 10996 ] final   37.96 input  -57.11 | X-H torsion

> <Gold.Protein.ActiveResidues>
 VAL166  LYS551  ARG553  GLY616  TRP617  ASP618  TYR619  PRO620  LYS621  CYS622 
 ASP623  PHE694  ASN695  SER759  ASP760  ASP761  ALA762  ILE779  LEU786  VAL792 
 PHE793  MET794  SER795  GLU796  ALA797  LYS798  CYS799  TRP800  GLU811  SER814 

> <Gold.Protein.RotatedAtoms>
  150.7999  134.7085  159.6589 H   0  0  0  0  0  0  0  0  0  0  0  0  # atno 6907 bound_to 6896
  152.4115  134.6113  160.0036 H   0  0  0  0  0  0  0  0  0  0  0  0  # atno 6908 bound_to 6896
  151.6355  133.3292  159.3154 H   0  0  0  0  0  0  0  0  0  0  0  0  # atno 6909 bound_to 6896
  145.8113  139.3034  143.1097 H   0  0  0  0  0  0  0  0  0  0  0  0  # atno 7974 bound_to 7965
  154.7104  140.0520  157.0544 H   0  0  0  0  0  0  0  0  0  0  0  0  # atno 8008 bound_to 7997
  155.0562  140.3184  155.4656 H   0  0  0  0  0  0  0  0  0  0  0  0  # atno 8009 bound_to 7997
  156.2787  140.2107  156.5689 H   0  0  0  0  0  0  0  0  0  0  0  0  # atno 8010 bound_to 7997
  140.6801  143.2813  151.3837 H   0  0  0  0  0  0  0  0  0  0  0  0  # atno 10167 bound_to 10162
  156.6053  130.4835  149.6223 H   0  0  0  0  0  0  0  0  0  0  0  0  # atno 10718 bound_to 10713
  154.5229  135.2795  155.1247 H   0  0  0  0  0  0  0  0  0  0  0  0  # atno 10763 bound_to 10752
  154.2797  135.6288  153.5346 H   0  0  0  0  0  0  0  0  0  0  0  0  # atno 10764 bound_to 10752
  152.9940  135.5648  154.5723 H   0  0  0  0  0  0  0  0  0  0  0  0  # atno 10765 bound_to 10752
  140.2173  134.3682  155.8021 H   0  0  0  0  0  0  0  0  0  0  0  0  # atno 11005 bound_to 11000
  145.9774  140.8710  143.0131 LP  0  0  0  0  0  0  0  0  0  0  0  0  # atno 17320 bound_to 7965
  144.6757  140.2032  143.7385 LP  0  0  0  0  0  0  0  0  0  0  0  0  # atno 17321 bound_to 7965
  139.6119  144.1081  152.2307 LP  0  0  0  0  0  0  0  0  0  0  0  0  # atno 17342 bound_to 10162
  140.0498  144.5941  150.7345 LP  0  0  0  0  0  0  0  0  0  0  0  0  # atno 17343 bound_to 10162
  156.2435  130.6865  151.1578 LP  0  0  0  0  0  0  0  0  0  0  0  0  # atno 17370 bound_to 10713
  157.7269  131.0643  150.5890 LP  0  0  0  0  0  0  0  0  0  0  0  0  # atno 17371 bound_to 10713
  141.2224  133.7175  156.8518 LP  0  0  0  0  0  0  0  0  0  0  0  0  # atno 17394 bound_to 11000
  140.1886  134.8982  157.3034 LP  0  0  0  0  0  0  0  0  0  0  0  0  # atno 17395 bound_to 11000

$$$$
