AV-unprocessed.smi:2846|AV-procd|sdf|10952|dock7
  -GOLD-   2272015403D 1   1.00000     0.00000
 Structure written by MMmdl.
 49 51  0  0  0  0  0  0  0  0  2 V2000
  149.1065  141.3765  158.2652 O   0  0  0  0  0  0  0  0  0  0  0  0
  149.3158  142.2478  157.4208 C   0  0  0  0  0  0  0  0  0  0  0  0
  150.7170  142.8342  157.2318 C   0  0  0  0  0  0  0  0  0  0  0  0
  151.3021  143.5768  158.4221 C   0  0  0  0  0  0  0  0  0  0  0  0
  151.3918  144.9209  158.4545 C   0  0  0  0  0  0  0  0  0  0  0  0
  151.9562  145.7087  159.6233 C   0  0  0  0  0  0  0  0  0  0  0  0
  152.0857  144.8541  160.8955 C   0  0  0  0  0  0  0  0  0  0  0  0
  152.6689  143.4715  160.5774 C   0  0  0  0  0  0  0  0  0  0  0  0
  151.7885  142.7052  159.5735 C   0  0  0  0  0  0  0  0  0  0  0  0
  148.3612  142.7365  156.6148 N   0  0  0  0  0  0  0  0  0  0  0  0
  146.9572  142.3281  156.6170 C   0  0  0  0  0  0  0  0  0  0  0  0
  146.3857  142.0681  155.1943 C   0  0  0  0  0  0  0  0  0  0  0  0
  147.0904  140.8580  154.5605 C   0  0  0  0  0  0  0  0  0  0  0  0
  146.3506  139.7000  154.2174 C   0  0  0  0  0  0  0  0  0  0  0  0
  147.0043  138.6033  153.6202 C   0  0  0  0  0  0  0  0  0  0  0  0
  148.3292  138.6651  153.3702 N   0  3  0  0  0  0  0  0  0  0  0  0
  149.0767  139.7494  153.6657 C   0  0  0  0  0  0  0  0  0  0  0  0
  148.4765  140.8753  154.2647 C   0  0  0  0  0  0  0  0  0  0  0  0
  144.8458  141.9299  155.2092 C   0  0  0  0  0  0  0  0  0  0  0  0
  144.2865  143.3524  155.2959 C   0  0  0  0  0  0  0  0  0  0  0  0
  145.3592  144.2567  154.6802 C   0  0  0  0  0  0  0  0  0  0  0  0
  146.5391  143.3396  154.3323 C   0  0  0  0  0  0  0  0  0  0  0  0
  151.3827  142.0064  156.9831 H   0  0  0  0  0  0  0  0  0  0  0  0
  150.7221  143.4955  156.3643 H   0  0  0  0  0  0  0  0  0  0  0  0
  151.0592  145.5009  157.6062 H   0  0  0  0  0  0  0  0  0  0  0  0
  152.9316  146.0966  159.3281 H   0  0  0  0  0  0  0  0  0  0  0  0
  151.3176  146.5705  159.8189 H   0  0  0  0  0  0  0  0  0  0  0  0
  152.7060  145.3692  161.6294 H   0  0  0  0  0  0  0  0  0  0  0  0
  151.1033  144.7307  161.3531 H   0  0  0  0  0  0  0  0  0  0  0  0
  153.6702  143.5937  160.1622 H   0  0  0  0  0  0  0  0  0  0  0  0
  152.7836  142.8885  161.4916 H   0  0  0  0  0  0  0  0  0  0  0  0
  150.9133  142.2970  160.0798 H   0  0  0  0  0  0  0  0  0  0  0  0
  152.3476  141.8569  159.1767 H   0  0  0  0  0  0  0  0  0  0  0  0
  148.6248  143.4537  155.9546 H   0  0  0  0  0  0  0  0  0  0  0  0
  146.8089  141.4651  157.2677 H   0  0  0  0  0  0  0  0  0  0  0  0
  146.4000  143.1405  157.0848 H   0  0  0  0  0  0  0  0  0  0  0  0
  145.2883  139.6461  154.4041 H   0  0  0  0  0  0  0  0  0  0  0  0
  146.5096  137.6868  153.3334 H   0  0  0  0  0  0  0  0  0  0  0  0
  150.1248  139.6860  153.4122 H   0  0  0  0  0  0  0  0  0  0  0  0
  149.0856  141.7397  154.4837 H   0  0  0  0  0  0  0  0  0  0  0  0
  144.5100  141.5056  154.2613 H   0  0  0  0  0  0  0  0  0  0  0  0
  144.4640  141.2808  155.9964 H   0  0  0  0  0  0  0  0  0  0  0  0
  143.3286  143.4408  154.7825 H   0  0  0  0  0  0  0  0  0  0  0  0
  144.1240  143.6277  156.3388 H   0  0  0  0  0  0  0  0  0  0  0  0
  144.9913  144.7785  153.7960 H   0  0  0  0  0  0  0  0  0  0  0  0
  145.6649  145.0149  155.4021 H   0  0  0  0  0  0  0  0  0  0  0  0
  147.5019  143.8360  154.4586 H   0  0  0  0  0  0  0  0  0  0  0  0
  146.4544  143.0741  153.2770 H   0  0  0  0  0  0  0  0  0  0  0  0
  148.7833  137.8612  152.9359 H   0  0  0  0  0  0  0  0  0  0  0  0
  1  2  2  0  0  0  0
  2  3  1  0  0  0  0
  2 10  1  0  0  0  0
  3  4  1  0  0  0  0
  3 23  1  0  0  0  0
  3 24  1  0  0  0  0
  4  9  1  0  0  0  0
  4  5  2  0  0  0  0
  5  6  1  0  0  0  0
  5 25  1  0  0  0  0
  6  7  1  0  0  0  0
  6 26  1  0  0  0  0
  6 27  1  0  0  0  0
  7  8  1  0  0  0  0
  7 28  1  0  0  0  0
  7 29  1  0  0  0  0
  8  9  1  0  0  0  0
  8 30  1  0  0  0  0
  8 31  1  0  0  0  0
  9 32  1  0  0  0  0
  9 33  1  0  0  0  0
 10 11  1  0  0  0  0
 10 34  1  0  0  0  0
 11 12  1  0  0  0  0
 11 35  1  0  0  0  0
 11 36  1  0  0  0  0
 12 22  1  0  0  0  0
 12 13  1  0  0  0  0
 12 19  1  0  0  0  0
 13 18  1  0  0  0  0
 13 14  2  0  0  0  0
 14 15  1  0  0  0  0
 14 37  1  0  0  0  0
 15 16  2  0  0  0  0
 15 38  1  0  0  0  0
 16 17  1  0  0  0  0
 16 49  1  0  0  0  0
 17 18  2  0  0  0  0
 17 39  1  0  0  0  0
 18 40  1  0  0  0  0
 19 20  1  0  0  0  0
 19 41  1  0  0  0  0
 19 42  1  0  0  0  0
 20 21  1  0  0  0  0
 20 43  1  0  0  0  0
 20 44  1  0  0  0  0
 21 22  1  0  0  0  0
 21 45  1  0  0  0  0
 21 46  1  0  0  0  0
 22 47  1  0  0  0  0
 22 48  1  0  0  0  0
M  CHG  1  16   1
M  END
> <s_m_source_file>
AV-unprocessed.smi

> <i_m_source_file_index>
2846

> <i_lp_mmshare_version>
43012

> <i_f3d_flags>
0

> <s_epik_input>
W0NIMl0xW0NIMl1bQ0gyXVtDSDJdW0NIXT1DMVtDSDJdQyg9TylbTkhdW0NIMl1DMihbQ0gyXVtDSDJdW0NIMl1bQ0gyXTIpYzNbY0hdW2NIXW5bY0hdW2NIXTM=

> <s_epik_cmdline>
J2VwaWtfcHl0aG9uJywgJy1waCcsICc3LjAnLCAnLXRuJywgJzgnLCAnLW1hJywgJzIwMCcsICctbWV0YWxfYmluZGluZycsICctaW1hZScsICc8aW5maWxlLm1hZT4nLCAnLW9tYWUnLCAnPG91dGZpbGUubWFlPic=

> <r_epik_Ionization_Penalty>
1.37043

> <r_epik_Ionization_Penalty_Charging>
1.37043

> <r_epik_Ionization_Penalty_Neutral>
1.66368e-08

> <r_epik_State_Penalty>
1.45009

> <r_epik_Charging_Adjusted_Penalty>
2.82052

> <i_epik_Tot_Q>
1

> <i_epik_Tot_abs_Q>
1

> <r_epik_Metal_State_Penalty>
1.50668

> <b_epik_Metal_Only>
0

> <s_lp_Force_Field>
OPLS_2005

> <r_lp_Energy>
37.4584

> <b_lp_Chiralities_Consistent>
1

> <s_lp_Variant>
AV-unprocessed.smi:2846-2

> <Gold.Version>
5.8.1

> <Gold.Id.Protein>
6NUR|6NUR_protein|mol2

> <Gold.PLP.Fitness>
49.0800

> <Gold.PLP.PLP>
-40.7711

> <Gold.PLP.part.hbond>
-3.0000

> <Gold.PLP.part.metal>
0.0000

> <Gold.PLP.part.buried>
-1.4722

> <Gold.PLP.part.nonpolar>
-37.7460

> <Gold.PLP.part.repulsive>
0.0734

> <Gold.PLP.ligand.clash>
0.0000

> <Gold.PLP.ligand.torsion>
0.4024

> <Gold.PLP.Chemscore.Hbond>
3.0000

> <Gold.PLP.Chemscore.CHOScore>
0.0000

> <Gold.PLP.Chemscore.Metal>
0.0000

> <Gold.Chemscore.Hbonds>
donor molecule, donor type, donor heavy atom, donor atom, acceptor molecule, acceptor atom, score
      L1  H    10    34       P1  8028  0.47
      L1  H    16    49       P1  7948  2.00

> <Gold.PLP.Chemscore.Internal.Correction>
0.1136

> <Gold.Rescore>
     Score         DG    S(hbond)    S(metal)    S(lipo)     H(rot)  DE(clash)    DE(int)     intcor
     19.81     -22.10       1.83        0.00     121.89       1.46       1.68       0.60       ----

> <Gold.Chemscore.Fitness>
19.8094

> <Gold.Chemscore.DG>
-22.0971

> <Gold.Chemscore.ZeroCoef>
-5.4800

> <Gold.Chemscore.Hbond>
1.8263

> <Gold.Chemscore.Metal>
0.0000

> <Gold.Chemscore.Lipo>
121.8919

> <Gold.Chemscore.Internal_Hbond>
0.0000

> <Gold.Chemscore.DEClash>
1.6836

> <Gold.Chemscore.DEInternal>
0.6040

> <Gold.Chemscore.Rot>
1.4625

> <Gold.Chemscore.Internal.Correction>
   9.000000E+99

> <Gold.Chemscore.Hbonds>
donor molecule, donor type, donor heavy atom, donor atom, acceptor molecule, acceptor atom, score
      L1  H    10    34       P1  8028  0.44
      L1  H    16    49       P1  7948  0.99

> <Gold.Chemscore.Hbond.Weighted>
-6.0998

> <Gold.Chemscore.Metal.Weighted>
-0.0000

> <Gold.Chemscore.Lipo.Weighted>
-14.2613

> <Gold.Chemscore.Internal_Hbond.Weighted>
0.0000

> <Gold.Chemscore.DEClash.Weighted>
1.6836

> <Gold.Chemscore.DEInternal.Weighted>
0.6040

> <Gold.Chemscore.Rot.Weighted>
3.7441

> <Gold.Chemscore.Internal.Correction.Weighted>
   9.000000E+99

> <Gold.Protein.RotatedTorsions>
[ 6907 6896 6895 6894 ] final   12.02 input  -60.11 | X-H torsion
[ 7974 7965 7964 7962 ] final  153.46 input  175.53 | X-H torsion
[ 8008 7997 7996 7995 ] final  -32.21 input   59.86 | X-H torsion
[ 10167 10162 10161 10158 ] final   33.87 input  -65.29 | X-H torsion
[ 10718 10713 10712 10709 ] final   76.47 input   66.30 | X-H torsion
[ 10763 10752 10751 10750 ] final  -97.53 input  -60.55 | X-H torsion
[ 11005 11000 10999 10996 ] final  117.21 input  -57.11 | X-H torsion

> <Gold.Protein.ActiveResidues>
 VAL166  LYS551  ARG553  GLY616  TRP617  ASP618  TYR619  PRO620  LYS621  CYS622 
 ASP623  PHE694  ASN695  SER759  ASP760  ASP761  ALA762  ILE779  LEU786  VAL792 
 PHE793  MET794  SER795  GLU796  ALA797  LYS798  CYS799  TRP800  GLU811  SER814 

> <Gold.Protein.RotatedAtoms>
  151.7637  135.0804  160.0349 H   0  0  0  0  0  0  0  0  0  0  0  0  # atno 6907 bound_to 6896
  152.3336  133.5981  159.5835 H   0  0  0  0  0  0  0  0  0  0  0  0  # atno 6908 bound_to 6896
  150.7437  133.9746  159.3598 H   0  0  0  0  0  0  0  0  0  0  0  0  # atno 6909 bound_to 6896
  144.8153  139.6803  143.6124 H   0  0  0  0  0  0  0  0  0  0  0  0  # atno 7974 bound_to 7965
  154.4187  140.1743  156.1691 H   0  0  0  0  0  0  0  0  0  0  0  0  # atno 8008 bound_to 7997
  155.9775  140.3380  155.6608 H   0  0  0  0  0  0  0  0  0  0  0  0  # atno 8009 bound_to 7997
  155.6544  140.0694  157.2566 H   0  0  0  0  0  0  0  0  0  0  0  0  # atno 8010 bound_to 7997
  140.4368  144.1246  150.6167 H   0  0  0  0  0  0  0  0  0  0  0  0  # atno 10167 bound_to 10162
  157.6674  130.9776  150.1501 H   0  0  0  0  0  0  0  0  0  0  0  0  # atno 10718 bound_to 10713
  154.7336  135.5043  153.9005 H   0  0  0  0  0  0  0  0  0  0  0  0  # atno 10763 bound_to 10752
  153.0974  135.6676  153.9746 H   0  0  0  0  0  0  0  0  0  0  0  0  # atno 10764 bound_to 10752
  153.9541  135.3054  155.3416 H   0  0  0  0  0  0  0  0  0  0  0  0  # atno 10765 bound_to 10752
  139.9067  134.9607  156.7316 H   0  0  0  0  0  0  0  0  0  0  0  0  # atno 11005 bound_to 11000
  146.2456  139.6091  142.9462 LP  0  0  0  0  0  0  0  0  0  0  0  0  # atno 17320 bound_to 7965
  145.5228  141.0431  143.2426 LP  0  0  0  0  0  0  0  0  0  0  0  0  # atno 17321 bound_to 7965
  140.4365  143.2545  151.9529 LP  0  0  0  0  0  0  0  0  0  0  0  0  # atno 17342 bound_to 10162
  139.4787  144.5695  151.8111 LP  0  0  0  0  0  0  0  0  0  0  0  0  # atno 17343 bound_to 10162
  156.2303  130.3681  149.8453 LP  0  0  0  0  0  0  0  0  0  0  0  0  # atno 17370 bound_to 10713
  156.6282  130.8654  151.3490 LP  0  0  0  0  0  0  0  0  0  0  0  0  # atno 17371 bound_to 10713
  140.6921  133.9381  155.7972 LP  0  0  0  0  0  0  0  0  0  0  0  0  # atno 17394 bound_to 11000
  141.0434  134.0589  157.3874 LP  0  0  0  0  0  0  0  0  0  0  0  0  # atno 17395 bound_to 11000

$$$$
