AV-unprocessed.smi:69|AV-procd|sdf|644|dock4
  -GOLD-   2262016533D 1   1.00000     0.00000
 Structure written by MMmdl.
 32 34  0  0  0  0  0  0  0  0  1 V2000
  154.2189  142.7236  159.6022 N   0  0  0  0  0  0  0  0  0  0  0  0
  153.5088  141.7783  158.9713 C   0  0  0  0  0  0  0  0  0  0  0  0
  154.0663  140.5554  158.8061 N   0  0  0  0  0  0  0  0  0  0  0  0
  153.3773  139.5962  158.1781 C   0  0  0  0  0  0  0  0  0  0  0  0
  152.1494  139.6544  157.6538 N   0  0  0  0  0  0  0  0  0  0  0  0
  151.5917  140.8887  157.8250 C   0  0  0  0  0  0  0  0  0  0  0  0
  152.2021  141.9997  158.4681 C   0  0  0  0  0  0  0  0  0  0  0  0
  151.3392  143.0873  158.4505 N   0  0  0  0  0  0  0  0  0  0  0  0
  150.2806  142.6397  157.8286 C   0  0  0  0  0  0  0  0  0  0  0  0
  150.3511  141.3249  157.4152 N   0  0  0  0  0  0  0  0  0  0  0  0
  149.3332  140.4992  156.6863 C   0  0  1  0  0  0  0  0  0  0  0  0
  148.1808  141.2701  156.5175 O   0  0  0  0  0  0  0  0  0  0  0  0
  148.1089  141.7433  155.1768 C   0  0  2  0  0  0  0  0  0  0  0  0
  146.6593  142.1170  154.8332 C   0  0  0  0  0  0  0  0  0  0  0  0
  145.8293  140.9820  154.9573 O   0  0  0  0  0  0  0  0  0  0  0  0
  148.6355  140.5314  154.4088 C   0  0  1  0  0  0  0  0  0  0  0  0
  148.9978  140.8346  153.0743 O   0  0  0  0  0  0  0  0  0  0  0  0
  149.8089  140.0775  155.2744 C   0  0  1  0  0  0  0  0  0  0  0  0
  151.0335  140.6774  154.8761 O   0  0  0  0  0  0  0  0  0  0  0  0
  149.1267  139.6604  157.3523 H   0  0  0  0  0  0  0  0  0  0  0  0
  148.7819  142.5918  155.0375 H   0  0  0  0  0  0  0  0  0  0  0  0
  147.8754  139.7486  154.3991 H   0  0  0  0  0  0  0  0  0  0  0  0
  149.9296  138.9943  155.2399 H   0  0  0  0  0  0  0  0  0  0  0  0
  153.8222  143.6427  159.7353 H   0  0  0  0  0  0  0  0  0  0  0  0
  155.1461  142.5150  159.9436 H   0  0  0  0  0  0  0  0  0  0  0  0
  153.8825  138.6465  158.0817 H   0  0  0  0  0  0  0  0  0  0  0  0
  149.4167  143.2649  157.6570 H   0  0  0  0  0  0  0  0  0  0  0  0
  146.2894  142.8703  155.5293 H   0  0  0  0  0  0  0  0  0  0  0  0
  146.5829  142.5368  153.8297 H   0  0  0  0  0  0  0  0  0  0  0  0
  145.1839  141.0049  154.2675 H   0  0  0  0  0  0  0  0  0  0  0  0
  148.6736  140.1476  152.5123 H   0  0  0  0  0  0  0  0  0  0  0  0
  151.5123  140.9222  155.6534 H   0  0  0  0  0  0  0  0  0  0  0  0
  1  2  1  0  0  0  0
  1 24  1  0  0  0  0
  1 25  1  0  0  0  0
  2  7  1  0  0  0  0
  2  3  2  0  0  0  0
  3  4  1  0  0  0  0
  4  5  2  0  0  0  0
  4 26  1  0  0  0  0
  5  6  1  0  0  0  0
  6 10  1  0  0  0  0
  6  7  2  0  0  0  0
  7  8  1  0  0  0  0
  8  9  2  0  0  0  0
  9 10  1  0  0  0  0
  9 27  1  0  0  0  0
 10 11  1  0  0  0  0
 11 20  1  0  0  0  0
 11 18  1  0  0  0  0
 11 12  1  0  0  0  0
 12 13  1  0  0  0  0
 13 21  1  0  0  0  0
 13 14  1  0  0  0  0
 13 16  1  0  0  0  0
 14 15  1  0  0  0  0
 14 28  1  0  0  0  0
 14 29  1  0  0  0  0
 15 30  1  0  0  0  0
 16 22  1  0  0  0  0
 16 17  1  0  0  0  0
 16 18  1  0  0  0  0
 17 31  1  0  0  0  0
 18 23  1  0  0  0  0
 18 19  1  0  0  0  0
 19 32  1  0  0  0  0
M  END
> <s_m_source_file>
AV-unprocessed.smi

> <i_m_source_file_index>
69

> <i_lp_mmshare_version>
43012

> <i_f3d_flags>
0

> <s_epik_input>
bjFbY0hdbmMoW05IMl0pYyhjMTIpbltjSF1uMltDQEBIXTNPW0NASF0oW0NIMl1bT0hdKVtDQEBIXShbT0hdKVtDQEhdM1tPSF0=

> <s_epik_cmdline>
J2VwaWtfcHl0aG9uJywgJy1waCcsICc3LjAnLCAnLXRuJywgJzgnLCAnLW1hJywgJzIwMCcsICctbWV0YWxfYmluZGluZycsICctaW1hZScsICc8aW5maWxlLm1hZT4nLCAnLW9tYWUnLCAnPG91dGZpbGUubWFlPic=

> <r_lp_tautomer_probability>
1

> <r_epik_Ionization_Penalty>
0.000428445

> <r_epik_Ionization_Penalty_Charging>
0

> <r_epik_Ionization_Penalty_Neutral>
0.000428445

> <r_epik_State_Penalty>
-0

> <r_epik_Charging_Adjusted_Penalty>
0

> <i_epik_Tot_Q>
0

> <i_epik_Tot_abs_Q>
0

> <r_epik_Metal_State_Penalty>
-0

> <b_epik_Metal_Only>
0

> <s_epik_Chemistry_Notes>
This compound contains an acetal/aminal-like group ( X-CH(R)-Y where X, Y are N, S, or O) that may be acid/base labile, releasing an aldehyde.

> <s_lp_Force_Field>
OPLS_2005

> <r_lp_Energy>
41.389

> <b_lp_Chiralities_Consistent>
1

> <s_lp_Variant>
AV-unprocessed.smi:69-2

> <Gold.Version>
5.8.1

> <Gold.Id.Protein>
6NUR|6NUR_protein|mol2

> <Gold.PLP.Fitness>
39.6897

> <Gold.PLP.PLP>
-26.9734

> <Gold.PLP.part.hbond>
-2.9771

> <Gold.PLP.part.metal>
0.0000

> <Gold.PLP.part.buried>
-6.4596

> <Gold.PLP.part.nonpolar>
-18.5620

> <Gold.PLP.part.repulsive>
0.1976

> <Gold.PLP.ligand.clash>
0.0000

> <Gold.PLP.ligand.torsion>
0.0506

> <Gold.PLP.Chemscore.Hbond>
3.2598

> <Gold.PLP.Chemscore.CHOScore>
0.9900

> <Gold.PLP.Chemscore.Metal>
0.0000

> <Gold.Chemscore.Hbonds>
donor molecule, donor type, donor heavy atom, donor atom, acceptor molecule, acceptor atom, score
      L1  H    15    30       P1 10175  0.11
      L1  H    17    31       P1  7957  0.21
      P1  H  7989  7998       L1    19  0.87
      P1  H  8011  8017       L1    17  1.00
      L1  C     9    27       P1  8028  0.99

> <Gold.PLP.Chemscore.Internal.Correction>
0.0682

> <Gold.Rescore>
     Score         DG    S(hbond)    S(metal)    S(lipo)     H(rot)  DE(clash)    DE(int)     intcor
      8.83      -9.12       3.06        0.00      31.98       4.03       0.05       0.24       ----

> <Gold.Chemscore.Fitness>
8.8340

> <Gold.Chemscore.DG>
-9.1240

> <Gold.Chemscore.ZeroCoef>
-5.4800

> <Gold.Chemscore.Hbond>
3.0577

> <Gold.Chemscore.Metal>
0.0000

> <Gold.Chemscore.Lipo>
31.9846

> <Gold.Chemscore.Internal_Hbond>
0.0000

> <Gold.Chemscore.DEClash>
0.0465

> <Gold.Chemscore.DEInternal>
0.2435

> <Gold.Chemscore.Rot>
4.0277

> <Gold.Chemscore.Internal.Correction>
   9.000000E+99

> <Gold.Chemscore.Hbonds>
donor molecule, donor type, donor heavy atom, donor atom, acceptor molecule, acceptor atom, score
      L1  H    15    30       P1 10175  0.13
      L1  H    17    31       P1  7957  0.20
      P1  H  7989  7998       L1    19  0.79
      P1  H  8011  8017       L1    17  0.97

> <Gold.Chemscore.Hbond.Weighted>
-10.2127

> <Gold.Chemscore.Metal.Weighted>
-0.0000

> <Gold.Chemscore.Lipo.Weighted>
-3.7422

> <Gold.Chemscore.Internal_Hbond.Weighted>
0.0000

> <Gold.Chemscore.DEClash.Weighted>
0.0465

> <Gold.Chemscore.DEInternal.Weighted>
0.2435

> <Gold.Chemscore.Rot.Weighted>
10.3110

> <Gold.Chemscore.Internal.Correction.Weighted>
   9.000000E+99

> <Gold.Protein.RotatedTorsions>
[ 6907 6896 6895 6894 ] final   39.63 input  -60.11 | X-H torsion
[ 7974 7965 7964 7962 ] final   41.10 input  175.53 | X-H torsion
[ 8008 7997 7996 7995 ] final -179.77 input   59.86 | X-H torsion
[ 10167 10162 10161 10158 ] final   40.19 input  -65.29 | X-H torsion
[ 10718 10713 10712 10709 ] final -179.03 input   66.30 | X-H torsion
[ 10763 10752 10751 10750 ] final   79.87 input  -60.55 | X-H torsion
[ 11005 11000 10999 10996 ] final  -14.03 input  -57.11 | X-H torsion

> <Gold.Protein.ActiveResidues>
 VAL166  LYS551  ARG553  GLY616  TRP617  ASP618  TYR619  PRO620  LYS621  CYS622 
 ASP623  PHE694  ASN695  SER759  ASP760  ASP761  ALA762  ILE779  LEU786  VAL792 
 PHE793  MET794  SER795  GLU796  ALA797  LYS798  CYS799  TRP800  GLU811  SER814 

> <Gold.Protein.RotatedAtoms>
  152.1720  134.8826  160.0533 H   0  0  0  0  0  0  0  0  0  0  0  0  # atno 6907 bound_to 6896
  151.9782  133.3744  159.4105 H   0  0  0  0  0  0  0  0  0  0  0  0  # atno 6908 bound_to 6896
  150.6903  134.3990  159.5154 H   0  0  0  0  0  0  0  0  0  0  0  0  # atno 6909 bound_to 6896
  146.0851  139.5455  142.9512 H   0  0  0  0  0  0  0  0  0  0  0  0  # atno 7974 bound_to 7965
  156.0343  140.1289  157.0224 H   0  0  0  0  0  0  0  0  0  0  0  0  # atno 8008 bound_to 7997
  154.4363  140.1043  156.6216 H   0  0  0  0  0  0  0  0  0  0  0  0  # atno 8009 bound_to 7997
  155.5760  140.3467  155.4530 H   0  0  0  0  0  0  0  0  0  0  0  0  # atno 8010 bound_to 7997
  140.3766  144.2035  150.6131 H   0  0  0  0  0  0  0  0  0  0  0  0  # atno 10167 bound_to 10162
  156.8531  130.9726  151.3090 H   0  0  0  0  0  0  0  0  0  0  0  0  # atno 10718 bound_to 10713
  153.0987  135.4824  154.8827 H   0  0  0  0  0  0  0  0  0  0  0  0  # atno 10763 bound_to 10752
  154.7354  135.3070  154.8822 H   0  0  0  0  0  0  0  0  0  0  0  0  # atno 10764 bound_to 10752
  153.9446  135.6830  153.4797 H   0  0  0  0  0  0  0  0  0  0  0  0  # atno 10765 bound_to 10752
  140.7822  133.8353  155.9302 H   0  0  0  0  0  0  0  0  0  0  0  0  # atno 11005 bound_to 11000
  145.6145  141.0333  143.1948 LP  0  0  0  0  0  0  0  0  0  0  0  0  # atno 17320 bound_to 7965
  144.7320  139.7698  143.7343 LP  0  0  0  0  0  0  0  0  0  0  0  0  # atno 17321 bound_to 7965
  140.4980  143.2327  151.8721 LP  0  0  0  0  0  0  0  0  0  0  0  0  # atno 17342 bound_to 10162
  139.4799  144.5092  151.8956 LP  0  0  0  0  0  0  0  0  0  0  0  0  # atno 17343 bound_to 10162
  157.6292  130.8716  149.9243 LP  0  0  0  0  0  0  0  0  0  0  0  0  # atno 17370 bound_to 10713
  156.0817  130.3672  150.0567 LP  0  0  0  0  0  0  0  0  0  0  0  0  # atno 17371 bound_to 10713
  140.9471  134.1826  157.4755 LP  0  0  0  0  0  0  0  0  0  0  0  0  # atno 17394 bound_to 11000
  139.8741  134.9895  156.5458 LP  0  0  0  0  0  0  0  0  0  0  0  0  # atno 17395 bound_to 11000

$$$$
