AV-unprocessed.smi:1296|AV-procd|sdf|5413|dock2
  -GOLD-   22720 4573D 1   1.00000     0.00000
 Structure written by MMmdl.
 36 36  0  0  0  0  0  0  0  0  1 V2000
  146.3521  137.9560  152.1912 C   0  0  0  0  0  0  0  0  0  0  0  0
  147.0410  139.0933  152.9153 C   0  0  0  0  0  0  0  0  0  0  0  0
  146.4635  140.2086  153.2201 N   0  0  0  0  0  0  0  0  0  0  0  0
  147.2060  141.1902  153.8916 C   0  0  0  0  0  0  0  0  0  0  0  0
  146.4576  142.4714  154.2165 C   0  0  0  0  0  0  0  0  0  0  0  0
  148.5155  140.9944  154.2247 C   0  0  0  0  0  0  0  0  0  0  0  0
  149.3523  142.0443  154.9554 C   0  0  0  0  0  0  0  0  0  0  0  0
  149.9719  141.6125  156.2876 C   0  0  0  0  0  0  0  0  0  0  0  0
  150.3273  140.4476  156.4689 O   0  0  0  0  0  0  0  0  0  0  0  0
  150.0940  142.5703  157.2168 N   0  0  0  0  0  0  0  0  0  0  0  0
  150.6549  142.3635  158.5459 C   0  0  0  0  0  0  0  0  0  0  0  0
  151.9719  143.1407  158.7345 C   0  0  0  0  0  0  0  0  0  0  0  0
  152.5966  142.9075  160.1214 C   0  0  0  0  0  0  0  0  0  0  0  0
  151.7598  144.6406  158.4823 C   0  0  0  0  0  0  0  0  0  0  0  0
  149.1639  139.7159  153.8744 C   0  0  0  0  0  0  0  0  0  0  0  0
  150.3323  139.4322  154.1334 O   0  0  0  0  0  0  0  0  0  0  0  0
  148.3734  138.8295  153.2286 N   0  0  0  0  0  0  0  0  0  0  0  0
  148.7706  137.9390  152.9674 H   0  0  0  0  0  0  0  0  0  0  0  0
  145.5007  137.6022  152.7730 H   0  0  0  0  0  0  0  0  0  0  0  0
  147.0270  137.1148  152.0271 H   0  0  0  0  0  0  0  0  0  0  0  0
  145.9876  138.2949  151.2213 H   0  0  0  0  0  0  0  0  0  0  0  0
  146.8883  143.3132  153.6742 H   0  0  0  0  0  0  0  0  0  0  0  0
  146.5037  142.6847  155.2846 H   0  0  0  0  0  0  0  0  0  0  0  0
  145.4057  142.3971  153.9380 H   0  0  0  0  0  0  0  0  0  0  0  0
  150.1508  142.4095  154.3085 H   0  0  0  0  0  0  0  0  0  0  0  0
  148.7265  142.9173  155.1421 H   0  0  0  0  0  0  0  0  0  0  0  0
  149.7790  143.5025  156.9900 H   0  0  0  0  0  0  0  0  0  0  0  0
  149.9232  142.6865  159.2881 H   0  0  0  0  0  0  0  0  0  0  0  0
  150.8220  141.2971  158.7072 H   0  0  0  0  0  0  0  0  0  0  0  0
  152.6817  142.7835  157.9872 H   0  0  0  0  0  0  0  0  0  0  0  0
  151.9206  143.2231  160.9168 H   0  0  0  0  0  0  0  0  0  0  0  0
  153.5245  143.4693  160.2322 H   0  0  0  0  0  0  0  0  0  0  0  0
  152.8345  141.8563  160.2851 H   0  0  0  0  0  0  0  0  0  0  0  0
  151.0681  145.0706  159.2074 H   0  0  0  0  0  0  0  0  0  0  0  0
  151.3518  144.8190  157.4870 H   0  0  0  0  0  0  0  0  0  0  0  0
  152.6999  145.1883  158.5532 H   0  0  0  0  0  0  0  0  0  0  0  0
  1  2  1  0  0  0  0
  1 19  1  0  0  0  0
  1 20  1  0  0  0  0
  1 21  1  0  0  0  0
  2 17  1  0  0  0  0
  2  3  2  0  0  0  0
  3  4  1  0  0  0  0
  4  5  1  0  0  0  0
  4  6  2  0  0  0  0
  5 22  1  0  0  0  0
  5 23  1  0  0  0  0
  5 24  1  0  0  0  0
  6  7  1  0  0  0  0
  6 15  1  0  0  0  0
  7  8  1  0  0  0  0
  7 25  1  0  0  0  0
  7 26  1  0  0  0  0
  8  9  2  0  0  0  0
  8 10  1  0  0  0  0
 10 11  1  0  0  0  0
 10 27  1  0  0  0  0
 11 12  1  0  0  0  0
 11 28  1  0  0  0  0
 11 29  1  0  0  0  0
 12 13  1  0  0  0  0
 12 14  1  0  0  0  0
 12 30  1  0  0  0  0
 13 31  1  0  0  0  0
 13 32  1  0  0  0  0
 13 33  1  0  0  0  0
 14 34  1  0  0  0  0
 14 35  1  0  0  0  0
 14 36  1  0  0  0  0
 15 16  2  0  0  0  0
 15 17  1  0  0  0  0
 17 18  1  0  0  0  0
M  END
> <s_m_source_file>
AV-unprocessed.smi

> <i_m_source_file_index>
1296

> <i_lp_mmshare_version>
43012

> <i_f3d_flags>
0

> <s_epik_input>
W0NIM11jMW5jKFtDSDNdKWMoYyg9TylbbkhdMSlbQ0gyXUMoPU8pW05IXVtDSDJdW0NIXShbQ0gzXSlbQ0gzXQ==

> <s_epik_cmdline>
J2VwaWtfcHl0aG9uJywgJy1waCcsICc3LjAnLCAnLXRuJywgJzgnLCAnLW1hJywgJzIwMCcsICctbWV0YWxfYmluZGluZycsICctaW1hZScsICc8aW5maWxlLm1hZT4nLCAnLW9tYWUnLCAnPG91dGZpbGUubWFlPic=

> <r_lp_tautomer_probability>
0.839158

> <r_epik_Ionization_Penalty>
0.000395354

> <r_epik_Ionization_Penalty_Charging>
0.00036358

> <r_epik_Ionization_Penalty_Neutral>
3.17744e-05

> <r_epik_State_Penalty>
0.047122

> <r_epik_Charging_Adjusted_Penalty>
0.0474856

> <i_epik_Tot_Q>
0

> <i_epik_Tot_abs_Q>
0

> <r_epik_Metal_State_Penalty>
0.225273

> <b_epik_Metal_Only>
0

> <s_lp_Force_Field>
OPLS_2005

> <r_lp_Energy>
6.44868

> <b_lp_Chiralities_Consistent>
1

> <s_lp_Variant>
AV-unprocessed.smi:1296-1

> <Gold.Version>
5.8.1

> <Gold.Id.Protein>
6NUR|6NUR_protein|mol2

> <Gold.PLP.Fitness>
44.0159

> <Gold.PLP.PLP>
-35.8953

> <Gold.PLP.part.hbond>
-4.0000

> <Gold.PLP.part.metal>
0.0000

> <Gold.PLP.part.buried>
3.1173

> <Gold.PLP.part.nonpolar>
-35.5191

> <Gold.PLP.part.repulsive>
1.6143

> <Gold.PLP.ligand.clash>
0.0000

> <Gold.PLP.ligand.torsion>
0.3924

> <Gold.PLP.Chemscore.Hbond>
2.9600

> <Gold.PLP.Chemscore.CHOScore>
0.0000

> <Gold.PLP.Chemscore.Metal>
0.0000

> <Gold.Chemscore.Hbonds>
donor molecule, donor type, donor heavy atom, donor atom, acceptor molecule, acceptor atom, score
      L1  H    10    27       P1  8028  0.98
      L1  H    17    18       P1  7948  1.00
      P1  H  7989  7998       L1    16  1.00

> <Gold.PLP.Chemscore.Internal.Correction>
0.0254

> <Gold.Rescore>
     Score         DG    S(hbond)    S(metal)    S(lipo)     H(rot)  DE(clash)    DE(int)     intcor
     13.27     -19.86       2.81        0.00      80.47       1.73       3.82       2.77       ----

> <Gold.Chemscore.Fitness>
13.2707

> <Gold.Chemscore.DG>
-19.8615

> <Gold.Chemscore.ZeroCoef>
-5.4800

> <Gold.Chemscore.Hbond>
2.8125

> <Gold.Chemscore.Metal>
0.0000

> <Gold.Chemscore.Lipo>
80.4739

> <Gold.Chemscore.Internal_Hbond>
0.0000

> <Gold.Chemscore.DEClash>
3.8243

> <Gold.Chemscore.DEInternal>
2.7665

> <Gold.Chemscore.Rot>
1.7296

> <Gold.Chemscore.Internal.Correction>
   9.000000E+99

> <Gold.Chemscore.Hbonds>
donor molecule, donor type, donor heavy atom, donor atom, acceptor molecule, acceptor atom, score
      L1  H    10    27       P1  8028  0.88
      L1  H    17    18       P1  7948  0.93
      P1  H  7989  7998       L1    16  0.76

> <Gold.Chemscore.Hbond.Weighted>
-9.3937

> <Gold.Chemscore.Metal.Weighted>
-0.0000

> <Gold.Chemscore.Lipo.Weighted>
-9.4154

> <Gold.Chemscore.Internal_Hbond.Weighted>
0.0000

> <Gold.Chemscore.DEClash.Weighted>
3.8243

> <Gold.Chemscore.DEInternal.Weighted>
2.7665

> <Gold.Chemscore.Rot.Weighted>
4.4277

> <Gold.Chemscore.Internal.Correction.Weighted>
   9.000000E+99

> <Gold.Protein.RotatedTorsions>
[ 6907 6896 6895 6894 ] final  111.82 input  -60.11 | X-H torsion
[ 7974 7965 7964 7962 ] final   63.29 input  175.53 | X-H torsion
[ 8008 7997 7996 7995 ] final -120.10 input   59.86 | X-H torsion
[ 10167 10162 10161 10158 ] final  148.74 input  -65.29 | X-H torsion
[ 10718 10713 10712 10709 ] final  -65.89 input   66.30 | X-H torsion
[ 10763 10752 10751 10750 ] final  136.94 input  -60.55 | X-H torsion
[ 11005 11000 10999 10996 ] final  -36.36 input  -57.11 | X-H torsion

> <Gold.Protein.ActiveResidues>
 VAL166  LYS551  ARG553  GLY616  TRP617  ASP618  TYR619  PRO620  LYS621  CYS622 
 ASP623  PHE694  ASN695  SER759  ASP760  ASP761  ALA762  ILE779  LEU786  VAL792 
 PHE793  MET794  SER795  GLU796  ALA797  LYS798  CYS799  TRP800  GLU811  SER814 

> <Gold.Protein.RotatedAtoms>
  152.4949  133.8603  159.7246 H   0  0  0  0  0  0  0  0  0  0  0  0  # atno 6907 bound_to 6896
  150.9116  133.6981  159.2860 H   0  0  0  0  0  0  0  0  0  0  0  0  # atno 6908 bound_to 6896
  151.4388  135.1022  159.9716 H   0  0  0  0  0  0  0  0  0  0  0  0  # atno 6909 bound_to 6896
  145.8635  139.3330  143.0805 H   0  0  0  0  0  0  0  0  0  0  0  0  # atno 7974 bound_to 7965
  155.1264  140.0399  157.2763 H   0  0  0  0  0  0  0  0  0  0  0  0  # atno 8008 bound_to 7997
  154.6575  140.2583  155.7119 H   0  0  0  0  0  0  0  0  0  0  0  0  # atno 8009 bound_to 7997
  156.2605  140.2823  156.1034 H   0  0  0  0  0  0  0  0  0  0  0  0  # atno 8010 bound_to 7997
  139.4871  144.5656  151.7151 H   0  0  0  0  0  0  0  0  0  0  0  0  # atno 10167 bound_to 10162
  156.0644  130.4254  150.1629 H   0  0  0  0  0  0  0  0  0  0  0  0  # atno 10718 bound_to 10713
  153.8648  135.3063  155.3439 H   0  0  0  0  0  0  0  0  0  0  0  0  # atno 10763 bound_to 10752
  154.7832  135.4824  153.9893 H   0  0  0  0  0  0  0  0  0  0  0  0  # atno 10764 bound_to 10752
  153.1440  135.6830  153.9077 H   0  0  0  0  0  0  0  0  0  0  0  0  # atno 10765 bound_to 10752
  140.9868  133.7026  156.1780 H   0  0  0  0  0  0  0  0  0  0  0  0  # atno 11005 bound_to 11000
  145.9220  140.9108  143.0400 LP  0  0  0  0  0  0  0  0  0  0  0  0  # atno 17320 bound_to 7965
  144.6726  140.1302  143.7444 LP  0  0  0  0  0  0  0  0  0  0  0  0  # atno 17321 bound_to 7965
  140.5234  144.0844  150.6030 LP  0  0  0  0  0  0  0  0  0  0  0  0  # atno 17342 bound_to 10162
  140.3809  143.2803  152.0171 LP  0  0  0  0  0  0  0  0  0  0  0  0  # atno 17343 bound_to 10162
  156.9692  130.9829  151.3462 LP  0  0  0  0  0  0  0  0  0  0  0  0  # atno 17370 bound_to 10713
  157.5675  130.8287  149.8347 LP  0  0  0  0  0  0  0  0  0  0  0  0  # atno 17371 bound_to 10713
  140.7101  134.4470  157.5582 LP  0  0  0  0  0  0  0  0  0  0  0  0  # atno 17394 bound_to 11000
  139.8974  134.8637  156.2045 LP  0  0  0  0  0  0  0  0  0  0  0  0  # atno 17395 bound_to 11000

$$$$
