AV-unprocessed.smi:3175|AV-procd|sdf|12122|dock6
  -GOLD-   2272017563D 1   1.00000     0.00000
 Structure written by MMmdl.
 37 38  0  0  0  0  0  0  0  0  1 V2000
  153.3578  139.5517  158.3709 O   0  0  0  0  0  0  0  0  0  0  0  0
  152.6769  140.5578  158.5704 C   0  0  0  0  0  0  0  0  0  0  0  0
  153.1124  141.5927  159.6128 C   0  0  0  0  0  0  0  0  0  0  0  0
  152.1759  142.8164  159.6875 C   0  0  0  0  0  0  0  0  0  0  0  0
  152.3938  143.8201  158.5529 C   0  0  0  0  0  0  0  0  0  0  0  0
  151.7624  145.1257  159.0488 C   0  0  0  0  0  0  0  0  0  0  0  0
  151.7320  145.0350  160.5825 C   0  0  0  0  0  0  0  0  0  0  0  0
  152.3429  143.6772  160.9451 C   0  0  0  0  0  0  0  0  0  0  0  0
  151.5312  140.8110  157.9201 N   0  0  0  0  0  0  0  0  0  0  0  0
  150.9293  139.9406  156.9150 C   0  0  0  0  0  0  0  0  0  0  0  0
  150.8715  140.5985  155.5232 C   0  0  0  0  0  0  0  0  0  0  0  0
  149.5000  140.5155  154.8756 C   0  0  0  0  0  0  0  0  0  0  0  0
  148.9810  139.2789  154.4399 C   0  0  0  0  0  0  0  0  0  0  0  0
  147.7089  139.2519  153.8369 C   0  0  0  0  0  0  0  0  0  0  0  0
  147.0079  140.4662  153.6955 C   0  0  0  0  0  0  0  0  0  0  0  0
  147.4942  141.6559  154.1094 N   0  0  0  0  0  0  0  0  0  0  0  0
  148.7144  141.6731  154.6880 C   0  0  0  0  0  0  0  0  0  0  0  0
  153.1837  141.1199  160.5938 H   0  0  0  0  0  0  0  0  0  0  0  0
  154.1206  141.9195  159.3561 H   0  0  0  0  0  0  0  0  0  0  0  0
  151.1381  142.4814  159.6380 H   0  0  0  0  0  0  0  0  0  0  0  0
  153.4619  143.9737  158.3921 H   0  0  0  0  0  0  0  0  0  0  0  0
  151.9643  143.4825  157.6092 H   0  0  0  0  0  0  0  0  0  0  0  0
  152.3229  145.9943  158.7020 H   0  0  0  0  0  0  0  0  0  0  0  0
  150.7454  145.2205  158.6660 H   0  0  0  0  0  0  0  0  0  0  0  0
  152.2786  145.8541  161.0508 H   0  0  0  0  0  0  0  0  0  0  0  0
  150.7009  145.0884  160.9340 H   0  0  0  0  0  0  0  0  0  0  0  0
  151.8726  143.2339  161.8236 H   0  0  0  0  0  0  0  0  0  0  0  0
  153.4031  143.8052  161.1682 H   0  0  0  0  0  0  0  0  0  0  0  0
  151.0316  141.6580  158.1494 H   0  0  0  0  0  0  0  0  0  0  0  0
  151.5298  139.0320  156.8641 H   0  0  0  0  0  0  0  0  0  0  0  0
  149.9315  139.6314  157.2302 H   0  0  0  0  0  0  0  0  0  0  0  0
  151.1618  141.6469  155.6007 H   0  0  0  0  0  0  0  0  0  0  0  0
  151.6044  140.1321  154.8633 H   0  0  0  0  0  0  0  0  0  0  0  0
  149.5478  138.3675  154.5625 H   0  0  0  0  0  0  0  0  0  0  0  0
  147.2803  138.3230  153.4905 H   0  0  0  0  0  0  0  0  0  0  0  0
  146.0302  140.4820  153.2372 H   0  0  0  0  0  0  0  0  0  0  0  0
  149.0766  142.6407  155.0034 H   0  0  0  0  0  0  0  0  0  0  0  0
  1  2  2  0  0  0  0
  2  3  1  0  0  0  0
  2  9  1  0  0  0  0
  3  4  1  0  0  0  0
  3 18  1  0  0  0  0
  3 19  1  0  0  0  0
  4  8  1  0  0  0  0
  4  5  1  0  0  0  0
  4 20  1  0  0  0  0
  5  6  1  0  0  0  0
  5 21  1  0  0  0  0
  5 22  1  0  0  0  0
  6  7  1  0  0  0  0
  6 23  1  0  0  0  0
  6 24  1  0  0  0  0
  7  8  1  0  0  0  0
  7 25  1  0  0  0  0
  7 26  1  0  0  0  0
  8 27  1  0  0  0  0
  8 28  1  0  0  0  0
  9 10  1  0  0  0  0
  9 29  1  0  0  0  0
 10 11  1  0  0  0  0
 10 30  1  0  0  0  0
 10 31  1  0  0  0  0
 11 12  1  0  0  0  0
 11 32  1  0  0  0  0
 11 33  1  0  0  0  0
 12 17  1  0  0  0  0
 12 13  2  0  0  0  0
 13 14  1  0  0  0  0
 13 34  1  0  0  0  0
 14 15  2  0  0  0  0
 14 35  1  0  0  0  0
 15 16  1  0  0  0  0
 15 36  1  0  0  0  0
 16 17  2  0  0  0  0
 17 37  1  0  0  0  0
M  END
> <s_m_source_file>
AV-unprocessed.smi

> <i_m_source_file_index>
3175

> <i_lp_mmshare_version>
43012

> <i_f3d_flags>
0

> <s_epik_input>
W0NIMl0xW0NIMl1bQ0gyXVtDSDJdW0NIXTFbQ0gyXUMoPU8pW05IXVtDSDJdW0NIMl1jMltjSF1bY0hdW2NIXW5bY0hdMg==

> <s_epik_cmdline>
J2VwaWtfcHl0aG9uJywgJy1waCcsICc3LjAnLCAnLXRuJywgJzgnLCAnLW1hJywgJzIwMCcsICctbWV0YWxfYmluZGluZycsICctaW1hZScsICc8aW5maWxlLm1hZT4nLCAnLW9tYWUnLCAnPG91dGZpbGUubWFlPic=

> <r_epik_Ionization_Penalty>
0.013409

> <r_epik_Ionization_Penalty_Charging>
0

> <r_epik_Ionization_Penalty_Neutral>
0.013409

> <r_epik_State_Penalty>
0.010434

> <r_epik_Charging_Adjusted_Penalty>
0.010434

> <i_epik_Tot_Q>
0

> <i_epik_Tot_abs_Q>
0

> <r_epik_Metal_State_Penalty>
0.0102027

> <b_epik_Metal_Only>
0

> <s_lp_Force_Field>
OPLS_2005

> <r_lp_Energy>
19.7305

> <b_lp_Chiralities_Consistent>
1

> <s_lp_Variant>
AV-unprocessed.smi:3175-1

> <Gold.Version>
5.8.1

> <Gold.Id.Protein>
6NUR|6NUR_protein|mol2

> <Gold.PLP.Fitness>
49.2931

> <Gold.PLP.PLP>
-41.4809

> <Gold.PLP.part.hbond>
-1.0000

> <Gold.PLP.part.metal>
0.0000

> <Gold.PLP.part.buried>
-3.2899

> <Gold.PLP.part.nonpolar>
-38.1233

> <Gold.PLP.part.repulsive>
0.2391

> <Gold.PLP.ligand.clash>
0.0095

> <Gold.PLP.ligand.torsion>
0.5757

> <Gold.PLP.Chemscore.Hbond>
1.0000

> <Gold.PLP.Chemscore.CHOScore>
1.9857

> <Gold.PLP.Chemscore.Metal>
0.0000

> <Gold.Chemscore.Hbonds>
donor molecule, donor type, donor heavy atom, donor atom, acceptor molecule, acceptor atom, score
      P1  H  7997  8010       L1     1  1.00
      L1  C    15    36       P1 10175  1.00
      L1  C    17    37       P1  8028  1.00

> <Gold.PLP.Chemscore.Internal.Correction>
0.0160

> <Gold.Rescore>
     Score         DG    S(hbond)    S(metal)    S(lipo)     H(rot)  DE(clash)    DE(int)     intcor
     17.59     -18.52       0.92        0.00     117.64       1.48       0.36       0.56       ----

> <Gold.Chemscore.Fitness>
17.5921

> <Gold.Chemscore.DG>
-18.5199

> <Gold.Chemscore.ZeroCoef>
-5.4800

> <Gold.Chemscore.Hbond>
0.9213

> <Gold.Chemscore.Metal>
0.0000

> <Gold.Chemscore.Lipo>
117.6408

> <Gold.Chemscore.Internal_Hbond>
0.0000

> <Gold.Chemscore.DEClash>
0.3645

> <Gold.Chemscore.DEInternal>
0.5633

> <Gold.Chemscore.Rot>
1.4848

> <Gold.Chemscore.Internal.Correction>
   9.000000E+99

> <Gold.Chemscore.Hbonds>
donor molecule, donor type, donor heavy atom, donor atom, acceptor molecule, acceptor atom, score
      P1  H  7997  8010       L1     1  0.60

> <Gold.Chemscore.Hbond.Weighted>
-3.0771

> <Gold.Chemscore.Metal.Weighted>
-0.0000

> <Gold.Chemscore.Lipo.Weighted>
-13.7640

> <Gold.Chemscore.Internal_Hbond.Weighted>
0.0000

> <Gold.Chemscore.DEClash.Weighted>
0.3645

> <Gold.Chemscore.DEInternal.Weighted>
0.5633

> <Gold.Chemscore.Rot.Weighted>
3.8012

> <Gold.Chemscore.Internal.Correction.Weighted>
   9.000000E+99

> <Gold.Protein.RotatedTorsions>
[ 6907 6896 6895 6894 ] final -100.24 input  -60.11 | X-H torsion
[ 7974 7965 7964 7962 ] final  -52.97 input  175.53 | X-H torsion
[ 8008 7997 7996 7995 ] final   23.30 input   59.86 | X-H torsion
[ 10167 10162 10161 10158 ] final -128.94 input  -65.29 | X-H torsion
[ 10718 10713 10712 10709 ] final   63.02 input   66.30 | X-H torsion
[ 10763 10752 10751 10750 ] final  -22.69 input  -60.55 | X-H torsion
[ 11005 11000 10999 10996 ] final  -46.67 input  -57.11 | X-H torsion

> <Gold.Protein.ActiveResidues>
 VAL166  LYS551  ARG553  GLY616  TRP617  ASP618  TYR619  PRO620  LYS621  CYS622 
 ASP623  PHE694  ASN695  SER759  ASP760  ASP761  ALA762  ILE779  LEU786  VAL792 
 PHE793  MET794  SER795  GLU796  ALA797  LYS798  CYS799  TRP800  GLU811  SER814 

> <Gold.Protein.RotatedAtoms>
  150.7109  134.0917  159.3933 H   0  0  0  0  0  0  0  0  0  0  0  0  # atno 6907 bound_to 6896
  151.8903  135.0417  160.0506 H   0  0  0  0  0  0  0  0  0  0  0  0  # atno 6908 bound_to 6896
  152.2497  133.5169  159.5355 H   0  0  0  0  0  0  0  0  0  0  0  0  # atno 6909 bound_to 6896
  145.9020  140.7986  142.9738 H   0  0  0  0  0  0  0  0  0  0  0  0  # atno 7974 bound_to 7965
  154.9789  140.3099  155.4955 H   0  0  0  0  0  0  0  0  0  0  0  0  # atno 8008 bound_to 7997
  156.2956  140.2270  156.4826 H   0  0  0  0  0  0  0  0  0  0  0  0  # atno 8009 bound_to 7997
  154.7808  140.0446  157.1113 H   0  0  0  0  0  0  0  0  0  0  0  0  # atno 8010 bound_to 7997
  139.9450  143.6120  152.2492 H   0  0  0  0  0  0  0  0  0  0  0  0  # atno 10167 bound_to 10162
  157.5942  130.9082  149.9662 H   0  0  0  0  0  0  0  0  0  0  0  0  # atno 10718 bound_to 10713
  153.6559  135.6978  153.5193 H   0  0  0  0  0  0  0  0  0  0  0  0  # atno 10763 bound_to 10752
  153.2669  135.4227  155.0949 H   0  0  0  0  0  0  0  0  0  0  0  0  # atno 10764 bound_to 10752
  154.8464  135.3569  154.6104 H   0  0  0  0  0  0  0  0  0  0  0  0  # atno 10765 bound_to 10752
  141.0593  133.6714  156.3188 H   0  0  0  0  0  0  0  0  0  0  0  0  # atno 11005 bound_to 11000
  144.6736  140.1692  143.7416 LP  0  0  0  0  0  0  0  0  0  0  0  0  # atno 17320 bound_to 7965
  145.8779  139.2307  143.1622 LP  0  0  0  0  0  0  0  0  0  0  0  0  # atno 17321 bound_to 7965
  139.6674  144.7662  151.1847 LP  0  0  0  0  0  0  0  0  0  0  0  0  # atno 17342 bound_to 10162
  140.7600  143.5917  150.8790 LP  0  0  0  0  0  0  0  0  0  0  0  0  # atno 17343 bound_to 10162
  156.1002  130.3656  150.0233 LP  0  0  0  0  0  0  0  0  0  0  0  0  # atno 17370 bound_to 10713
  156.8349  130.9405  151.3635 LP  0  0  0  0  0  0  0  0  0  0  0  0  # atno 17371 bound_to 10713
  140.5901  134.5659  157.5497 LP  0  0  0  0  0  0  0  0  0  0  0  0  # atno 17394 bound_to 11000
  139.9418  134.7773  156.0659 LP  0  0  0  0  0  0  0  0  0  0  0  0  # atno 17395 bound_to 11000

$$$$
