AV-unprocessed.smi:2397|AV-procd|sdf|9494|dock8
  -GOLD-   2272013123D 1   1.00000     0.00000
 Structure written by MMmdl.
 36 37  0  0  0  0  0  0  0  0  1 V2000
  150.8625  144.3530  159.9401 C   0  0  0  0  0  0  0  0  0  0  0  0
  152.2726  144.0587  159.4048 C   0  0  0  0  0  0  0  0  0  0  0  0
  152.5066  144.6170  157.9923 C   0  0  0  0  0  0  0  0  0  0  0  0
  152.6181  142.5780  159.4948 C   0  0  0  0  0  0  0  0  0  0  0  0
  153.6872  142.2475  160.2255 N   0  0  0  0  0  0  0  0  0  0  0  0
  153.9949  140.9353  160.2974 C   0  0  0  0  0  0  0  0  0  0  0  0
  153.2322  139.9552  159.6316 C   0  0  0  0  0  0  0  0  0  0  0  0
  152.1247  140.4117  158.8826 C   0  0  0  0  0  0  0  0  0  0  0  0
  151.3105  139.4879  158.1925 N   0  0  0  0  0  0  0  0  0  0  0  0
  151.0853  138.2983  159.0128 C   0  0  0  0  0  0  0  0  0  0  0  0
  150.3298  137.2205  158.2247 C   0  0  0  0  0  0  0  0  0  0  0  0
  149.1110  137.7696  157.7469 O   0  0  0  0  0  0  0  0  0  0  0  0
  149.3450  138.8350  156.8350 C   0  0  0  0  0  0  0  0  0  0  0  0
  150.0979  139.9992  157.5235 C   0  0  2  0  0  0  0  0  0  0  0  0
  150.3116  141.1023  156.4639 C   0  0  0  0  0  0  0  0  0  0  0  0
  149.7913  142.3140  156.6868 N   0  0  0  0  0  0  0  0  0  0  0  0
  150.9400  140.8515  155.4377 O   0  0  0  0  0  0  0  0  0  0  0  0
  151.8243  141.7318  158.8311 N   0  0  0  0  0  0  0  0  0  0  0  0
  150.7538  144.0074  160.9685 H   0  0  0  0  0  0  0  0  0  0  0  0
  150.0978  143.8593  159.3395 H   0  0  0  0  0  0  0  0  0  0  0  0
  150.6536  145.4230  159.9274 H   0  0  0  0  0  0  0  0  0  0  0  0
  152.9642  144.5911  160.0603 H   0  0  0  0  0  0  0  0  0  0  0  0
  153.5365  144.4557  157.6732 H   0  0  0  0  0  0  0  0  0  0  0  0
  152.3138  145.6895  157.9577 H   0  0  0  0  0  0  0  0  0  0  0  0
  151.8533  144.1395  157.2611 H   0  0  0  0  0  0  0  0  0  0  0  0
  154.8574  140.6645  160.8881 H   0  0  0  0  0  0  0  0  0  0  0  0
  153.4898  138.9079  159.6902 H   0  0  0  0  0  0  0  0  0  0  0  0
  152.0304  137.8813  159.3629 H   0  0  0  0  0  0  0  0  0  0  0  0
  150.5129  138.5756  159.9000 H   0  0  0  0  0  0  0  0  0  0  0  0
  150.9309  136.8436  157.3955 H   0  0  0  0  0  0  0  0  0  0  0  0
  150.1066  136.3703  158.8693 H   0  0  0  0  0  0  0  0  0  0  0  0
  149.9002  138.4600  155.9728 H   0  0  0  0  0  0  0  0  0  0  0  0
  148.3786  139.1750  156.4601 H   0  0  0  0  0  0  0  0  0  0  0  0
  149.4388  140.4062  158.2928 H   0  0  0  0  0  0  0  0  0  0  0  0
  149.9228  143.0495  156.0076 H   0  0  0  0  0  0  0  0  0  0  0  0
  149.2720  142.4888  157.5349 H   0  0  0  0  0  0  0  0  0  0  0  0
  1  2  1  0  0  0  0
  1 19  1  0  0  0  0
  1 20  1  0  0  0  0
  1 21  1  0  0  0  0
  2  3  1  0  0  0  0
  2  4  1  0  0  0  0
  2 22  1  0  0  0  0
  3 23  1  0  0  0  0
  3 24  1  0  0  0  0
  3 25  1  0  0  0  0
  4 18  1  0  0  0  0
  4  5  2  0  0  0  0
  5  6  1  0  0  0  0
  6  7  2  0  0  0  0
  6 26  1  0  0  0  0
  7  8  1  0  0  0  0
  7 27  1  0  0  0  0
  8  9  1  0  0  0  0
  8 18  2  0  0  0  0
  9 14  1  0  0  0  0
  9 10  1  0  0  0  0
 10 11  1  0  0  0  0
 10 28  1  0  0  0  0
 10 29  1  0  0  0  0
 11 12  1  0  0  0  0
 11 30  1  0  0  0  0
 11 31  1  0  0  0  0
 12 13  1  0  0  0  0
 13 14  1  0  0  0  0
 13 32  1  0  0  0  0
 13 33  1  0  0  0  0
 14 15  1  0  0  0  0
 14 34  1  0  0  0  0
 15 16  1  0  0  0  0
 15 17  2  0  0  0  0
 16 35  1  0  0  0  0
 16 36  1  0  0  0  0
M  END
> <s_m_source_file>
AV-unprocessed.smi

> <i_m_source_file_index>
2397

> <i_lp_mmshare_version>
43012

> <i_f3d_flags>
0

> <s_epik_input>
W0NIM11bQ0hdKFtDSDNdKWMxbltjSF1bY0hdYyhuMSlOMltDSDJdW0NIMl1PW0NIMl1bQ0BIXTJDKD1PKVtOSDJd

> <s_epik_cmdline>
J2VwaWtfcHl0aG9uJywgJy1waCcsICc3LjAnLCAnLXRuJywgJzgnLCAnLW1hJywgJzIwMCcsICctbWV0YWxfYmluZGluZycsICctaW1hZScsICc8aW5maWxlLm1hZT4nLCAnLW9tYWUnLCAnPG91dGZpbGUubWFlPic=

> <r_lp_tautomer_probability>
1

> <r_epik_Ionization_Penalty>
0.0323151

> <r_epik_Ionization_Penalty_Charging>
0

> <r_epik_Ionization_Penalty_Neutral>
0.0323151

> <r_epik_State_Penalty>
0.0267324

> <r_epik_Charging_Adjusted_Penalty>
0.0267324

> <i_epik_Tot_Q>
0

> <i_epik_Tot_abs_Q>
0

> <r_epik_Metal_State_Penalty>
0.0253461

> <b_epik_Metal_Only>
0

> <s_lp_Force_Field>
OPLS_2005

> <r_lp_Energy>
6.15108

> <b_lp_Chiralities_Consistent>
1

> <s_lp_Variant>
AV-unprocessed.smi:2397-2

> <Gold.Version>
5.8.1

> <Gold.Id.Protein>
6NUR|6NUR_protein|mol2

> <Gold.PLP.Fitness>
36.7453

> <Gold.PLP.PLP>
-33.1782

> <Gold.PLP.part.hbond>
-2.0000

> <Gold.PLP.part.metal>
0.0000

> <Gold.PLP.part.buried>
-5.6479

> <Gold.PLP.part.nonpolar>
-26.0532

> <Gold.PLP.part.repulsive>
0.0876

> <Gold.PLP.ligand.clash>
0.0000

> <Gold.PLP.ligand.torsion>
0.3663

> <Gold.PLP.Chemscore.Hbond>
1.3452

> <Gold.PLP.Chemscore.CHOScore>
0.0000

> <Gold.PLP.Chemscore.Metal>
0.0000

> <Gold.Chemscore.Hbonds>
donor molecule, donor type, donor heavy atom, donor atom, acceptor molecule, acceptor atom, score
      L1  H    16    35       P1  8028  0.62
      P1  H  7989  7998       L1    17  0.74

> <Gold.PLP.Chemscore.Internal.Correction>
0.2641

> <Gold.Rescore>
     Score         DG    S(hbond)    S(metal)    S(lipo)     H(rot)  DE(clash)    DE(int)     intcor
     11.18     -14.06       1.71        0.00      62.56       1.74       0.07       2.80       ----

> <Gold.Chemscore.Fitness>
11.1850

> <Gold.Chemscore.DG>
-14.0554

> <Gold.Chemscore.ZeroCoef>
-5.4800

> <Gold.Chemscore.Hbond>
1.7115

> <Gold.Chemscore.Metal>
0.0000

> <Gold.Chemscore.Lipo>
62.5646

> <Gold.Chemscore.Internal_Hbond>
0.0000

> <Gold.Chemscore.DEClash>
0.0688

> <Gold.Chemscore.DEInternal>
2.8016

> <Gold.Chemscore.Rot>
1.7426

> <Gold.Chemscore.Internal.Correction>
   9.000000E+99

> <Gold.Chemscore.Hbonds>
donor molecule, donor type, donor heavy atom, donor atom, acceptor molecule, acceptor atom, score
      L1  H    16    35       P1  8028  0.62
      P1  H  7989  7998       L1    17  0.70

> <Gold.Chemscore.Hbond.Weighted>
-5.7164

> <Gold.Chemscore.Metal.Weighted>
-0.0000

> <Gold.Chemscore.Lipo.Weighted>
-7.3201

> <Gold.Chemscore.Internal_Hbond.Weighted>
0.0000

> <Gold.Chemscore.DEClash.Weighted>
0.0688

> <Gold.Chemscore.DEInternal.Weighted>
2.8016

> <Gold.Chemscore.Rot.Weighted>
4.4610

> <Gold.Chemscore.Internal.Correction.Weighted>
   9.000000E+99

> <Gold.Protein.RotatedTorsions>
[ 6907 6896 6895 6894 ] final  150.83 input  -60.11 | X-H torsion
[ 7974 7965 7964 7962 ] final   -5.17 input  175.53 | X-H torsion
[ 8008 7997 7996 7995 ] final    4.80 input   59.86 | X-H torsion
[ 10167 10162 10161 10158 ] final   47.17 input  -65.29 | X-H torsion
[ 10718 10713 10712 10709 ] final -150.94 input   66.30 | X-H torsion
[ 10763 10752 10751 10750 ] final   49.92 input  -60.55 | X-H torsion
[ 11005 11000 10999 10996 ] final  -64.21 input  -57.11 | X-H torsion

> <Gold.Protein.ActiveResidues>
 VAL166  LYS551  ARG553  GLY616  TRP617  ASP618  TYR619  PRO620  LYS621  CYS622 
 ASP623  PHE694  ASN695  SER759  ASP760  ASP761  ALA762  ILE779  LEU786  VAL792 
 PHE793  MET794  SER795  GLU796  ALA797  LYS798  CYS799  TRP800  GLU811  SER814 

> <Gold.Protein.RotatedAtoms>
  152.1090  133.4290  159.4621 H   0  0  0  0  0  0  0  0  0  0  0  0  # atno 6907 bound_to 6896
  150.6866  134.2671  159.4582 H   0  0  0  0  0  0  0  0  0  0  0  0  # atno 6908 bound_to 6896
  152.0538  134.9637  160.0625 H   0  0  0  0  0  0  0  0  0  0  0  0  # atno 6909 bound_to 6896
  146.2358  140.1981  142.8333 H   0  0  0  0  0  0  0  0  0  0  0  0  # atno 7974 bound_to 7965
  154.7204  140.2710  155.6547 H   0  0  0  0  0  0  0  0  0  0  0  0  # atno 8008 bound_to 7997
  156.2822  140.2735  156.1798 H   0  0  0  0  0  0  0  0  0  0  0  0  # atno 8009 bound_to 7997
  155.0515  140.0371  157.2535 H   0  0  0  0  0  0  0  0  0  0  0  0  # atno 8010 bound_to 7997
  140.3063  144.2873  150.6208 H   0  0  0  0  0  0  0  0  0  0  0  0  # atno 10167 bound_to 10162
  156.4527  130.8175  151.2406 H   0  0  0  0  0  0  0  0  0  0  0  0  # atno 10718 bound_to 10713
  152.9785  135.5896  154.4168 H   0  0  0  0  0  0  0  0  0  0  0  0  # atno 10763 bound_to 10752
  154.3797  135.2767  155.2220 H   0  0  0  0  0  0  0  0  0  0  0  0  # atno 10764 bound_to 10752
  154.4139  135.6075  153.6024 H   0  0  0  0  0  0  0  0  0  0  0  0  # atno 10765 bound_to 10752
  141.1417  133.6662  156.5798 H   0  0  0  0  0  0  0  0  0  0  0  0  # atno 11005 bound_to 11000
  144.9804  140.8454  143.5401 LP  0  0  0  0  0  0  0  0  0  0  0  0  # atno 17320 bound_to 7965
  145.1974  139.2270  143.5211 LP  0  0  0  0  0  0  0  0  0  0  0  0  # atno 17321 bound_to 7965
  140.5607  143.2192  151.7770 LP  0  0  0  0  0  0  0  0  0  0  0  0  # atno 17342 bound_to 10162
  139.4903  144.4352  151.9827 LP  0  0  0  0  0  0  0  0  0  0  0  0  # atno 17343 bound_to 10162
  157.7502  131.0132  150.3417 LP  0  0  0  0  0  0  0  0  0  0  0  0  # atno 17370 bound_to 10713
  156.3799  130.3878  149.7110 LP  0  0  0  0  0  0  0  0  0  0  0  0  # atno 17371 bound_to 10713
  140.3847  134.7493  157.4683 LP  0  0  0  0  0  0  0  0  0  0  0  0  # atno 17394 bound_to 11000
  140.0611  134.5994  155.8748 LP  0  0  0  0  0  0  0  0  0  0  0  0  # atno 17395 bound_to 11000

$$$$
