AV-unprocessed.smi:798|AV-procd|sdf|3779|dock8
  -GOLD-   22720 1213D 1   1.00000     0.00000
 Structure written by MMmdl.
 33 35  0  0  0  0  0  0  0  0  2 V2000
  150.1519  137.6813  159.8031 O   0  0  0  0  0  0  0  0  0  0  0  0
  149.7767  136.8544  158.9688 C   0  0  0  0  0  0  0  0  0  0  0  0
  149.1025  135.7094  159.2214 N   0  5  0  0  0  0  0  0  0  0  0  0
  148.3898  135.5830  160.3529 C   0  0  0  0  0  0  0  0  0  0  0  0
  148.0968  136.6323  161.1375 N   0  0  0  0  0  0  0  0  0  0  0  0
  147.3422  136.2882  162.2509 N   0  0  0  0  0  0  0  0  0  0  0  0
  147.0778  134.9821  162.2735 C   0  0  0  0  0  0  0  0  0  0  0  0
  147.7250  134.0546  160.9368 S   0  0  0  0  0  0  0  0  0  0  0  0
  150.0355  137.0502  157.6685 N   0  0  0  0  0  0  0  0  0  0  0  0
  150.7595  138.1843  157.0979 C   0  0  2  0  0  0  0  0  0  0  0  0
  150.2425  139.5100  157.6985 C   0  0  1  0  0  0  0  0  0  0  0  0
  151.2599  140.6242  157.3932 C   0  0  0  0  0  0  0  0  0  0  0  0
  151.0560  140.8567  155.8845 C   0  0  0  0  0  0  0  0  0  0  0  0
  149.9628  139.8291  155.5202 C   0  0  2  0  0  0  0  0  0  0  0  0
  149.0906  139.8798  156.7681 C   0  0  0  0  0  0  0  0  0  0  0  0
  150.4864  138.3720  155.5827 C   0  0  1  0  0  0  0  0  0  0  0  0
  151.6926  138.0443  154.6809 C   0  0  0  0  0  0  0  0  0  0  0  0
  151.6350  136.7026  154.2440 O   0  0  0  0  0  0  0  0  0  0  0  0
  146.4955  134.5626  163.0805 H   0  0  0  0  0  0  0  0  0  0  0  0
  149.7076  136.3482  157.0217 H   0  0  0  0  0  0  0  0  0  0  0  0
  151.8247  138.0692  157.3087 H   0  0  0  0  0  0  0  0  0  0  0  0
  149.9810  139.4463  158.7556 H   0  0  0  0  0  0  0  0  0  0  0  0
  151.0262  141.5292  157.9553 H   0  0  0  0  0  0  0  0  0  0  0  0
  152.2827  140.3345  157.6372 H   0  0  0  0  0  0  0  0  0  0  0  0
  150.6955  141.8706  155.7067 H   0  0  0  0  0  0  0  0  0  0  0  0
  151.9730  140.7382  155.3092 H   0  0  0  0  0  0  0  0  0  0  0  0
  149.4380  140.0622  154.5932 H   0  0  0  0  0  0  0  0  0  0  0  0
  148.2822  139.1463  156.7644 H   0  0  0  0  0  0  0  0  0  0  0  0
  148.6731  140.8684  156.9672 H   0  0  0  0  0  0  0  0  0  0  0  0
  149.6659  137.7167  155.2823 H   0  0  0  0  0  0  0  0  0  0  0  0
  151.7494  138.7073  153.8184 H   0  0  0  0  0  0  0  0  0  0  0  0
  152.6194  138.1814  155.2380 H   0  0  0  0  0  0  0  0  0  0  0  0
  151.5929  136.6971  153.2999 H   0  0  0  0  0  0  0  0  0  0  0  0
  1  2  2  0  0  0  0
  2  3  1  0  0  0  0
  2  9  1  0  0  0  0
  3  4  1  0  0  0  0
  4  8  1  0  0  0  0
  4  5  2  0  0  0  0
  5  6  1  0  0  0  0
  6  7  2  0  0  0  0
  7  8  1  0  0  0  0
  7 19  1  0  0  0  0
  9 10  1  0  0  0  0
  9 20  1  0  0  0  0
 10 16  1  0  0  0  0
 10 11  1  0  0  0  0
 10 21  1  0  0  0  0
 11 15  1  0  0  0  0
 11 12  1  0  0  0  0
 11 22  1  0  0  0  0
 12 13  1  0  0  0  0
 12 23  1  0  0  0  0
 12 24  1  0  0  0  0
 13 14  1  0  0  0  0
 13 25  1  0  0  0  0
 13 26  1  0  0  0  0
 14 15  1  0  0  0  0
 14 16  1  0  0  0  0
 14 27  1  0  0  0  0
 15 28  1  0  0  0  0
 15 29  1  0  0  0  0
 16 17  1  0  0  0  0
 16 30  1  0  0  0  0
 17 18  1  0  0  0  0
 17 31  1  0  0  0  0
 17 32  1  0  0  0  0
 18 33  1  0  0  0  0
M  CHG  1   3  -1
M  END
> <s_m_source_file>
AV-unprocessed.smi

> <i_m_source_file_index>
798

> <i_lp_mmshare_version>
43012

> <i_f3d_flags>
0

> <s_epik_input>
W0NIMl0xW0NIMl1bQ0BASF0oW0NIMl0yKVtDQEBIXShbQ0gyXVtPSF0pW0NAQEhdKFtDQEhdMTIpW05IXUMoPU8pW05IXWMzbm5bY0hdczM=

> <s_epik_cmdline>
J2VwaWtfcHl0aG9uJywgJy1waCcsICc3LjAnLCAnLXRuJywgJzgnLCAnLW1hJywgJzIwMCcsICctbWV0YWxfYmluZGluZycsICctaW1hZScsICc8aW5maWxlLm1hZT4nLCAnLW9tYWUnLCAnPG91dGZpbGUubWFlPic=

> <r_lp_tautomer_probability>
1

> <r_epik_Ionization_Penalty>
4.53732

> <r_epik_Ionization_Penalty_Charging>
4.48632

> <r_epik_Ionization_Penalty_Neutral>
0.0510007

> <r_epik_State_Penalty>
4.48602

> <r_epik_Charging_Adjusted_Penalty>
8.97234

> <i_epik_Tot_Q>
-1

> <i_epik_Tot_abs_Q>
1

> <r_epik_Metal_State_Penalty>
0.812492

> <b_epik_Metal_Only>
1

> <s_lp_Force_Field>
OPLS_2005

> <r_lp_Energy>
47.3134

> <b_lp_Chiralities_Consistent>
1

> <s_lp_Variant>
AV-unprocessed.smi:798-11

> <Gold.Version>
5.8.1

> <Gold.Id.Protein>
6NUR|6NUR_protein|mol2

> <Gold.PLP.Fitness>
40.5339

> <Gold.PLP.PLP>
-27.2328

> <Gold.PLP.part.hbond>
-5.0000

> <Gold.PLP.part.metal>
0.0000

> <Gold.PLP.part.buried>
-5.3989

> <Gold.PLP.part.nonpolar>
-18.5045

> <Gold.PLP.part.repulsive>
0.0585

> <Gold.PLP.ligand.clash>
0.0000

> <Gold.PLP.ligand.torsion>
0.7883

> <Gold.PLP.Chemscore.Hbond>
4.9500

> <Gold.PLP.Chemscore.CHOScore>
0.0000

> <Gold.PLP.Chemscore.Metal>
0.0000

> <Gold.Chemscore.Hbonds>
donor molecule, donor type, donor heavy atom, donor atom, acceptor molecule, acceptor atom, score
      L1  H    18    33       P1  7949  1.00
      P1  H  6896  6908       L1     3  2.00
      P1  H  6931  6943       L1     5  0.95
      P1  H 10752 10764       L1    18  1.00

> <Gold.PLP.Chemscore.Internal.Correction>
0.0276

> <Gold.Rescore>
     Score         DG    S(hbond)    S(metal)    S(lipo)     H(rot)  DE(clash)    DE(int)     intcor
     11.29     -15.31       2.53        0.00      53.83       1.92       0.02       3.99       ----

> <Gold.Chemscore.Fitness>
11.2924

> <Gold.Chemscore.DG>
-15.3056

> <Gold.Chemscore.ZeroCoef>
-5.4800

> <Gold.Chemscore.Hbond>
2.5281

> <Gold.Chemscore.Metal>
0.0000

> <Gold.Chemscore.Lipo>
53.8338

> <Gold.Chemscore.Internal_Hbond>
0.0000

> <Gold.Chemscore.DEClash>
0.0234

> <Gold.Chemscore.DEInternal>
3.9898

> <Gold.Chemscore.Rot>
1.9207

> <Gold.Chemscore.Internal.Correction>
   9.000000E+99

> <Gold.Chemscore.Hbonds>
donor molecule, donor type, donor heavy atom, donor atom, acceptor molecule, acceptor atom, score
      L1  H    18    33       P1  7949  0.91
      P1  H  6896  6908       L1     3  0.10
      P1  H  6931  6943       L1     5  0.20
      P1  H 10752 10764       L1    18  0.37

> <Gold.Chemscore.Hbond.Weighted>
-8.4439

> <Gold.Chemscore.Metal.Weighted>
-0.0000

> <Gold.Chemscore.Lipo.Weighted>
-6.2986

> <Gold.Chemscore.Internal_Hbond.Weighted>
0.0000

> <Gold.Chemscore.DEClash.Weighted>
0.0234

> <Gold.Chemscore.DEInternal.Weighted>
3.9898

> <Gold.Chemscore.Rot.Weighted>
4.9169

> <Gold.Chemscore.Internal.Correction.Weighted>
   9.000000E+99

> <Gold.Protein.RotatedTorsions>
[ 6907 6896 6895 6894 ] final  161.65 input  -60.11 | X-H torsion
[ 7974 7965 7964 7962 ] final -165.54 input  175.53 | X-H torsion
[ 8008 7997 7996 7995 ] final -177.55 input   59.86 | X-H torsion
[ 10167 10162 10161 10158 ] final -108.72 input  -65.29 | X-H torsion
[ 10718 10713 10712 10709 ] final   25.39 input   66.30 | X-H torsion
[ 10763 10752 10751 10750 ] final  -59.06 input  -60.55 | X-H torsion
[ 11005 11000 10999 10996 ] final   48.22 input  -57.11 | X-H torsion

> <Gold.Protein.ActiveResidues>
 VAL166  LYS551  ARG553  GLY616  TRP617  ASP618  TYR619  PRO620  LYS621  CYS622 
 ASP623  PHE694  ASN695  SER759  ASP760  ASP761  ALA762  ILE779  LEU786  VAL792 
 PHE793  MET794  SER795  GLU796  ALA797  LYS798  CYS799  TRP800  GLU811  SER814 

> <Gold.Protein.RotatedAtoms>
  151.9523  133.3670  159.4004 H   0  0  0  0  0  0  0  0  0  0  0  0  # atno 6907 bound_to 6896
  150.6978  134.4327  159.5265 H   0  0  0  0  0  0  0  0  0  0  0  0  # atno 6908 bound_to 6896
  152.2002  134.8594  160.0559 H   0  0  0  0  0  0  0  0  0  0  0  0  # atno 6909 bound_to 6896
  144.7267  140.2798  143.6237 H   0  0  0  0  0  0  0  0  0  0  0  0  # atno 7974 bound_to 7965
  156.0083  140.1235  157.0479 H   0  0  0  0  0  0  0  0  0  0  0  0  # atno 8008 bound_to 7997
  154.4266  140.1093  156.5862 H   0  0  0  0  0  0  0  0  0  0  0  0  # atno 8009 bound_to 7997
  155.6116  140.3471  155.4626 H   0  0  0  0  0  0  0  0  0  0  0  0  # atno 8010 bound_to 7997
  140.1630  143.4104  152.1411 H   0  0  0  0  0  0  0  0  0  0  0  0  # atno 10167 bound_to 10162
  157.1927  130.6853  149.6156 H   0  0  0  0  0  0  0  0  0  0  0  0  # atno 10718 bound_to 10713
  154.2478  135.6331  153.5229 H   0  0  0  0  0  0  0  0  0  0  0  0  # atno 10763 bound_to 10752
  152.9918  135.5557  154.5841 H   0  0  0  0  0  0  0  0  0  0  0  0  # atno 10764 bound_to 10752
  154.5361  135.2891  155.1112 H   0  0  0  0  0  0  0  0  0  0  0  0  # atno 10765 bound_to 10752
  140.1210  134.4830  155.8598 H   0  0  0  0  0  0  0  0  0  0  0  0  # atno 11005 bound_to 11000
  145.7960  139.1945  143.2075 LP  0  0  0  0  0  0  0  0  0  0  0  0  # atno 17320 bound_to 7965
  146.0716  140.7863  142.9685 LP  0  0  0  0  0  0  0  0  0  0  0  0  # atno 17321 bound_to 7965
  139.5372  144.7221  151.4853 LP  0  0  0  0  0  0  0  0  0  0  0  0  # atno 17342 bound_to 10162
  140.6631  143.8457  150.6910 LP  0  0  0  0  0  0  0  0  0  0  0  0  # atno 17343 bound_to 10162
  155.9710  130.4609  150.6090 LP  0  0  0  0  0  0  0  0  0  0  0  0  # atno 17370 bound_to 10713
  157.3845  131.0786  151.1448 LP  0  0  0  0  0  0  0  0  0  0  0  0  # atno 17371 bound_to 10713
  141.2151  133.6760  156.6888 LP  0  0  0  0  0  0  0  0  0  0  0  0  # atno 17394 bound_to 11000
  140.2966  134.8198  157.4062 LP  0  0  0  0  0  0  0  0  0  0  0  0  # atno 17395 bound_to 11000

$$$$
