AV-unprocessed.smi:1703|AV-procd|sdf|6858|dock7
  -GOLD-   22720 8 43D 1   1.00000     0.00000
 Structure written by MMmdl.
 48 50  0  0  0  0  0  0  0  0  1 V2000
  146.7702  138.3263  152.6727 C   0  0  0  0  0  0  0  0  0  0  0  0
  147.1225  139.3601  153.7473 C   0  0  1  0  0  0  0  0  0  0  0  0
  148.5888  139.2465  154.2016 C   0  0  0  0  0  0  0  0  0  0  0  0
  148.9455  140.2824  155.1632 N   0  0  0  0  0  0  0  0  0  0  0  0
  150.3309  140.1236  155.6075 C   0  0  0  0  0  0  0  0  0  0  0  0
  150.6026  140.4969  157.0817 C   0  0  1  0  0  0  0  0  0  0  0  0
  149.8931  139.5965  157.9072 O   0  0  0  0  0  0  0  0  0  0  0  0
  152.0912  140.4101  157.4767 C   0  0  0  0  0  0  0  0  0  0  0  0
  152.3937  141.0981  158.7251 N   0  0  0  0  0  0  0  0  0  0  0  0
  153.0233  140.6058  159.8219 C   0  0  0  0  0  0  0  0  0  0  0  0
  153.5330  139.1987  159.8893 C   0  0  0  0  0  0  0  0  0  0  0  0
  154.4303  138.8944  158.8430 O   0  0  0  0  0  0  0  0  0  0  0  0
  153.1720  141.4574  160.8373 N   0  0  0  0  0  0  0  0  0  0  0  0
  152.5933  142.6136  160.3516 C   0  0  0  0  0  0  0  0  0  0  0  0
  152.4349  143.8832  160.9517 C   0  0  0  0  0  0  0  0  0  0  0  0
  151.8010  144.9303  160.2512 C   0  0  0  0  0  0  0  0  0  0  0  0
  151.3174  144.7236  158.9432 C   0  0  0  0  0  0  0  0  0  0  0  0
  151.4659  143.4665  158.3261 C   0  0  0  0  0  0  0  0  0  0  0  0
  152.0988  142.4239  159.0300 C   0  0  0  0  0  0  0  0  0  0  0  0
  148.6941  141.5908  154.5607 C   0  0  0  0  0  0  0  0  0  0  0  0
  147.2444  141.7472  154.0590 C   0  0  2  0  0  0  0  0  0  0  0  0
  146.2238  141.9292  155.1956 C   0  0  0  0  0  0  0  0  0  0  0  0
  146.8948  140.6587  153.2028 O   0  0  0  0  0  0  0  0  0  0  0  0
  146.9181  137.3109  153.0409 H   0  0  0  0  0  0  0  0  0  0  0  0
  147.3890  138.4547  151.7841 H   0  0  0  0  0  0  0  0  0  0  0  0
  145.7273  138.4209  152.3689 H   0  0  0  0  0  0  0  0  0  0  0  0
  146.4630  139.2049  154.6016 H   0  0  0  0  0  0  0  0  0  0  0  0
  148.7493  138.2625  154.6442 H   0  0  0  0  0  0  0  0  0  0  0  0
  149.2470  139.3079  153.3331 H   0  0  0  0  0  0  0  0  0  0  0  0
  150.6394  139.0868  155.4635 H   0  0  0  0  0  0  0  0  0  0  0  0
  150.9722  140.7153  154.9539 H   0  0  0  0  0  0  0  0  0  0  0  0
  150.2455  141.5024  157.2953 H   0  0  0  0  0  0  0  0  0  0  0  0
  149.8852  138.7506  157.4852 H   0  0  0  0  0  0  0  0  0  0  0  0
  152.3995  139.3681  157.5672 H   0  0  0  0  0  0  0  0  0  0  0  0
  152.7138  140.8378  156.6898 H   0  0  0  0  0  0  0  0  0  0  0  0
  154.0438  139.0461  160.8407 H   0  0  0  0  0  0  0  0  0  0  0  0
  152.6997  138.4977  159.8675 H   0  0  0  0  0  0  0  0  0  0  0  0
  154.6792  137.9859  158.9161 H   0  0  0  0  0  0  0  0  0  0  0  0
  152.8024  144.0517  161.9532 H   0  0  0  0  0  0  0  0  0  0  0  0
  151.6855  145.8967  160.7197 H   0  0  0  0  0  0  0  0  0  0  0  0
  150.8325  145.5305  158.4136 H   0  0  0  0  0  0  0  0  0  0  0  0
  151.0948  143.3054  157.3249 H   0  0  0  0  0  0  0  0  0  0  0  0
  148.9055  142.3902  155.2692 H   0  0  0  0  0  0  0  0  0  0  0  0
  149.3745  141.7376  153.7203 H   0  0  0  0  0  0  0  0  0  0  0  0
  147.1986  142.6464  153.4442 H   0  0  0  0  0  0  0  0  0  0  0  0
  146.4357  142.8351  155.7640 H   0  0  0  0  0  0  0  0  0  0  0  0
  146.2375  141.0951  155.8970 H   0  0  0  0  0  0  0  0  0  0  0  0
  145.2119  142.0172  154.7997 H   0  0  0  0  0  0  0  0  0  0  0  0
  1  2  1  0  0  0  0
  1 24  1  0  0  0  0
  1 25  1  0  0  0  0
  1 26  1  0  0  0  0
  2 23  1  0  0  0  0
  2  3  1  0  0  0  0
  2 27  1  0  0  0  0
  3  4  1  0  0  0  0
  3 28  1  0  0  0  0
  3 29  1  0  0  0  0
  4  5  1  0  0  0  0
  4 20  1  0  0  0  0
  5  6  1  0  0  0  0
  5 30  1  0  0  0  0
  5 31  1  0  0  0  0
  6  7  1  0  0  0  0
  6  8  1  0  0  0  0
  6 32  1  0  0  0  0
  7 33  1  0  0  0  0
  8  9  1  0  0  0  0
  8 34  1  0  0  0  0
  8 35  1  0  0  0  0
  9 19  1  0  0  0  0
  9 10  1  0  0  0  0
 10 11  1  0  0  0  0
 10 13  2  0  0  0  0
 11 12  1  0  0  0  0
 11 36  1  0  0  0  0
 11 37  1  0  0  0  0
 12 38  1  0  0  0  0
 13 14  1  0  0  0  0
 14 19  2  0  0  0  0
 14 15  1  0  0  0  0
 15 16  2  0  0  0  0
 15 39  1  0  0  0  0
 16 17  1  0  0  0  0
 16 40  1  0  0  0  0
 17 18  2  0  0  0  0
 17 41  1  0  0  0  0
 18 19  1  0  0  0  0
 18 42  1  0  0  0  0
 20 21  1  0  0  0  0
 20 43  1  0  0  0  0
 20 44  1  0  0  0  0
 21 22  1  0  0  0  0
 21 23  1  0  0  0  0
 21 45  1  0  0  0  0
 22 46  1  0  0  0  0
 22 47  1  0  0  0  0
 22 48  1  0  0  0  0
M  END
> <s_m_source_file>
AV-unprocessed.smi

> <i_m_source_file_index>
1703

> <i_lp_mmshare_version>
43012

> <i_f3d_flags>
0

> <s_epik_input>
W0NIM11bQ0BASF0xW0NIMl1OKFtDSDJdW0NASF0oTzEpW0NIM10pW0NIMl1bQ0BIXShbT0hdKVtDSDJdbihjKG4yKVtDSDJdW09IXSljKGMyMylbY0hdW2NIXVtjSF1bY0hdMw==

> <s_epik_cmdline>
J2VwaWtfcHl0aG9uJywgJy1waCcsICc3LjAnLCAnLXRuJywgJzgnLCAnLW1hJywgJzIwMCcsICctbWV0YWxfYmluZGluZycsICctaW1hZScsICc8aW5maWxlLm1hZT4nLCAnLW9tYWUnLCAnPG91dGZpbGUubWFlPic=

> <r_epik_Ionization_Penalty>
0.307685

> <r_epik_Ionization_Penalty_Charging>
0

> <r_epik_Ionization_Penalty_Neutral>
0.307685

> <r_epik_State_Penalty>
0.277856

> <r_epik_Charging_Adjusted_Penalty>
0.277856

> <i_epik_Tot_Q>
0

> <i_epik_Tot_abs_Q>
0

> <r_epik_Metal_State_Penalty>
0.238959

> <b_epik_Metal_Only>
0

> <s_lp_Force_Field>
OPLS_2005

> <r_lp_Energy>
33.4596

> <b_lp_Chiralities_Consistent>
1

> <s_lp_Variant>
AV-unprocessed.smi:1703-6

> <Gold.Version>
5.8.1

> <Gold.Id.Protein>
6NUR|6NUR_protein|mol2

> <Gold.PLP.Fitness>
50.5194

> <Gold.PLP.PLP>
-48.7304

> <Gold.PLP.part.hbond>
-1.0000

> <Gold.PLP.part.metal>
0.0000

> <Gold.PLP.part.buried>
-5.0924

> <Gold.PLP.part.nonpolar>
-42.4798

> <Gold.PLP.part.repulsive>
0.2826

> <Gold.PLP.ligand.clash>
0.0000

> <Gold.PLP.ligand.torsion>
0.6378

> <Gold.PLP.Chemscore.Hbond>
1.0000

> <Gold.PLP.Chemscore.CHOScore>
0.0000

> <Gold.PLP.Chemscore.Metal>
0.0000

> <Gold.Chemscore.Hbonds>
donor molecule, donor type, donor heavy atom, donor atom, acceptor molecule, acceptor atom, score
      P1  H  7997  8010       L1    12  0.93

> <Gold.PLP.Chemscore.Internal.Correction>
0.0646

> <Gold.Rescore>
     Score         DG    S(hbond)    S(metal)    S(lipo)     H(rot)  DE(clash)    DE(int)     intcor
     14.81     -15.67       0.81        0.00     126.82       2.88       0.06       0.80       ----

> <Gold.Chemscore.Fitness>
14.8098

> <Gold.Chemscore.DG>
-15.6689

> <Gold.Chemscore.ZeroCoef>
-5.4800

> <Gold.Chemscore.Hbond>
0.8136

> <Gold.Chemscore.Metal>
0.0000

> <Gold.Chemscore.Lipo>
126.8247

> <Gold.Chemscore.Internal_Hbond>
0.0000

> <Gold.Chemscore.DEClash>
0.0559

> <Gold.Chemscore.DEInternal>
0.8033

> <Gold.Chemscore.Rot>
2.8778

> <Gold.Chemscore.Internal.Correction>
   9.000000E+99

> <Gold.Chemscore.Hbonds>
donor molecule, donor type, donor heavy atom, donor atom, acceptor molecule, acceptor atom, score
      P1  H  7997  8010       L1    12  0.80

> <Gold.Chemscore.Hbond.Weighted>
-2.7175

> <Gold.Chemscore.Metal.Weighted>
-0.0000

> <Gold.Chemscore.Lipo.Weighted>
-14.8385

> <Gold.Chemscore.Internal_Hbond.Weighted>
0.0000

> <Gold.Chemscore.DEClash.Weighted>
0.0559

> <Gold.Chemscore.DEInternal.Weighted>
0.8033

> <Gold.Chemscore.Rot.Weighted>
7.3671

> <Gold.Chemscore.Internal.Correction.Weighted>
   9.000000E+99

> <Gold.Protein.RotatedTorsions>
[ 6907 6896 6895 6894 ] final   36.01 input  -60.11 | X-H torsion
[ 7974 7965 7964 7962 ] final  176.23 input  175.53 | X-H torsion
[ 8008 7997 7996 7995 ] final  -13.76 input   59.86 | X-H torsion
[ 10167 10162 10161 10158 ] final  -27.12 input  -65.29 | X-H torsion
[ 10718 10713 10712 10709 ] final  -84.27 input   66.30 | X-H torsion
[ 10763 10752 10751 10750 ] final  167.43 input  -60.55 | X-H torsion
[ 11005 11000 10999 10996 ] final  -87.84 input  -57.11 | X-H torsion

> <Gold.Protein.ActiveResidues>
 VAL166  LYS551  ARG553  GLY616  TRP617  ASP618  TYR619  PRO620  LYS621  CYS622 
 ASP623  PHE694  ASN695  SER759  ASP760  ASP761  ALA762  ILE779  LEU786  VAL792 
 PHE793  MET794  SER795  GLU796  ALA797  LYS798  CYS799  TRP800  GLU811  SER814 

> <Gold.Protein.RotatedAtoms>
  152.1239  134.9185  160.0561 H   0  0  0  0  0  0  0  0  0  0  0  0  # atno 6907 bound_to 6896
  152.0316  133.3935  159.4308 H   0  0  0  0  0  0  0  0  0  0  0  0  # atno 6908 bound_to 6896
  150.6851  134.3436  159.4922 H   0  0  0  0  0  0  0  0  0  0  0  0  # atno 6909 bound_to 6896
  144.7188  140.0065  143.6440 H   0  0  0  0  0  0  0  0  0  0  0  0  # atno 7974 bound_to 7965
  154.5266  140.2241  155.8879 H   0  0  0  0  0  0  0  0  0  0  0  0  # atno 8008 bound_to 7997
  156.1719  140.3120  155.8954 H   0  0  0  0  0  0  0  0  0  0  0  0  # atno 8009 bound_to 7997
  155.3539  140.0457  157.3037 H   0  0  0  0  0  0  0  0  0  0  0  0  # atno 8010 bound_to 7997
  140.7279  143.4120  151.1090 H   0  0  0  0  0  0  0  0  0  0  0  0  # atno 10167 bound_to 10162
  156.0008  130.4692  150.4385 H   0  0  0  0  0  0  0  0  0  0  0  0  # atno 10718 bound_to 10713
  154.3536  135.2753  155.2358 H   0  0  0  0  0  0  0  0  0  0  0  0  # atno 10763 bound_to 10752
  154.4577  135.5915  153.6237 H   0  0  0  0  0  0  0  0  0  0  0  0  # atno 10764 bound_to 10752
  152.9848  135.6057  154.3750 H   0  0  0  0  0  0  0  0  0  0  0  0  # atno 10765 bound_to 10752
  141.1611  133.7535  156.9365 H   0  0  0  0  0  0  0  0  0  0  0  0  # atno 11005 bound_to 11000
  146.0293  139.3320  143.0765 LP  0  0  0  0  0  0  0  0  0  0  0  0  # atno 17320 bound_to 7965
  145.8473  140.9548  143.0768 LP  0  0  0  0  0  0  0  0  0  0  0  0  # atno 17321 bound_to 7965
  139.7755  143.8432  152.3128 LP  0  0  0  0  0  0  0  0  0  0  0  0  # atno 17342 bound_to 10162
  139.8365  144.7230  150.9384 LP  0  0  0  0  0  0  0  0  0  0  0  0  # atno 17343 bound_to 10162
  157.2428  131.0529  151.2426 LP  0  0  0  0  0  0  0  0  0  0  0  0  # atno 17370 bound_to 10713
  157.3604  130.7128  149.6498 LP  0  0  0  0  0  0  0  0  0  0  0  0  # atno 17371 bound_to 10713
  140.1351  134.9330  157.2390 LP  0  0  0  0  0  0  0  0  0  0  0  0  # atno 17394 bound_to 11000
  140.2905  134.3246  155.7316 LP  0  0  0  0  0  0  0  0  0  0  0  0  # atno 17395 bound_to 11000

$$$$
