AV-unprocessed.smi:66|AV-procd|sdf|622|dock2
  -GOLD-   2262016513D 1   1.00000     0.00000
 Structure written by MMmdl.
 28 30  0  0  0  0  0  0  0  0  2 V2000
  152.2024  141.3100  157.9684 O   0  0  0  0  0  0  0  0  0  0  0  0
  152.1095  140.3349  157.1918 C   0  0  0  0  0  0  0  0  0  0  0  0
  153.0387  139.5480  156.9017 O   0  5  0  0  0  0  0  0  0  0  0  0
  150.7380  140.0911  156.5498 C   0  0  1  0  0  0  0  0  0  0  0  0
  150.3285  141.2033  155.5758 C   0  0  0  0  0  0  0  0  0  0  0  0
  149.3685  140.4685  154.6457 C   0  0  1  0  0  0  0  0  0  0  0  0
  149.2131  141.1151  153.4001 O   0  0  0  0  0  0  0  0  0  0  0  0
  150.0069  139.0836  154.5140 C   0  0  0  0  0  0  0  0  0  0  0  0
  150.7276  138.8581  155.7614 N   0  0  0  0  0  0  0  0  0  0  0  0
  150.4037  137.6683  156.4300 C   0  0  0  0  0  0  0  0  0  0  0  0
  150.0701  137.6848  157.7418 N   0  0  0  0  0  0  0  0  0  0  0  0
  149.7504  136.5159  158.3154 C   0  0  0  0  0  0  0  0  0  0  0  0
  149.6967  135.2884  157.7702 N   0  0  0  0  0  0  0  0  0  0  0  0
  150.0189  135.2668  156.4689 C   0  0  0  0  0  0  0  0  0  0  0  0
  150.0485  134.1500  155.6440 N   0  0  0  0  0  0  0  0  0  0  0  0
  150.4243  134.6776  154.4782 C   0  0  0  0  0  0  0  0  0  0  0  0
  150.6348  136.0046  154.4603 N   0  0  0  0  0  0  0  0  0  0  0  0
  150.3804  136.4416  155.7481 C   0  0  0  0  0  0  0  0  0  0  0  0
  150.9322  136.5470  153.6616 H   0  0  0  0  0  0  0  0  0  0  0  0
  149.9882  140.0328  157.3400 H   0  0  0  0  0  0  0  0  0  0  0  0
  149.8625  142.0523  156.0770 H   0  0  0  0  0  0  0  0  0  0  0  0
  151.1895  141.5712  155.0140 H   0  0  0  0  0  0  0  0  0  0  0  0
  148.3948  140.3775  155.1296 H   0  0  0  0  0  0  0  0  0  0  0  0
  149.0536  140.4572  152.7408 H   0  0  0  0  0  0  0  0  0  0  0  0
  149.2603  138.3172  154.2984 H   0  0  0  0  0  0  0  0  0  0  0  0
  150.7386  139.0672  153.7050 H   0  0  0  0  0  0  0  0  0  0  0  0
  149.4955  136.5691  159.3634 H   0  0  0  0  0  0  0  0  0  0  0  0
  150.5540  134.0698  153.5948 H   0  0  0  0  0  0  0  0  0  0  0  0
  1  2  2  0  0  0  0
  2  3  1  0  0  0  0
  2  4  1  0  0  0  0
  4  9  1  0  0  0  0
  4  5  1  0  0  0  0
  4 20  1  0  0  0  0
  5  6  1  0  0  0  0
  5 21  1  0  0  0  0
  5 22  1  0  0  0  0
  6  7  1  0  0  0  0
  6  8  1  0  0  0  0
  6 23  1  0  0  0  0
  7 24  1  0  0  0  0
  8  9  1  0  0  0  0
  8 25  1  0  0  0  0
  8 26  1  0  0  0  0
  9 10  1  0  0  0  0
 10 18  1  0  0  0  0
 10 11  2  0  0  0  0
 11 12  1  0  0  0  0
 12 13  2  0  0  0  0
 12 27  1  0  0  0  0
 13 14  1  0  0  0  0
 14 18  2  0  0  0  0
 14 15  1  0  0  0  0
 15 16  2  0  0  0  0
 16 17  1  0  0  0  0
 16 28  1  0  0  0  0
 17 19  1  0  0  0  0
 17 18  1  0  0  0  0
M  CHG  1   3  -1
M  END
> <s_m_source_file>
AV-unprocessed.smi

> <i_m_source_file_index>
66

> <i_lp_mmshare_version>
43012

> <i_f3d_flags>
0

> <s_epik_input>
Tz1DKFtPSF0pW0NAQEhdMVtDSDJdW0NAQEhdKFtPSF0pW0NIMl1OMWMobltjSF1uMiljKGMyMylbbkhdW2NIXW4z

> <s_epik_cmdline>
J2VwaWtfcHl0aG9uJywgJy1waCcsICc3LjAnLCAnLXRuJywgJzgnLCAnLW1hJywgJzIwMCcsICctbWV0YWxfYmluZGluZycsICctaW1hZScsICc8aW5maWxlLm1hZT4nLCAnLW9tYWUnLCAnPG91dGZpbGUubWFlPic=

> <r_lp_tautomer_probability>
0.0419193

> <r_epik_Ionization_Penalty>
0.0157405

> <r_epik_Ionization_Penalty_Charging>
0.000248217

> <r_epik_Ionization_Penalty_Neutral>
0.0154923

> <r_epik_State_Penalty>
1.99742

> <r_epik_Charging_Adjusted_Penalty>
1.99767

> <i_epik_Tot_Q>
-1

> <i_epik_Tot_abs_Q>
1

> <r_epik_Metal_State_Penalty>
2.31035

> <b_epik_Metal_Only>
0

> <s_lp_Force_Field>
OPLS_2005

> <r_lp_Energy>
24.7496

> <b_lp_Chiralities_Consistent>
1

> <s_lp_Variant>
AV-unprocessed.smi:66-6

> <Gold.Version>
5.8.1

> <Gold.Id.Protein>
6NUR|6NUR_protein|mol2

> <Gold.PLP.Fitness>
36.6468

> <Gold.PLP.PLP>
-23.2788

> <Gold.PLP.part.hbond>
-6.3672

> <Gold.PLP.part.metal>
0.0000

> <Gold.PLP.part.buried>
-3.5180

> <Gold.PLP.part.nonpolar>
-13.3318

> <Gold.PLP.part.repulsive>
0.1240

> <Gold.PLP.ligand.clash>
0.0000

> <Gold.PLP.ligand.torsion>
0.1626

> <Gold.PLP.Chemscore.Hbond>
4.5210

> <Gold.PLP.Chemscore.CHOScore>
0.0000

> <Gold.PLP.Chemscore.Metal>
0.0000

> <Gold.Chemscore.Hbonds>
donor molecule, donor type, donor heavy atom, donor atom, acceptor molecule, acceptor atom, score
      L1  H     7    24       P1  7957  0.77
      L1  H    17    19       P1  7949  0.26
      P1  H  6896  6907       L1    13  0.56
      P1  H  7997  8008       L1     3  1.95
      P1  H  8011  8017       L1     7  0.90
      L1  C    16    28       P1  7949  0.01

> <Gold.PLP.Chemscore.Internal.Correction>
0.1301

> <Gold.Rescore>
     Score         DG    S(hbond)    S(metal)    S(lipo)     H(rot)  DE(clash)    DE(int)     intcor
     12.27     -12.41       2.93        0.00      29.77       2.48       0.06       0.08       ----

> <Gold.Chemscore.Fitness>
12.2704

> <Gold.Chemscore.DG>
-12.4109

> <Gold.Chemscore.ZeroCoef>
-5.4800

> <Gold.Chemscore.Hbond>
2.9303

> <Gold.Chemscore.Metal>
0.0000

> <Gold.Chemscore.Lipo>
29.7664

> <Gold.Chemscore.Internal_Hbond>
0.0000

> <Gold.Chemscore.DEClash>
0.0588

> <Gold.Chemscore.DEInternal>
0.0817

> <Gold.Chemscore.Rot>
2.4762

> <Gold.Chemscore.Internal.Correction>
   9.000000E+99

> <Gold.Chemscore.Hbonds>
donor molecule, donor type, donor heavy atom, donor atom, acceptor molecule, acceptor atom, score
      L1  H     7    24       P1  7957  0.78
      L1  H    17    19       P1  7949  0.06
      P1  H  6896  6907       L1    13  0.09
      P1  H  7997  8008       L1     3  0.87
      P1  H  8011  8017       L1     7  0.17

> <Gold.Chemscore.Hbond.Weighted>
-9.7873

> <Gold.Chemscore.Metal.Weighted>
-0.0000

> <Gold.Chemscore.Lipo.Weighted>
-3.4827

> <Gold.Chemscore.Internal_Hbond.Weighted>
0.0000

> <Gold.Chemscore.DEClash.Weighted>
0.0588

> <Gold.Chemscore.DEInternal.Weighted>
0.0817

> <Gold.Chemscore.Rot.Weighted>
6.3391

> <Gold.Chemscore.Internal.Correction.Weighted>
   9.000000E+99

> <Gold.Protein.RotatedTorsions>
[ 6907 6896 6895 6894 ] final  -91.97 input  -60.11 | X-H torsion
[ 7974 7965 7964 7962 ] final  -55.44 input  175.53 | X-H torsion
[ 8008 7997 7996 7995 ] final  -42.96 input   59.86 | X-H torsion
[ 10167 10162 10161 10158 ] final -162.28 input  -65.29 | X-H torsion
[ 10718 10713 10712 10709 ] final  -94.33 input   66.30 | X-H torsion
[ 10763 10752 10751 10750 ] final  174.99 input  -60.55 | X-H torsion
[ 11005 11000 10999 10996 ] final  -24.78 input  -57.11 | X-H torsion

> <Gold.Protein.ActiveResidues>
 VAL166  LYS551  ARG553  GLY616  TRP617  ASP618  TYR619  PRO620  LYS621  CYS622 
 ASP623  PHE694  ASN695  SER759  ASP760  ASP761  ALA762  ILE779  LEU786  VAL792 
 PHE793  MET794  SER795  GLU796  ALA797  LYS798  CYS799  TRP800  GLU811  SER814 

> <Gold.Protein.RotatedAtoms>
  150.6899  134.2194  159.4390 H   0  0  0  0  0  0  0  0  0  0  0  0  # atno 6907 bound_to 6896
  152.0151  134.9852  160.0578 H   0  0  0  0  0  0  0  0  0  0  0  0  # atno 6908 bound_to 6896
  152.1451  133.4452  159.4823 H   0  0  0  0  0  0  0  0  0  0  0  0  # atno 6909 bound_to 6896
  145.8742  140.8193  142.9873 H   0  0  0  0  0  0  0  0  0  0  0  0  # atno 7974 bound_to 7965
  154.3997  140.1460  156.3440 H   0  0  0  0  0  0  0  0  0  0  0  0  # atno 8008 bound_to 7997
  155.8330  140.3465  155.5563 H   0  0  0  0  0  0  0  0  0  0  0  0  # atno 8009 bound_to 7997
  155.8168  140.0892  157.1862 H   0  0  0  0  0  0  0  0  0  0  0  0  # atno 8010 bound_to 7997
  139.6403  144.0272  152.2087 H   0  0  0  0  0  0  0  0  0  0  0  0  # atno 10167 bound_to 10162
  156.0025  130.5063  150.5910 H   0  0  0  0  0  0  0  0  0  0  0  0  # atno 10718 bound_to 10713
  154.4614  135.2768  155.1710 H   0  0  0  0  0  0  0  0  0  0  0  0  # atno 10763 bound_to 10752
  154.3496  135.6153  153.5640 H   0  0  0  0  0  0  0  0  0  0  0  0  # atno 10764 bound_to 10752
  152.9855  135.5808  154.4978 H   0  0  0  0  0  0  0  0  0  0  0  0  # atno 10765 bound_to 10752
  140.8877  133.7610  156.0381 H   0  0  0  0  0  0  0  0  0  0  0  0  # atno 11005 bound_to 11000
  144.6726  140.1285  143.7445 LP  0  0  0  0  0  0  0  0  0  0  0  0  # atno 17320 bound_to 7965
  145.9101  139.2482  143.1442 LP  0  0  0  0  0  0  0  0  0  0  0  0  # atno 17321 bound_to 7965
  139.9960  144.6328  150.7772 LP  0  0  0  0  0  0  0  0  0  0  0  0  # atno 17342 bound_to 10162
  140.7487  143.2927  151.3287 LP  0  0  0  0  0  0  0  0  0  0  0  0  # atno 17343 bound_to 10162
  157.3775  131.0775  151.1505 LP  0  0  0  0  0  0  0  0  0  0  0  0  # atno 17370 bound_to 10713
  157.2239  130.6494  149.5822 LP  0  0  0  0  0  0  0  0  0  0  0  0  # atno 17371 bound_to 10713
  140.8385  134.3095  157.5322 LP  0  0  0  0  0  0  0  0  0  0  0  0  # atno 17394 bound_to 11000
  139.8726  134.9403  156.3765 LP  0  0  0  0  0  0  0  0  0  0  0  0  # atno 17395 bound_to 11000

$$$$
