AV-unprocessed.smi:3274|AV-procd|sdf|12522|dock2
  -GOLD-   2272018433D 1   1.00000     0.00000
 Structure written by MMmdl.
 43 44  0  0  0  0  0  0  0  0  2 V2000
  151.9633  145.2908  157.1449 C   0  0  0  0  0  0  0  0  0  0  0  0
  152.0549  144.6145  158.5028 C   0  0  0  0  0  0  0  0  0  0  0  0
  151.9771  145.3366  159.6382 C   0  0  0  0  0  0  0  0  0  0  0  0
  152.1062  144.7657  161.0394 C   0  0  0  0  0  0  0  0  0  0  0  0
  152.1454  143.2289  161.0637 C   0  0  0  0  0  0  0  0  0  0  0  0
  152.9326  142.6683  159.8671 C   0  0  1  0  0  0  0  0  0  0  0  0
  153.1890  141.1573  160.0007 C   0  0  0  0  0  0  0  0  0  0  0  0
  152.2805  143.0960  158.5212 C   0  0  1  0  0  0  0  0  0  0  0  0
  150.9818  142.3117  158.1999 C   0  0  0  0  0  0  0  0  0  0  0  0
  150.4987  142.5452  156.8222 N   0  3  0  0  0  0  0  0  0  0  0  0
  149.5803  141.5151  156.2888 C   0  0  2  0  0  0  0  0  0  0  0  0
  150.0874  140.1219  156.6977 C   0  0  0  0  0  0  0  0  0  0  0  0
  149.4228  141.6565  154.7566 C   0  0  0  0  0  0  0  0  0  0  0  0
  148.5578  140.6446  154.1779 N   0  0  0  0  0  0  0  0  0  0  0  0
  148.6878  139.3180  154.1208 C   0  0  0  0  0  0  0  0  0  0  0  0
  147.6938  138.7104  153.4884 N   0  0  0  0  0  0  0  0  0  0  0  0
  146.9390  139.7978  153.1493 C   0  0  0  0  0  0  0  0  0  0  0  0
  147.4157  140.9819  153.5340 N   0  0  0  0  0  0  0  0  0  0  0  0
  152.7723  144.9573  156.4945 H   0  0  0  0  0  0  0  0  0  0  0  0
  152.0426  146.3741  157.2417 H   0  0  0  0  0  0  0  0  0  0  0  0
  151.0125  145.0803  156.6580 H   0  0  0  0  0  0  0  0  0  0  0  0
  151.8420  146.4071  159.5821 H   0  0  0  0  0  0  0  0  0  0  0  0
  153.0264  145.1626  161.4692 H   0  0  0  0  0  0  0  0  0  0  0  0
  151.2865  145.1307  161.6590 H   0  0  0  0  0  0  0  0  0  0  0  0
  152.5877  142.8950  162.0030 H   0  0  0  0  0  0  0  0  0  0  0  0
  151.1287  142.8352  161.0532 H   0  0  0  0  0  0  0  0  0  0  0  0
  153.9195  143.1344  159.8957 H   0  0  0  0  0  0  0  0  0  0  0  0
  152.2649  140.5950  160.1349 H   0  0  0  0  0  0  0  0  0  0  0  0
  153.8172  140.9488  160.8673 H   0  0  0  0  0  0  0  0  0  0  0  0
  153.7030  140.7643  159.1231 H   0  0  0  0  0  0  0  0  0  0  0  0
  153.0085  142.8702  157.7405 H   0  0  0  0  0  0  0  0  0  0  0  0
  151.1438  141.2390  158.2952 H   0  0  0  0  0  0  0  0  0  0  0  0
  150.2055  142.5791  158.9157 H   0  0  0  0  0  0  0  0  0  0  0  0
  150.0392  143.4436  156.7791 H   0  0  0  0  0  0  0  0  0  0  0  0
  148.6076  141.6579  156.7625 H   0  0  0  0  0  0  0  0  0  0  0  0
  149.3917  139.3372  156.3992 H   0  0  0  0  0  0  0  0  0  0  0  0
  150.2058  140.0502  157.7794 H   0  0  0  0  0  0  0  0  0  0  0  0
  151.0535  139.9016  156.2419 H   0  0  0  0  0  0  0  0  0  0  0  0
  149.0114  142.6303  154.4914 H   0  0  0  0  0  0  0  0  0  0  0  0
  150.3984  141.5898  154.2727 H   0  0  0  0  0  0  0  0  0  0  0  0
  149.5237  138.7851  154.5499 H   0  0  0  0  0  0  0  0  0  0  0  0
  146.0121  139.7147  152.6008 H   0  0  0  0  0  0  0  0  0  0  0  0
  151.3117  142.5741  156.2234 H   0  0  0  0  0  0  0  0  0  0  0  0
  1  2  1  0  0  0  0
  1 19  1  0  0  0  0
  1 20  1  0  0  0  0
  1 21  1  0  0  0  0
  2  8  1  0  0  0  0
  2  3  2  0  0  0  0
  3  4  1  0  0  0  0
  3 22  1  0  0  0  0
  4  5  1  0  0  0  0
  4 23  1  0  0  0  0
  4 24  1  0  0  0  0
  5  6  1  0  0  0  0
  5 25  1  0  0  0  0
  5 26  1  0  0  0  0
  6  7  1  0  0  0  0
  6  8  1  0  0  0  0
  6 27  1  0  0  0  0
  7 28  1  0  0  0  0
  7 29  1  0  0  0  0
  7 30  1  0  0  0  0
  8  9  1  0  0  0  0
  8 31  1  0  0  0  0
  9 10  1  0  0  0  0
  9 32  1  0  0  0  0
  9 33  1  0  0  0  0
 10 11  1  0  0  0  0
 10 34  1  0  0  0  0
 10 43  1  0  0  0  0
 11 12  1  0  0  0  0
 11 13  1  0  0  0  0
 11 35  1  0  0  0  0
 12 36  1  0  0  0  0
 12 37  1  0  0  0  0
 12 38  1  0  0  0  0
 13 14  1  0  0  0  0
 13 39  1  0  0  0  0
 13 40  1  0  0  0  0
 14 18  1  0  0  0  0
 14 15  1  0  0  0  0
 15 16  2  0  0  0  0
 15 41  1  0  0  0  0
 16 17  1  0  0  0  0
 17 18  2  0  0  0  0
 17 42  1  0  0  0  0
M  CHG  1  10   1
M  END
> <s_m_source_file>
AV-unprocessed.smi

> <i_m_source_file_index>
3274

> <i_lp_mmshare_version>
43012

> <i_f3d_flags>
0

> <s_epik_input>
W0NIM11DMT1bQ0hdW0NIMl1bQ0gyXVtDQEBIXShbQ0gzXSlbQ0BIXTFbQ0gyXVtOSF1bQ0BIXShbQ0gzXSlbQ0gyXW4yW2NIXW5bY0hdbjI=

> <s_epik_cmdline>
J2VwaWtfcHl0aG9uJywgJy1waCcsICc3LjAnLCAnLXRuJywgJzgnLCAnLW1hJywgJzIwMCcsICctbWV0YWxfYmluZGluZycsICctaW1hZScsICc8aW5maWxlLm1hZT4nLCAnLW9tYWUnLCAnPG91dGZpbGUubWFlPic=

> <r_lp_tautomer_probability>
1

> <r_epik_Ionization_Penalty>
0.0017527

> <r_epik_Ionization_Penalty_Charging>
0.00175191

> <r_epik_Ionization_Penalty_Neutral>
7.94565e-07

> <r_epik_State_Penalty>
0.00118605

> <r_epik_Charging_Adjusted_Penalty>
0.00293796

> <i_epik_Tot_Q>
1

> <i_epik_Tot_abs_Q>
1

> <r_epik_Metal_State_Penalty>
-0

> <b_epik_Metal_Only>
0

> <s_lp_Force_Field>
OPLS_2005

> <r_lp_Energy>
17.2811

> <b_lp_Chiralities_Consistent>
1

> <s_lp_Variant>
AV-unprocessed.smi:3274-1

> <Gold.Version>
5.8.1

> <Gold.Id.Protein>
6NUR|6NUR_protein|mol2

> <Gold.PLP.Fitness>
49.4733

> <Gold.PLP.PLP>
-41.1309

> <Gold.PLP.part.hbond>
-1.0000

> <Gold.PLP.part.metal>
0.0000

> <Gold.PLP.part.buried>
-2.8374

> <Gold.PLP.part.nonpolar>
-36.4869

> <Gold.PLP.part.repulsive>
0.4294

> <Gold.PLP.ligand.clash>
0.0000

> <Gold.PLP.ligand.torsion>
0.2739

> <Gold.PLP.Chemscore.Hbond>
1.9520

> <Gold.PLP.Chemscore.CHOScore>
1.0000

> <Gold.PLP.Chemscore.Metal>
0.0000

> <Gold.Chemscore.Hbonds>
donor molecule, donor type, donor heavy atom, donor atom, acceptor molecule, acceptor atom, score
      L1  H    10    34       P1  8028  1.81
      L1  C    17    42       P1 10175  1.00

> <Gold.PLP.Chemscore.Internal.Correction>
0.0341

> <Gold.Rescore>
     Score         DG    S(hbond)    S(metal)    S(lipo)     H(rot)  DE(clash)    DE(int)     intcor
     14.60     -16.99       0.91        0.00     124.14       2.36       2.11       0.28       ----

> <Gold.Chemscore.Fitness>
14.6008

> <Gold.Chemscore.DG>
-16.9946

> <Gold.Chemscore.ZeroCoef>
-5.4800

> <Gold.Chemscore.Hbond>
0.9089

> <Gold.Chemscore.Metal>
0.0000

> <Gold.Chemscore.Lipo>
124.1382

> <Gold.Chemscore.Internal_Hbond>
0.0000

> <Gold.Chemscore.DEClash>
2.1130

> <Gold.Chemscore.DEInternal>
0.2808

> <Gold.Chemscore.Rot>
2.3615

> <Gold.Chemscore.Internal.Correction>
   9.000000E+99

> <Gold.Chemscore.Hbonds>
donor molecule, donor type, donor heavy atom, donor atom, acceptor molecule, acceptor atom, score
      L1  H    10    34       P1  8028  0.83

> <Gold.Chemscore.Hbond.Weighted>
-3.0359

> <Gold.Chemscore.Metal.Weighted>
-0.0000

> <Gold.Chemscore.Lipo.Weighted>
-14.5242

> <Gold.Chemscore.Internal_Hbond.Weighted>
0.0000

> <Gold.Chemscore.DEClash.Weighted>
2.1130

> <Gold.Chemscore.DEInternal.Weighted>
0.2808

> <Gold.Chemscore.Rot.Weighted>
6.0454

> <Gold.Chemscore.Internal.Correction.Weighted>
   9.000000E+99

> <Gold.Protein.RotatedTorsions>
[ 6907 6896 6895 6894 ] final  -53.10 input  -60.11 | X-H torsion
[ 7974 7965 7964 7962 ] final -163.80 input  175.53 | X-H torsion
[ 8008 7997 7996 7995 ] final   58.52 input   59.86 | X-H torsion
[ 10167 10162 10161 10158 ] final   45.90 input  -65.29 | X-H torsion
[ 10718 10713 10712 10709 ] final  -99.10 input   66.30 | X-H torsion
[ 10763 10752 10751 10750 ] final -167.32 input  -60.55 | X-H torsion
[ 11005 11000 10999 10996 ] final  -46.15 input  -57.11 | X-H torsion

> <Gold.Protein.ActiveResidues>
 VAL166  LYS551  ARG553  GLY616  TRP617  ASP618  TYR619  PRO620  LYS621  CYS622 
 ASP623  PHE694  ASN695  SER759  ASP760  ASP761  ALA762  ILE779  LEU786  VAL792 
 PHE793  MET794  SER795  GLU796  ALA797  LYS798  CYS799  TRP800  GLU811  SER814 

> <Gold.Protein.RotatedAtoms>
  150.8458  134.7766  159.6968 H   0  0  0  0  0  0  0  0  0  0  0  0  # atno 6907 bound_to 6896
  152.4535  134.5340  159.9829 H   0  0  0  0  0  0  0  0  0  0  0  0  # atno 6908 bound_to 6896
  151.5470  133.3385  159.2982 H   0  0  0  0  0  0  0  0  0  0  0  0  # atno 6909 bound_to 6896
  144.7315  140.3054  143.6197 H   0  0  0  0  0  0  0  0  0  0  0  0  # atno 7974 bound_to 7965
  155.5513  140.3486  155.4469 H   0  0  0  0  0  0  0  0  0  0  0  0  # atno 8008 bound_to 7997
  156.0581  140.1333  156.9999 H   0  0  0  0  0  0  0  0  0  0  0  0  # atno 8009 bound_to 7997
  154.4466  140.0991  156.6461 H   0  0  0  0  0  0  0  0  0  0  0  0  # atno 8010 bound_to 7997
  140.3194  144.2724  150.6185 H   0  0  0  0  0  0  0  0  0  0  0  0  # atno 10167 bound_to 10162
  156.0125  130.5267  150.6621 H   0  0  0  0  0  0  0  0  0  0  0  0  # atno 10718 bound_to 10713
  154.6744  135.2944  154.9699 H   0  0  0  0  0  0  0  0  0  0  0  0  # atno 10763 bound_to 10752
  154.0715  135.6617  153.4829 H   0  0  0  0  0  0  0  0  0  0  0  0  # atno 10764 bound_to 10752
  153.0507  135.5176  154.7755 H   0  0  0  0  0  0  0  0  0  0  0  0  # atno 10765 bound_to 10752
  141.0561  133.6725  156.3114 H   0  0  0  0  0  0  0  0  0  0  0  0  # atno 11005 bound_to 11000
  145.7719  139.1860  143.2208 LP  0  0  0  0  0  0  0  0  0  0  0  0  # atno 17320 bound_to 7965
  146.0904  140.7662  142.9598 LP  0  0  0  0  0  0  0  0  0  0  0  0  # atno 17321 bound_to 7965
  140.5497  143.2208  151.7947 LP  0  0  0  0  0  0  0  0  0  0  0  0  # atno 17342 bound_to 10162
  139.4877  144.4492  151.9674 LP  0  0  0  0  0  0  0  0  0  0  0  0  # atno 17343 bound_to 10162
  157.4361  131.0855  151.0990 LP  0  0  0  0  0  0  0  0  0  0  0  0  # atno 17370 bound_to 10713
  157.1549  130.6200  149.5593 LP  0  0  0  0  0  0  0  0  0  0  0  0  # atno 17371 bound_to 10713
  140.5962  134.5601  157.5509 LP  0  0  0  0  0  0  0  0  0  0  0  0  # atno 17394 bound_to 11000
  139.9391  134.7820  156.0725 LP  0  0  0  0  0  0  0  0  0  0  0  0  # atno 17395 bound_to 11000

$$$$
