AV-unprocessed.smi:1384|AV-procd|sdf|5626|dock7
  -GOLD-   22720 5243D 1   1.00000     0.00000
 Structure written by MMmdl.
 41 42  0  0  0  0  0  0  0  0  1 V2000
  151.0456  144.4874  158.9420 C   0  0  0  0  0  0  0  0  0  0  0  0
  151.4857  143.1203  159.4843 C   0  0  2  0  0  0  0  0  0  0  0  0
  152.8313  143.2141  160.2283 C   0  0  0  0  0  0  0  0  0  0  0  0
  153.2741  141.8463  160.7724 C   0  0  0  0  0  0  0  0  0  0  0  0
  153.3494  140.7892  159.6516 C   0  0  1  0  0  0  0  0  0  0  0  0
  153.6907  139.4794  160.1982 N   0  0  0  0  0  0  0  0  0  0  0  0
  154.8200  138.8005  159.9466 C   0  0  0  0  0  0  0  0  0  0  0  0
  155.7153  139.2271  159.2159 O   0  0  0  0  0  0  0  0  0  0  0  0
  154.9489  137.4405  160.6483 C   0  0  0  0  0  0  0  0  0  0  0  0
  154.6367  137.4837  162.0875 N   0  0  0  0  0  0  0  0  0  0  0  0
  153.7930  136.4743  162.5844 C   0  0  0  0  0  0  0  0  0  0  0  0
  153.4474  136.4168  163.8775 C   0  0  0  0  0  0  0  0  0  0  0  0
  153.9688  137.4245  164.7680 C   0  0  0  0  0  0  0  0  0  0  0  0
  154.7764  138.4127  164.3181 C   0  0  0  0  0  0  0  0  0  0  0  0
  155.3460  139.4795  165.2504 C   0  0  0  0  0  0  0  0  0  0  0  0
  156.6789  139.4341  165.2618 F   0  0  0  0  0  0  0  0  0  0  0  0
  154.9739  140.6953  164.8493 F   0  0  0  0  0  0  0  0  0  0  0  0
  154.9243  139.3165  166.5053 F   0  0  0  0  0  0  0  0  0  0  0  0
  155.1442  138.4715  162.8885 C   0  0  0  0  0  0  0  0  0  0  0  0
  155.8676  139.3569  162.4294 O   0  0  0  0  0  0  0  0  0  0  0  0
  152.0077  140.6980  158.9019 C   0  0  0  0  0  0  0  0  0  0  0  0
  151.5669  142.0681  158.3620 C   0  0  0  0  0  0  0  0  0  0  0  0
  151.7636  144.8787  158.2206 H   0  0  0  0  0  0  0  0  0  0  0  0
  150.9508  145.2168  159.7471 H   0  0  0  0  0  0  0  0  0  0  0  0
  150.0776  144.4188  158.4449 H   0  0  0  0  0  0  0  0  0  0  0  0
  150.7292  142.7920  160.1986 H   0  0  0  0  0  0  0  0  0  0  0  0
  153.5982  143.6023  159.5569 H   0  0  0  0  0  0  0  0  0  0  0  0
  152.7542  143.9254  161.0514 H   0  0  0  0  0  0  0  0  0  0  0  0
  154.2431  141.9477  161.2624 H   0  0  0  0  0  0  0  0  0  0  0  0
  152.5726  141.5197  161.5416 H   0  0  0  0  0  0  0  0  0  0  0  0
  154.1191  141.0857  158.9360 H   0  0  0  0  0  0  0  0  0  0  0  0
  153.0118  139.0543  160.8131 H   0  0  0  0  0  0  0  0  0  0  0  0
  154.2931  136.7326  160.1391 H   0  0  0  0  0  0  0  0  0  0  0  0
  155.9577  137.0534  160.4925 H   0  0  0  0  0  0  0  0  0  0  0  0
  153.4426  135.7623  161.8511 H   0  0  0  0  0  0  0  0  0  0  0  0
  152.7947  135.6376  164.2429 H   0  0  0  0  0  0  0  0  0  0  0  0
  153.7005  137.3734  165.8124 H   0  0  0  0  0  0  0  0  0  0  0  0
  152.0876  139.9884  158.0774 H   0  0  0  0  0  0  0  0  0  0  0  0
  151.2368  140.3101  159.5695 H   0  0  0  0  0  0  0  0  0  0  0  0
  150.5978  141.9711  157.8714 H   0  0  0  0  0  0  0  0  0  0  0  0
  152.2688  142.3988  157.5951 H   0  0  0  0  0  0  0  0  0  0  0  0
  1  2  1  0  0  0  0
  1 23  1  0  0  0  0
  1 24  1  0  0  0  0
  1 25  1  0  0  0  0
  2 22  1  0  0  0  0
  2  3  1  0  0  0  0
  2 26  1  0  0  0  0
  3  4  1  0  0  0  0
  3 27  1  0  0  0  0
  3 28  1  0  0  0  0
  4  5  1  0  0  0  0
  4 29  1  0  0  0  0
  4 30  1  0  0  0  0
  5  6  1  0  0  0  0
  5 21  1  0  0  0  0
  5 31  1  0  0  0  0
  6  7  1  0  0  0  0
  6 32  1  0  0  0  0
  7  8  2  0  0  0  0
  7  9  1  0  0  0  0
  9 10  1  0  0  0  0
  9 33  1  0  0  0  0
  9 34  1  0  0  0  0
 10 19  1  0  0  0  0
 10 11  1  0  0  0  0
 11 12  2  0  0  0  0
 11 35  1  0  0  0  0
 12 13  1  0  0  0  0
 12 36  1  0  0  0  0
 13 14  2  0  0  0  0
 13 37  1  0  0  0  0
 14 15  1  0  0  0  0
 14 19  1  0  0  0  0
 15 16  1  0  0  0  0
 15 17  1  0  0  0  0
 15 18  1  0  0  0  0
 19 20  2  0  0  0  0
 21 22  1  0  0  0  0
 21 38  1  0  0  0  0
 21 39  1  0  0  0  0
 22 40  1  0  0  0  0
 22 41  1  0  0  0  0
M  END
> <s_m_source_file>
AV-unprocessed.smi

> <i_m_source_file_index>
1384

> <i_lp_mmshare_version>
43012

> <i_f3d_flags>
0

> <s_epik_input>
W0NIM11bQ0BASF0xW0NIMl1bQ0gyXVtDQEhdKFtDSDJdW0NIMl0xKVtOSF1DKD1PKVtDSDJdbjJbY0hdW2NIXVtjSF1jKEMoRikoRilGKWMyPU8=

> <s_epik_cmdline>
J2VwaWtfcHl0aG9uJywgJy1waCcsICc3LjAnLCAnLXRuJywgJzgnLCAnLW1hJywgJzIwMCcsICctbWV0YWxfYmluZGluZycsICctaW1hZScsICc8aW5maWxlLm1hZT4nLCAnLW9tYWUnLCAnPG91dGZpbGUubWFlPic=

> <r_lp_tautomer_probability>
1

> <r_epik_Ionization_Penalty>
2.11165e-08

> <r_epik_Ionization_Penalty_Charging>
2.06965e-09

> <r_epik_Ionization_Penalty_Neutral>
1.90469e-08

> <r_epik_State_Penalty>
-0

> <r_epik_Charging_Adjusted_Penalty>
2.06965e-09

> <i_epik_Tot_Q>
0

> <i_epik_Tot_abs_Q>
0

> <r_epik_Metal_State_Penalty>
-0

> <b_epik_Metal_Only>
0

> <s_lp_Force_Field>
OPLS_2005

> <r_lp_Energy>
18.7612

> <b_lp_Chiralities_Consistent>
1

> <s_lp_Variant>
AV-unprocessed.smi:1384-1

> <Gold.Version>
5.8.1

> <Gold.Id.Protein>
6NUR|6NUR_protein|mol2

> <Gold.PLP.Fitness>
46.0602

> <Gold.PLP.PLP>
-43.6627

> <Gold.PLP.part.hbond>
-1.0000

> <Gold.PLP.part.metal>
0.0000

> <Gold.PLP.part.buried>
-5.6634

> <Gold.PLP.part.nonpolar>
-36.9680

> <Gold.PLP.part.repulsive>
0.0666

> <Gold.PLP.ligand.clash>
0.3401

> <Gold.PLP.ligand.torsion>
0.3098

> <Gold.PLP.Chemscore.Hbond>
1.0000

> <Gold.PLP.Chemscore.CHOScore>
0.0000

> <Gold.PLP.Chemscore.Metal>
0.0000

> <Gold.Chemscore.Hbonds>
donor molecule, donor type, donor heavy atom, donor atom, acceptor molecule, acceptor atom, score
      P1  H  7997  8010       L1     8  0.61

> <Gold.PLP.Chemscore.Internal.Correction>
0.3572

> <Gold.Rescore>
     Score         DG    S(hbond)    S(metal)    S(lipo)     H(rot)  DE(clash)    DE(int)     intcor
     14.93     -18.27       1.00        0.00     114.13       1.52       0.25       3.09       ----

> <Gold.Chemscore.Fitness>
14.9327

> <Gold.Chemscore.DG>
-18.2717

> <Gold.Chemscore.ZeroCoef>
-5.4800

> <Gold.Chemscore.Hbond>
0.9999

> <Gold.Chemscore.Metal>
0.0000

> <Gold.Chemscore.Lipo>
114.1346

> <Gold.Chemscore.Internal_Hbond>
0.0000

> <Gold.Chemscore.DEClash>
0.2485

> <Gold.Chemscore.DEInternal>
3.0905

> <Gold.Chemscore.Rot>
1.5242

> <Gold.Chemscore.Internal.Correction>
   9.000000E+99

> <Gold.Chemscore.Hbonds>
donor molecule, donor type, donor heavy atom, donor atom, acceptor molecule, acceptor atom, score
      P1  H  7997  8010       L1     8  0.53

> <Gold.Chemscore.Hbond.Weighted>
-3.3398

> <Gold.Chemscore.Metal.Weighted>
-0.0000

> <Gold.Chemscore.Lipo.Weighted>
-13.3538

> <Gold.Chemscore.Internal_Hbond.Weighted>
0.0000

> <Gold.Chemscore.DEClash.Weighted>
0.2485

> <Gold.Chemscore.DEInternal.Weighted>
3.0905

> <Gold.Chemscore.Rot.Weighted>
3.9019

> <Gold.Chemscore.Internal.Correction.Weighted>
   9.000000E+99

> <Gold.Protein.RotatedTorsions>
[ 6907 6896 6895 6894 ] final  126.15 input  -60.11 | X-H torsion
[ 7974 7965 7964 7962 ] final -149.46 input  175.53 | X-H torsion
[ 8008 7997 7996 7995 ] final    5.23 input   59.86 | X-H torsion
[ 10167 10162 10161 10158 ] final  -12.99 input  -65.29 | X-H torsion
[ 10718 10713 10712 10709 ] final  -47.14 input   66.30 | X-H torsion
[ 10763 10752 10751 10750 ] final  -50.53 input  -60.55 | X-H torsion
[ 11005 11000 10999 10996 ] final -149.81 input  -57.11 | X-H torsion

> <Gold.Protein.ActiveResidues>
 VAL166  LYS551  ARG553  GLY616  TRP617  ASP618  TYR619  PRO620  LYS621  CYS622 
 ASP623  PHE694  ASN695  SER759  ASP760  ASP761  ALA762  ILE779  LEU786  VAL792 
 PHE793  MET794  SER795  GLU796  ALA797  LYS798  CYS799  TRP800  GLU811  SER814 

> <Gold.Protein.RotatedAtoms>
  152.3929  133.6704  159.6251 H   0  0  0  0  0  0  0  0  0  0  0  0  # atno 6907 bound_to 6896
  150.7833  133.8924  159.3326 H   0  0  0  0  0  0  0  0  0  0  0  0  # atno 6908 bound_to 6896
  151.6707  135.0978  160.0249 H   0  0  0  0  0  0  0  0  0  0  0  0  # atno 6909 bound_to 6896
  144.7966  140.5062  143.5736 H   0  0  0  0  0  0  0  0  0  0  0  0  # atno 7974 bound_to 7965
  154.7258  140.2721  155.6500 H   0  0  0  0  0  0  0  0  0  0  0  0  # atno 8008 bound_to 7997
  156.2836  140.2725  156.1869 H   0  0  0  0  0  0  0  0  0  0  0  0  # atno 8009 bound_to 7997
  155.0446  140.0371  157.2512 H   0  0  0  0  0  0  0  0  0  0  0  0  # atno 8010 bound_to 7997
  140.7173  143.5473  150.9341 H   0  0  0  0  0  0  0  0  0  0  0  0  # atno 10167 bound_to 10162
  156.2114  130.4161  149.9110 H   0  0  0  0  0  0  0  0  0  0  0  0  # atno 10718 bound_to 10713
  154.1119  135.6548  153.4886 H   0  0  0  0  0  0  0  0  0  0  0  0  # atno 10763 bound_to 10752
  153.0254  135.5249  154.7184 H   0  0  0  0  0  0  0  0  0  0  0  0  # atno 10764 bound_to 10752
  154.6366  135.2983  155.0123 H   0  0  0  0  0  0  0  0  0  0  0  0  # atno 10765 bound_to 10752
  140.7468  134.3452  157.5135 H   0  0  0  0  0  0  0  0  0  0  0  0  # atno 11005 bound_to 11000
  145.5658  139.1481  143.3316 LP  0  0  0  0  0  0  0  0  0  0  0  0  # atno 17320 bound_to 7965
  146.2236  140.5792  142.9006 LP  0  0  0  0  0  0  0  0  0  0  0  0  # atno 17321 bound_to 7965
  139.9197  143.6621  152.3099 LP  0  0  0  0  0  0  0  0  0  0  0  0  # atno 17342 bound_to 10162
  139.7033  144.7632  151.1235 LP  0  0  0  0  0  0  0  0  0  0  0  0  # atno 17343 bound_to 10162
  156.6787  130.8849  151.3573 LP  0  0  0  0  0  0  0  0  0  0  0  0  # atno 17370 bound_to 10713
  157.7040  130.9364  150.0873 LP  0  0  0  0  0  0  0  0  0  0  0  0  # atno 17371 bound_to 10713
  139.8795  134.9116  156.3041 LP  0  0  0  0  0  0  0  0  0  0  0  0  # atno 17394 bound_to 11000
  140.9787  133.7281  156.0640 LP  0  0  0  0  0  0  0  0  0  0  0  0  # atno 17395 bound_to 11000

$$$$
