AV-unprocessed.smi:1|AV-procd|sdf|20|dock3
  -GOLD-   2262015123D 1   1.00000     0.00000
 Structure written by MMmdl.
 56 61  0  0  0  0  0  0  0  0  2 V2000
  151.8576  140.1870  158.7806 O   0  0  0  0  0  0  0  0  0  0  0  0
  151.6968  141.0469  157.9118 C   0  0  0  0  0  0  0  0  0  0  0  0
  151.4113  140.8601  156.5981 N   0  5  0  0  0  0  0  0  0  0  0  0
  151.4073  139.6186  156.0884 C   0  0  0  0  0  0  0  0  0  0  0  0
  151.9093  139.3844  154.8492 N   0  0  0  0  0  0  0  0  0  0  0  0
  151.9113  138.1458  154.3439 C   0  0  0  0  0  0  0  0  0  0  0  0
  151.4674  137.0129  154.8963 N   0  0  0  0  0  0  0  0  0  0  0  0
  150.9476  137.2348  156.1384 C   0  0  0  0  0  0  0  0  0  0  0  0
  150.8786  138.5006  156.7908 C   0  0  0  0  0  0  0  0  0  0  0  0
  150.2888  138.3795  158.0397 N   0  0  0  0  0  0  0  0  0  0  0  0
  150.0365  137.0739  158.0916 C   0  0  0  0  0  0  0  0  0  0  0  0
  150.3968  136.3261  157.0295 N   0  0  0  0  0  0  0  0  0  0  0  0
  150.2118  134.8515  156.8662 C   0  0  1  0  0  0  0  0  0  0  0  0
  148.9206  134.5985  156.3967 O   0  0  0  0  0  0  0  0  0  0  0  0
  148.9635  134.0102  155.0993 C   0  0  2  0  0  0  0  0  0  0  0  0
  147.7633  133.0839  154.8750 C   0  0  0  0  0  0  0  0  0  0  0  0
  147.0216  133.5620  153.7654 O   0  0  0  0  0  0  0  0  0  0  0  0
  147.4200  133.2794  152.5112 C   0  0  0  0  0  0  0  0  0  0  0  0
  148.5982  133.1075  152.1919 O   0  0  0  0  0  0  0  0  0  0  0  0
  146.2839  133.1972  151.5485 C   0  0  0  0  0  0  0  0  0  0  0  0
  146.3933  132.3559  150.4169 C   0  0  0  0  0  0  0  0  0  0  0  0
  145.3358  132.2566  149.4920 C   0  0  0  0  0  0  0  0  0  0  0  0
  144.1559  132.9976  149.6871 C   0  0  0  0  0  0  0  0  0  0  0  0
  144.0348  133.8388  150.8085 C   0  0  0  0  0  0  0  0  0  0  0  0
  145.0912  133.9393  151.7348 C   0  0  0  0  0  0  0  0  0  0  0  0
  150.3225  133.3151  155.0516 C   0  0  2  0  0  0  0  0  0  0  0  0
  150.2865  132.0619  155.7147 O   0  0  0  0  0  0  0  0  0  0  0  0
  151.6623  131.9229  156.6522 S   0  0  0  0  0  0  0  0  0  0  0  0
  151.2486  131.6891  158.0442 O   0  0  0  0  0  0  0  0  0  0  0  0
  152.6144  131.0493  155.9498 O   0  0  0  0  0  0  0  0  0  0  0  0
  152.2061  133.4980  156.5227 O   0  0  0  0  0  0  0  0  0  0  0  0
  151.2133  134.2616  155.8612 C   0  0  2  0  0  0  0  0  0  0  0  0
  151.8882  142.4939  158.2795 C   0  0  0  0  0  0  0  0  0  0  0  0
  152.4432  142.8296  159.5354 C   0  0  0  0  0  0  0  0  0  0  0  0
  152.6050  144.1779  159.9098 C   0  0  0  0  0  0  0  0  0  0  0  0
  152.2040  145.2055  159.0357 C   0  0  0  0  0  0  0  0  0  0  0  0
  151.6378  144.8835  157.7881 C   0  0  0  0  0  0  0  0  0  0  0  0
  151.4761  143.5355  157.4127 C   0  0  0  0  0  0  0  0  0  0  0  0
  152.3326  138.0480  153.3545 H   0  0  0  0  0  0  0  0  0  0  0  0
  149.5648  136.6340  158.9579 H   0  0  0  0  0  0  0  0  0  0  0  0
  150.3150  134.4424  157.8722 H   0  0  0  0  0  0  0  0  0  0  0  0
  148.9559  134.8012  154.3499 H   0  0  0  0  0  0  0  0  0  0  0  0
  148.1110  132.0727  154.6596 H   0  0  0  0  0  0  0  0  0  0  0  0
  147.1377  133.0371  155.7674 H   0  0  0  0  0  0  0  0  0  0  0  0
  147.2894  131.7771  150.2466 H   0  0  0  0  0  0  0  0  0  0  0  0
  145.4310  131.6108  148.6316 H   0  0  0  0  0  0  0  0  0  0  0  0
  143.3452  132.9210  148.9777 H   0  0  0  0  0  0  0  0  0  0  0  0
  143.1297  134.4080  150.9605 H   0  0  0  0  0  0  0  0  0  0  0  0
  144.9646  134.5933  152.5851 H   0  0  0  0  0  0  0  0  0  0  0  0
  150.6832  133.1704  154.0328 H   0  0  0  0  0  0  0  0  0  0  0  0
  151.6480  135.0380  155.2310 H   0  0  0  0  0  0  0  0  0  0  0  0
  152.7537  142.0525  160.2189 H   0  0  0  0  0  0  0  0  0  0  0  0
  153.0357  144.4227  160.8694 H   0  0  0  0  0  0  0  0  0  0  0  0
  152.3269  146.2390  159.3231 H   0  0  0  0  0  0  0  0  0  0  0  0
  151.3230  145.6705  157.1188 H   0  0  0  0  0  0  0  0  0  0  0  0
  151.0290  143.3097  156.4553 H   0  0  0  0  0  0  0  0  0  0  0  0
  1  2  2  0  0  0  0
  2  3  1  0  0  0  0
  2 33  1  0  0  0  0
  3  4  1  0  0  0  0
  4  9  1  0  0  0  0
  4  5  2  0  0  0  0
  5  6  1  0  0  0  0
  6  7  2  0  0  0  0
  6 39  1  0  0  0  0
  7  8  1  0  0  0  0
  8 12  1  0  0  0  0
  8  9  2  0  0  0  0
  9 10  1  0  0  0  0
 10 11  2  0  0  0  0
 11 12  1  0  0  0  0
 11 40  1  0  0  0  0
 12 13  1  0  0  0  0
 13 32  1  0  0  0  0
 13 14  1  0  0  0  0
 13 41  1  0  0  0  0
 14 15  1  0  0  0  0
 15 16  1  0  0  0  0
 15 26  1  0  0  0  0
 15 42  1  0  0  0  0
 16 17  1  0  0  0  0
 16 43  1  0  0  0  0
 16 44  1  0  0  0  0
 17 18  1  0  0  0  0
 18 19  2  0  0  0  0
 18 20  1  0  0  0  0
 20 25  1  0  0  0  0
 20 21  2  0  0  0  0
 21 22  1  0  0  0  0
 21 45  1  0  0  0  0
 22 23  2  0  0  0  0
 22 46  1  0  0  0  0
 23 24  1  0  0  0  0
 23 47  1  0  0  0  0
 24 25  2  0  0  0  0
 24 48  1  0  0  0  0
 25 49  1  0  0  0  0
 26 32  1  0  0  0  0
 26 27  1  0  0  0  0
 26 50  1  0  0  0  0
 27 28  1  0  0  0  0
 28 29  2  0  0  0  0
 28 30  2  0  0  0  0
 28 31  1  0  0  0  0
 31 32  1  0  0  0  0
 32 51  1  0  0  0  0
 33 38  1  0  0  0  0
 33 34  2  0  0  0  0
 34 35  1  0  0  0  0
 34 52  1  0  0  0  0
 35 36  2  0  0  0  0
 35 53  1  0  0  0  0
 36 37  1  0  0  0  0
 36 54  1  0  0  0  0
 37 38  2  0  0  0  0
 37 55  1  0  0  0  0
 38 56  1  0  0  0  0
M  CHG  1   3  -1
M  END
> <s_m_source_file>
AV-unprocessed.smi

> <i_m_source_file_index>
1

> <i_lp_mmshare_version>
43012

> <i_f3d_flags>
0

> <s_epik_input>
W2NIXTFbY0hdW2NIXVtjSF1bY0hdYzFDKD1PKVtOSF1jKG5bY0hdbjIpYyhjMjMpbltjSF1uM1tDQEBIXShbQ0BIXShbQ0BIXTQ1KU9TKE81KSg9Tyk9TylPW0NASF00W0NIMl1PQyg9TyljNltjSF1bY0hdW2NIXVtjSF1bY0hdNg==

> <s_epik_cmdline>
J2VwaWtfcHl0aG9uJywgJy1waCcsICc3LjAnLCAnLXRuJywgJzgnLCAnLW1hJywgJzIwMCcsICctbWV0YWxfYmluZGluZycsICctaW1hZScsICc8aW5maWxlLm1hZT4nLCAnLW9tYWUnLCAnPG91dGZpbGUubWFlPic=

> <r_lp_tautomer_probability>
1

> <r_epik_Ionization_Penalty>
4.39121

> <r_epik_Ionization_Penalty_Charging>
3.39398

> <r_epik_Ionization_Penalty_Neutral>
0.997232

> <r_epik_State_Penalty>
3.39839

> <r_epik_Charging_Adjusted_Penalty>
6.79237

> <i_epik_Tot_Q>
-1

> <i_epik_Tot_abs_Q>
1

> <r_epik_Metal_State_Penalty>
0.497663

> <b_epik_Metal_Only>
1

> <s_epik_Chemistry_Notes>
This compound has an ester and may undergo hydrolysis at high or low pH. This compound contains an acetal/aminal-like group ( X-CH(R)-Y where X, Y are N, S, or O) that may be acid/base labile, releasing an aldehyde.

> <s_lp_Force_Field>
OPLS_2005

> <r_lp_Energy>
42.8802

> <b_lp_Chiralities_Consistent>
1

> <s_lp_Variant>
AV-unprocessed.smi:1-20

> <Gold.Version>
5.8.1

> <Gold.Id.Protein>
6NUR|6NUR_protein|mol2

> <Gold.PLP.Fitness>
60.6831

> <Gold.PLP.PLP>
-57.5357

> <Gold.PLP.part.hbond>
-3.2279

> <Gold.PLP.part.metal>
0.0000

> <Gold.PLP.part.buried>
-7.2811

> <Gold.PLP.part.nonpolar>
-48.0634

> <Gold.PLP.part.repulsive>
1.6173

> <Gold.PLP.ligand.clash>
0.0000

> <Gold.PLP.ligand.torsion>
2.6492

> <Gold.PLP.Chemscore.Hbond>
2.6033

> <Gold.PLP.Chemscore.CHOScore>
0.0000

> <Gold.PLP.Chemscore.Metal>
0.0000

> <Gold.Chemscore.Hbonds>
donor molecule, donor type, donor heavy atom, donor atom, acceptor molecule, acceptor atom, score
      P1  H  6896  6907       L1    29  0.99
      P1  H  7989  7998       L1     5  0.98
      P1  H 10752 10764       L1     7  0.89

> <Gold.PLP.Chemscore.Internal.Correction>
0.6358

> <Gold.Rescore>
     Score         DG    S(hbond)    S(metal)    S(lipo)     H(rot)  DE(clash)    DE(int)     intcor
     12.85     -21.33       1.59        0.00     136.29       2.11       0.47       8.02       ----

> <Gold.Chemscore.Fitness>
12.8457

> <Gold.Chemscore.DG>
-21.3327

> <Gold.Chemscore.ZeroCoef>
-5.4800

> <Gold.Chemscore.Hbond>
1.5921

> <Gold.Chemscore.Metal>
0.0000

> <Gold.Chemscore.Lipo>
136.2886

> <Gold.Chemscore.Internal_Hbond>
0.0000

> <Gold.Chemscore.DEClash>
0.4704

> <Gold.Chemscore.DEInternal>
8.0166

> <Gold.Chemscore.Rot>
2.1136

> <Gold.Chemscore.Internal.Correction>
   9.000000E+99

> <Gold.Chemscore.Hbonds>
donor molecule, donor type, donor heavy atom, donor atom, acceptor molecule, acceptor atom, score
      P1  H  6896  6907       L1    29  0.82
      P1  H  7989  7998       L1     5  0.75
      P1  H 10752 10764       L1     7  0.49

> <Gold.Chemscore.Hbond.Weighted>
-5.3177

> <Gold.Chemscore.Metal.Weighted>
-0.0000

> <Gold.Chemscore.Lipo.Weighted>
-15.9458

> <Gold.Chemscore.Internal_Hbond.Weighted>
0.0000

> <Gold.Chemscore.DEClash.Weighted>
0.4704

> <Gold.Chemscore.DEInternal.Weighted>
8.0166

> <Gold.Chemscore.Rot.Weighted>
5.4107

> <Gold.Chemscore.Internal.Correction.Weighted>
   9.000000E+99

> <Gold.Protein.RotatedTorsions>
[ 6907 6896 6895 6894 ] final -160.38 input  -60.11 | X-H torsion
[ 7974 7965 7964 7962 ] final  -74.29 input  175.53 | X-H torsion
[ 8008 7997 7996 7995 ] final  167.49 input   59.86 | X-H torsion
[ 10167 10162 10161 10158 ] final -168.22 input  -65.29 | X-H torsion
[ 10718 10713 10712 10709 ] final -164.08 input   66.30 | X-H torsion
[ 10763 10752 10751 10750 ] final  -54.27 input  -60.55 | X-H torsion
[ 11005 11000 10999 10996 ] final -103.12 input  -57.11 | X-H torsion

> <Gold.Protein.ActiveResidues>
 VAL166  LYS551  ARG553  GLY616  TRP617  ASP618  TYR619  PRO620  LYS621  CYS622 
 ASP623  PHE694  ASN695  SER759  ASP760  ASP761  ALA762  ILE779  LEU786  VAL792 
 PHE793  MET794  SER795  GLU796  ALA797  LYS798  CYS799  TRP800  GLU811  SER814 

> <Gold.Protein.RotatedAtoms>
  151.3482  133.3935  159.2677 H   0  0  0  0  0  0  0  0  0  0  0  0  # atno 6907 bound_to 6896
  150.9822  134.9176  159.7861 H   0  0  0  0  0  0  0  0  0  0  0  0  # atno 6908 bound_to 6896
  152.5221  134.3446  159.9282 H   0  0  0  0  0  0  0  0  0  0  0  0  # atno 6909 bound_to 6896
  145.6411  140.9310  143.1035 H   0  0  0  0  0  0  0  0  0  0  0  0  # atno 7974 bound_to 7965
  156.1629  140.1615  156.8580 H   0  0  0  0  0  0  0  0  0  0  0  0  # atno 8008 bound_to 7997
  154.5179  140.0785  156.8151 H   0  0  0  0  0  0  0  0  0  0  0  0  # atno 8009 bound_to 7997
  155.3670  140.3398  155.4244 H   0  0  0  0  0  0  0  0  0  0  0  0  # atno 8010 bound_to 7997
  139.5999  144.1033  152.1731 H   0  0  0  0  0  0  0  0  0  0  0  0  # atno 10167 bound_to 10162
  156.6339  130.8941  151.2983 H   0  0  0  0  0  0  0  0  0  0  0  0  # atno 10718 bound_to 10713
  154.1722  135.6457  153.5012 H   0  0  0  0  0  0  0  0  0  0  0  0  # atno 10763 bound_to 10752
  153.0081  135.5386  154.6600 H   0  0  0  0  0  0  0  0  0  0  0  0  # atno 10764 bound_to 10752
  154.5943  135.2937  155.0575 H   0  0  0  0  0  0  0  0  0  0  0  0  # atno 10765 bound_to 10752
  141.1160  133.8614  157.1446 H   0  0  0  0  0  0  0  0  0  0  0  0  # atno 11005 bound_to 11000
  144.7157  139.8206  143.7399 LP  0  0  0  0  0  0  0  0  0  0  0  0  # atno 17320 bound_to 7965
  146.1280  139.4310  143.0186 LP  0  0  0  0  0  0  0  0  0  0  0  0  # atno 17321 bound_to 7965
  140.0626  144.5844  150.7251 LP  0  0  0  0  0  0  0  0  0  0  0  0  # atno 17342 bound_to 10162
  140.7241  143.2618  151.4179 LP  0  0  0  0  0  0  0  0  0  0  0  0  # atno 17343 bound_to 10162
  157.7192  130.9536  150.1371 LP  0  0  0  0  0  0  0  0  0  0  0  0  # atno 17370 bound_to 10713
  156.2213  130.3674  149.8553 LP  0  0  0  0  0  0  0  0  0  0  0  0  # atno 17371 bound_to 10713
  140.0082  134.9999  157.0339 LP  0  0  0  0  0  0  0  0  0  0  0  0  # atno 17394 bound_to 11000
  140.4645  134.1450  155.7195 LP  0  0  0  0  0  0  0  0  0  0  0  0  # atno 17395 bound_to 11000

$$$$
