AV-unprocessed.smi:767|AV-procd|sdf|3663|dock10
  -GOLD-   22720 1 73D 1   1.00000     0.00000
 Structure written by MMmdl.
 47 49  0  0  0  0  0  0  0  0  1 V2000
  143.5396  132.3340  150.8427 C   0  0  0  0  0  0  0  0  0  0  0  0
  144.9171  132.4249  151.4659 C   0  0  0  0  0  0  0  0  0  0  0  0
  145.5166  131.2911  152.0531 C   0  0  0  0  0  0  0  0  0  0  0  0
  146.7939  131.4305  152.6296 C   0  0  0  0  0  0  0  0  0  0  0  0
  147.4187  132.6939  152.6003 C   0  0  0  0  0  0  0  0  0  0  0  0
  148.7836  132.9045  153.2337 C   0  0  0  0  0  0  0  0  0  0  0  0
  148.7381  133.7366  154.5317 C   0  0  0  0  0  0  0  0  0  0  0  0
  148.9764  135.1589  154.3041 N   0  0  0  0  0  0  0  0  0  0  0  0
  148.8594  136.1171  155.2329 C   0  0  0  0  0  0  0  0  0  0  0  0
  148.4985  135.9151  156.3923 O   0  0  0  0  0  0  0  0  0  0  0  0
  149.2049  137.3183  154.7520 N   0  0  0  0  0  0  0  0  0  0  0  0
  149.2192  138.5544  155.5405 C   0  0  2  0  0  0  0  0  0  0  0  0
  148.2538  139.6122  154.9991 C   0  0  2  0  0  0  0  0  0  0  0  0
  147.0830  139.6178  154.0839 C   0  0  0  0  0  0  0  0  0  0  0  0
  147.4461  140.9167  153.3138 C   0  0  0  0  0  0  0  0  0  0  0  0
  148.7976  141.2564  153.7177 O   0  0  0  0  0  0  0  0  0  0  0  0
  149.3724  140.0108  154.0588 C   0  0  1  0  0  0  0  0  0  0  0  0
  150.3588  139.5854  155.1688 C   0  0  0  0  0  0  0  0  0  0  0  0
  150.7247  140.6411  156.2273 C   0  0  0  0  0  0  0  0  0  0  0  0
  151.6898  139.0092  154.6743 C   0  0  0  0  0  0  0  0  0  0  0  0
  146.7350  133.7627  151.9822 C   0  0  0  0  0  0  0  0  0  0  0  0
  145.5098  133.6388  151.4285 N   0  0  0  0  0  0  0  0  0  0  0  0
  143.3534  131.3302  150.4594 H   0  0  0  0  0  0  0  0  0  0  0  0
  143.4370  133.0358  150.0143 H   0  0  0  0  0  0  0  0  0  0  0  0
  142.7758  132.5652  151.5853 H   0  0  0  0  0  0  0  0  0  0  0  0
  145.0095  130.3375  152.0662 H   0  0  0  0  0  0  0  0  0  0  0  0
  147.2800  130.5849  153.0936 H   0  0  0  0  0  0  0  0  0  0  0  0
  149.2334  131.9319  153.4352 H   0  0  0  0  0  0  0  0  0  0  0  0
  149.4377  133.3933  152.5104 H   0  0  0  0  0  0  0  0  0  0  0  0
  147.7495  133.6468  154.9827 H   0  0  0  0  0  0  0  0  0  0  0  0
  149.4462  133.3440  155.2630 H   0  0  0  0  0  0  0  0  0  0  0  0
  149.2829  135.4258  153.3801 H   0  0  0  0  0  0  0  0  0  0  0  0
  149.4920  137.3852  153.7866 H   0  0  0  0  0  0  0  0  0  0  0  0
  149.1119  138.3954  156.6148 H   0  0  0  0  0  0  0  0  0  0  0  0
  148.0809  140.3498  155.7866 H   0  0  0  0  0  0  0  0  0  0  0  0
  147.0651  138.7455  153.4292 H   0  0  0  0  0  0  0  0  0  0  0  0
  146.1312  139.6928  154.6103 H   0  0  0  0  0  0  0  0  0  0  0  0
  147.4013  140.7540  152.2364 H   0  0  0  0  0  0  0  0  0  0  0  0
  146.7742  141.7392  153.5606 H   0  0  0  0  0  0  0  0  0  0  0  0
  149.4573  139.3760  153.1707 H   0  0  0  0  0  0  0  0  0  0  0  0
  151.2929  141.4608  155.7865 H   0  0  0  0  0  0  0  0  0  0  0  0
  151.3376  140.2095  157.0192 H   0  0  0  0  0  0  0  0  0  0  0  0
  149.8593  141.0870  156.7144 H   0  0  0  0  0  0  0  0  0  0  0  0
  152.3795  139.7946  154.3642 H   0  0  0  0  0  0  0  0  0  0  0  0
  151.5535  138.3569  153.8120 H   0  0  0  0  0  0  0  0  0  0  0  0
  152.1837  138.4224  155.4493 H   0  0  0  0  0  0  0  0  0  0  0  0
  147.1756  134.7480  151.9419 H   0  0  0  0  0  0  0  0  0  0  0  0
  1  2  1  0  0  0  0
  1 23  1  0  0  0  0
  1 24  1  0  0  0  0
  1 25  1  0  0  0  0
  2 22  1  0  0  0  0
  2  3  2  0  0  0  0
  3  4  1  0  0  0  0
  3 26  1  0  0  0  0
  4  5  2  0  0  0  0
  4 27  1  0  0  0  0
  5  6  1  0  0  0  0
  5 21  1  0  0  0  0
  6  7  1  0  0  0  0
  6 28  1  0  0  0  0
  6 29  1  0  0  0  0
  7  8  1  0  0  0  0
  7 30  1  0  0  0  0
  7 31  1  0  0  0  0
  8  9  1  0  0  0  0
  8 32  1  0  0  0  0
  9 10  2  0  0  0  0
  9 11  1  0  0  0  0
 11 12  1  0  0  0  0
 11 33  1  0  0  0  0
 12 18  1  0  0  0  0
 12 13  1  0  0  0  0
 12 34  1  0  0  0  0
 13 17  1  0  0  0  0
 13 14  1  0  0  0  0
 13 35  1  0  0  0  0
 14 15  1  0  0  0  0
 14 36  1  0  0  0  0
 14 37  1  0  0  0  0
 15 16  1  0  0  0  0
 15 38  1  0  0  0  0
 15 39  1  0  0  0  0
 16 17  1  0  0  0  0
 17 18  1  0  0  0  0
 17 40  1  0  0  0  0
 18 19  1  0  0  0  0
 18 20  1  0  0  0  0
 19 41  1  0  0  0  0
 19 42  1  0  0  0  0
 19 43  1  0  0  0  0
 20 44  1  0  0  0  0
 20 45  1  0  0  0  0
 20 46  1  0  0  0  0
 21 22  2  0  0  0  0
 21 47  1  0  0  0  0
M  END
> <s_m_source_file>
AV-unprocessed.smi

> <i_m_source_file_index>
767

> <i_lp_mmshare_version>
43012

> <i_f3d_flags>
0

> <s_epik_input>
W0NIM11jMVtjSF1bY0hdYyhbY0hdbjEpW0NIMl1bQ0gyXVtOSF1DKD1PKVtOSF1bQ0BIXTJDKFtDSDNdKShbQ0gzXSlbQ0BIXShbQ0BASF0yMylPW0NIMl1bQ0gyXTM=

> <s_epik_cmdline>
J2VwaWtfcHl0aG9uJywgJy1waCcsICc3LjAnLCAnLXRuJywgJzgnLCAnLW1hJywgJzIwMCcsICctbWV0YWxfYmluZGluZycsICctaW1hZScsICc8aW5maWxlLm1hZT4nLCAnLW9tYWUnLCAnPG91dGZpbGUubWFlPic=

> <r_epik_Ionization_Penalty>
0.0567523

> <r_epik_Ionization_Penalty_Charging>
0

> <r_epik_Ionization_Penalty_Neutral>
0.0567523

> <r_epik_State_Penalty>
0.0489186

> <r_epik_Charging_Adjusted_Penalty>
0.0489186

> <i_epik_Tot_Q>
0

> <i_epik_Tot_abs_Q>
0

> <r_epik_Metal_State_Penalty>
0.044622

> <b_epik_Metal_Only>
0

> <s_lp_Force_Field>
OPLS_2005

> <r_lp_Energy>
58.7335

> <b_lp_Chiralities_Consistent>
1

> <s_lp_Variant>
AV-unprocessed.smi:767-7

> <Gold.Version>
5.8.1

> <Gold.Id.Protein>
6NUR|6NUR_protein|mol2

> <Gold.PLP.Fitness>
43.9716

> <Gold.PLP.PLP>
-35.3781

> <Gold.PLP.part.hbond>
-2.9777

> <Gold.PLP.part.metal>
0.0000

> <Gold.PLP.part.buried>
-1.5414

> <Gold.PLP.part.nonpolar>
-31.8391

> <Gold.PLP.part.repulsive>
1.6050

> <Gold.PLP.ligand.clash>
0.0000

> <Gold.PLP.ligand.torsion>
0.5452

> <Gold.PLP.Chemscore.Hbond>
2.1386

> <Gold.PLP.Chemscore.CHOScore>
1.0000

> <Gold.PLP.Chemscore.Metal>
0.0000

> <Gold.Chemscore.Hbonds>
donor molecule, donor type, donor heavy atom, donor atom, acceptor molecule, acceptor atom, score
      L1  H     8    32       P1  7948  1.00
      L1  H    11    33       P1  7948  0.26
      P1  H  8011  8017       L1    16  0.79
      L1  C    21    47       P1  7948  1.00

> <Gold.PLP.Chemscore.Internal.Correction>
0.2682

> <Gold.Rescore>
     Score         DG    S(hbond)    S(metal)    S(lipo)     H(rot)  DE(clash)    DE(int)     intcor
     15.84     -19.00       1.64        0.00     100.49       1.45       2.62       0.54       ----

> <Gold.Chemscore.Fitness>
15.8385

> <Gold.Chemscore.DG>
-18.9998

> <Gold.Chemscore.ZeroCoef>
-5.4800

> <Gold.Chemscore.Hbond>
1.6387

> <Gold.Chemscore.Metal>
0.0000

> <Gold.Chemscore.Lipo>
100.4928

> <Gold.Chemscore.Internal_Hbond>
0.0000

> <Gold.Chemscore.DEClash>
2.6229

> <Gold.Chemscore.DEInternal>
0.5384

> <Gold.Chemscore.Rot>
1.4497

> <Gold.Chemscore.Internal.Correction>
   9.000000E+99

> <Gold.Chemscore.Hbonds>
donor molecule, donor type, donor heavy atom, donor atom, acceptor molecule, acceptor atom, score
      L1  H     8    32       P1  7948  0.24
      L1  H    11    33       P1  7948  0.25
      P1  H  8011  8017       L1    16  0.61

> <Gold.Chemscore.Hbond.Weighted>
-5.4734

> <Gold.Chemscore.Metal.Weighted>
-0.0000

> <Gold.Chemscore.Lipo.Weighted>
-11.7577

> <Gold.Chemscore.Internal_Hbond.Weighted>
0.0000

> <Gold.Chemscore.DEClash.Weighted>
2.6229

> <Gold.Chemscore.DEInternal.Weighted>
0.5384

> <Gold.Chemscore.Rot.Weighted>
3.7112

> <Gold.Chemscore.Internal.Correction.Weighted>
   9.000000E+99

> <Gold.Protein.RotatedTorsions>
[ 6907 6896 6895 6894 ] final -148.56 input  -60.11 | X-H torsion
[ 7974 7965 7964 7962 ] final -115.74 input  175.53 | X-H torsion
[ 8008 7997 7996 7995 ] final  112.85 input   59.86 | X-H torsion
[ 10167 10162 10161 10158 ] final  159.62 input  -65.29 | X-H torsion
[ 10718 10713 10712 10709 ] final -126.99 input   66.30 | X-H torsion
[ 10763 10752 10751 10750 ] final   48.32 input  -60.55 | X-H torsion
[ 11005 11000 10999 10996 ] final  121.76 input  -57.11 | X-H torsion

> <Gold.Protein.ActiveResidues>
 VAL166  LYS551  ARG553  GLY616  TRP617  ASP618  TYR619  PRO620  LYS621  CYS622 
 ASP623  PHE694  ASN695  SER759  ASP760  ASP761  ALA762  ILE779  LEU786  VAL792 
 PHE793  MET794  SER795  GLU796  ALA797  LYS798  CYS799  TRP800  GLU811  SER814 

> <Gold.Protein.RotatedAtoms>
  151.1715  133.4781  159.2593 H   0  0  0  0  0  0  0  0  0  0  0  0  # atno 6907 bound_to 6896
  151.1351  135.0150  159.8610 H   0  0  0  0  0  0  0  0  0  0  0  0  # atno 6908 bound_to 6896
  152.5461  134.1614  159.8612 H   0  0  0  0  0  0  0  0  0  0  0  0  # atno 6909 bound_to 6896
  145.1049  140.8575  143.3904 H   0  0  0  0  0  0  0  0  0  0  0  0  # atno 7974 bound_to 7965
  156.2220  140.2991  155.9974 H   0  0  0  0  0  0  0  0  0  0  0  0  # atno 8008 bound_to 7997
  155.2457  140.0424  157.2997 H   0  0  0  0  0  0  0  0  0  0  0  0  # atno 8009 bound_to 7997
  154.5855  140.2387  155.8001 H   0  0  0  0  0  0  0  0  0  0  0  0  # atno 8010 bound_to 7997
  139.4834  144.4712  151.8573 H   0  0  0  0  0  0  0  0  0  0  0  0  # atno 10167 bound_to 10162
  156.1816  130.6735  151.0311 H   0  0  0  0  0  0  0  0  0  0  0  0  # atno 10718 bound_to 10713
  152.9793  135.5948  154.3906 H   0  0  0  0  0  0  0  0  0  0  0  0  # atno 10763 bound_to 10752
  154.3562  135.2767  155.2347 H   0  0  0  0  0  0  0  0  0  0  0  0  # atno 10764 bound_to 10752
  154.4364  135.6024  153.6156 H   0  0  0  0  0  0  0  0  0  0  0  0  # atno 10765 bound_to 10752
  139.9239  134.9639  156.8006 H   0  0  0  0  0  0  0  0  0  0  0  0  # atno 11005 bound_to 11000
  145.0913  139.2888  143.5733 LP  0  0  0  0  0  0  0  0  0  0  0  0  # atno 17320 bound_to 7965
  146.3528  140.0451  142.8640 LP  0  0  0  0  0  0  0  0  0  0  0  0  # atno 17321 bound_to 7965
  140.4181  144.2279  150.5887 LP  0  0  0  0  0  0  0  0  0  0  0  0  # atno 17342 bound_to 10162
  140.4900  143.2350  151.8832 LP  0  0  0  0  0  0  0  0  0  0  0  0  # atno 17343 bound_to 10162
  157.6871  131.0821  150.7211 LP  0  0  0  0  0  0  0  0  0  0  0  0  # atno 17370 bound_to 10713
  156.7268  130.4697  149.5509 LP  0  0  0  0  0  0  0  0  0  0  0  0  # atno 17371 bound_to 10713
  140.6393  133.9833  155.7699 LP  0  0  0  0  0  0  0  0  0  0  0  0  # atno 17394 bound_to 11000
  141.0782  134.0103  157.3426 LP  0  0  0  0  0  0  0  0  0  0  0  0  # atno 17395 bound_to 11000

$$$$
