AV-unprocessed.smi:1351|AV-procd|sdf|5527|dock1
  -GOLD-   22720 5113D 1   1.00000     0.00000
 Structure written by MMmdl.
 35 36  0  0  0  0  0  0  0  0  2 V2000
  153.8903  141.9284  161.4549 C   0  0  0  0  0  0  0  0  0  0  0  0
  152.9747  142.9372  160.9339 N   0  0  0  0  0  0  0  0  0  0  0  0
  152.7165  144.1555  161.6901 C   0  0  0  0  0  0  0  0  0  0  0  0
  152.2648  142.6903  159.7390 C   0  0  0  0  0  0  0  0  0  0  0  0
  152.3015  141.4493  159.0571 C   0  0  0  0  0  0  0  0  0  0  0  0
  151.5650  141.2806  157.8667 C   0  0  0  0  0  0  0  0  0  0  0  0
  150.7871  142.3445  157.3647 C   0  0  0  0  0  0  0  0  0  0  0  0
  150.0772  142.1311  156.1522 N   0  0  0  0  0  0  0  0  0  0  0  0
  150.2545  141.1707  155.2254 C   0  0  0  0  0  0  0  0  0  0  0  0
  151.1451  140.3221  155.2641 O   0  0  0  0  0  0  0  0  0  0  0  0
  149.2899  141.2030  154.0325 C   0  0  1  0  0  0  0  0  0  0  0  0
  148.3890  139.9727  153.9132 C   0  0  0  0  0  0  0  0  0  0  0  0
  147.2451  140.5176  153.0866 C   0  0  0  0  0  0  0  0  0  0  0  0
  147.1163  141.9515  153.5982 C   0  0  0  0  0  0  0  0  0  0  0  0
  148.3798  142.2934  154.1641 O   0  0  0  0  0  0  0  0  0  0  0  0
  150.7894  143.5673  158.0765 C   0  0  0  0  0  0  0  0  0  0  0  0
  151.5116  143.6864  159.2117 N   0  3  0  0  0  0  0  0  0  0  0  0
  154.6760  141.7108  160.7308 H   0  0  0  0  0  0  0  0  0  0  0  0
  153.3558  141.0038  161.6760 H   0  0  0  0  0  0  0  0  0  0  0  0
  154.3698  142.2650  162.3742 H   0  0  0  0  0  0  0  0  0  0  0  0
  151.6710  144.2024  161.9967 H   0  0  0  0  0  0  0  0  0  0  0  0
  152.9437  145.0352  161.0872 H   0  0  0  0  0  0  0  0  0  0  0  0
  153.3303  144.2021  162.5898 H   0  0  0  0  0  0  0  0  0  0  0  0
  152.8861  140.6201  159.4261 H   0  0  0  0  0  0  0  0  0  0  0  0
  151.5976  140.3346  157.3459 H   0  0  0  0  0  0  0  0  0  0  0  0
  149.3583  142.8090  155.9427 H   0  0  0  0  0  0  0  0  0  0  0  0
  149.8587  141.3383  153.1113 H   0  0  0  0  0  0  0  0  0  0  0  0
  148.8850  139.1282  153.4336 H   0  0  0  0  0  0  0  0  0  0  0  0
  148.0269  139.6504  154.8911 H   0  0  0  0  0  0  0  0  0  0  0  0
  147.5215  140.5219  152.0313 H   0  0  0  0  0  0  0  0  0  0  0  0
  146.3252  139.9423  153.1945 H   0  0  0  0  0  0  0  0  0  0  0  0
  146.8393  142.6443  152.8033 H   0  0  0  0  0  0  0  0  0  0  0  0
  146.3592  142.0148  154.3805 H   0  0  0  0  0  0  0  0  0  0  0  0
  150.2578  144.4602  157.7847 H   0  0  0  0  0  0  0  0  0  0  0  0
  151.4895  144.5822  159.6991 H   0  0  0  0  0  0  0  0  0  0  0  0
  1  2  1  0  0  0  0
  1 18  1  0  0  0  0
  1 19  1  0  0  0  0
  1 20  1  0  0  0  0
  2  3  1  0  0  0  0
  2  4  1  0  0  0  0
  3 21  1  0  0  0  0
  3 22  1  0  0  0  0
  3 23  1  0  0  0  0
  4 17  1  0  0  0  0
  4  5  2  0  0  0  0
  5  6  1  0  0  0  0
  5 24  1  0  0  0  0
  6  7  2  0  0  0  0
  6 25  1  0  0  0  0
  7  8  1  0  0  0  0
  7 16  1  0  0  0  0
  8  9  1  0  0  0  0
  8 26  1  0  0  0  0
  9 10  2  0  0  0  0
  9 11  1  0  0  0  0
 11 15  1  0  0  0  0
 11 12  1  0  0  0  0
 11 27  1  0  0  0  0
 12 13  1  0  0  0  0
 12 28  1  0  0  0  0
 12 29  1  0  0  0  0
 13 14  1  0  0  0  0
 13 30  1  0  0  0  0
 13 31  1  0  0  0  0
 14 15  1  0  0  0  0
 14 32  1  0  0  0  0
 14 33  1  0  0  0  0
 16 17  2  0  0  0  0
 16 34  1  0  0  0  0
 17 35  1  0  0  0  0
M  CHG  1  17   1
M  END
> <s_m_source_file>
AV-unprocessed.smi

> <i_m_source_file_index>
1351

> <i_lp_mmshare_version>
43012

> <i_f3d_flags>
0

> <s_epik_input>
W0NIM11OKFtDSDNdKWMxW2NIXVtjSF1jKFtjSF1uMSlbTkhdQyg9TylbQ0BASF0yW0NIMl1bQ0gyXVtDSDJdTzI=

> <s_epik_cmdline>
J2VwaWtfcHl0aG9uJywgJy1waCcsICc3LjAnLCAnLXRuJywgJzgnLCAnLW1hJywgJzIwMCcsICctbWV0YWxfYmluZGluZycsICctaW1hZScsICc8aW5maWxlLm1hZT4nLCAnLW9tYWUnLCAnPG91dGZpbGUubWFlPic=

> <r_lp_tautomer_probability>
0.999994

> <r_epik_Ionization_Penalty>
0.682441

> <r_epik_Ionization_Penalty_Charging>
0.68244

> <r_epik_Ionization_Penalty_Neutral>
1.70545e-06

> <r_epik_State_Penalty>
0.703594

> <r_epik_Charging_Adjusted_Penalty>
1.38603

> <i_epik_Tot_Q>
1

> <i_epik_Tot_abs_Q>
1

> <r_epik_Metal_State_Penalty>
0.869714

> <b_epik_Metal_Only>
0

> <s_lp_Force_Field>
OPLS_2005

> <r_lp_Energy>
30.013

> <b_lp_Chiralities_Consistent>
1

> <s_lp_Variant>
AV-unprocessed.smi:1351-4

> <Gold.Version>
5.8.1

> <Gold.Id.Protein>
6NUR|6NUR_protein|mol2

> <Gold.PLP.Fitness>
42.3833

> <Gold.PLP.PLP>
-37.9316

> <Gold.PLP.part.hbond>
-2.7797

> <Gold.PLP.part.metal>
0.0000

> <Gold.PLP.part.buried>
-2.6044

> <Gold.PLP.part.nonpolar>
-33.4243

> <Gold.PLP.part.repulsive>
2.6572

> <Gold.PLP.ligand.clash>
0.0000

> <Gold.PLP.ligand.torsion>
0.1224

> <Gold.PLP.Chemscore.Hbond>
1.5589

> <Gold.PLP.Chemscore.CHOScore>
0.0000

> <Gold.PLP.Chemscore.Metal>
0.0000

> <Gold.Chemscore.Hbonds>
donor molecule, donor type, donor heavy atom, donor atom, acceptor molecule, acceptor atom, score
      L1  H     8    26       P1  8028  0.96
      P1  H  7989  7998       L1    10  0.40

> <Gold.PLP.Chemscore.Internal.Correction>
0.0200

> <Gold.Rescore>
     Score         DG    S(hbond)    S(metal)    S(lipo)     H(rot)  DE(clash)    DE(int)     intcor
     13.92     -15.70       0.91        0.00      83.25       1.00       0.18       1.61       ----

> <Gold.Chemscore.Fitness>
13.9155

> <Gold.Chemscore.DG>
-15.6993

> <Gold.Chemscore.ZeroCoef>
-5.4800

> <Gold.Chemscore.Hbond>
0.9099

> <Gold.Chemscore.Metal>
0.0000

> <Gold.Chemscore.Lipo>
83.2503

> <Gold.Chemscore.Internal_Hbond>
0.0000

> <Gold.Chemscore.DEClash>
0.1783

> <Gold.Chemscore.DEInternal>
1.6055

> <Gold.Chemscore.Rot>
1.0000

> <Gold.Chemscore.Internal.Correction>
   9.000000E+99

> <Gold.Chemscore.Hbonds>
donor molecule, donor type, donor heavy atom, donor atom, acceptor molecule, acceptor atom, score
      L1  H     8    26       P1  8028  0.90
      P1  H  7989  7998       L1    10  0.01

> <Gold.Chemscore.Hbond.Weighted>
-3.0390

> <Gold.Chemscore.Metal.Weighted>
-0.0000

> <Gold.Chemscore.Lipo.Weighted>
-9.7403

> <Gold.Chemscore.Internal_Hbond.Weighted>
0.0000

> <Gold.Chemscore.DEClash.Weighted>
0.1783

> <Gold.Chemscore.DEInternal.Weighted>
1.6055

> <Gold.Chemscore.Rot.Weighted>
2.5600

> <Gold.Chemscore.Internal.Correction.Weighted>
   9.000000E+99

> <Gold.Protein.RotatedTorsions>
[ 6907 6896 6895 6894 ] final -165.46 input  -60.11 | X-H torsion
[ 7974 7965 7964 7962 ] final  -43.97 input  175.53 | X-H torsion
[ 8008 7997 7996 7995 ] final  156.18 input   59.86 | X-H torsion
[ 10167 10162 10161 10158 ] final  145.15 input  -65.29 | X-H torsion
[ 10718 10713 10712 10709 ] final  -85.47 input   66.30 | X-H torsion
[ 10763 10752 10751 10750 ] final   17.25 input  -60.55 | X-H torsion
[ 11005 11000 10999 10996 ] final   56.47 input  -57.11 | X-H torsion

> <Gold.Protein.ActiveResidues>
 VAL166  LYS551  ARG553  GLY616  TRP617  ASP618  TYR619  PRO620  LYS621  CYS622 
 ASP623  PHE694  ASN695  SER759  ASP760  ASP761  ALA762  ILE779  LEU786  VAL792 
 PHE793  MET794  SER795  GLU796  ALA797  LYS798  CYS799  TRP800  GLU811  SER814 

> <Gold.Protein.RotatedAtoms>
  151.4280  133.3678  159.2764 H   0  0  0  0  0  0  0  0  0  0  0  0  # atno 6907 bound_to 6896
  150.9245  134.8664  159.7521 H   0  0  0  0  0  0  0  0  0  0  0  0  # atno 6908 bound_to 6896
  152.4998  134.4221  159.9536 H   0  0  0  0  0  0  0  0  0  0  0  0  # atno 6909 bound_to 6896
  145.9967  140.7120  142.9290 H   0  0  0  0  0  0  0  0  0  0  0  0  # atno 7974 bound_to 7965
  156.2437  140.1919  156.6916 H   0  0  0  0  0  0  0  0  0  0  0  0  # atno 8008 bound_to 7997
  154.6248  140.0604  156.9685 H   0  0  0  0  0  0  0  0  0  0  0  0  # atno 8009 bound_to 7997
  155.1805  140.3276  155.4378 H   0  0  0  0  0  0  0  0  0  0  0  0  # atno 8010 bound_to 7997
  139.4932  144.5922  151.6658 H   0  0  0  0  0  0  0  0  0  0  0  0  # atno 10167 bound_to 10162
  155.9996  130.4732  150.4567 H   0  0  0  0  0  0  0  0  0  0  0  0  # atno 10718 bound_to 10713
  153.1356  135.6749  153.9108 H   0  0  0  0  0  0  0  0  0  0  0  0  # atno 10763 bound_to 10752
  153.8581  135.3085  155.3437 H   0  0  0  0  0  0  0  0  0  0  0  0  # atno 10764 bound_to 10752
  154.7745  135.4922  153.9798 H   0  0  0  0  0  0  0  0  0  0  0  0  # atno 10765 bound_to 10752
  140.0527  134.5715  155.9245 H   0  0  0  0  0  0  0  0  0  0  0  0  # atno 11005 bound_to 11000
  144.6906  140.3162  143.7240 LP  0  0  0  0  0  0  0  0  0  0  0  0  # atno 17320 bound_to 7965
  145.7549  139.1806  143.2300 LP  0  0  0  0  0  0  0  0  0  0  0  0  # atno 17321 bound_to 7965
  140.5551  144.0361  150.6144 LP  0  0  0  0  0  0  0  0  0  0  0  0  # atno 17342 bound_to 10162
  140.3428  143.3009  152.0570 LP  0  0  0  0  0  0  0  0  0  0  0  0  # atno 17343 bound_to 10162
  157.2595  131.0564  151.2329 LP  0  0  0  0  0  0  0  0  0  0  0  0  # atno 17370 bound_to 10713
  157.3449  130.7052  149.6404 LP  0  0  0  0  0  0  0  0  0  0  0  0  # atno 17371 bound_to 10713
  141.1937  133.6580  156.5563 LP  0  0  0  0  0  0  0  0  0  0  0  0  # atno 17394 bound_to 11000
  140.3893  134.7454  157.4711 LP  0  0  0  0  0  0  0  0  0  0  0  0  # atno 17395 bound_to 11000

$$$$
