#       Name:                AV-unprocessed.smi:288
#       Creating user name   scv26
#       Creation time:       Thu Mar 26 22:04:39 2020


#       File generated by GOLD software.
#

@<TRIPOS>MOLECULE
AV-unprocessed.smi:288
    41    42     1
SMALL
NO_CHARGES


@<TRIPOS>ATOM
      1 ****        -1.3735  -1.7691  -2.6179 O.2            1 S1                 0.0000
      2 ****        -1.1925  -1.0814  -1.6120 C.2            1 S1                 0.0000
      3 ****        -1.7566   0.2528  -1.4458 C.2            1 S1                 0.0000
      4 ****        -2.4946   0.7888  -2.4326 F              1 S1                 0.0000
      5 ****        -1.5342   0.9712  -0.3243 C.2            1 S1                 0.0000
      6 ****        -0.7850   0.5018   0.7448 N.am           1 S1                 0.0000
      7 ****        -0.4770   1.3527   1.9682 C.3            1 S1                 0.0000
      8 ****        -1.4640   2.5043   2.2022 C.3            1 S1                 0.0000
      9 ****        -0.7605   3.7031   1.5717 C.3            1 S1                 0.0000
     10 ****         0.5689   3.1477   1.0494 C.3            1 S1                 0.0000
     11 ****         0.7671   1.9501   1.7882 O.3            1 S1                 0.0000
     12 ****        -0.1524  -0.7578   0.6414 C.2            1 S1                 0.0000
     13 ****         0.5828  -1.1728   1.5409 O.2            1 S1                 0.0000
     14 ****        -0.3943  -1.5198  -0.5262 N.am           1 S1                 0.0000
     15 ****         0.2372  -2.8283  -0.6125 C.3            1 S1                 0.0000
     16 ****         1.7413  -2.8032  -0.9789 C.3            1 S1                 0.0000
     17 ****         2.2345  -4.1187  -0.8220 O.3            1 S1                 0.0000
     18 ****         2.0679  -2.3092  -2.4047 C.3            1 S1                 0.0000
     19 ****         3.3760  -2.4261  -2.6345 F              1 S1                 0.0000
     20 ****         1.3937  -3.0066  -3.3194 F              1 S1                 0.0000
     21 ****         1.7563  -1.0195  -2.5285 F              1 S1                 0.0000
     22 ****        -1.9608   1.9610  -0.2899 H              1 S1                 0.0000
     23 ****        -0.4711   0.6587   2.8103 H              1 S1                 0.0000
     24 ****        -2.4601   2.2928   1.8143 H              1 S1                 0.0000
     25 ****        -1.5569   2.6593   3.2778 H              1 S1                 0.0000
     26 ****        -1.3473   4.1539   0.7708 H              1 S1                 0.0000
     27 ****        -0.5840   4.4700   2.3266 H              1 S1                 0.0000
     28 ****         0.5047   2.9172  -0.0149 H              1 S1                 0.0000
     29 ****         1.3967   3.8426   1.1920 H              1 S1                 0.0000
     30 ****         0.0816  -3.2995   0.3603 H              1 S1                 0.0000
     31 ****        -0.3298  -3.4504  -1.3056 H              1 S1                 0.0000
     32 ****         2.2836  -2.1833  -0.2646 H              1 S1                 0.0000
     33 ****         2.1034  -4.3825   0.0758 H              1 S1                 0.0000
     34 ****        -0.9501  -2.6722  -2.6890 LP             1 S1                 0.0000
     35 ****        -1.9439  -1.4242  -3.3634 LP             1 S1                 0.0000
     36 ****         1.3707   1.3339   1.2823 LP             1 S1                 0.0000
     37 ****         1.1750   2.1615   2.6764 LP             1 S1                 0.0000
     38 ****         0.7377  -0.6159   2.3569 LP             1 S1                 0.0000
     39 ****         1.0238  -2.0661   1.4540 LP             1 S1                 0.0000
     40 ****         3.2098  -4.1418  -1.0415 LP             1 S1                 0.0000
     41 ****         1.7408  -4.7391  -1.4315 LP             1 S1                 0.0000
@<TRIPOS>BOND
    1    1    2 2     
    2    2   14 am    
    3    2    3 1     
    4    3    4 1     
    5    3    5 2     
    6    5    6 1     
    7    5   22 1     
    8    6    7 1     
    9    6   12 am    
   10    7   11 1     
   11    7    8 1     
   12    7   23 1     
   13    8    9 1     
   14    8   24 1     
   15    8   25 1     
   16    9   10 1     
   17    9   26 1     
   18    9   27 1     
   19   10   11 1     
   20   10   28 1     
   21   10   29 1     
   22   12   13 2     
   23   12   14 am    
   24   14   15 1     
   25   15   16 1     
   26   15   30 1     
   27   15   31 1     
   28   16   17 1     
   29   16   18 1     
   30   16   32 1     
   31   17   33 1     
   32   18   19 1     
   33   18   20 1     
   34   18   21 1     
   35    1   34 1     
   36    1   35 1     
   37   11   36 1     
   38   11   37 1     
   39   13   38 1     
   40   13   39 1     
   41   17   40 1     
   42   17   41 1     
@<TRIPOS>SUBSTRUCTURE
      1 S1             1
@<TRIPOS>SET
LONE_PAIRS      STATIC     ATOMS    <user>   **** ""
8 34 35 36 37 38 39 40 41
DONOR_HYDROGENS      STATIC     ATOMS    <user>   **** ""
1 33
ATOM$BLUE        STATIC     ATOMS    COLORGROUP SYSTEM
8 34 35 36 37 38 39 40 41
ATOM$RED        STATIC     ATOMS    COLORGROUP SYSTEM
1 33
