AV-unprocessed.smi:3122|AV-procd|sdf|11898|dock2
  -GOLD-   2272017283D 1   1.00000     0.00000
 Structure written by MMmdl.
 29 30  0  0  0  0  0  0  0  0  1 V2000
  153.0961  141.7002  160.8606 C   0  0  0  0  0  0  0  0  0  0  0  0
  153.0077  142.2948  159.4472 C   0  0  0  0  0  0  0  0  0  0  0  0
  152.2093  143.6056  159.4165 C   0  0  0  0  0  0  0  0  0  0  0  0
  152.4787  141.3083  158.4542 C   0  0  0  0  0  0  0  0  0  0  0  0
  152.9457  140.0835  158.1949 N   0  0  0  0  0  0  0  0  0  0  0  0
  152.0670  139.5284  157.2924 N   0  0  0  0  0  0  0  0  0  0  0  0
  151.1250  140.4530  157.0848 C   0  0  0  0  0  0  0  0  0  0  0  0
  149.8955  140.3369  156.2427 C   0  0  2  0  0  0  0  0  0  0  0  0
  150.2221  140.0136  154.7720 C   0  0  0  0  0  0  0  0  0  0  0  0
  148.9971  139.9933  153.9739 N   0  0  0  0  0  0  0  0  0  0  0  0
  148.2547  141.2456  154.1124 C   0  0  0  0  0  0  0  0  0  0  0  0
  147.9825  141.5469  155.5973 C   0  0  0  0  0  0  0  0  0  0  0  0
  149.2139  141.5867  156.3103 O   0  0  0  0  0  0  0  0  0  0  0  0
  151.3085  141.5801  157.8201 O   0  0  0  0  0  0  0  0  0  0  0  0
  153.7132  140.8012  160.8693 H   0  0  0  0  0  0  0  0  0  0  0  0
  152.1105  141.4320  161.2429 H   0  0  0  0  0  0  0  0  0  0  0  0
  153.5402  142.4107  161.5584 H   0  0  0  0  0  0  0  0  0  0  0  0
  154.0271  142.5331  159.1412 H   0  0  0  0  0  0  0  0  0  0  0  0
  152.2208  144.0474  158.4195 H   0  0  0  0  0  0  0  0  0  0  0  0
  152.6284  144.3381  160.1068 H   0  0  0  0  0  0  0  0  0  0  0  0
  151.1679  143.4414  159.6958 H   0  0  0  0  0  0  0  0  0  0  0  0
  149.2654  139.5549  156.6704 H   0  0  0  0  0  0  0  0  0  0  0  0
  150.9093  140.7616  154.3744 H   0  0  0  0  0  0  0  0  0  0  0  0
  150.7302  139.0514  154.7023 H   0  0  0  0  0  0  0  0  0  0  0  0
  149.2299  139.8422  152.9975 H   0  0  0  0  0  0  0  0  0  0  0  0
  148.8236  142.0651  153.6716 H   0  0  0  0  0  0  0  0  0  0  0  0
  147.3147  141.1863  153.5636 H   0  0  0  0  0  0  0  0  0  0  0  0
  147.4861  142.5119  155.6988 H   0  0  0  0  0  0  0  0  0  0  0  0
  147.3174  140.7995  156.0330 H   0  0  0  0  0  0  0  0  0  0  0  0
  1  2  1  0  0  0  0
  1 15  1  0  0  0  0
  1 16  1  0  0  0  0
  1 17  1  0  0  0  0
  2  3  1  0  0  0  0
  2  4  1  0  0  0  0
  2 18  1  0  0  0  0
  3 19  1  0  0  0  0
  3 20  1  0  0  0  0
  3 21  1  0  0  0  0
  4 14  1  0  0  0  0
  4  5  2  0  0  0  0
  5  6  1  0  0  0  0
  6  7  2  0  0  0  0
  7  8  1  0  0  0  0
  7 14  1  0  0  0  0
  8 13  1  0  0  0  0
  8  9  1  0  0  0  0
  8 22  1  0  0  0  0
  9 10  1  0  0  0  0
  9 23  1  0  0  0  0
  9 24  1  0  0  0  0
 10 11  1  0  0  0  0
 10 25  1  0  0  0  0
 11 12  1  0  0  0  0
 11 26  1  0  0  0  0
 11 27  1  0  0  0  0
 12 13  1  0  0  0  0
 12 28  1  0  0  0  0
 12 29  1  0  0  0  0
M  END
> <s_m_source_file>
AV-unprocessed.smi

> <i_m_source_file_index>
3122

> <i_lp_mmshare_version>
43012

> <i_f3d_flags>
0

> <s_epik_input>
W0NIM11bQ0hdKFtDSDNdKWMxbm5jKG8xKVtDQEBIXTJbQ0gyXVtOSF1bQ0gyXVtDSDJdTzI=

> <s_epik_cmdline>
J2VwaWtfcHl0aG9uJywgJy1waCcsICc3LjAnLCAnLXRuJywgJzgnLCAnLW1hJywgJzIwMCcsICctbWV0YWxfYmluZGluZycsICctaW1hZScsICc8aW5maWxlLm1hZT4nLCAnLW9tYWUnLCAnPG91dGZpbGUubWFlPic=

> <r_lp_tautomer_probability>
1

> <r_epik_Ionization_Penalty>
1.64488

> <r_epik_Ionization_Penalty_Charging>
0

> <r_epik_Ionization_Penalty_Neutral>
1.64488

> <r_epik_State_Penalty>
1.74649

> <r_epik_Charging_Adjusted_Penalty>
1.74649

> <i_epik_Tot_Q>
0

> <i_epik_Tot_abs_Q>
0

> <r_epik_Metal_State_Penalty>
1.74649

> <b_epik_Metal_Only>
0

> <s_lp_Force_Field>
OPLS_2005

> <r_lp_Energy>
11.6401

> <b_lp_Chiralities_Consistent>
1

> <s_lp_Variant>
AV-unprocessed.smi:3122-3

> <Gold.Version>
5.8.1

> <Gold.Id.Protein>
6NUR|6NUR_protein|mol2

> <Gold.PLP.Fitness>
31.1894

> <Gold.PLP.PLP>
-25.2523

> <Gold.PLP.part.hbond>
-2.0000

> <Gold.PLP.part.metal>
0.0000

> <Gold.PLP.part.buried>
-2.7227

> <Gold.PLP.part.nonpolar>
-20.9054

> <Gold.PLP.part.repulsive>
0.1377

> <Gold.PLP.ligand.clash>
0.0000

> <Gold.PLP.ligand.torsion>
0.0969

> <Gold.PLP.Chemscore.Hbond>
2.0000

> <Gold.PLP.Chemscore.CHOScore>
0.0000

> <Gold.PLP.Chemscore.Metal>
0.0000

> <Gold.Chemscore.Hbonds>
donor molecule, donor type, donor heavy atom, donor atom, acceptor molecule, acceptor atom, score
      L1  H    10    25       P1  7957  1.00
      P1  H  7997  8009       L1     5  0.95

> <Gold.PLP.Chemscore.Internal.Correction>
0.1309

> <Gold.Rescore>
     Score         DG    S(hbond)    S(metal)    S(lipo)     H(rot)  DE(clash)    DE(int)     intcor
     13.77     -14.05       1.47        0.00      58.53       1.24       0.20       0.08       ----

> <Gold.Chemscore.Fitness>
13.7727

> <Gold.Chemscore.DG>
-14.0511

> <Gold.Chemscore.ZeroCoef>
-5.4800

> <Gold.Chemscore.Hbond>
1.4679

> <Gold.Chemscore.Metal>
0.0000

> <Gold.Chemscore.Lipo>
58.5315

> <Gold.Chemscore.Internal_Hbond>
0.0000

> <Gold.Chemscore.DEClash>
0.1997

> <Gold.Chemscore.DEInternal>
0.0787

> <Gold.Chemscore.Rot>
1.2422

> <Gold.Chemscore.Internal.Correction>
   9.000000E+99

> <Gold.Chemscore.Hbonds>
donor molecule, donor type, donor heavy atom, donor atom, acceptor molecule, acceptor atom, score
      L1  H    10    25       P1  7957  1.00
      P1  H  7997  8009       L1     5  0.17

> <Gold.Chemscore.Hbond.Weighted>
-4.9028

> <Gold.Chemscore.Metal.Weighted>
-0.0000

> <Gold.Chemscore.Lipo.Weighted>
-6.8482

> <Gold.Chemscore.Internal_Hbond.Weighted>
0.0000

> <Gold.Chemscore.DEClash.Weighted>
0.1997

> <Gold.Chemscore.DEInternal.Weighted>
0.0787

> <Gold.Chemscore.Rot.Weighted>
3.1799

> <Gold.Chemscore.Internal.Correction.Weighted>
   9.000000E+99

> <Gold.Protein.RotatedTorsions>
[ 6907 6896 6895 6894 ] final   28.56 input  -60.11 | X-H torsion
[ 7974 7965 7964 7962 ] final -102.77 input  175.53 | X-H torsion
[ 8008 7997 7996 7995 ] final  151.66 input   59.86 | X-H torsion
[ 10167 10162 10161 10158 ] final  -90.56 input  -65.29 | X-H torsion
[ 10718 10713 10712 10709 ] final  -73.02 input   66.30 | X-H torsion
[ 10763 10752 10751 10750 ] final -119.77 input  -60.55 | X-H torsion
[ 11005 11000 10999 10996 ] final   94.45 input  -57.11 | X-H torsion

> <Gold.Protein.ActiveResidues>
 VAL166  LYS551  ARG553  GLY616  TRP617  ASP618  TYR619  PRO620  LYS621  CYS622 
 ASP623  PHE694  ASN695  SER759  ASP760  ASP761  ALA762  ILE779  LEU786  VAL792 
 PHE793  MET794  SER795  GLU796  ALA797  LYS798  CYS799  TRP800  GLU811  SER814 

> <Gold.Protein.RotatedAtoms>
  152.0188  134.9834  160.0569 H   0  0  0  0  0  0  0  0  0  0  0  0  # atno 6907 bound_to 6896
  152.1357  133.4429  159.4751 H   0  0  0  0  0  0  0  0  0  0  0  0  # atno 6908 bound_to 6896
  150.6860  134.2284  159.4468 H   0  0  0  0  0  0  0  0  0  0  0  0  # atno 6909 bound_to 6896
  145.2644  140.9279  143.3022 H   0  0  0  0  0  0  0  0  0  0  0  0  # atno 7974 bound_to 7965
  156.2664  140.2042  156.6210 H   0  0  0  0  0  0  0  0  0  0  0  0  # atno 8008 bound_to 7997
  154.6757  140.0545  157.0237 H   0  0  0  0  0  0  0  0  0  0  0  0  # atno 8009 bound_to 7997
  155.1073  140.3212  155.4534 H   0  0  0  0  0  0  0  0  0  0  0  0  # atno 8010 bound_to 7997
  140.3537  143.2878  151.9696 H   0  0  0  0  0  0  0  0  0  0  0  0  # atno 10167 bound_to 10162
  156.0297  130.4385  150.2680 H   0  0  0  0  0  0  0  0  0  0  0  0  # atno 10718 bound_to 10713
  154.8626  135.4226  154.2352 H   0  0  0  0  0  0  0  0  0  0  0  0  # atno 10763 bound_to 10752
  153.3329  135.6989  153.6938 H   0  0  0  0  0  0  0  0  0  0  0  0  # atno 10764 bound_to 10752
  153.5948  135.3548  155.2897 H   0  0  0  0  0  0  0  0  0  0  0  0  # atno 10765 bound_to 10752
  139.8798  134.8846  156.3866 H   0  0  0  0  0  0  0  0  0  0  0  0  # atno 11005 bound_to 11000
  144.9390  139.4211  143.6458 LP  0  0  0  0  0  0  0  0  0  0  0  0  # atno 17320 bound_to 7965
  146.3265  139.8339  142.8903 LP  0  0  0  0  0  0  0  0  0  0  0  0  # atno 17321 bound_to 7965
  139.4823  144.6053  151.7531 LP  0  0  0  0  0  0  0  0  0  0  0  0  # atno 17342 bound_to 10162
  140.5194  144.0902  150.6018 LP  0  0  0  0  0  0  0  0  0  0  0  0  # atno 17343 bound_to 10162
  157.0783  131.0136  151.3166 LP  0  0  0  0  0  0  0  0  0  0  0  0  # atno 17370 bound_to 10713
  157.4947  130.7843  149.7543 LP  0  0  0  0  0  0  0  0  0  0  0  0  # atno 17371 bound_to 10713
  140.9362  133.7545  156.0088 LP  0  0  0  0  0  0  0  0  0  0  0  0  # atno 17394 bound_to 11000
  140.8273  134.3220  157.5361 LP  0  0  0  0  0  0  0  0  0  0  0  0  # atno 17395 bound_to 11000

$$$$
