AV-unprocessed.smi:3226|AV-procd|sdf|12314|dock10
  -GOLD-   2272018163D 1   1.00000     0.00000
 Structure written by MMmdl.
 41 43  0  0  0  0  0  0  0  0  2 V2000
  152.1302  138.3498  159.1582 C   0  0  0  0  0  0  0  0  0  0  0  0
  151.9176  139.6161  158.3214 C   0  0  0  0  0  0  0  0  0  0  0  0
  151.9324  139.3424  156.8490 C   0  0  0  0  0  0  0  0  0  0  0  0
  153.0056  138.8755  156.1999 N   0  0  0  0  0  0  0  0  0  0  0  0
  152.6128  138.7298  154.8849 N   0  0  0  0  0  0  0  0  0  0  0  0
  151.3379  139.1137  154.8722 C   0  0  0  0  0  0  0  0  0  0  0  0
  150.8511  139.5108  156.0580 N   0  0  0  0  0  0  0  0  0  0  0  0
  149.5116  139.9800  156.3700 C   0  0  0  0  0  0  0  0  0  0  0  0
  149.2459  141.3973  155.8367 C   0  0  0  0  0  0  0  0  0  0  0  0
  150.3662  142.3132  156.1331 N   0  3  0  0  0  0  0  0  0  0  0  0
  150.7350  142.3686  157.5610 C   0  0  0  0  0  0  0  0  0  0  0  0
  150.9674  143.8201  158.0206 C   0  0  1  0  0  0  0  0  0  0  0  0
  150.1457  144.2452  159.2776 C   0  0  0  0  0  0  0  0  0  0  0  0
  151.2302  144.7950  160.2328 C   0  0  1  0  0  0  0  0  0  0  0  0
  152.0821  143.6263  160.6780 C   0  0  0  0  0  0  0  0  0  0  0  0
  152.7956  143.2312  159.6223 C   0  0  0  0  0  0  0  0  0  0  0  0
  152.4223  144.1326  158.4614 C   0  0  2  0  0  0  0  0  0  0  0  0
  152.1778  145.4436  159.2183 C   0  0  0  0  0  0  0  0  0  0  0  0
  152.1196  138.5813  160.2235 H   0  0  0  0  0  0  0  0  0  0  0  0
  153.0884  137.8826  158.9281 H   0  0  0  0  0  0  0  0  0  0  0  0
  151.3462  137.6161  158.9691 H   0  0  0  0  0  0  0  0  0  0  0  0
  150.9787  140.0947  158.5989 H   0  0  0  0  0  0  0  0  0  0  0  0
  152.7036  140.3376  158.5474 H   0  0  0  0  0  0  0  0  0  0  0  0
  150.7427  139.1077  153.9708 H   0  0  0  0  0  0  0  0  0  0  0  0
  148.7886  139.2757  155.9563 H   0  0  0  0  0  0  0  0  0  0  0  0
  149.3784  139.9559  157.4518 H   0  0  0  0  0  0  0  0  0  0  0  0
  149.1042  141.3531  154.7562 H   0  0  0  0  0  0  0  0  0  0  0  0
  148.3252  141.7995  156.2614 H   0  0  0  0  0  0  0  0  0  0  0  0
  151.1735  142.0163  155.6034 H   0  0  0  0  0  0  0  0  0  0  0  0
  149.9502  141.8948  158.1518 H   0  0  0  0  0  0  0  0  0  0  0  0
  151.6454  141.7870  157.7114 H   0  0  0  0  0  0  0  0  0  0  0  0
  150.7155  144.4865  157.1933 H   0  0  0  0  0  0  0  0  0  0  0  0
  149.4211  145.0189  159.0199 H   0  0  0  0  0  0  0  0  0  0  0  0
  149.5985  143.4163  159.7288 H   0  0  0  0  0  0  0  0  0  0  0  0
  150.8845  145.4446  161.0373 H   0  0  0  0  0  0  0  0  0  0  0  0
  152.0680  143.1938  161.6677 H   0  0  0  0  0  0  0  0  0  0  0  0
  153.4894  142.4056  159.5640 H   0  0  0  0  0  0  0  0  0  0  0  0
  153.1663  144.1886  157.6663 H   0  0  0  0  0  0  0  0  0  0  0  0
  151.7126  146.2260  158.6153 H   0  0  0  0  0  0  0  0  0  0  0  0
  153.0831  145.8461  159.6779 H   0  0  0  0  0  0  0  0  0  0  0  0
  150.1089  143.2437  155.8360 H   0  0  0  0  0  0  0  0  0  0  0  0
  1  2  1  0  0  0  0
  1 19  1  0  0  0  0
  1 20  1  0  0  0  0
  1 21  1  0  0  0  0
  2  3  1  0  0  0  0
  2 22  1  0  0  0  0
  2 23  1  0  0  0  0
  3  7  1  0  0  0  0
  3  4  2  0  0  0  0
  4  5  1  0  0  0  0
  5  6  2  0  0  0  0
  6  7  1  0  0  0  0
  6 24  1  0  0  0  0
  7  8  1  0  0  0  0
  8  9  1  0  0  0  0
  8 25  1  0  0  0  0
  8 26  1  0  0  0  0
  9 10  1  0  0  0  0
  9 27  1  0  0  0  0
  9 28  1  0  0  0  0
 10 11  1  0  0  0  0
 10 29  1  0  0  0  0
 10 41  1  0  0  0  0
 11 12  1  0  0  0  0
 11 30  1  0  0  0  0
 11 31  1  0  0  0  0
 12 17  1  0  0  0  0
 12 13  1  0  0  0  0
 12 32  1  0  0  0  0
 13 14  1  0  0  0  0
 13 33  1  0  0  0  0
 13 34  1  0  0  0  0
 14 18  1  0  0  0  0
 14 15  1  0  0  0  0
 14 35  1  0  0  0  0
 15 16  2  0  0  0  0
 15 36  1  0  0  0  0
 16 17  1  0  0  0  0
 16 37  1  0  0  0  0
 17 18  1  0  0  0  0
 17 38  1  0  0  0  0
 18 39  1  0  0  0  0
 18 40  1  0  0  0  0
M  CHG  1  10   1
M  END
> <s_m_source_file>
AV-unprocessed.smi

> <i_m_source_file_index>
3226

> <i_lp_mmshare_version>
43012

> <i_f3d_flags>
0

> <s_epik_input>
W0NIM11bQ0gyXWMxbm5bY0hdbjFbQ0gyXVtDSDJdW05IXVtDSDJdW0NASF0oW0NIMl1bQ0BASF0yMylbQ0BASF0oW0NIMl0zKVtDSF09W0NIXTI=

> <s_epik_cmdline>
J2VwaWtfcHl0aG9uJywgJy1waCcsICc3LjAnLCAnLXRuJywgJzgnLCAnLW1hJywgJzIwMCcsICctbWV0YWxfYmluZGluZycsICctaW1hZScsICc8aW5maWxlLm1hZT4nLCAnLW9tYWUnLCAnPG91dGZpbGUubWFlPic=

> <r_lp_tautomer_probability>
1

> <r_epik_Ionization_Penalty>
0.00175008

> <r_epik_Ionization_Penalty_Charging>
0.00173932

> <r_epik_Ionization_Penalty_Neutral>
1.07546e-05

> <r_epik_State_Penalty>
-0

> <r_epik_Charging_Adjusted_Penalty>
0.00173932

> <i_epik_Tot_Q>
1

> <i_epik_Tot_abs_Q>
1

> <r_epik_Metal_State_Penalty>
-0

> <b_epik_Metal_Only>
0

> <s_lp_Force_Field>
OPLS_2005

> <r_lp_Energy>
65.2823

> <b_lp_Chiralities_Consistent>
1

> <s_lp_Variant>
AV-unprocessed.smi:3226-2

> <Gold.Version>
5.8.1

> <Gold.Id.Protein>
6NUR|6NUR_protein|mol2

> <Gold.PLP.Fitness>
48.2674

> <Gold.PLP.PLP>
-41.7689

> <Gold.PLP.part.hbond>
-2.0199

> <Gold.PLP.part.metal>
0.0000

> <Gold.PLP.part.buried>
-5.5738

> <Gold.PLP.part.nonpolar>
-34.6922

> <Gold.PLP.part.repulsive>
0.1436

> <Gold.PLP.ligand.clash>
0.0000

> <Gold.PLP.ligand.torsion>
1.2719

> <Gold.PLP.Chemscore.Hbond>
3.0000

> <Gold.PLP.Chemscore.CHOScore>
0.0000

> <Gold.PLP.Chemscore.Metal>
0.0000

> <Gold.Chemscore.Hbonds>
donor molecule, donor type, donor heavy atom, donor atom, acceptor molecule, acceptor atom, score
      L1  H    10    41       P1  8028  2.00
      P1  H  7997  8010       L1     4  0.98

> <Gold.PLP.Chemscore.Internal.Correction>
0.0423

> <Gold.Rescore>
     Score         DG    S(hbond)    S(metal)    S(lipo)     H(rot)  DE(clash)    DE(int)     intcor
     17.31     -18.69       1.73        0.00     108.64       2.06       0.20       1.18       ----

> <Gold.Chemscore.Fitness>
17.3122

> <Gold.Chemscore.DG>
-18.6873

> <Gold.Chemscore.ZeroCoef>
-5.4800

> <Gold.Chemscore.Hbond>
1.7293

> <Gold.Chemscore.Metal>
0.0000

> <Gold.Chemscore.Lipo>
108.6418

> <Gold.Chemscore.Internal_Hbond>
0.0000

> <Gold.Chemscore.DEClash>
0.1966

> <Gold.Chemscore.DEInternal>
1.1786

> <Gold.Chemscore.Rot>
2.0623

> <Gold.Chemscore.Internal.Correction>
   9.000000E+99

> <Gold.Chemscore.Hbonds>
donor molecule, donor type, donor heavy atom, donor atom, acceptor molecule, acceptor atom, score
      L1  H    10    41       P1  8028  0.97
      P1  H  7997  8010       L1     4  0.32

> <Gold.Chemscore.Hbond.Weighted>
-5.7758

> <Gold.Chemscore.Metal.Weighted>
-0.0000

> <Gold.Chemscore.Lipo.Weighted>
-12.7111

> <Gold.Chemscore.Internal_Hbond.Weighted>
0.0000

> <Gold.Chemscore.DEClash.Weighted>
0.1966

> <Gold.Chemscore.DEInternal.Weighted>
1.1786

> <Gold.Chemscore.Rot.Weighted>
5.2796

> <Gold.Chemscore.Internal.Correction.Weighted>
   9.000000E+99

> <Gold.Protein.RotatedTorsions>
[ 6907 6896 6895 6894 ] final  -41.06 input  -60.11 | X-H torsion
[ 7974 7965 7964 7962 ] final   83.89 input  175.53 | X-H torsion
[ 8008 7997 7996 7995 ] final   93.78 input   59.86 | X-H torsion
[ 10167 10162 10161 10158 ] final  125.32 input  -65.29 | X-H torsion
[ 10718 10713 10712 10709 ] final  -91.92 input   66.30 | X-H torsion
[ 10763 10752 10751 10750 ] final  -37.78 input  -60.55 | X-H torsion
[ 11005 11000 10999 10996 ] final  149.72 input  -57.11 | X-H torsion

> <Gold.Protein.ActiveResidues>
 VAL166  LYS551  ARG553  GLY616  TRP617  ASP618  TYR619  PRO620  LYS621  CYS622 
 ASP623  PHE694  ASN695  SER759  ASP760  ASP761  ALA762  ILE779  LEU786  VAL792 
 PHE793  MET794  SER795  GLU796  ALA797  LYS798  CYS799  TRP800  GLU811  SER814 

> <Gold.Protein.RotatedAtoms>
  150.9711  134.9084  159.7788 H   0  0  0  0  0  0  0  0  0  0  0  0  # atno 6907 bound_to 6896
  152.5190  134.3539  159.9271 H   0  0  0  0  0  0  0  0  0  0  0  0  # atno 6908 bound_to 6896
  151.3548  133.3871  159.2718 H   0  0  0  0  0  0  0  0  0  0  0  0  # atno 6909 bound_to 6896
  145.6059  139.2360  143.2219 H   0  0  0  0  0  0  0  0  0  0  0  0  # atno 7974 bound_to 7965
  156.0506  140.3308  155.7347 H   0  0  0  0  0  0  0  0  0  0  0  0  # atno 8008 bound_to 7997
  155.5606  140.0618  157.2847 H   0  0  0  0  0  0  0  0  0  0  0  0  # atno 8009 bound_to 7997
  154.4434  140.1878  156.0767 H   0  0  0  0  0  0  0  0  0  0  0  0  # atno 8010 bound_to 7997
  139.5692  144.6929  151.3826 H   0  0  0  0  0  0  0  0  0  0  0  0  # atno 10167 bound_to 10162
  155.9997  130.4967  150.5547 H   0  0  0  0  0  0  0  0  0  0  0  0  # atno 10718 bound_to 10713
  153.9020  135.6801  153.4755 H   0  0  0  0  0  0  0  0  0  0  0  0  # atno 10763 bound_to 10752
  153.1124  135.4777  154.9055 H   0  0  0  0  0  0  0  0  0  0  0  0  # atno 10764 bound_to 10752
  154.7570  135.3200  154.8405 H   0  0  0  0  0  0  0  0  0  0  0  0  # atno 10765 bound_to 10752
  140.1069  134.8948  157.1879 H   0  0  0  0  0  0  0  0  0  0  0  0  # atno 11005 bound_to 11000
  146.1541  140.6883  142.9308 LP  0  0  0  0  0  0  0  0  0  0  0  0  # atno 17320 bound_to 7965
  144.7290  140.4613  143.6952 LP  0  0  0  0  0  0  0  0  0  0  0  0  # atno 17321 bound_to 7965
  140.6976  143.7711  150.7351 LP  0  0  0  0  0  0  0  0  0  0  0  0  # atno 17342 bound_to 10162
  140.1212  143.4610  152.2312 LP  0  0  0  0  0  0  0  0  0  0  0  0  # atno 17343 bound_to 10162
  157.3465  131.0726  151.1747 LP  0  0  0  0  0  0  0  0  0  0  0  0  # atno 17370 bound_to 10713
  157.2578  130.6644  149.5960 LP  0  0  0  0  0  0  0  0  0  0  0  0  # atno 17371 bound_to 10713
  140.3143  134.2988  155.7260 LP  0  0  0  0  0  0  0  0  0  0  0  0  # atno 17394 bound_to 11000
  141.2120  133.7670  156.9822 LP  0  0  0  0  0  0  0  0  0  0  0  0  # atno 17395 bound_to 11000

$$$$
