AV-unprocessed.smi:1815|AV-procd|sdf|7356|dock7
  -GOLD-   22720 9 13D 1   1.00000     0.00000
 Structure written by MMmdl.
 40 41  0  0  0  0  0  0  0  0  2 V2000
  150.9009  137.7562  155.3527 C   0  0  0  0  0  0  0  0  0  0  0  0
  150.9724  138.8236  154.2462 C   0  0  1  0  0  0  0  0  0  0  0  0
  149.6991  138.8993  153.3811 C   0  0  0  0  0  0  0  0  0  0  0  0
  148.5846  139.5408  154.1187 N   0  3  2  0  0  0  0  0  0  0  0  0
  147.3281  139.5631  153.3296 C   0  0  0  0  0  0  0  0  0  0  0  0
  146.3865  138.3956  153.6829 C   0  0  0  0  0  0  0  0  0  0  0  0
  146.6736  137.2158  152.8752 N   0  0  0  0  0  0  0  0  0  0  0  0
  145.7489  136.3500  152.4354 C   0  0  0  0  0  0  0  0  0  0  0  0
  144.5471  136.4651  152.6786 O   0  0  0  0  0  0  0  0  0  0  0  0
  146.3062  135.3617  151.7140 N   0  0  0  0  0  0  0  0  0  0  0  0
  145.6606  134.2648  151.0847 C   0  0  0  0  0  0  0  0  0  0  0  0
  144.3508  134.2140  150.8149 N   0  0  0  0  0  0  0  0  0  0  0  0
  143.9899  133.0170  150.1912 C   0  0  0  0  0  0  0  0  0  0  0  0
  145.0449  132.1610  149.9940 C   0  0  0  0  0  0  0  0  0  0  0  0
  146.5429  132.8292  150.5853 S   0  0  0  0  0  0  0  0  0  0  0  0
  149.0010  140.8723  154.6209 C   0  0  0  0  0  0  0  0  0  0  0  0
  150.2558  140.7431  155.5030 C   0  0  2  0  0  0  0  0  0  0  0  0
  150.7697  142.1077  155.9752 C   0  0  0  0  0  0  0  0  0  0  0  0
  151.2972  140.1153  154.7597 O   0  0  0  0  0  0  0  0  0  0  0  0
  150.7906  136.7607  154.9216 H   0  0  0  0  0  0  0  0  0  0  0  0
  150.0582  137.9116  156.0259 H   0  0  0  0  0  0  0  0  0  0  0  0
  151.8122  137.7553  155.9510 H   0  0  0  0  0  0  0  0  0  0  0  0
  151.7995  138.5429  153.5933 H   0  0  0  0  0  0  0  0  0  0  0  0
  149.9036  139.4758  152.4773 H   0  0  0  0  0  0  0  0  0  0  0  0
  149.4119  137.8980  153.0572 H   0  0  0  0  0  0  0  0  0  0  0  0
  146.8230  140.5211  153.4628 H   0  0  0  0  0  0  0  0  0  0  0  0
  147.5829  139.4938  152.2710 H   0  0  0  0  0  0  0  0  0  0  0  0
  146.4615  138.1493  154.7435 H   0  0  0  0  0  0  0  0  0  0  0  0
  145.3474  138.6658  153.4990 H   0  0  0  0  0  0  0  0  0  0  0  0
  147.6392  137.0508  152.6307 H   0  0  0  0  0  0  0  0  0  0  0  0
  147.3083  135.3971  151.5999 H   0  0  0  0  0  0  0  0  0  0  0  0
  142.9566  132.8567  149.9211 H   0  0  0  0  0  0  0  0  0  0  0  0
  145.0313  131.1823  149.5379 H   0  0  0  0  0  0  0  0  0  0  0  0
  149.1968  141.5362  153.7771 H   0  0  0  0  0  0  0  0  0  0  0  0
  148.2013  141.3259  155.2051 H   0  0  0  0  0  0  0  0  0  0  0  0
  150.0223  140.1476  156.3860 H   0  0  0  0  0  0  0  0  0  0  0  0
  150.0119  142.6335  156.5566 H   0  0  0  0  0  0  0  0  0  0  0  0
  151.0434  142.7412  155.1309 H   0  0  0  0  0  0  0  0  0  0  0  0
  151.6519  141.9944  156.6058 H   0  0  0  0  0  0  0  0  0  0  0  0
  148.4069  138.9598  154.9258 H   0  0  0  0  0  0  0  0  0  0  0  0
  1  2  1  0  0  0  0
  1 20  1  0  0  0  0
  1 21  1  0  0  0  0
  1 22  1  0  0  0  0
  2 19  1  0  0  0  0
  2  3  1  0  0  0  0
  2 23  1  0  0  0  0
  3  4  1  0  0  0  0
  3 24  1  0  0  0  0
  3 25  1  0  0  0  0
  4  5  1  0  0  0  0
  4 16  1  0  0  0  0
  4 40  1  0  0  0  0
  5  6  1  0  0  0  0
  5 26  1  0  0  0  0
  5 27  1  0  0  0  0
  6  7  1  0  0  0  0
  6 28  1  0  0  0  0
  6 29  1  0  0  0  0
  7  8  1  0  0  0  0
  7 30  1  0  0  0  0
  8  9  2  0  0  0  0
  8 10  1  0  0  0  0
 10 11  1  0  0  0  0
 10 31  1  0  0  0  0
 11 15  1  0  0  0  0
 11 12  2  0  0  0  0
 12 13  1  0  0  0  0
 13 14  2  0  0  0  0
 13 32  1  0  0  0  0
 14 15  1  0  0  0  0
 14 33  1  0  0  0  0
 16 17  1  0  0  0  0
 16 34  1  0  0  0  0
 16 35  1  0  0  0  0
 17 18  1  0  0  0  0
 17 19  1  0  0  0  0
 17 36  1  0  0  0  0
 18 37  1  0  0  0  0
 18 38  1  0  0  0  0
 18 39  1  0  0  0  0
M  CHG  1   4   1
M  END
> <s_m_source_file>
AV-unprocessed.smi

> <i_m_source_file_index>
1815

> <i_lp_mmshare_version>
43012

> <i_f3d_flags>
0

> <s_epik_input>
W0NIM11bQ0BASF0xW0NIMl1OKFtDSDJdW0NASF0oTzEpW0NIM10pW0NIMl1bQ0gyXVtOSF1DKD1PKVtOSF1jMm5bY0hdW2NIXXMy

> <s_epik_cmdline>
J2VwaWtfcHl0aG9uJywgJy1waCcsICc3LjAnLCAnLXRuJywgJzgnLCAnLW1hJywgJzIwMCcsICctbWV0YWxfYmluZGluZycsICctaW1hZScsICc8aW5maWxlLm1hZT4nLCAnLW9tYWUnLCAnPG91dGZpbGUubWFlPic=

> <r_lp_tautomer_probability>
0.999

> <r_epik_Ionization_Penalty>
0.695838

> <r_epik_Ionization_Penalty_Charging>
0.695697

> <r_epik_Ionization_Penalty_Neutral>
0.000141198

> <r_epik_State_Penalty>
0.717972

> <r_epik_Charging_Adjusted_Penalty>
1.41367

> <i_epik_Tot_Q>
1

> <i_epik_Tot_abs_Q>
1

> <r_epik_Metal_State_Penalty>
0.756405

> <b_epik_Metal_Only>
0

> <s_lp_Force_Field>
OPLS_2005

> <r_lp_Energy>
15.0285

> <b_lp_Chiralities_Consistent>
1

> <s_lp_Variant>
AV-unprocessed.smi:1815-7

> <Gold.Version>
5.8.1

> <Gold.Id.Protein>
6NUR|6NUR_protein|mol2

> <Gold.PLP.Fitness>
40.7423

> <Gold.PLP.PLP>
-30.6655

> <Gold.PLP.part.hbond>
-3.4307

> <Gold.PLP.part.metal>
0.0000

> <Gold.PLP.part.buried>
0.5800

> <Gold.PLP.part.nonpolar>
-28.2826

> <Gold.PLP.part.repulsive>
0.5928

> <Gold.PLP.ligand.clash>
0.0000

> <Gold.PLP.ligand.torsion>
0.9761

> <Gold.PLP.Chemscore.Hbond>
3.0000

> <Gold.PLP.Chemscore.CHOScore>
1.0000

> <Gold.PLP.Chemscore.Metal>
0.0000

> <Gold.Chemscore.Hbonds>
donor molecule, donor type, donor heavy atom, donor atom, acceptor molecule, acceptor atom, score
      L1  H     7    30       P1  7948  1.00
      L1  H    10    31       P1  7948  1.00
      P1  H  7989  7998       L1    19  0.94
      L1  C    13    32       P1 10186  1.00

> <Gold.PLP.Chemscore.Internal.Correction>
0.0291

> <Gold.Rescore>
     Score         DG    S(hbond)    S(metal)    S(lipo)     H(rot)  DE(clash)    DE(int)     intcor
     14.26     -16.54       1.94        0.00      75.07       1.64       0.05       2.23       ----

> <Gold.Chemscore.Fitness>
14.2560

> <Gold.Chemscore.DG>
-16.5390

> <Gold.Chemscore.ZeroCoef>
-5.4800

> <Gold.Chemscore.Hbond>
1.9370

> <Gold.Chemscore.Metal>
0.0000

> <Gold.Chemscore.Lipo>
75.0750

> <Gold.Chemscore.Internal_Hbond>
0.0000

> <Gold.Chemscore.DEClash>
0.0503

> <Gold.Chemscore.DEInternal>
2.2327

> <Gold.Chemscore.Rot>
1.6385

> <Gold.Chemscore.Internal.Correction>
   9.000000E+99

> <Gold.Chemscore.Hbonds>
donor molecule, donor type, donor heavy atom, donor atom, acceptor molecule, acceptor atom, score
      L1  H     7    30       P1  7948  0.99
      L1  H    10    31       P1  7948  0.93
      P1  H  7989  7998       L1    19  0.27

> <Gold.Chemscore.Hbond.Weighted>
-6.4697

> <Gold.Chemscore.Metal.Weighted>
-0.0000

> <Gold.Chemscore.Lipo.Weighted>
-8.7838

> <Gold.Chemscore.Internal_Hbond.Weighted>
0.0000

> <Gold.Chemscore.DEClash.Weighted>
0.0503

> <Gold.Chemscore.DEInternal.Weighted>
2.2327

> <Gold.Chemscore.Rot.Weighted>
4.1945

> <Gold.Chemscore.Internal.Correction.Weighted>
   9.000000E+99

> <Gold.Protein.RotatedTorsions>
[ 6907 6896 6895 6894 ] final  173.56 input  -60.11 | X-H torsion
[ 7974 7965 7964 7962 ] final   33.52 input  175.53 | X-H torsion
[ 8008 7997 7996 7995 ] final  160.85 input   59.86 | X-H torsion
[ 10167 10162 10161 10158 ] final    4.02 input  -65.29 | X-H torsion
[ 10718 10713 10712 10709 ] final   47.74 input   66.30 | X-H torsion
[ 10763 10752 10751 10750 ] final -102.89 input  -60.55 | X-H torsion
[ 11005 11000 10999 10996 ] final  -17.25 input  -57.11 | X-H torsion

> <Gold.Protein.ActiveResidues>
 VAL166  LYS551  ARG553  GLY616  TRP617  ASP618  TYR619  PRO620  LYS621  CYS622 
 ASP623  PHE694  ASN695  SER759  ASP760  ASP761  ALA762  ILE779  LEU786  VAL792 
 PHE793  MET794  SER795  GLU796  ALA797  LYS798  CYS799  TRP800  GLU811  SER814 

> <Gold.Protein.RotatedAtoms>
  151.7663  133.3337  159.3431 H   0  0  0  0  0  0  0  0  0  0  0  0  # atno 6907 bound_to 6896
  150.7478  134.6059  159.6070 H   0  0  0  0  0  0  0  0  0  0  0  0  # atno 6908 bound_to 6896
  152.3371  134.7185  160.0325 H   0  0  0  0  0  0  0  0  0  0  0  0  # atno 6909 bound_to 6896
  146.1415  139.6386  142.9160 H   0  0  0  0  0  0  0  0  0  0  0  0  # atno 7974 bound_to 7965
  156.2144  140.1793  156.7622 H   0  0  0  0  0  0  0  0  0  0  0  0  # atno 8008 bound_to 7997
  154.5770  140.0672  156.9077 H   0  0  0  0  0  0  0  0  0  0  0  0  # atno 8009 bound_to 7997
  155.2571  140.3333  155.4279 H   0  0  0  0  0  0  0  0  0  0  0  0  # atno 8010 bound_to 7997
  140.6556  143.7435  150.7648 H   0  0  0  0  0  0  0  0  0  0  0  0  # atno 10167 bound_to 10162
  157.4615  130.8199  149.7892 H   0  0  0  0  0  0  0  0  0  0  0  0  # atno 10718 bound_to 10713
  154.7767  135.4843  153.9760 H   0  0  0  0  0  0  0  0  0  0  0  0  # atno 10763 bound_to 10752
  153.1439  135.6778  153.8992 H   0  0  0  0  0  0  0  0  0  0  0  0  # atno 10764 bound_to 10752
  153.8658  135.3149  155.3418 H   0  0  0  0  0  0  0  0  0  0  0  0  # atno 10765 bound_to 10752
  140.8149  133.8112  155.9601 H   0  0  0  0  0  0  0  0  0  0  0  0  # atno 11005 bound_to 11000
  145.5036  141.0437  143.2526 LP  0  0  0  0  0  0  0  0  0  0  0  0  # atno 17320 bound_to 7965
  144.7797  139.6552  143.7159 LP  0  0  0  0  0  0  0  0  0  0  0  0  # atno 17321 bound_to 7965
  140.1095  143.4713  152.2379 LP  0  0  0  0  0  0  0  0  0  0  0  0  # atno 17342 bound_to 10162
  139.5778  144.7496  151.3719 LP  0  0  0  0  0  0  0  0  0  0  0  0  # atno 17343 bound_to 10162
  156.0031  130.3869  150.2531 LP  0  0  0  0  0  0  0  0  0  0  0  0  # atno 17370 bound_to 10713
  157.0709  131.0116  151.3190 LP  0  0  0  0  0  0  0  0  0  0  0  0  # atno 17371 bound_to 10713
  140.9159  134.2202  157.4957 LP  0  0  0  0  0  0  0  0  0  0  0  0  # atno 17394 bound_to 11000
  139.8711  134.9771  156.4945 LP  0  0  0  0  0  0  0  0  0  0  0  0  # atno 17395 bound_to 11000

$$$$
