AV-unprocessed.smi:634|AV-procd|sdf|3136|dock2
  -GOLD-   22720 0 63D 1   1.00000     0.00000
 Structure written by MMmdl.
 32 33  0  0  0  0  0  0  0  0  2 V2000
  151.4644  145.3345  160.1124 C   0  0  0  0  0  0  0  0  0  0  0  0
  152.1757  144.0248  160.1257 C   0  0  0  0  0  0  0  0  0  0  0  0
  152.5396  143.1771  161.1331 C   0  0  0  0  0  0  0  0  0  0  0  0
  153.1795  142.1103  160.4447 C   0  0  0  0  0  0  0  0  0  0  0  0
  153.7280  141.0234  161.0096 N   0  5  0  0  0  0  0  0  0  0  0  0
  154.1615  139.9992  160.2389 C   0  0  0  0  0  0  0  0  0  0  0  0
  154.5158  140.0774  159.0610 O   0  0  0  0  0  0  0  0  0  0  0  0
  154.1783  138.8196  160.8833 N   0  0  0  0  0  0  0  0  0  0  0  0
  154.5807  137.4891  160.4060 C   0  0  2  0  0  0  0  0  0  0  0  0
  154.3899  136.5238  161.5940 C   0  0  0  0  0  0  0  0  0  0  0  0
  156.0643  137.4489  159.9491 C   0  0  0  0  0  0  0  0  0  0  0  0
  156.3138  136.1803  159.1200 C   0  0  0  0  0  0  0  0  0  0  0  0
  154.7183  135.7637  158.3196 S   0  0  0  0  0  0  0  0  0  0  0  0
  154.7748  136.1179  156.8932 O   0  0  0  0  0  0  0  0  0  0  0  0
  154.3099  134.4166  158.7464 O   0  0  0  0  0  0  0  0  0  0  0  0
  153.7195  137.0156  159.2116 C   0  0  0  0  0  0  0  0  0  0  0  0
  153.2164  142.3024  159.1368 N   0  0  0  0  0  0  0  0  0  0  0  0
  152.5692  143.5253  158.9233 O   0  0  0  0  0  0  0  0  0  0  0  0
  152.1031  146.1230  160.5100 H   0  0  0  0  0  0  0  0  0  0  0  0
  150.5621  145.2895  160.7225 H   0  0  0  0  0  0  0  0  0  0  0  0
  151.1724  145.6129  159.0995 H   0  0  0  0  0  0  0  0  0  0  0  0
  152.3723  143.2970  162.1930 H   0  0  0  0  0  0  0  0  0  0  0  0
  153.8725  138.8530  161.8448 H   0  0  0  0  0  0  0  0  0  0  0  0
  154.6521  135.4979  161.3356 H   0  0  0  0  0  0  0  0  0  0  0  0
  153.3538  136.5161  161.9348 H   0  0  0  0  0  0  0  0  0  0  0  0
  155.0099  136.8140  162.4433 H   0  0  0  0  0  0  0  0  0  0  0  0
  156.2891  138.3002  159.3085 H   0  0  0  0  0  0  0  0  0  0  0  0
  156.7538  137.5151  160.7913 H   0  0  0  0  0  0  0  0  0  0  0  0
  157.0882  136.3165  158.3651 H   0  0  0  0  0  0  0  0  0  0  0  0
  156.5975  135.3457  159.7609 H   0  0  0  0  0  0  0  0  0  0  0  0
  152.7631  136.5868  159.5109 H   0  0  0  0  0  0  0  0  0  0  0  0
  153.5144  137.8173  158.5037 H   0  0  0  0  0  0  0  0  0  0  0  0
  1  2  1  0  0  0  0
  1 19  1  0  0  0  0
  1 20  1  0  0  0  0
  1 21  1  0  0  0  0
  2 18  1  0  0  0  0
  2  3  2  0  0  0  0
  3  4  1  0  0  0  0
  3 22  1  0  0  0  0
  4  5  1  0  0  0  0
  4 17  2  0  0  0  0
  5  6  1  0  0  0  0
  6  7  2  0  0  0  0
  6  8  1  0  0  0  0
  8  9  1  0  0  0  0
  8 23  1  0  0  0  0
  9 16  1  0  0  0  0
  9 10  1  0  0  0  0
  9 11  1  0  0  0  0
 10 24  1  0  0  0  0
 10 25  1  0  0  0  0
 10 26  1  0  0  0  0
 11 12  1  0  0  0  0
 11 27  1  0  0  0  0
 11 28  1  0  0  0  0
 12 13  1  0  0  0  0
 12 29  1  0  0  0  0
 12 30  1  0  0  0  0
 13 14  2  0  0  0  0
 13 15  2  0  0  0  0
 13 16  1  0  0  0  0
 16 31  1  0  0  0  0
 16 32  1  0  0  0  0
 17 18  1  0  0  0  0
M  CHG  1   5  -1
M  END
> <s_m_source_file>
AV-unprocessed.smi

> <i_m_source_file_index>
634

> <i_lp_mmshare_version>
43012

> <i_f3d_flags>
0

> <s_epik_input>
W0NIM11jMVtjSF1jKG5vMSlbTkhdQyg9TylbTkhdW0NAQF0yKFtDSDNdKVtDSDJdW0NIMl1TKD1PKSg9TylbQ0gyXTI=

> <s_epik_cmdline>
J2VwaWtfcHl0aG9uJywgJy1waCcsICc3LjAnLCAnLXRuJywgJzgnLCAnLW1hJywgJzIwMCcsICctbWV0YWxfYmluZGluZycsICctaW1hZScsICc8aW5maWxlLm1hZT4nLCAnLW9tYWUnLCAnPG91dGZpbGUubWFlPic=

> <r_lp_tautomer_probability>
1

> <r_epik_Ionization_Penalty>
6.15572

> <r_epik_Ionization_Penalty_Charging>
6.1556

> <r_epik_Ionization_Penalty_Neutral>
0.000118136

> <r_epik_State_Penalty>
6.15558

> <r_epik_Charging_Adjusted_Penalty>
12.3112

> <i_epik_Tot_Q>
-1

> <i_epik_Tot_abs_Q>
1

> <r_epik_Metal_State_Penalty>
2.10569

> <b_epik_Metal_Only>
1

> <s_lp_Force_Field>
OPLS_2005

> <r_lp_Energy>
-1.68809

> <b_lp_Chiralities_Consistent>
1

> <s_lp_Variant>
AV-unprocessed.smi:634-4

> <Gold.Version>
5.8.1

> <Gold.Id.Protein>
6NUR|6NUR_protein|mol2

> <Gold.PLP.Fitness>
38.8809

> <Gold.PLP.PLP>
-30.1797

> <Gold.PLP.part.hbond>
-3.0000

> <Gold.PLP.part.metal>
0.0000

> <Gold.PLP.part.buried>
-5.0342

> <Gold.PLP.part.nonpolar>
-21.3777

> <Gold.PLP.part.repulsive>
0.0117

> <Gold.PLP.ligand.clash>
0.0000

> <Gold.PLP.ligand.torsion>
0.1529

> <Gold.PLP.Chemscore.Hbond>
3.0000

> <Gold.PLP.Chemscore.CHOScore>
0.0000

> <Gold.PLP.Chemscore.Metal>
0.0000

> <Gold.Chemscore.Hbonds>
donor molecule, donor type, donor heavy atom, donor atom, acceptor molecule, acceptor atom, score
      P1  H  6896  6909       L1    15  0.96
      P1  H  7997  8009       L1     7  0.99
      P1  H 10752 10765       L1    14  1.00

> <Gold.PLP.Chemscore.Internal.Correction>
0.0070

> <Gold.Rescore>
     Score         DG    S(hbond)    S(metal)    S(lipo)     H(rot)  DE(clash)    DE(int)     intcor
     13.12     -15.86       1.86        0.00      57.42       1.00       0.05       2.69       ----

> <Gold.Chemscore.Fitness>
13.1202

> <Gold.Chemscore.DG>
-15.8608

> <Gold.Chemscore.ZeroCoef>
-5.4800

> <Gold.Chemscore.Hbond>
1.8631

> <Gold.Chemscore.Metal>
0.0000

> <Gold.Chemscore.Lipo>
57.4183

> <Gold.Chemscore.Internal_Hbond>
0.0000

> <Gold.Chemscore.DEClash>
0.0486

> <Gold.Chemscore.DEInternal>
2.6920

> <Gold.Chemscore.Rot>
1.0000

> <Gold.Chemscore.Internal.Correction>
   9.000000E+99

> <Gold.Chemscore.Hbonds>
donor molecule, donor type, donor heavy atom, donor atom, acceptor molecule, acceptor atom, score
      P1  H  6896  6909       L1    15  0.83
      P1  H  7997  8009       L1     7  0.94
      P1  H 10752 10765       L1    14  0.94

> <Gold.Chemscore.Hbond.Weighted>
-6.2229

> <Gold.Chemscore.Metal.Weighted>
-0.0000

> <Gold.Chemscore.Lipo.Weighted>
-6.7179

> <Gold.Chemscore.Internal_Hbond.Weighted>
0.0000

> <Gold.Chemscore.DEClash.Weighted>
0.0486

> <Gold.Chemscore.DEInternal.Weighted>
2.6920

> <Gold.Chemscore.Rot.Weighted>
2.5600

> <Gold.Chemscore.Internal.Correction.Weighted>
   9.000000E+99

> <Gold.Protein.RotatedTorsions>
[ 6907 6896 6895 6894 ] final -153.99 input  -60.11 | X-H torsion
[ 7974 7965 7964 7962 ] final  -91.75 input  175.53 | X-H torsion
[ 8008 7997 7996 7995 ] final  125.23 input   59.86 | X-H torsion
[ 10167 10162 10161 10158 ] final  -54.18 input  -65.29 | X-H torsion
[ 10718 10713 10712 10709 ] final  -46.20 input   66.30 | X-H torsion
[ 10763 10752 10751 10750 ] final  -64.67 input  -60.55 | X-H torsion
[ 11005 11000 10999 10996 ] final -131.69 input  -57.11 | X-H torsion

> <Gold.Protein.ActiveResidues>
 VAL166  LYS551  ARG553  GLY616  TRP617  ASP618  TYR619  PRO620  LYS621  CYS622 
 ASP623  PHE694  ASN695  SER759  ASP760  ASP761  ALA762  ILE779  LEU786  VAL792 
 PHE793  MET794  SER795  GLU796  ALA797  LYS798  CYS799  TRP800  GLU811  SER814 

> <Gold.Protein.RotatedAtoms>
  151.2508  133.4351  159.2611 H   0  0  0  0  0  0  0  0  0  0  0  0  # atno 6907 bound_to 6896
  151.0619  134.9742  159.8275 H   0  0  0  0  0  0  0  0  0  0  0  0  # atno 6908 bound_to 6896
  152.5399  134.2458  159.8932 H   0  0  0  0  0  0  0  0  0  0  0  0  # atno 6909 bound_to 6896
  145.4089  140.9543  143.2245 H   0  0  0  0  0  0  0  0  0  0  0  0  # atno 7974 bound_to 7965
  156.2827  140.2721  156.1916 H   0  0  0  0  0  0  0  0  0  0  0  0  # atno 8008 bound_to 7997
  155.0452  140.0386  157.2542 H   0  0  0  0  0  0  0  0  0  0  0  0  # atno 8009 bound_to 7997
  154.7241  140.2693  155.6520 H   0  0  0  0  0  0  0  0  0  0  0  0  # atno 8010 bound_to 7997
  140.6445  143.2527  151.4899 H   0  0  0  0  0  0  0  0  0  0  0  0  # atno 10167 bound_to 10162
  156.2207  130.4166  149.8997 H   0  0  0  0  0  0  0  0  0  0  0  0  # atno 10718 bound_to 10713
  154.3336  135.6171  153.5563 H   0  0  0  0  0  0  0  0  0  0  0  0  # atno 10763 bound_to 10752
  152.9809  135.5752  154.4934 H   0  0  0  0  0  0  0  0  0  0  0  0  # atno 10764 bound_to 10752
  154.4625  135.2856  155.1679 H   0  0  0  0  0  0  0  0  0  0  0  0  # atno 10765 bound_to 10752
  140.9236  134.1412  157.4294 H   0  0  0  0  0  0  0  0  0  0  0  0  # atno 11005 bound_to 11000
  144.8322  139.5609  143.6938 LP  0  0  0  0  0  0  0  0  0  0  0  0  # atno 17320 bound_to 7965
  146.2714  139.6646  142.9293 LP  0  0  0  0  0  0  0  0  0  0  0  0  # atno 17321 bound_to 7965
  139.5655  144.2054  152.1757 LP  0  0  0  0  0  0  0  0  0  0  0  0  # atno 17342 bound_to 10162
  140.1334  144.5267  150.6788 LP  0  0  0  0  0  0  0  0  0  0  0  0  # atno 17343 bound_to 10162
  156.6644  130.8795  151.3552 LP  0  0  0  0  0  0  0  0  0  0  0  0  # atno 17370 bound_to 10713
  157.7086  130.9413  150.1012 LP  0  0  0  0  0  0  0  0  0  0  0  0  # atno 17371 bound_to 10713
  139.8780  134.9980  156.5877 LP  0  0  0  0  0  0  0  0  0  0  0  0  # atno 17394 bound_to 11000
  140.7955  133.8547  155.8682 LP  0  0  0  0  0  0  0  0  0  0  0  0  # atno 17395 bound_to 11000

$$$$
