AV-unprocessed.smi:1239|AV-procd|sdf|5187|dock3
  -GOLD-   22720 4273D 1   1.00000     0.00000
 Structure written by MMmdl.
 47 48  0  0  0  0  0  0  0  0  1 V2000
  146.8441  141.0850  154.4868 C   0  0  0  0  0  0  0  0  0  0  0  0
  147.7026  139.8232  154.2421 C   0  0  2  0  0  0  0  0  0  0  0  0
  146.8045  138.5810  154.4689 C   0  0  0  0  0  0  0  0  0  0  0  0
  147.4769  137.3469  154.0685 N   0  0  0  0  0  0  0  0  0  0  0  0
  148.0053  136.4410  154.9030 C   0  0  0  0  0  0  0  0  0  0  0  0
  147.9747  136.5452  156.1289 O   0  0  0  0  0  0  0  0  0  0  0  0
  148.5799  135.4333  154.2236 N   0  0  0  0  0  0  0  0  0  0  0  0
  149.2346  134.2797  154.7354 C   0  0  0  0  0  0  0  0  0  0  0  0
  148.9933  133.0458  154.1023 C   0  0  0  0  0  0  0  0  0  0  0  0
  149.6145  131.8825  154.5950 C   0  0  0  0  0  0  0  0  0  0  0  0
  150.4646  131.9776  155.7246 C   0  0  0  0  0  0  0  0  0  0  0  0
  151.1163  130.8412  156.2563 N   0  0  0  0  0  0  0  0  0  0  0  0
  151.8584  130.9490  157.5084 C   0  0  0  0  0  0  0  0  0  0  0  0
  151.0645  129.5676  155.5499 C   0  0  0  0  0  0  0  0  0  0  0  0
  150.6821  133.1647  156.3415 N   0  0  0  0  0  0  0  0  0  0  0  0
  150.0853  134.2778  155.8658 C   0  0  0  0  0  0  0  0  0  0  0  0
  148.9647  139.8080  155.0144 N   0  0  0  0  0  0  0  0  0  0  0  0
  149.9897  138.9583  154.4004 C   0  0  0  0  0  0  0  0  0  0  0  0
  151.3106  138.9597  155.1895 C   0  0  0  0  0  0  0  0  0  0  0  0
  151.7895  140.2917  155.3191 O   0  0  0  0  0  0  0  0  0  0  0  0
  150.8532  141.1376  155.9734 C   0  0  0  0  0  0  0  0  0  0  0  0
  149.5300  141.1494  155.1888 C   0  0  0  0  0  0  0  0  0  0  0  0
  145.8752  141.0055  153.9930 H   0  0  0  0  0  0  0  0  0  0  0  0
  147.3134  141.9842  154.0891 H   0  0  0  0  0  0  0  0  0  0  0  0
  146.6584  141.2433  155.5498 H   0  0  0  0  0  0  0  0  0  0  0  0
  147.9603  139.8246  153.1817 H   0  0  0  0  0  0  0  0  0  0  0  0
  146.5129  138.5422  155.5197 H   0  0  0  0  0  0  0  0  0  0  0  0
  145.8638  138.6609  153.9256 H   0  0  0  0  0  0  0  0  0  0  0  0
  147.5580  137.1827  153.0757 H   0  0  0  0  0  0  0  0  0  0  0  0
  148.5942  135.5281  153.2187 H   0  0  0  0  0  0  0  0  0  0  0  0
  148.3416  132.9868  153.2427 H   0  0  0  0  0  0  0  0  0  0  0  0
  149.4268  130.9437  154.0967 H   0  0  0  0  0  0  0  0  0  0  0  0
  151.1956  131.2458  158.3219 H   0  0  0  0  0  0  0  0  0  0  0  0
  152.6527  131.6909  157.4203 H   0  0  0  0  0  0  0  0  0  0  0  0
  152.3184  129.9997  157.7826 H   0  0  0  0  0  0  0  0  0  0  0  0
  151.5156  129.6590  154.5615 H   0  0  0  0  0  0  0  0  0  0  0  0
  150.0327  129.2349  155.4343 H   0  0  0  0  0  0  0  0  0  0  0  0
  151.6046  128.7909  156.0914 H   0  0  0  0  0  0  0  0  0  0  0  0
  150.2914  135.1729  156.4307 H   0  0  0  0  0  0  0  0  0  0  0  0
  149.6474  137.9265  154.3416 H   0  0  0  0  0  0  0  0  0  0  0  0
  150.1795  139.2877  153.3776 H   0  0  0  0  0  0  0  0  0  0  0  0
  151.1713  138.5169  156.1769 H   0  0  0  0  0  0  0  0  0  0  0  0
  152.0606  138.3608  154.6731 H   0  0  0  0  0  0  0  0  0  0  0  0
  150.6925  140.7943  156.9965 H   0  0  0  0  0  0  0  0  0  0  0  0
  151.2660  142.1446  156.0347 H   0  0  0  0  0  0  0  0  0  0  0  0
  149.6924  141.6121  154.2141 H   0  0  0  0  0  0  0  0  0  0  0  0
  148.8351  141.7898  155.7298 H   0  0  0  0  0  0  0  0  0  0  0  0
  1  2  1  0  0  0  0
  1 23  1  0  0  0  0
  1 24  1  0  0  0  0
  1 25  1  0  0  0  0
  2  3  1  0  0  0  0
  2 17  1  0  0  0  0
  2 26  1  0  0  0  0
  3  4  1  0  0  0  0
  3 27  1  0  0  0  0
  3 28  1  0  0  0  0
  4  5  1  0  0  0  0
  4 29  1  0  0  0  0
  5  6  2  0  0  0  0
  5  7  1  0  0  0  0
  7  8  1  0  0  0  0
  7 30  1  0  0  0  0
  8 16  1  0  0  0  0
  8  9  2  0  0  0  0
  9 10  1  0  0  0  0
  9 31  1  0  0  0  0
 10 11  2  0  0  0  0
 10 32  1  0  0  0  0
 11 12  1  0  0  0  0
 11 15  1  0  0  0  0
 12 13  1  0  0  0  0
 12 14  1  0  0  0  0
 13 33  1  0  0  0  0
 13 34  1  0  0  0  0
 13 35  1  0  0  0  0
 14 36  1  0  0  0  0
 14 37  1  0  0  0  0
 14 38  1  0  0  0  0
 15 16  2  0  0  0  0
 16 39  1  0  0  0  0
 17 22  1  0  0  0  0
 17 18  1  0  0  0  0
 18 19  1  0  0  0  0
 18 40  1  0  0  0  0
 18 41  1  0  0  0  0
 19 20  1  0  0  0  0
 19 42  1  0  0  0  0
 19 43  1  0  0  0  0
 20 21  1  0  0  0  0
 21 22  1  0  0  0  0
 21 44  1  0  0  0  0
 21 45  1  0  0  0  0
 22 46  1  0  0  0  0
 22 47  1  0  0  0  0
M  END
> <s_m_source_file>
AV-unprocessed.smi

> <i_m_source_file_index>
1239

> <i_lp_mmshare_version>
43012

> <i_f3d_flags>
0

> <s_epik_input>
W0NIMl0xW0NIMl1PW0NIMl1bQ0gyXU4xW0NASF0oW0NIM10pW0NIMl1bTkhdQyg9TylbTkhdYzJbY0hdW2NIXWMoTihbQ0gzXSlbQ0gzXSluW2NIXTI=

> <s_epik_cmdline>
J2VwaWtfcHl0aG9uJywgJy1waCcsICc3LjAnLCAnLXRuJywgJzgnLCAnLW1hJywgJzIwMCcsICctbWV0YWxfYmluZGluZycsICctaW1hZScsICc8aW5maWxlLm1hZT4nLCAnLW9tYWUnLCAnPG91dGZpbGUubWFlPic=

> <r_lp_tautomer_probability>
1

> <r_epik_Ionization_Penalty>
0.87526

> <r_epik_Ionization_Penalty_Charging>
0

> <r_epik_Ionization_Penalty_Neutral>
0.87526

> <r_epik_State_Penalty>
0.859346

> <r_epik_Charging_Adjusted_Penalty>
0.859346

> <i_epik_Tot_Q>
0

> <i_epik_Tot_abs_Q>
0

> <r_epik_Metal_State_Penalty>
0.538105

> <b_epik_Metal_Only>
0

> <s_lp_Force_Field>
OPLS_2005

> <r_lp_Energy>
39.6376

> <b_lp_Chiralities_Consistent>
1

> <s_lp_Variant>
AV-unprocessed.smi:1239-3

> <Gold.Version>
5.8.1

> <Gold.Id.Protein>
6NUR|6NUR_protein|mol2

> <Gold.PLP.Fitness>
40.1494

> <Gold.PLP.PLP>
-34.4372

> <Gold.PLP.part.hbond>
-2.7910

> <Gold.PLP.part.metal>
0.0000

> <Gold.PLP.part.buried>
-3.6895

> <Gold.PLP.part.nonpolar>
-27.9118

> <Gold.PLP.part.repulsive>
0.1342

> <Gold.PLP.ligand.clash>
0.0000

> <Gold.PLP.ligand.torsion>
0.9289

> <Gold.PLP.Chemscore.Hbond>
2.5040

> <Gold.PLP.Chemscore.CHOScore>
0.0000

> <Gold.PLP.Chemscore.Metal>
0.0000

> <Gold.Chemscore.Hbonds>
donor molecule, donor type, donor heavy atom, donor atom, acceptor molecule, acceptor atom, score
      L1  H     4    29       P1  7948  0.62
      L1  H     7    30       P1  7948  1.00
      P1  H  7989  7998       L1    20  0.82

> <Gold.PLP.Chemscore.Internal.Correction>
0.0580

> <Gold.Rescore>
     Score         DG    S(hbond)    S(metal)    S(lipo)     H(rot)  DE(clash)    DE(int)     intcor
     17.09     -18.97       2.65        0.00      71.21       1.44       0.19       1.70       ----

> <Gold.Chemscore.Fitness>
17.0878

> <Gold.Chemscore.DG>
-18.9690

> <Gold.Chemscore.ZeroCoef>
-5.4800

> <Gold.Chemscore.Hbond>
2.6456

> <Gold.Chemscore.Metal>
0.0000

> <Gold.Chemscore.Lipo>
71.2067

> <Gold.Chemscore.Internal_Hbond>
0.0000

> <Gold.Chemscore.DEClash>
0.1851

> <Gold.Chemscore.DEInternal>
1.6962

> <Gold.Chemscore.Rot>
1.4370

> <Gold.Chemscore.Internal.Correction>
   9.000000E+99

> <Gold.Chemscore.Hbonds>
donor molecule, donor type, donor heavy atom, donor atom, acceptor molecule, acceptor atom, score
      L1  H     4    29       P1  7948  0.60
      L1  H     7    30       P1  7948  0.91
      P1  H  7989  7998       L1    20  0.08

> <Gold.Chemscore.Hbond.Weighted>
-8.8365

> <Gold.Chemscore.Metal.Weighted>
-0.0000

> <Gold.Chemscore.Lipo.Weighted>
-8.3312

> <Gold.Chemscore.Internal_Hbond.Weighted>
0.0000

> <Gold.Chemscore.DEClash.Weighted>
0.1851

> <Gold.Chemscore.DEInternal.Weighted>
1.6962

> <Gold.Chemscore.Rot.Weighted>
3.6786

> <Gold.Chemscore.Internal.Correction.Weighted>
   9.000000E+99

> <Gold.Protein.RotatedTorsions>
[ 6907 6896 6895 6894 ] final    8.10 input  -60.11 | X-H torsion
[ 7974 7965 7964 7962 ] final   81.02 input  175.53 | X-H torsion
[ 8008 7997 7996 7995 ] final  -11.50 input   59.86 | X-H torsion
[ 10167 10162 10161 10158 ] final -162.20 input  -65.29 | X-H torsion
[ 10718 10713 10712 10709 ] final -166.41 input   66.30 | X-H torsion
[ 10763 10752 10751 10750 ] final   29.18 input  -60.55 | X-H torsion
[ 11005 11000 10999 10996 ] final  -74.87 input  -57.11 | X-H torsion

> <Gold.Protein.ActiveResidues>
 VAL166  LYS551  ARG553  GLY616  TRP617  ASP618  TYR619  PRO620  LYS621  CYS622 
 ASP623  PHE694  ASN695  SER759  ASP760  ASP761  ALA762  ILE779  LEU786  VAL792 
 PHE793  MET794  SER795  GLU796  ALA797  LYS798  CYS799  TRP800  GLU811  SER814 

> <Gold.Protein.RotatedAtoms>
  151.7006  135.0930  160.0249 H   0  0  0  0  0  0  0  0  0  0  0  0  # atno 6907 bound_to 6896
  152.3723  133.6430  159.6105 H   0  0  0  0  0  0  0  0  0  0  0  0  # atno 6908 bound_to 6896
  150.7682  133.9167  159.3427 H   0  0  0  0  0  0  0  0  0  0  0  0  # atno 6909 bound_to 6896
  145.6436  139.2431  143.2017 H   0  0  0  0  0  0  0  0  0  0  0  0  # atno 7974 bound_to 7965
  154.5459  140.2301  155.8564 H   0  0  0  0  0  0  0  0  0  0  0  0  # atno 8008 bound_to 7997
  156.1902  140.3079  155.9279 H   0  0  0  0  0  0  0  0  0  0  0  0  # atno 8009 bound_to 7997
  155.3165  140.0438  157.3028 H   0  0  0  0  0  0  0  0  0  0  0  0  # atno 8010 bound_to 7997
  139.6409  144.0261  152.2091 H   0  0  0  0  0  0  0  0  0  0  0  0  # atno 10167 bound_to 10162
  156.6675  130.9070  151.3038 H   0  0  0  0  0  0  0  0  0  0  0  0  # atno 10718 bound_to 10713
  153.0446  135.6495  154.0852 H   0  0  0  0  0  0  0  0  0  0  0  0  # atno 10763 bound_to 10752
  154.0552  135.2892  155.3335 H   0  0  0  0  0  0  0  0  0  0  0  0  # atno 10764 bound_to 10752
  154.6694  135.5362  153.8184 H   0  0  0  0  0  0  0  0  0  0  0  0  # atno 10765 bound_to 10752
  141.1640  133.6926  156.7431 H   0  0  0  0  0  0  0  0  0  0  0  0  # atno 11005 bound_to 11000
  146.1261  140.7246  142.9434 LP  0  0  0  0  0  0  0  0  0  0  0  0  # atno 17320 bound_to 7965
  144.7148  140.4171  143.7052 LP  0  0  0  0  0  0  0  0  0  0  0  0  # atno 17321 bound_to 7965
  139.9950  144.6334  150.7780 LP  0  0  0  0  0  0  0  0  0  0  0  0  # atno 17342 bound_to 10162
  140.7490  143.2932  151.3275 LP  0  0  0  0  0  0  0  0  0  0  0  0  # atno 17343 bound_to 10162
  157.7089  130.9417  150.1021 LP  0  0  0  0  0  0  0  0  0  0  0  0  # atno 17370 bound_to 10713
  156.1964  130.3657  149.8844 LP  0  0  0  0  0  0  0  0  0  0  0  0  # atno 17371 bound_to 10713
  140.2660  134.8429  157.3803 LP  0  0  0  0  0  0  0  0  0  0  0  0  # atno 17394 bound_to 11000
  140.1566  134.4782  155.7923 LP  0  0  0  0  0  0  0  0  0  0  0  0  # atno 17395 bound_to 11000

$$$$
