AV-unprocessed.smi:719|AV-procd|sdf|3493|dock6
  -GOLD-   22720 0483D 1   1.00000     0.00000
 Structure written by MMmdl.
 41 43  0  0  0  0  0  0  0  0  1 V2000
  154.3393  139.0115  160.6035 C   0  0  0  0  0  0  0  0  0  0  0  0
  154.6998  140.4739  160.8871 C   0  0  0  0  0  0  0  0  0  0  0  0
  153.6294  141.4215  160.4324 C   0  0  0  0  0  0  0  0  0  0  0  0
  153.2426  141.4235  159.0891 N   0  0  0  0  0  0  0  0  0  0  0  0
  152.2858  142.3172  158.8290 C   0  0  0  0  0  0  0  0  0  0  0  0
  151.6462  142.4784  157.4877 C   0  0  0  0  0  0  0  0  0  0  0  0
  150.1431  142.1413  157.4656 C   0  0  0  0  0  0  0  0  0  0  0  0
  149.5591  142.2607  156.1316 N   0  0  0  0  0  0  0  0  0  0  0  0
  149.4269  141.2611  155.2453 C   0  0  0  0  0  0  0  0  0  0  0  0
  149.8104  140.1105  155.4564 O   0  0  0  0  0  0  0  0  0  0  0  0
  148.8349  141.6794  153.9418 C   0  0  2  0  0  0  0  0  0  0  0  0
  147.4684  142.3448  153.9003 C   0  0  2  0  0  0  0  0  0  0  0  0
  146.4564  142.3510  155.0290 C   0  0  0  0  0  0  0  0  0  0  0  0
  146.2033  140.8818  155.4047 C   0  0  0  0  0  0  0  0  0  0  0  0
  146.6914  140.0471  154.2089 C   0  0  0  0  0  0  0  0  0  0  0  0
  147.6206  140.9354  153.4039 C   0  0  2  0  0  0  0  0  0  0  0  0
  151.7882  143.2282  160.2469 S   0  0  0  0  0  0  0  0  0  0  0  0
  152.9494  142.3394  161.1987 C   0  0  0  0  0  0  0  0  0  0  0  0
  153.1078  142.6105  162.6578 C   0  0  0  0  0  0  0  0  0  0  0  0
  155.1317  138.3430  160.9401 H   0  0  0  0  0  0  0  0  0  0  0  0
  154.1926  138.8436  159.5361 H   0  0  0  0  0  0  0  0  0  0  0  0
  153.4211  138.7246  161.1170 H   0  0  0  0  0  0  0  0  0  0  0  0
  154.8769  140.5986  161.9561 H   0  0  0  0  0  0  0  0  0  0  0  0
  155.6470  140.7111  160.4019 H   0  0  0  0  0  0  0  0  0  0  0  0
  151.7954  143.5064  157.1571 H   0  0  0  0  0  0  0  0  0  0  0  0
  152.1751  141.8477  156.7718 H   0  0  0  0  0  0  0  0  0  0  0  0
  149.9807  141.1396  157.8674 H   0  0  0  0  0  0  0  0  0  0  0  0
  149.6092  142.8218  158.1289 H   0  0  0  0  0  0  0  0  0  0  0  0
  149.2351  143.1771  155.8581 H   0  0  0  0  0  0  0  0  0  0  0  0
  149.5627  141.9785  153.1901 H   0  0  0  0  0  0  0  0  0  0  0  0
  147.3575  143.1485  153.1750 H   0  0  0  0  0  0  0  0  0  0  0  0
  146.8155  142.9408  155.8727 H   0  0  0  0  0  0  0  0  0  0  0  0
  145.5355  142.8088  154.6671 H   0  0  0  0  0  0  0  0  0  0  0  0
  146.7844  140.6257  156.2911 H   0  0  0  0  0  0  0  0  0  0  0  0
  145.1563  140.6904  155.6412 H   0  0  0  0  0  0  0  0  0  0  0  0
  147.1945  139.1305  154.5172 H   0  0  0  0  0  0  0  0  0  0  0  0
  145.8467  139.7690  153.5779 H   0  0  0  0  0  0  0  0  0  0  0  0
  147.6155  140.7547  152.3307 H   0  0  0  0  0  0  0  0  0  0  0  0
  154.1559  142.7712  162.9105 H   0  0  0  0  0  0  0  0  0  0  0  0
  152.7428  141.7693  163.2468 H   0  0  0  0  0  0  0  0  0  0  0  0
  152.5504  143.4981  162.9577 H   0  0  0  0  0  0  0  0  0  0  0  0
  1  2  1  0  0  0  0
  1 20  1  0  0  0  0
  1 21  1  0  0  0  0
  1 22  1  0  0  0  0
  2  3  1  0  0  0  0
  2 23  1  0  0  0  0
  2 24  1  0  0  0  0
  3 18  2  0  0  0  0
  3  4  1  0  0  0  0
  4  5  2  0  0  0  0
  5  6  1  0  0  0  0
  5 17  1  0  0  0  0
  6  7  1  0  0  0  0
  6 25  1  0  0  0  0
  6 26  1  0  0  0  0
  7  8  1  0  0  0  0
  7 27  1  0  0  0  0
  7 28  1  0  0  0  0
  8  9  1  0  0  0  0
  8 29  1  0  0  0  0
  9 10  2  0  0  0  0
  9 11  1  0  0  0  0
 11 16  1  0  0  0  0
 11 12  1  0  0  0  0
 11 30  1  0  0  0  0
 12 16  1  0  0  0  0
 12 13  1  0  0  0  0
 12 31  1  0  0  0  0
 13 14  1  0  0  0  0
 13 32  1  0  0  0  0
 13 33  1  0  0  0  0
 14 15  1  0  0  0  0
 14 34  1  0  0  0  0
 14 35  1  0  0  0  0
 15 16  1  0  0  0  0
 15 36  1  0  0  0  0
 15 37  1  0  0  0  0
 16 38  1  0  0  0  0
 17 18  1  0  0  0  0
 18 19  1  0  0  0  0
 19 39  1  0  0  0  0
 19 40  1  0  0  0  0
 19 41  1  0  0  0  0
M  END
> <s_m_source_file>
AV-unprocessed.smi

> <i_m_source_file_index>
719

> <i_lp_mmshare_version>
43012

> <i_f3d_flags>
0

> <s_epik_input>
W0NIM11bQ0gyXWMxbmMoc2MxW0NIM10pW0NIMl1bQ0gyXVtOSF1DKD1PKVtDQEhdMltDQEhdKFtDQEBIXTIzKVtDSDJdW0NIMl1bQ0gyXTM=

> <s_epik_cmdline>
J2VwaWtfcHl0aG9uJywgJy1waCcsICc3LjAnLCAnLXRuJywgJzgnLCAnLW1hJywgJzIwMCcsICctbWV0YWxfYmluZGluZycsICctaW1hZScsICc8aW5maWxlLm1hZT4nLCAnLW9tYWUnLCAnPG91dGZpbGUubWFlPic=

> <r_epik_Ionization_Penalty>
0.00247473

> <r_epik_Ionization_Penalty_Charging>
0

> <r_epik_Ionization_Penalty_Neutral>
0.00247473

> <r_epik_State_Penalty>
0.00171502

> <r_epik_Charging_Adjusted_Penalty>
0.00171502

> <i_epik_Tot_Q>
0

> <i_epik_Tot_abs_Q>
0

> <r_epik_Metal_State_Penalty>
-0

> <b_epik_Metal_Only>
0

> <s_lp_Force_Field>
OPLS_2005

> <r_lp_Energy>
22.4904

> <b_lp_Chiralities_Consistent>
1

> <s_lp_Variant>
AV-unprocessed.smi:719-1

> <Gold.Version>
5.8.1

> <Gold.Id.Protein>
6NUR|6NUR_protein|mol2

> <Gold.PLP.Fitness>
44.5236

> <Gold.PLP.PLP>
-41.8939

> <Gold.PLP.part.hbond>
-1.0000

> <Gold.PLP.part.metal>
0.0000

> <Gold.PLP.part.buried>
-4.4489

> <Gold.PLP.part.nonpolar>
-36.5395

> <Gold.PLP.part.repulsive>
0.1112

> <Gold.PLP.ligand.clash>
0.0000

> <Gold.PLP.ligand.torsion>
0.2455

> <Gold.PLP.Chemscore.Hbond>
1.0000

> <Gold.PLP.Chemscore.CHOScore>
0.0000

> <Gold.PLP.Chemscore.Metal>
0.0000

> <Gold.Chemscore.Hbonds>
donor molecule, donor type, donor heavy atom, donor atom, acceptor molecule, acceptor atom, score
      L1  H     8    29       P1  8028  1.00

> <Gold.PLP.Chemscore.Internal.Correction>
0.1208

> <Gold.Rescore>
     Score         DG    S(hbond)    S(metal)    S(lipo)     H(rot)  DE(clash)    DE(int)     intcor
     18.98     -19.22       0.99        0.00     120.20       1.42       0.02       0.22       ----

> <Gold.Chemscore.Fitness>
18.9779

> <Gold.Chemscore.DG>
-19.2224

> <Gold.Chemscore.ZeroCoef>
-5.4800

> <Gold.Chemscore.Hbond>
0.9930

> <Gold.Chemscore.Metal>
0.0000

> <Gold.Chemscore.Lipo>
120.1986

> <Gold.Chemscore.Internal_Hbond>
0.0000

> <Gold.Chemscore.DEClash>
0.0228

> <Gold.Chemscore.DEInternal>
0.2216

> <Gold.Chemscore.Rot>
1.4209

> <Gold.Chemscore.Internal.Correction>
   9.000000E+99

> <Gold.Chemscore.Hbonds>
donor molecule, donor type, donor heavy atom, donor atom, acceptor molecule, acceptor atom, score
      L1  H     8    29       P1  8028  0.98

> <Gold.Chemscore.Hbond.Weighted>
-3.3167

> <Gold.Chemscore.Metal.Weighted>
-0.0000

> <Gold.Chemscore.Lipo.Weighted>
-14.0632

> <Gold.Chemscore.Internal_Hbond.Weighted>
0.0000

> <Gold.Chemscore.DEClash.Weighted>
0.0228

> <Gold.Chemscore.DEInternal.Weighted>
0.2216

> <Gold.Chemscore.Rot.Weighted>
3.6376

> <Gold.Chemscore.Internal.Correction.Weighted>
   9.000000E+99

> <Gold.Protein.RotatedTorsions>
[ 6907 6896 6895 6894 ] final  111.94 input  -60.11 | X-H torsion
[ 7974 7965 7964 7962 ] final  165.31 input  175.53 | X-H torsion
[ 8008 7997 7996 7995 ] final  164.87 input   59.86 | X-H torsion
[ 10167 10162 10161 10158 ] final -110.57 input  -65.29 | X-H torsion
[ 10718 10713 10712 10709 ] final  144.90 input   66.30 | X-H torsion
[ 10763 10752 10751 10750 ] final   85.12 input  -60.55 | X-H torsion
[ 11005 11000 10999 10996 ] final  -96.38 input  -57.11 | X-H torsion

> <Gold.Protein.ActiveResidues>
 VAL166  LYS551  ARG553  GLY616  TRP617  ASP618  TYR619  PRO620  LYS621  CYS622 
 ASP623  PHE694  ASN695  SER759  ASP760  ASP761  ALA762  ILE779  LEU786  VAL792 
 PHE793  MET794  SER795  GLU796  ALA797  LYS798  CYS799  TRP800  GLU811  SER814 

> <Gold.Protein.RotatedAtoms>
  152.4943  133.8587  159.7238 H   0  0  0  0  0  0  0  0  0  0  0  0  # atno 6907 bound_to 6896
  150.9104  133.6995  159.2863 H   0  0  0  0  0  0  0  0  0  0  0  0  # atno 6908 bound_to 6896
  151.4406  135.1024  159.9721 H   0  0  0  0  0  0  0  0  0  0  0  0  # atno 6909 bound_to 6896
  144.7508  139.8452  143.6367 H   0  0  0  0  0  0  0  0  0  0  0  0  # atno 7974 bound_to 7965
  156.1846  140.1685  156.8210 H   0  0  0  0  0  0  0  0  0  0  0  0  # atno 8008 bound_to 7997
  154.5399  140.0739  156.8524 H   0  0  0  0  0  0  0  0  0  0  0  0  # atno 8009 bound_to 7997
  155.3236  140.3375  155.4243 H   0  0  0  0  0  0  0  0  0  0  0  0  # atno 8010 bound_to 7997
  140.1430  143.4263  152.1548 H   0  0  0  0  0  0  0  0  0  0  0  0  # atno 10167 bound_to 10162
  157.3516  131.0951  151.0995 H   0  0  0  0  0  0  0  0  0  0  0  0  # atno 10718 bound_to 10713
  153.1445  135.4629  154.9545 H   0  0  0  0  0  0  0  0  0  0  0  0  # atno 10763 bound_to 10752
  154.7775  135.3177  154.8064 H   0  0  0  0  0  0  0  0  0  0  0  0  # atno 10764 bound_to 10752
  153.8581  135.6915  153.4840 H   0  0  0  0  0  0  0  0  0  0  0  0  # atno 10765 bound_to 10752
  141.1413  133.8094  157.0563 H   0  0  0  0  0  0  0  0  0  0  0  0  # atno 11005 bound_to 11000
  146.1455  139.4523  143.0082 LP  0  0  0  0  0  0  0  0  0  0  0  0  # atno 17320 bound_to 7965
  145.6952  141.0152  143.1534 LP  0  0  0  0  0  0  0  0  0  0  0  0  # atno 17321 bound_to 7965
  139.5462  144.7300  151.4575 LP  0  0  0  0  0  0  0  0  0  0  0  0  # atno 17342 bound_to 10162
  140.6749  143.8213  150.7045 LP  0  0  0  0  0  0  0  0  0  0  0  0  # atno 17343 bound_to 10162
  157.2168  130.6463  149.5795 LP  0  0  0  0  0  0  0  0  0  0  0  0  # atno 17370 bound_to 10713
  155.9722  130.4642  150.6209 LP  0  0  0  0  0  0  0  0  0  0  0  0  # atno 17371 bound_to 10713
  140.0599  134.9760  157.1287 LP  0  0  0  0  0  0  0  0  0  0  0  0  # atno 17394 bound_to 11000
  140.3863  134.2232  155.7168 LP  0  0  0  0  0  0  0  0  0  0  0  0  # atno 17395 bound_to 11000

$$$$
