AV-unprocessed.smi:2486|AV-procd|sdf|9790|dock9
  -GOLD-   2272013433D 1   1.00000     0.00000
 Structure written by MMmdl.
 42 43  0  0  0  0  0  0  0  0  1 V2000
  151.1167  137.4993  154.5638 C   0  0  0  0  0  0  0  0  0  0  0  0
  150.9310  136.2425  155.2632 N   0  0  0  0  0  0  0  0  0  0  0  0
  151.8410  135.8061  156.1656 N   0  0  0  0  0  0  0  0  0  0  0  0
  151.3189  134.6486  156.5723 C   0  0  0  0  0  0  0  0  0  0  0  0
  150.1305  134.2936  156.0004 N   0  0  0  0  0  0  0  0  0  0  0  0
  149.9519  135.3359  155.1947 C   0  0  0  0  0  0  0  0  0  0  0  0
  148.8543  135.5365  154.3154 N   0  0  0  0  0  0  0  0  0  0  0  0
  147.6290  134.9900  154.3901 C   0  0  0  0  0  0  0  0  0  0  0  0
  147.2481  134.2146  155.2674 O   0  0  0  0  0  0  0  0  0  0  0  0
  146.8529  135.3973  153.3776 N   0  0  0  0  0  0  0  0  0  0  0  0
  145.4670  134.9830  153.1813 C   0  0  0  0  0  0  0  0  0  0  0  0
  145.1840  134.4930  151.7354 C   0  0  0  0  0  0  0  0  0  0  0  0
  145.1148  135.7193  150.7960 C   0  0  0  0  0  0  0  0  0  0  0  0
  146.3743  133.6101  151.2711 C   0  0  0  0  0  0  0  0  0  0  0  0
  146.3731  132.1476  151.7545 C   0  0  0  0  0  0  0  0  0  0  0  0
  145.6273  131.2038  150.7962 C   0  0  0  0  0  0  0  0  0  0  0  0
  144.0997  131.3568  150.8069 C   0  0  0  0  0  0  0  0  0  0  0  0
  143.5948  132.7814  150.5194 C   0  0  0  0  0  0  0  0  0  0  0  0
  143.8210  133.7447  151.6997 C   0  0  0  0  0  0  0  0  0  0  0  0
  150.2605  138.1493  154.7460 H   0  0  0  0  0  0  0  0  0  0  0  0
  151.2028  137.3129  153.4929 H   0  0  0  0  0  0  0  0  0  0  0  0
  152.0212  138.0016  154.9100 H   0  0  0  0  0  0  0  0  0  0  0  0
  151.8148  134.0352  157.3102 H   0  0  0  0  0  0  0  0  0  0  0  0
  149.0231  136.1636  153.5430 H   0  0  0  0  0  0  0  0  0  0  0  0
  147.2404  136.0356  152.6984 H   0  0  0  0  0  0  0  0  0  0  0  0
  145.2341  134.1927  153.8975 H   0  0  0  0  0  0  0  0  0  0  0  0
  144.8189  135.8245  153.4300 H   0  0  0  0  0  0  0  0  0  0  0  0
  144.9416  135.4221  149.7615 H   0  0  0  0  0  0  0  0  0  0  0  0
  146.0456  136.2873  150.8196 H   0  0  0  0  0  0  0  0  0  0  0  0
  144.3103  136.4025  151.0701 H   0  0  0  0  0  0  0  0  0  0  0  0
  146.4394  133.6116  150.1821 H   0  0  0  0  0  0  0  0  0  0  0  0
  147.3034  134.0801  151.5962 H   0  0  0  0  0  0  0  0  0  0  0  0
  147.4092  131.8109  151.8040 H   0  0  0  0  0  0  0  0  0  0  0  0
  145.9863  132.0608  152.7699 H   0  0  0  0  0  0  0  0  0  0  0  0
  146.0020  131.3395  149.7808 H   0  0  0  0  0  0  0  0  0  0  0  0
  145.8683  130.1743  151.0628 H   0  0  0  0  0  0  0  0  0  0  0  0
  143.6851  130.6813  150.0580 H   0  0  0  0  0  0  0  0  0  0  0  0
  143.7040  131.0120  151.7630 H   0  0  0  0  0  0  0  0  0  0  0  0
  144.0215  133.1723  149.5955 H   0  0  0  0  0  0  0  0  0  0  0  0
  142.5207  132.7169  150.3428 H   0  0  0  0  0  0  0  0  0  0  0  0
  143.6780  133.1908  152.6286 H   0  0  0  0  0  0  0  0  0  0  0  0
  143.0169  134.4817  151.6958 H   0  0  0  0  0  0  0  0  0  0  0  0
  1  2  1  0  0  0  0
  1 20  1  0  0  0  0
  1 21  1  0  0  0  0
  1 22  1  0  0  0  0
  2  6  1  0  0  0  0
  2  3  1  0  0  0  0
  3  4  2  0  0  0  0
  4  5  1  0  0  0  0
  4 23  1  0  0  0  0
  5  6  2  0  0  0  0
  6  7  1  0  0  0  0
  7  8  1  0  0  0  0
  7 24  1  0  0  0  0
  8  9  2  0  0  0  0
  8 10  1  0  0  0  0
 10 11  1  0  0  0  0
 10 25  1  0  0  0  0
 11 12  1  0  0  0  0
 11 26  1  0  0  0  0
 11 27  1  0  0  0  0
 12 19  1  0  0  0  0
 12 13  1  0  0  0  0
 12 14  1  0  0  0  0
 13 28  1  0  0  0  0
 13 29  1  0  0  0  0
 13 30  1  0  0  0  0
 14 15  1  0  0  0  0
 14 31  1  0  0  0  0
 14 32  1  0  0  0  0
 15 16  1  0  0  0  0
 15 33  1  0  0  0  0
 15 34  1  0  0  0  0
 16 17  1  0  0  0  0
 16 35  1  0  0  0  0
 16 36  1  0  0  0  0
 17 18  1  0  0  0  0
 17 37  1  0  0  0  0
 17 38  1  0  0  0  0
 18 19  1  0  0  0  0
 18 39  1  0  0  0  0
 18 40  1  0  0  0  0
 19 41  1  0  0  0  0
 19 42  1  0  0  0  0
M  END
> <s_m_source_file>
AV-unprocessed.smi

> <i_m_source_file_index>
2486

> <i_lp_mmshare_version>
43012

> <i_f3d_flags>
0

> <s_epik_input>
W0NIM11uMW5bY0hdbmMxW05IXUMoPU8pW05IXVtDSDJdQzIoW0NIM10pW0NIMl1bQ0gyXVtDSDJdW0NIMl1bQ0gyXVtDSDJdMg==

> <s_epik_cmdline>
J2VwaWtfcHl0aG9uJywgJy1waCcsICc3LjAnLCAnLXRuJywgJzgnLCAnLW1hJywgJzIwMCcsICctbWV0YWxfYmluZGluZycsICctaW1hZScsICc8aW5maWxlLm1hZT4nLCAnLW9tYWUnLCAnPG91dGZpbGUubWFlPic=

> <r_lp_tautomer_probability>
1

> <r_epik_Ionization_Penalty>
2.33289e-05

> <r_epik_Ionization_Penalty_Charging>
0

> <r_epik_Ionization_Penalty_Neutral>
2.33289e-05

> <r_epik_State_Penalty>
-0

> <r_epik_Charging_Adjusted_Penalty>
0

> <i_epik_Tot_Q>
0

> <i_epik_Tot_abs_Q>
0

> <r_epik_Metal_State_Penalty>
-0

> <b_epik_Metal_Only>
0

> <s_lp_Force_Field>
OPLS_2005

> <r_lp_Energy>
21.4414

> <b_lp_Chiralities_Consistent>
1

> <s_lp_Variant>
AV-unprocessed.smi:2486-1

> <Gold.Version>
5.8.1

> <Gold.Id.Protein>
6NUR|6NUR_protein|mol2

> <Gold.PLP.Fitness>
37.2182

> <Gold.PLP.PLP>
-30.3323

> <Gold.PLP.part.hbond>
-3.0000

> <Gold.PLP.part.metal>
0.0000

> <Gold.PLP.part.buried>
-2.0546

> <Gold.PLP.part.nonpolar>
-26.1462

> <Gold.PLP.part.repulsive>
0.0620

> <Gold.PLP.ligand.clash>
0.0000

> <Gold.PLP.ligand.torsion>
0.3401

> <Gold.PLP.Chemscore.Hbond>
2.5200

> <Gold.PLP.Chemscore.CHOScore>
0.0000

> <Gold.PLP.Chemscore.Metal>
0.0000

> <Gold.Chemscore.Hbonds>
donor molecule, donor type, donor heavy atom, donor atom, acceptor molecule, acceptor atom, score
      L1  H     7    24       P1  7948  0.83
      L1  H    10    25       P1  7948  0.69
      P1  H 10752 10763       L1     3  1.00

> <Gold.PLP.Chemscore.Internal.Correction>
0.0062

> <Gold.Rescore>
     Score         DG    S(hbond)    S(metal)    S(lipo)     H(rot)  DE(clash)    DE(int)     intcor
     15.97     -17.62       2.16        0.00      71.39       1.35       0.08       1.56       ----

> <Gold.Chemscore.Fitness>
15.9728

> <Gold.Chemscore.DG>
-17.6195

> <Gold.Chemscore.ZeroCoef>
-5.4800

> <Gold.Chemscore.Hbond>
2.1650

> <Gold.Chemscore.Metal>
0.0000

> <Gold.Chemscore.Lipo>
71.3903

> <Gold.Chemscore.Internal_Hbond>
0.0000

> <Gold.Chemscore.DEClash>
0.0818

> <Gold.Chemscore.DEInternal>
1.5650

> <Gold.Chemscore.Rot>
1.3454

> <Gold.Chemscore.Internal.Correction>
   9.000000E+99

> <Gold.Chemscore.Hbonds>
donor molecule, donor type, donor heavy atom, donor atom, acceptor molecule, acceptor atom, score
      L1  H     7    24       P1  7948  0.79
      L1  H    10    25       P1  7948  0.70
      P1  H 10752 10763       L1     3  0.30

> <Gold.Chemscore.Hbond.Weighted>
-7.2311

> <Gold.Chemscore.Metal.Weighted>
-0.0000

> <Gold.Chemscore.Lipo.Weighted>
-8.3527

> <Gold.Chemscore.Internal_Hbond.Weighted>
0.0000

> <Gold.Chemscore.DEClash.Weighted>
0.0818

> <Gold.Chemscore.DEInternal.Weighted>
1.5650

> <Gold.Chemscore.Rot.Weighted>
3.4442

> <Gold.Chemscore.Internal.Correction.Weighted>
   9.000000E+99

> <Gold.Protein.RotatedTorsions>
[ 6907 6896 6895 6894 ] final   73.03 input  -60.11 | X-H torsion
[ 7974 7965 7964 7962 ] final  -27.67 input  175.53 | X-H torsion
[ 8008 7997 7996 7995 ] final  150.34 input   59.86 | X-H torsion
[ 10167 10162 10161 10158 ] final  -94.07 input  -65.29 | X-H torsion
[ 10718 10713 10712 10709 ] final -123.85 input   66.30 | X-H torsion
[ 10763 10752 10751 10750 ] final  104.35 input  -60.55 | X-H torsion
[ 11005 11000 10999 10996 ] final  -17.60 input  -57.11 | X-H torsion

> <Gold.Protein.ActiveResidues>
 VAL166  LYS551  ARG553  GLY616  TRP617  ASP618  TYR619  PRO620  LYS621  CYS622 
 ASP623  PHE694  ASN695  SER759  ASP760  ASP761  ALA762  ILE779  LEU786  VAL792 
 PHE793  MET794  SER795  GLU796  ALA797  LYS798  CYS799  TRP800  GLU811  SER814 

> <Gold.Protein.RotatedAtoms>
  152.4901  134.4483  159.9565 H   0  0  0  0  0  0  0  0  0  0  0  0  # atno 6907 bound_to 6896
  151.4472  133.3621  159.2798 H   0  0  0  0  0  0  0  0  0  0  0  0  # atno 6908 bound_to 6896
  150.9047  134.8485  159.7444 H   0  0  0  0  0  0  0  0  0  0  0  0  # atno 6909 bound_to 6896
  146.1341  140.5182  142.8680 H   0  0  0  0  0  0  0  0  0  0  0  0  # atno 7974 bound_to 7965
  156.2719  140.2077  156.6002 H   0  0  0  0  0  0  0  0  0  0  0  0  # atno 8008 bound_to 7997
  154.6912  140.0530  157.0389 H   0  0  0  0  0  0  0  0  0  0  0  0  # atno 8009 bound_to 7997
  155.0863  140.3192  155.4589 H   0  0  0  0  0  0  0  0  0  0  0  0  # atno 8010 bound_to 7997
  140.3182  143.3064  152.0075 H   0  0  0  0  0  0  0  0  0  0  0  0  # atno 10167 bound_to 10162
  156.1537  130.6553  150.9951 H   0  0  0  0  0  0  0  0  0  0  0  0  # atno 10718 bound_to 10713
  153.3648  135.3946  155.1745 H   0  0  0  0  0  0  0  0  0  0  0  0  # atno 10763 bound_to 10752
  154.8685  135.3688  154.5053 H   0  0  0  0  0  0  0  0  0  0  0  0  # atno 10764 bound_to 10752
  153.5516  135.7083  153.5649 H   0  0  0  0  0  0  0  0  0  0  0  0  # atno 10765 bound_to 10752
  140.8184  133.8087  155.9634 H   0  0  0  0  0  0  0  0  0  0  0  0  # atno 11005 bound_to 11000
  144.7721  140.5661  143.6663 LP  0  0  0  0  0  0  0  0  0  0  0  0  # atno 17320 bound_to 7965
  145.5194  139.1477  143.3560 LP  0  0  0  0  0  0  0  0  0  0  0  0  # atno 17321 bound_to 7965
  139.4879  144.6331  151.7029 LP  0  0  0  0  0  0  0  0  0  0  0  0  # atno 17342 bound_to 10162
  140.5507  144.0430  150.6126 LP  0  0  0  0  0  0  0  0  0  0  0  0  # atno 17343 bound_to 10162
  157.6678  131.0868  150.7687 LP  0  0  0  0  0  0  0  0  0  0  0  0  # atno 17370 bound_to 10713
  156.7753  130.4842  149.5411 LP  0  0  0  0  0  0  0  0  0  0  0  0  # atno 17371 bound_to 10713
  140.9125  134.2243  157.4977 LP  0  0  0  0  0  0  0  0  0  0  0  0  # atno 17394 bound_to 11000
  139.8710  134.9756  156.4890 LP  0  0  0  0  0  0  0  0  0  0  0  0  # atno 17395 bound_to 11000

$$$$
