AV-unprocessed.smi:2469|AV-procd|sdf|9734|dock4
  -GOLD-   2272013373D 1   1.00000     0.00000
 Structure written by MMmdl.
 32 33  0  0  0  0  0  0  0  0  1 V2000
  146.9994  137.6411  151.1369 O   0  0  0  0  0  0  0  0  0  0  0  0
  146.6040  138.7742  151.8803 C   0  0  0  0  0  0  0  0  0  0  0  0
  146.7109  138.4889  153.3834 C   0  0  0  0  0  0  0  0  0  0  0  0
  148.0874  138.4315  153.7480 O   0  0  0  0  0  0  0  0  0  0  0  0
  148.6239  139.4802  154.4665 C   0  0  0  0  0  0  0  0  0  0  0  0
  149.9047  139.3240  155.0328 C   0  0  0  0  0  0  0  0  0  0  0  0
  150.4604  140.3910  155.7639 C   0  0  0  0  0  0  0  0  0  0  0  0
  149.7186  141.5868  155.9059 C   0  0  0  0  0  0  0  0  0  0  0  0
  150.1793  142.7078  156.6130 N   0  0  0  0  0  0  0  0  0  0  0  0
  151.3716  142.6524  157.4494 C   0  0  1  0  0  0  0  0  0  0  0  0
  151.7829  143.9975  158.0160 C   0  0  0  0  0  0  0  0  0  0  0  0
  152.6590  143.5808  159.1939 C   0  0  0  0  0  0  0  0  0  0  0  0
  152.1427  142.3301  159.6431 O   0  0  0  0  0  0  0  0  0  0  0  0
  151.1542  141.8558  158.7338 C   0  0  0  0  0  0  0  0  0  0  0  0
  148.4442  141.6397  155.3025 C   0  0  0  0  0  0  0  0  0  0  0  0
  147.9041  140.6214  154.6004 N   0  0  0  0  0  0  0  0  0  0  0  0
  147.3220  136.9858  151.7366 H   0  0  0  0  0  0  0  0  0  0  0  0
  147.1981  139.6438  151.5974 H   0  0  0  0  0  0  0  0  0  0  0  0
  145.5679  138.9927  151.6201 H   0  0  0  0  0  0  0  0  0  0  0  0
  146.2374  139.3075  153.9279 H   0  0  0  0  0  0  0  0  0  0  0  0
  146.1839  137.5690  153.6436 H   0  0  0  0  0  0  0  0  0  0  0  0
  150.4517  138.4011  154.9089 H   0  0  0  0  0  0  0  0  0  0  0  0
  151.4406  140.2742  156.2005 H   0  0  0  0  0  0  0  0  0  0  0  0
  149.7758  143.6128  156.4159 H   0  0  0  0  0  0  0  0  0  0  0  0
  152.2018  142.2068  156.8999 H   0  0  0  0  0  0  0  0  0  0  0  0
  152.3088  144.6308  157.3012 H   0  0  0  0  0  0  0  0  0  0  0  0
  150.9104  144.5439  158.3783 H   0  0  0  0  0  0  0  0  0  0  0  0
  153.6897  143.4330  158.8690 H   0  0  0  0  0  0  0  0  0  0  0  0
  152.6589  144.3222  159.9933 H   0  0  0  0  0  0  0  0  0  0  0  0
  150.1720  142.0651  159.1609 H   0  0  0  0  0  0  0  0  0  0  0  0
  151.2336  140.7795  158.5792 H   0  0  0  0  0  0  0  0  0  0  0  0
  147.8363  142.5293  155.3830 H   0  0  0  0  0  0  0  0  0  0  0  0
  1  2  1  0  0  0  0
  1 17  1  0  0  0  0
  2  3  1  0  0  0  0
  2 18  1  0  0  0  0
  2 19  1  0  0  0  0
  3  4  1  0  0  0  0
  3 20  1  0  0  0  0
  3 21  1  0  0  0  0
  4  5  1  0  0  0  0
  5 16  1  0  0  0  0
  5  6  2  0  0  0  0
  6  7  1  0  0  0  0
  6 22  1  0  0  0  0
  7  8  2  0  0  0  0
  7 23  1  0  0  0  0
  8  9  1  0  0  0  0
  8 15  1  0  0  0  0
  9 10  1  0  0  0  0
  9 24  1  0  0  0  0
 10 14  1  0  0  0  0
 10 11  1  0  0  0  0
 10 25  1  0  0  0  0
 11 12  1  0  0  0  0
 11 26  1  0  0  0  0
 11 27  1  0  0  0  0
 12 13  1  0  0  0  0
 12 28  1  0  0  0  0
 12 29  1  0  0  0  0
 13 14  1  0  0  0  0
 14 30  1  0  0  0  0
 14 31  1  0  0  0  0
 15 16  2  0  0  0  0
 15 32  1  0  0  0  0
M  END
> <s_m_source_file>
AV-unprocessed.smi

> <i_m_source_file_index>
2469

> <i_lp_mmshare_version>
43012

> <i_f3d_flags>
0

> <s_epik_input>
W09IXVtDSDJdW0NIMl1PYzFbY0hdW2NIXWMoW2NIXW4xKVtOSF1bQ0BASF0yW0NIMl1bQ0gyXU9bQ0gyXTI=

> <s_epik_cmdline>
J2VwaWtfcHl0aG9uJywgJy1waCcsICc3LjAnLCAnLXRuJywgJzgnLCAnLW1hJywgJzIwMCcsICctbWV0YWxfYmluZGluZycsICctaW1hZScsICc8aW5maWxlLm1hZT4nLCAnLW9tYWUnLCAnPG91dGZpbGUubWFlPic=

> <r_lp_tautomer_probability>
1

> <r_epik_Ionization_Penalty>
0.000432265

> <r_epik_Ionization_Penalty_Charging>
0

> <r_epik_Ionization_Penalty_Neutral>
0.000432265

> <r_epik_State_Penalty>
-0

> <r_epik_Charging_Adjusted_Penalty>
0

> <i_epik_Tot_Q>
0

> <i_epik_Tot_abs_Q>
0

> <r_epik_Metal_State_Penalty>
-0

> <b_epik_Metal_Only>
0

> <s_lp_Force_Field>
OPLS_2005

> <r_lp_Energy>
23.2185

> <b_lp_Chiralities_Consistent>
1

> <s_lp_Variant>
AV-unprocessed.smi:2469-2

> <Gold.Version>
5.8.1

> <Gold.Id.Protein>
6NUR|6NUR_protein|mol2

> <Gold.PLP.Fitness>
40.9844

> <Gold.PLP.PLP>
-31.3813

> <Gold.PLP.part.hbond>
-2.9771

> <Gold.PLP.part.metal>
0.0000

> <Gold.PLP.part.buried>
-4.3383

> <Gold.PLP.part.nonpolar>
-27.4715

> <Gold.PLP.part.repulsive>
1.6319

> <Gold.PLP.ligand.clash>
0.0000

> <Gold.PLP.ligand.torsion>
0.5873

> <Gold.PLP.Chemscore.Hbond>
2.8160

> <Gold.PLP.Chemscore.CHOScore>
0.7597

> <Gold.PLP.Chemscore.Metal>
0.0000

> <Gold.Chemscore.Hbonds>
donor molecule, donor type, donor heavy atom, donor atom, acceptor molecule, acceptor atom, score
      L1  H     1    17       P1  7948  0.58
      L1  H     9    24       P1  8028  1.00
      P1  H  7954  7966       L1     1  1.00
      L1  C    15    32       P1  8028  0.83

> <Gold.PLP.Chemscore.Internal.Correction>
0.0508

> <Gold.Rescore>
     Score         DG    S(hbond)    S(metal)    S(lipo)     H(rot)  DE(clash)    DE(int)     intcor
     16.67     -17.64       2.41        0.00      86.07       2.32       0.38       0.58       ----

> <Gold.Chemscore.Fitness>
16.6726

> <Gold.Chemscore.DG>
-17.6376

> <Gold.Chemscore.ZeroCoef>
-5.4800

> <Gold.Chemscore.Hbond>
2.4051

> <Gold.Chemscore.Metal>
0.0000

> <Gold.Chemscore.Lipo>
86.0696

> <Gold.Chemscore.Internal_Hbond>
0.0000

> <Gold.Chemscore.DEClash>
0.3843

> <Gold.Chemscore.DEInternal>
0.5806

> <Gold.Chemscore.Rot>
2.3225

> <Gold.Chemscore.Internal.Correction>
   9.000000E+99

> <Gold.Chemscore.Hbonds>
donor molecule, donor type, donor heavy atom, donor atom, acceptor molecule, acceptor atom, score
      L1  H     1    17       P1  7948  0.58
      L1  H     9    24       P1  8028  0.98
      P1  H  7954  7966       L1     1  0.63

> <Gold.Chemscore.Hbond.Weighted>
-8.0331

> <Gold.Chemscore.Metal.Weighted>
-0.0000

> <Gold.Chemscore.Lipo.Weighted>
-10.0701

> <Gold.Chemscore.Internal_Hbond.Weighted>
0.0000

> <Gold.Chemscore.DEClash.Weighted>
0.3843

> <Gold.Chemscore.DEInternal.Weighted>
0.5806

> <Gold.Chemscore.Rot.Weighted>
5.9456

> <Gold.Chemscore.Internal.Correction.Weighted>
   9.000000E+99

> <Gold.Protein.RotatedTorsions>
[ 6907 6896 6895 6894 ] final  -53.84 input  -60.11 | X-H torsion
[ 7974 7965 7964 7962 ] final  -63.64 input  175.53 | X-H torsion
[ 8008 7997 7996 7995 ] final  172.85 input   59.86 | X-H torsion
[ 10167 10162 10161 10158 ] final   83.35 input  -65.29 | X-H torsion
[ 10718 10713 10712 10709 ] final  144.13 input   66.30 | X-H torsion
[ 10763 10752 10751 10750 ] final -158.37 input  -60.55 | X-H torsion
[ 11005 11000 10999 10996 ] final  -13.76 input  -57.11 | X-H torsion

> <Gold.Protein.ActiveResidues>
 VAL166  LYS551  ARG553  GLY616  TRP617  ASP618  TYR619  PRO620  LYS621  CYS622 
 ASP623  PHE694  ASN695  SER759  ASP760  ASP761  ALA762  ILE779  LEU786  VAL792 
 PHE793  MET794  SER795  GLU796  ALA797  LYS798  CYS799  TRP800  GLU811  SER814 

> <Gold.Protein.RotatedAtoms>
  150.8390  134.7675  159.6916 H   0  0  0  0  0  0  0  0  0  0  0  0  # atno 6907 bound_to 6896
  152.4481  134.5447  159.9859 H   0  0  0  0  0  0  0  0  0  0  0  0  # atno 6908 bound_to 6896
  151.5591  133.3368  159.3003 H   0  0  0  0  0  0  0  0  0  0  0  0  # atno 6909 bound_to 6896
  145.7766  140.8784  143.0352 H   0  0  0  0  0  0  0  0  0  0  0  0  # atno 7974 bound_to 7965
  156.1134  140.1475  156.9307 H   0  0  0  0  0  0  0  0  0  0  0  0  # atno 8008 bound_to 7997
  154.4783  140.0887  156.7358 H   0  0  0  0  0  0  0  0  0  0  0  0  # atno 8009 bound_to 7997
  155.4557  140.3436  155.4308 H   0  0  0  0  0  0  0  0  0  0  0  0  # atno 8010 bound_to 7997
  139.9193  144.6223  150.8456 H   0  0  0  0  0  0  0  0  0  0  0  0  # atno 10167 bound_to 10162
  157.3609  131.0965  151.0916 H   0  0  0  0  0  0  0  0  0  0  0  0  # atno 10718 bound_to 10713
  154.7562  135.3105  154.8466 H   0  0  0  0  0  0  0  0  0  0  0  0  # atno 10763 bound_to 10752
  153.9239  135.6792  153.4751 H   0  0  0  0  0  0  0  0  0  0  0  0  # atno 10764 bound_to 10752
  153.1159  135.4845  154.9044 H   0  0  0  0  0  0  0  0  0  0  0  0  # atno 10765 bound_to 10752
  140.7794  133.8375  155.9278 H   0  0  0  0  0  0  0  0  0  0  0  0  # atno 11005 bound_to 11000
  144.6803  139.9930  143.7484 LP  0  0  0  0  0  0  0  0  0  0  0  0  # atno 17320 bound_to 7965
  146.0116  139.3175  143.0867 LP  0  0  0  0  0  0  0  0  0  0  0  0  # atno 17321 bound_to 7965
  140.7666  143.3308  151.2414 LP  0  0  0  0  0  0  0  0  0  0  0  0  # atno 17342 bound_to 10162
  139.6875  143.9748  152.2842 LP  0  0  0  0  0  0  0  0  0  0  0  0  # atno 17343 bound_to 10162
  157.2057  130.6415  149.5755 LP  0  0  0  0  0  0  0  0  0  0  0  0  # atno 17370 bound_to 10713
  155.9737  130.4676  150.6331 LP  0  0  0  0  0  0  0  0  0  0  0  0  # atno 17371 bound_to 10713
  140.9497  134.1795  157.4737 LP  0  0  0  0  0  0  0  0  0  0  0  0  # atno 17394 bound_to 11000
  139.8744  134.9904  156.5502 LP  0  0  0  0  0  0  0  0  0  0  0  0  # atno 17395 bound_to 11000

$$$$
