#       Name:                AV-unprocessed.smi:275
#       Creating user name   scv26
#       Creation time:       Thu Mar 26 21:32:02 2020


#       File generated by GOLD software.
#

@<TRIPOS>MOLECULE
AV-unprocessed.smi:275
    73    77     1
SMALL
NO_CHARGES


@<TRIPOS>ATOM
      1 ****        -3.4944  -1.7182  -1.6920 C.3            1 S1                 0.0000
      2 ****        -4.1448  -0.6006  -0.8639 C.3            1 S1                 0.0000
      3 ****        -5.1772   0.1554  -1.7300 C.3            1 S1                 0.0000
      4 ****        -3.0740   0.2682  -0.1513 C.3            1 S1                 0.0000
      5 ****        -2.6358   1.3794  -0.9996 N.3            1 S1                 0.0000
      6 ****        -1.2217   1.5679  -1.1474 C.ar           1 S1                 0.0000
      7 ****        -0.7319   2.8374  -1.1831 N.ar           1 S1                 0.0000
      8 ****         0.5726   3.0830  -1.3252 C.ar           1 S1                 0.0000
      9 ****         1.5708   2.2133  -1.4650 N.ar           1 S1                 0.0000
     10 ****         1.1034   0.9343  -1.4655 C.ar           1 S1                 0.0000
     11 ****        -0.2565   0.5285  -1.3226 C.ar           1 S1                 0.0000
     12 ****        -0.3302  -0.8586  -1.3935 N.2            1 S1                 0.0000
     13 ****         0.9042  -1.2475  -1.5528 C.2            1 S1                 0.0000
     14 ****         1.8320  -0.2347  -1.5970 N.pl3          1 S1                 0.0000
     15 ****         3.2679  -0.3827  -1.7597 C.3            1 S1                 0.0000
     16 ****         3.9725  -0.9242  -0.4908 C.3            1 S1                 0.0000
     17 ****         3.6255  -0.1111   0.7806 C.3            1 S1                 0.0000
     18 ****         4.0811   1.2227   0.6824 O.3            1 S1                 0.0000
     19 ****         5.5015  -1.0591  -0.7043 C.3            1 S1                 0.0000
     20 ****         6.2526  -1.7171   0.4399 C.3            1 S1                 0.0000
     21 ****         7.5604  -2.1277  -0.2279 C.3            1 S1                 0.0000
     22 ****         7.2246  -2.4292  -1.5774 O.3            1 S1                 0.0000
     23 ****         5.9059  -1.9748  -1.8646 C.3            1 S1                 0.0000
     24 ****        -3.3385   2.3630  -0.1771 C.3            1 S1                 0.0000
     25 ****        -3.4068   1.3173   0.9441 C.3            1 S1                 0.0000
     26 ****        -2.3347   1.4949   2.0428 C.3            1 S1                 0.0000
     27 ****        -2.3104   0.3426   3.0610 C.3            1 S1                 0.0000
     28 ****        -3.6729   0.1846   3.7444 C.3            1 S1                 0.0000
     29 ****        -4.7931   0.0498   2.7073 C.3            1 S1                 0.0000
     30 ****        -4.7536   1.2030   1.6879 C.3            1 S1                 0.0000
     31 ****        -2.9109  -1.3094  -2.5174 H              1 S1                 0.0000
     32 ****        -4.2468  -2.3832  -2.1166 H              1 S1                 0.0000
     33 ****        -2.8296  -2.3277  -1.0796 H              1 S1                 0.0000
     34 ****        -4.7169  -1.1122  -0.0911 H              1 S1                 0.0000
     35 ****        -4.7068   0.6402  -2.5859 H              1 S1                 0.0000
     36 ****        -5.7179   0.9178  -1.1743 H              1 S1                 0.0000
     37 ****        -5.9245  -0.5335  -2.1242 H              1 S1                 0.0000
     38 ****        -2.2491  -0.3445   0.2088 H              1 S1                 0.0000
     39 ****         0.8557   4.1252  -1.3278 H              1 S1                 0.0000
     40 ****         1.1744  -2.2900  -1.6385 H              1 S1                 0.0000
     41 ****         3.4340  -1.0498  -2.6057 H              1 S1                 0.0000
     42 ****         3.6903   0.5818  -2.0436 H              1 S1                 0.0000
     43 ****         3.5839  -1.9297  -0.3229 H              1 S1                 0.0000
     44 ****         2.5502  -0.1005   0.9587 H              1 S1                 0.0000
     45 ****         4.0688  -0.5665   1.6659 H              1 S1                 0.0000
     46 ****         3.8218   1.6877   1.4632 H              1 S1                 0.0000
     47 ****         5.9351  -0.0727  -0.8787 H              1 S1                 0.0000
     48 ****         6.4118  -1.0534   1.2903 H              1 S1                 0.0000
     49 ****         5.7177  -2.6012   0.7902 H              1 S1                 0.0000
     50 ****         8.2669  -1.2968  -0.2230 H              1 S1                 0.0000
     51 ****         8.0325  -2.9776   0.2655 H              1 S1                 0.0000
     52 ****         5.2504  -2.8453  -1.9182 H              1 S1                 0.0000
     53 ****         5.8698  -1.4669  -2.8287 H              1 S1                 0.0000
     54 ****        -2.7953   3.2673   0.0972 H              1 S1                 0.0000
     55 ****        -4.3136   2.6113  -0.5954 H              1 S1                 0.0000
     56 ****        -1.3413   1.5845   1.6031 H              1 S1                 0.0000
     57 ****        -2.4984   2.4344   2.5725 H              1 S1                 0.0000
     58 ****        -2.0401  -0.5877   2.5602 H              1 S1                 0.0000
     59 ****        -1.5396   0.5241   3.8105 H              1 S1                 0.0000
     60 ****        -3.6651  -0.6823   4.4057 H              1 S1                 0.0000
     61 ****        -3.8653   1.0541   4.3743 H              1 S1                 0.0000
     62 ****        -4.6962  -0.9064   2.1940 H              1 S1                 0.0000
     63 ****        -5.7606   0.0313   3.2098 H              1 S1                 0.0000
     64 ****        -4.9641   2.1383   2.2083 H              1 S1                 0.0000
     65 ****        -5.5800   1.0790   0.9925 H              1 S1                 0.0000
     66 ****        -2.8304   1.3363  -1.9795 LP             1 S1                 0.0000
     67 ****        -1.3659   3.6063  -1.1007 LP             1 S1                 0.0000
     68 ****         2.5341   2.4653  -1.5572 LP             1 S1                 0.0000
     69 ****        -1.1483  -1.4307  -1.3352 LP             1 S1                 0.0000
     70 ****         3.6750   1.6593  -0.1204 LP             1 S1                 0.0000
     71 ****         5.0776   1.2332   0.5992 LP             1 S1                 0.0000
     72 ****         7.2718  -3.4182  -1.7173 LP             1 S1                 0.0000
     73 ****         7.8720  -1.9747  -2.1892 LP             1 S1                 0.0000
@<TRIPOS>BOND
    1    1    2 1     
    2    1   31 1     
    3    1   32 1     
    4    1   33 1     
    5    2    3 1     
    6    2    4 1     
    7    2   34 1     
    8    3   35 1     
    9    3   36 1     
   10    3   37 1     
   11    4   25 1     
   12    4    5 1     
   13    4   38 1     
   14    5    6 1     
   15    5   24 1     
   16    6   11 ar    
   17    6    7 ar    
   18    7    8 ar    
   19    8    9 ar    
   20    8   39 1     
   21    9   10 ar    
   22   10   14 1     
   23   10   11 ar    
   24   11   12 1     
   25   12   13 2     
   26   13   14 1     
   27   13   40 1     
   28   14   15 1     
   29   15   16 1     
   30   15   41 1     
   31   15   42 1     
   32   16   17 1     
   33   16   19 1     
   34   16   43 1     
   35   17   18 1     
   36   17   44 1     
   37   17   45 1     
   38   18   46 1     
   39   19   23 1     
   40   19   20 1     
   41   19   47 1     
   42   20   21 1     
   43   20   48 1     
   44   20   49 1     
   45   21   22 1     
   46   21   50 1     
   47   21   51 1     
   48   22   23 1     
   49   23   52 1     
   50   23   53 1     
   51   24   25 1     
   52   24   54 1     
   53   24   55 1     
   54   25   30 1     
   55   25   26 1     
   56   26   27 1     
   57   26   56 1     
   58   26   57 1     
   59   27   28 1     
   60   27   58 1     
   61   27   59 1     
   62   28   29 1     
   63   28   60 1     
   64   28   61 1     
   65   29   30 1     
   66   29   62 1     
   67   29   63 1     
   68   30   64 1     
   69   30   65 1     
   70    5   66 1     
   71    7   67 1     
   72    9   68 1     
   73   12   69 1     
   74   18   70 1     
   75   18   71 1     
   76   22   72 1     
   77   22   73 1     
@<TRIPOS>SUBSTRUCTURE
      1 S1             1
@<TRIPOS>SET
LONE_PAIRS      STATIC     ATOMS    <user>   **** ""
8 66 67 68 69 70 71 72 73
DONOR_HYDROGENS      STATIC     ATOMS    <user>   **** ""
1 46
ATOM$BLUE        STATIC     ATOMS    COLORGROUP SYSTEM
8 66 67 68 69 70 71 72 73
ATOM$RED        STATIC     ATOMS    COLORGROUP SYSTEM
1 46
