AV-unprocessed.smi:1507|AV-procd|sdf|6080|dock5
  -GOLD-   22720 6203D 1   1.00000     0.00000
 Structure written by MMmdl.
 34 35  0  0  0  0  0  0  0  0  1 V2000
  149.9621  135.0095  154.4032 N   0  0  0  0  0  0  0  0  0  0  0  0
  150.6733  136.2543  155.3517 S   0  0  0  0  0  0  0  0  0  0  0  0
  149.6336  136.8505  156.2039 O   0  0  0  0  0  0  0  0  0  0  0  0
  151.9309  135.7515  155.9246 O   0  0  0  0  0  0  0  0  0  0  0  0
  151.0539  137.3680  154.0945 N   0  0  0  0  0  0  0  0  0  0  0  0
  150.3600  138.6517  154.0283 C   0  0  0  0  0  0  0  0  0  0  0  0
  150.8039  139.6069  155.1180 C   0  0  0  0  0  0  0  0  0  0  0  0
  150.0825  140.7854  155.3897 C   0  0  0  0  0  0  0  0  0  0  0  0
  150.5359  141.6407  156.4123 C   0  0  0  0  0  0  0  0  0  0  0  0
  151.7020  141.2949  157.1372 C   0  0  0  0  0  0  0  0  0  0  0  0
  152.1774  142.1404  158.1633 N   0  0  0  0  0  0  0  0  0  0  0  0
  152.3804  141.5041  159.4627 C   0  0  0  0  0  0  0  0  0  0  0  0
  153.1733  142.4335  160.3984 C   0  0  0  0  0  0  0  0  0  0  0  0
  152.5183  143.6935  160.4958 O   0  0  0  0  0  0  0  0  0  0  0  0
  152.4359  144.3451  159.2329 C   0  0  0  0  0  0  0  0  0  0  0  0
  151.6120  143.4853  158.2598 C   0  0  0  0  0  0  0  0  0  0  0  0
  152.3865  140.1532  156.8757 N   0  0  0  0  0  0  0  0  0  0  0  0
  151.9493  139.3380  155.8931 C   0  0  0  0  0  0  0  0  0  0  0  0
  149.5255  135.3841  153.5616 H   0  0  0  0  0  0  0  0  0  0  0  0
  149.3010  134.4590  154.9508 H   0  0  0  0  0  0  0  0  0  0  0  0
  151.2614  136.9404  153.1925 H   0  0  0  0  0  0  0  0  0  0  0  0
  150.5573  139.1150  153.0607 H   0  0  0  0  0  0  0  0  0  0  0  0
  149.2847  138.4792  154.0825 H   0  0  0  0  0  0  0  0  0  0  0  0
  149.1938  141.0322  154.8277 H   0  0  0  0  0  0  0  0  0  0  0  0
  149.9796  142.5384  156.6361 H   0  0  0  0  0  0  0  0  0  0  0  0
  151.4063  141.2790  159.8989 H   0  0  0  0  0  0  0  0  0  0  0  0
  152.9121  140.5583  159.3713 H   0  0  0  0  0  0  0  0  0  0  0  0
  153.2433  141.9926  161.3930 H   0  0  0  0  0  0  0  0  0  0  0  0
  154.1942  142.5691  160.0382 H   0  0  0  0  0  0  0  0  0  0  0  0
  151.9634  145.3184  159.3654 H   0  0  0  0  0  0  0  0  0  0  0  0
  153.4369  144.5286  158.8393 H   0  0  0  0  0  0  0  0  0  0  0  0
  151.6006  143.9619  157.2788 H   0  0  0  0  0  0  0  0  0  0  0  0
  150.5787  143.4195  158.6038 H   0  0  0  0  0  0  0  0  0  0  0  0
  152.5303  138.4434  155.7228 H   0  0  0  0  0  0  0  0  0  0  0  0
  1  2  1  0  0  0  0
  1 19  1  0  0  0  0
  1 20  1  0  0  0  0
  2  3  2  0  0  0  0
  2  4  2  0  0  0  0
  2  5  1  0  0  0  0
  5  6  1  0  0  0  0
  5 21  1  0  0  0  0
  6  7  1  0  0  0  0
  6 22  1  0  0  0  0
  6 23  1  0  0  0  0
  7 18  1  0  0  0  0
  7  8  2  0  0  0  0
  8  9  1  0  0  0  0
  8 24  1  0  0  0  0
  9 10  2  0  0  0  0
  9 25  1  0  0  0  0
 10 11  1  0  0  0  0
 10 17  1  0  0  0  0
 11 16  1  0  0  0  0
 11 12  1  0  0  0  0
 12 13  1  0  0  0  0
 12 26  1  0  0  0  0
 12 27  1  0  0  0  0
 13 14  1  0  0  0  0
 13 28  1  0  0  0  0
 13 29  1  0  0  0  0
 14 15  1  0  0  0  0
 15 16  1  0  0  0  0
 15 30  1  0  0  0  0
 15 31  1  0  0  0  0
 16 32  1  0  0  0  0
 16 33  1  0  0  0  0
 17 18  2  0  0  0  0
 18 34  1  0  0  0  0
M  END
> <s_m_source_file>
AV-unprocessed.smi

> <i_m_source_file_index>
1507

> <i_lp_mmshare_version>
43012

> <i_f3d_flags>
0

> <s_epik_input>
W05IMl1TKD1PKSg9TylbTkhdW0NIMl1jMVtjSF1bY0hdYyhuW2NIXTEpTjJbQ0gyXVtDSDJdT1tDSDJdW0NIMl0y

> <s_epik_cmdline>
J2VwaWtfcHl0aG9uJywgJy1waCcsICc3LjAnLCAnLXRuJywgJzgnLCAnLW1hJywgJzIwMCcsICctbWV0YWxfYmluZGluZycsICctaW1hZScsICc8aW5maWxlLm1hZT4nLCAnLW9tYWUnLCAnPG91dGZpbGUubWFlPic=

> <r_lp_tautomer_probability>
1

> <r_epik_Ionization_Penalty>
0.193648

> <r_epik_Ionization_Penalty_Charging>
0

> <r_epik_Ionization_Penalty_Neutral>
0.193648

> <r_epik_State_Penalty>
0.187016

> <r_epik_Charging_Adjusted_Penalty>
0.187016

> <i_epik_Tot_Q>
0

> <i_epik_Tot_abs_Q>
0

> <r_epik_Metal_State_Penalty>
0.77957

> <b_epik_Metal_Only>
0

> <s_lp_Force_Field>
OPLS_2005

> <r_lp_Energy>
21.8842

> <b_lp_Chiralities_Consistent>
1

> <s_lp_Variant>
AV-unprocessed.smi:1507-1

> <Gold.Version>
5.8.1

> <Gold.Id.Protein>
6NUR|6NUR_protein|mol2

> <Gold.PLP.Fitness>
47.3689

> <Gold.PLP.PLP>
-35.9259

> <Gold.PLP.part.hbond>
-4.5158

> <Gold.PLP.part.metal>
0.0000

> <Gold.PLP.part.buried>
-1.8075

> <Gold.PLP.part.nonpolar>
-27.7773

> <Gold.PLP.part.repulsive>
0.1083

> <Gold.PLP.ligand.clash>
0.0000

> <Gold.PLP.ligand.torsion>
0.4541

> <Gold.PLP.Chemscore.Hbond>
3.9750

> <Gold.PLP.Chemscore.CHOScore>
0.0000

> <Gold.PLP.Chemscore.Metal>
0.0000

> <Gold.Chemscore.Hbonds>
donor molecule, donor type, donor heavy atom, donor atom, acceptor molecule, acceptor atom, score
      L1  H     1    19       P1  7948  0.80
      L1  H     5    21       P1  7949  1.00
      P1  H  7997  8010       L1    17  1.00
      P1  H 10752 10764       L1     4  1.00

> <Gold.PLP.Chemscore.Internal.Correction>
0.4261

> <Gold.Rescore>
     Score         DG    S(hbond)    S(metal)    S(lipo)     H(rot)  DE(clash)    DE(int)     intcor
     16.98     -17.95       2.74        0.00      82.41       2.47       0.26       0.71       ----

> <Gold.Chemscore.Fitness>
16.9791

> <Gold.Chemscore.DG>
-17.9474

> <Gold.Chemscore.ZeroCoef>
-5.4800

> <Gold.Chemscore.Hbond>
2.7368

> <Gold.Chemscore.Metal>
0.0000

> <Gold.Chemscore.Lipo>
82.4109

> <Gold.Chemscore.Internal_Hbond>
0.0000

> <Gold.Chemscore.DEClash>
0.2611

> <Gold.Chemscore.DEInternal>
0.7072

> <Gold.Chemscore.Rot>
2.4671

> <Gold.Chemscore.Internal.Correction>
   9.000000E+99

> <Gold.Chemscore.Hbonds>
donor molecule, donor type, donor heavy atom, donor atom, acceptor molecule, acceptor atom, score
      L1  H     1    19       P1  7948  0.12
      L1  H     5    21       P1  7949  0.65
      P1  H  7997  8010       L1    17  0.33
      P1  H 10752 10764       L1     4  0.80

> <Gold.Chemscore.Hbond.Weighted>
-9.1410

> <Gold.Chemscore.Metal.Weighted>
-0.0000

> <Gold.Chemscore.Lipo.Weighted>
-9.6421

> <Gold.Chemscore.Internal_Hbond.Weighted>
0.0000

> <Gold.Chemscore.DEClash.Weighted>
0.2611

> <Gold.Chemscore.DEInternal.Weighted>
0.7072

> <Gold.Chemscore.Rot.Weighted>
6.3157

> <Gold.Chemscore.Internal.Correction.Weighted>
   9.000000E+99

> <Gold.Protein.RotatedTorsions>
[ 6907 6896 6895 6894 ] final -146.00 input  -60.11 | X-H torsion
[ 7974 7965 7964 7962 ] final  -24.89 input  175.53 | X-H torsion
[ 8008 7997 7996 7995 ] final   63.03 input   59.86 | X-H torsion
[ 10167 10162 10161 10158 ] final   45.51 input  -65.29 | X-H torsion
[ 10718 10713 10712 10709 ] final  -33.35 input   66.30 | X-H torsion
[ 10763 10752 10751 10750 ] final  -43.38 input  -60.55 | X-H torsion
[ 11005 11000 10999 10996 ] final -130.75 input  -57.11 | X-H torsion

> <Gold.Protein.ActiveResidues>
 VAL166  LYS551  ARG553  GLY616  TRP617  ASP618  TYR619  PRO620  LYS621  CYS622 
 ASP623  PHE694  ASN695  SER759  ASP760  ASP761  ALA762  ILE779  LEU786  VAL792 
 PHE793  MET794  SER795  GLU796  ALA797  LYS798  CYS799  TRP800  GLU811  SER814 

> <Gold.Protein.RotatedAtoms>
  151.1355  133.5007  159.2597 H   0  0  0  0  0  0  0  0  0  0  0  0  # atno 6907 bound_to 6896
  151.1711  135.0318  159.8762 H   0  0  0  0  0  0  0  0  0  0  0  0  # atno 6908 bound_to 6896
  152.5461  134.1219  159.8455 H   0  0  0  0  0  0  0  0  0  0  0  0  # atno 6909 bound_to 6896
  146.1526  140.4812  142.8605 H   0  0  0  0  0  0  0  0  0  0  0  0  # atno 7974 bound_to 7965
  155.6238  140.3496  155.4660 H   0  0  0  0  0  0  0  0  0  0  0  0  # atno 8008 bound_to 7997
  156.0058  140.1223  157.0526 H   0  0  0  0  0  0  0  0  0  0  0  0  # atno 8009 bound_to 7997
  154.4264  140.1091  156.5747 H   0  0  0  0  0  0  0  0  0  0  0  0  # atno 8010 bound_to 7997
  140.3233  144.2678  150.6179 H   0  0  0  0  0  0  0  0  0  0  0  0  # atno 10167 bound_to 10162
  156.3637  130.4328  149.7602 H   0  0  0  0  0  0  0  0  0  0  0  0  # atno 10718 bound_to 10713
  153.9946  135.6701  153.4756 H   0  0  0  0  0  0  0  0  0  0  0  0  # atno 10763 bound_to 10752
  153.0690  135.4985  154.8259 H   0  0  0  0  0  0  0  0  0  0  0  0  # atno 10764 bound_to 10752
  154.7089  135.3093  154.9190 H   0  0  0  0  0  0  0  0  0  0  0  0  # atno 10765 bound_to 10752
  140.9318  134.1309  157.4228 H   0  0  0  0  0  0  0  0  0  0  0  0  # atno 11005 bound_to 11000
  144.7923  140.6056  143.6533 LP  0  0  0  0  0  0  0  0  0  0  0  0  # atno 17320 bound_to 7965
  145.4786  139.1497  143.3774 LP  0  0  0  0  0  0  0  0  0  0  0  0  # atno 17321 bound_to 7965
  140.5463  143.2214  151.8001 LP  0  0  0  0  0  0  0  0  0  0  0  0  # atno 17342 bound_to 10162
  139.4870  144.4535  151.9626 LP  0  0  0  0  0  0  0  0  0  0  0  0  # atno 17343 bound_to 10162
  156.4756  130.8017  151.3033 LP  0  0  0  0  0  0  0  0  0  0  0  0  # atno 17370 bound_to 10713
  157.7476  131.0022  150.2991 LP  0  0  0  0  0  0  0  0  0  0  0  0  # atno 17371 bound_to 10713
  139.8798  135.0008  156.6029 LP  0  0  0  0  0  0  0  0  0  0  0  0  # atno 17394 bound_to 11000
  140.7852  133.8627  155.8600 LP  0  0  0  0  0  0  0  0  0  0  0  0  # atno 17395 bound_to 11000

$$$$
