#       Name:                AV-unprocessed.smi:3185
#       Creating user name   scv26
#       Creation time:       Fri Mar 27 18:00:06 2020


#       File generated by GOLD software.
#

@<TRIPOS>MOLECULE
AV-unprocessed.smi:3185
    40    41     1
SMALL
NO_CHARGES


@<TRIPOS>ATOM
      1 ****        -6.1158   2.4060  -0.6881 N.1            1 S1                 0.0000
      2 ****        -4.9597   2.4297  -0.7051 C.1            1 S1                 0.0000
      3 ****        -3.4896   2.4587  -0.7267 C.3            1 S1                 0.0000
      4 ****        -2.8723   1.0560  -0.7551 C.3            1 S1                 0.0000
      5 ****        -1.3400   1.0967  -0.7627 C.3            1 S1                 0.0000
      6 ****        -0.7740  -0.2668  -0.7921 N.4            1 S1                 1.0000
      7 ****         0.7048  -0.3297  -0.7482 C.3            1 S1                 0.0000
      8 ****         1.2247  -1.0711  -1.9947 C.3            1 S1                 0.0000
      9 ****         2.7546  -1.2103  -1.9749 C.3            1 S1                 0.0000
     10 ****         3.2295  -1.9133  -0.6949 C.3            1 S1                 0.0000
     11 ****         2.7252  -1.1798   0.5569 C.3            1 S1                 0.0000
     12 ****         1.1888  -1.0336   0.5460 C.3            1 S1                 0.0000
     13 ****         0.7257  -0.3537   1.7492 N.pl3          1 S1                 0.0000
     14 ****        -0.0473  -0.8651   2.7712 C.2            1 S1                 0.0000
     15 ****        -0.2312   0.1337   3.6838 C.2            1 S1                 0.0000
     16 ****         0.4832   1.2327   3.1314 C.2            1 S1                 0.0000
     17 ****         1.0544   0.9385   1.9751 N.2            1 S1                 0.0000
     18 ****        -3.1798   3.0303  -1.6020 H              1 S1                 0.0000
     19 ****        -3.1541   3.0060   0.1544 H              1 S1                 0.0000
     20 ****        -3.2184   0.4927   0.1126 H              1 S1                 0.0000
     21 ****        -3.2310   0.5215  -1.6357 H              1 S1                 0.0000
     22 ****        -0.9843   1.6515  -1.6319 H              1 S1                 0.0000
     23 ****        -0.9822   1.6199   0.1245 H              1 S1                 0.0000
     24 ****        -1.1348  -0.7799  -0.0006 H              1 S1                 0.0000
     25 ****         1.1122   0.6831  -0.7737 H              1 S1                 0.0000
     26 ****         0.7734  -2.0628  -2.0514 H              1 S1                 0.0000
     27 ****         0.9188  -0.5416  -2.8979 H              1 S1                 0.0000
     28 ****         3.0884  -1.7680  -2.8504 H              1 S1                 0.0000
     29 ****         3.2138  -0.2233  -2.0433 H              1 S1                 0.0000
     30 ****         2.8698  -2.9430  -0.6864 H              1 S1                 0.0000
     31 ****         4.3186  -1.9664  -0.6813 H              1 S1                 0.0000
     32 ****         3.0422  -1.7202   1.4497 H              1 S1                 0.0000
     33 ****         3.1957  -0.1970   0.6094 H              1 S1                 0.0000
     34 ****         0.7621  -2.0382   0.5641 H              1 S1                 0.0000
     35 ****        -0.4003  -1.8861   2.7643 H              1 S1                 0.0000
     36 ****        -0.7881   0.0855   4.6080 H              1 S1                 0.0000
     37 ****         0.6027   2.2281   3.5331 H              1 S1                 0.0000
     38 ****        -1.0862  -0.7216  -1.6381 H              1 S1                 0.0000
     39 ****        -7.1155   2.3855  -0.6734 LP             1 S1                 0.0000
     40 ****         1.6068   1.5385   1.3964 LP             1 S1                 0.0000
@<TRIPOS>BOND
    1    1    2 3     
    2    2    3 1     
    3    3    4 1     
    4    3   18 1     
    5    3   19 1     
    6    4    5 1     
    7    4   20 1     
    8    4   21 1     
    9    5    6 1     
   10    5   22 1     
   11    5   23 1     
   12    6    7 1     
   13    6   24 1     
   14    6   38 1     
   15    7   12 1     
   16    7    8 1     
   17    7   25 1     
   18    8    9 1     
   19    8   26 1     
   20    8   27 1     
   21    9   10 1     
   22    9   28 1     
   23    9   29 1     
   24   10   11 1     
   25   10   30 1     
   26   10   31 1     
   27   11   12 1     
   28   11   32 1     
   29   11   33 1     
   30   12   13 1     
   31   12   34 1     
   32   13   17 1     
   33   13   14 1     
   34   14   15 2     
   35   14   35 1     
   36   15   16 1     
   37   15   36 1     
   38   16   17 2     
   39   16   37 1     
   40    1   39 1     
   41   17   40 1     
@<TRIPOS>SUBSTRUCTURE
      1 S1             1
@<TRIPOS>SET
LONE_PAIRS      STATIC     ATOMS    <user>   **** ""
2 39 40
DONOR_HYDROGENS      STATIC     ATOMS    <user>   **** ""
2 24 38
ATOM$BLUE        STATIC     ATOMS    COLORGROUP SYSTEM
2 39 40
ATOM$RED        STATIC     ATOMS    COLORGROUP SYSTEM
2 24 38
