AV-unprocessed.smi:36|AV-procd|sdf|294|dock4
  -GOLD-   2262016 83D 1   1.00000     0.00000
 Structure written by MMmdl.
 64 67  0  0  0  0  0  0  0  0  1 V2000
  145.5417  134.9018  160.9595 C   0  0  0  0  0  0  0  0  0  0  0  0
  146.2174  133.8355  161.8374 C   0  0  0  0  0  0  0  0  0  0  0  0
  147.2381  134.5003  162.7759 C   0  0  0  0  0  0  0  0  0  0  0  0
  145.1579  133.0912  162.6690 C   0  0  0  0  0  0  0  0  0  0  0  0
  147.1211  132.5740  160.7228 Si  0  0  0  0  0  0  0  0  0  0  0  0
  148.2333  131.4383  161.7683 C   0  0  0  0  0  0  0  0  0  0  0  0
  145.8876  131.5174  159.7385 C   0  0  0  0  0  0  0  0  0  0  0  0
  148.0502  133.4557  159.6129 O   0  0  0  0  0  0  0  0  0  0  0  0
  148.3776  133.0275  158.3061 C   0  0  0  0  0  0  0  0  0  0  0  0
  148.8683  134.2413  157.5071 C   0  0  1  0  0  0  0  0  0  0  0  0
  150.0173  134.8052  158.1349 O   0  0  0  0  0  0  0  0  0  0  0  0
  150.9019  135.2996  157.1768 C   0  0  2  0  0  0  0  0  0  0  0  0
  151.1685  136.7413  157.4687 N   0  0  0  0  0  0  0  0  0  0  0  0
  150.9101  137.7761  156.6482 C   0  0  0  0  0  0  0  0  0  0  0  0
  151.2473  138.9748  157.1161 N   0  0  0  0  0  0  0  0  0  0  0  0
  151.7798  138.6743  158.3654 C   0  0  0  0  0  0  0  0  0  0  0  0
  152.3458  139.5661  159.4009 C   0  0  0  0  0  0  0  0  0  0  0  0
  152.3637  140.8407  159.1537 N   0  0  0  0  0  0  0  0  0  0  0  0
  152.8721  141.7276  160.0941 C   0  0  0  0  0  0  0  0  0  0  0  0
  153.8360  141.5817  160.8510 O   0  0  0  0  0  0  0  0  0  0  0  0
  152.1649  143.0448  160.1077 C   0  0  0  0  0  0  0  0  0  0  0  0
  151.8768  143.7089  158.8960 C   0  0  0  0  0  0  0  0  0  0  0  0
  151.2142  144.9519  158.9114 C   0  0  0  0  0  0  0  0  0  0  0  0
  150.8362  145.5341  160.1367 C   0  0  0  0  0  0  0  0  0  0  0  0
  151.1218  144.8740  161.3473 C   0  0  0  0  0  0  0  0  0  0  0  0
  151.7865  143.6321  161.3338 C   0  0  0  0  0  0  0  0  0  0  0  0
  152.7695  138.8096  160.5010 N   0  0  0  0  0  0  0  0  0  0  0  0
  152.6756  137.4152  160.6256 C   0  0  0  0  0  0  0  0  0  0  0  0
  152.1722  136.6181  159.7220 N   0  0  0  0  0  0  0  0  0  0  0  0
  151.7401  137.3169  158.6031 C   0  0  0  0  0  0  0  0  0  0  0  0
  150.2379  135.1211  155.8130 C   0  0  0  0  0  0  0  0  0  0  0  0
  149.3477  133.9269  156.0885 C   0  0  2  0  0  0  0  0  0  0  0  0
  148.2851  133.8638  155.1601 O   0  0  0  0  0  0  0  0  0  0  0  0
  145.0151  135.6388  161.5667 H   0  0  0  0  0  0  0  0  0  0  0  0
  144.8136  134.4555  160.2816 H   0  0  0  0  0  0  0  0  0  0  0  0
  146.2722  135.4373  160.3524 H   0  0  0  0  0  0  0  0  0  0  0  0
  147.9980  135.0455  162.2155 H   0  0  0  0  0  0  0  0  0  0  0  0
  147.7508  133.7602  163.3910 H   0  0  0  0  0  0  0  0  0  0  0  0
  146.7550  135.2100  163.4483 H   0  0  0  0  0  0  0  0  0  0  0  0
  144.6249  133.7711  163.3344 H   0  0  0  0  0  0  0  0  0  0  0  0
  145.6129  132.3159  163.2864 H   0  0  0  0  0  0  0  0  0  0  0  0
  144.4162  132.6078  162.0328 H   0  0  0  0  0  0  0  0  0  0  0  0
  147.6426  130.8003  162.4249 H   0  0  0  0  0  0  0  0  0  0  0  0
  148.9111  132.0080  162.4030 H   0  0  0  0  0  0  0  0  0  0  0  0
  148.8419  130.7828  161.1460 H   0  0  0  0  0  0  0  0  0  0  0  0
  145.2306  130.9500  160.3971 H   0  0  0  0  0  0  0  0  0  0  0  0
  146.4004  130.8018  159.0962 H   0  0  0  0  0  0  0  0  0  0  0  0
  145.2557  132.1315  159.0975 H   0  0  0  0  0  0  0  0  0  0  0  0
  149.1180  132.2272  158.3177 H   0  0  0  0  0  0  0  0  0  0  0  0
  147.4721  132.6218  157.8544 H   0  0  0  0  0  0  0  0  0  0  0  0
  148.0858  135.0005  157.4630 H   0  0  0  0  0  0  0  0  0  0  0  0
  151.8660  134.7963  157.2623 H   0  0  0  0  0  0  0  0  0  0  0  0
  150.4616  137.6462  155.6743 H   0  0  0  0  0  0  0  0  0  0  0  0
  152.1642  143.2695  157.9515 H   0  0  0  0  0  0  0  0  0  0  0  0
  150.9959  145.4588  157.9832 H   0  0  0  0  0  0  0  0  0  0  0  0
  150.3274  146.4866  160.1474 H   0  0  0  0  0  0  0  0  0  0  0  0
  150.8325  145.3208  162.2871 H   0  0  0  0  0  0  0  0  0  0  0  0
  152.0030  143.1330  162.2673 H   0  0  0  0  0  0  0  0  0  0  0  0
  153.0676  137.0260  161.5664 H   0  0  0  0  0  0  0  0  0  0  0  0
  149.6455  136.0052  155.5695 H   0  0  0  0  0  0  0  0  0  0  0  0
  150.9767  134.9551  155.0286 H   0  0  0  0  0  0  0  0  0  0  0  0
  149.9292  133.0039  156.0676 H   0  0  0  0  0  0  0  0  0  0  0  0
  148.6122  133.4926  154.3548 H   0  0  0  0  0  0  0  0  0  0  0  0
  153.1794  139.3149  161.2735 H   0  0  0  0  0  0  0  0  0  0  0  0
  1  2  1  0  0  0  0
  1 34  1  0  0  0  0
  1 35  1  0  0  0  0
  1 36  1  0  0  0  0
  2  3  1  0  0  0  0
  2  4  1  0  0  0  0
  2  5  1  0  0  0  0
  3 37  1  0  0  0  0
  3 38  1  0  0  0  0
  3 39  1  0  0  0  0
  4 40  1  0  0  0  0
  4 41  1  0  0  0  0
  4 42  1  0  0  0  0
  5  6  1  0  0  0  0
  5  7  1  0  0  0  0
  5  8  1  0  0  0  0
  6 43  1  0  0  0  0
  6 44  1  0  0  0  0
  6 45  1  0  0  0  0
  7 46  1  0  0  0  0
  7 47  1  0  0  0  0
  7 48  1  0  0  0  0
  8  9  1  0  0  0  0
  9 10  1  0  0  0  0
  9 49  1  0  0  0  0
  9 50  1  0  0  0  0
 10 32  1  0  0  0  0
 10 11  1  0  0  0  0
 10 51  1  0  0  0  0
 11 12  1  0  0  0  0
 12 13  1  0  0  0  0
 12 31  1  0  0  0  0
 12 52  1  0  0  0  0
 13 30  1  0  0  0  0
 13 14  1  0  0  0  0
 14 15  2  0  0  0  0
 14 53  1  0  0  0  0
 15 16  1  0  0  0  0
 16 30  2  0  0  0  0
 16 17  1  0  0  0  0
 17 18  2  0  0  0  0
 17 27  1  0  0  0  0
 18 19  1  0  0  0  0
 19 20  2  0  0  0  0
 19 21  1  0  0  0  0
 21 26  1  0  0  0  0
 21 22  2  0  0  0  0
 22 23  1  0  0  0  0
 22 54  1  0  0  0  0
 23 24  2  0  0  0  0
 23 55  1  0  0  0  0
 24 25  1  0  0  0  0
 24 56  1  0  0  0  0
 25 26  2  0  0  0  0
 25 57  1  0  0  0  0
 26 58  1  0  0  0  0
 27 28  1  0  0  0  0
 27 64  1  0  0  0  0
 28 29  2  0  0  0  0
 28 59  1  0  0  0  0
 29 30  1  0  0  0  0
 31 32  1  0  0  0  0
 31 60  1  0  0  0  0
 31 61  1  0  0  0  0
 32 33  1  0  0  0  0
 32 62  1  0  0  0  0
 33 63  1  0  0  0  0
M  END
> <s_m_source_file>
AV-unprocessed.smi

> <i_m_source_file_index>
36

> <i_lp_mmshare_version>
43012

> <i_f3d_flags>
0

> <s_epik_input>
W0NIM11DKFtDSDNdKShbQ0gzXSlbU2ldKFtDSDNdKShbQ0gzXSlPW0NIMl1bQ0BASF0xT1tDQEhdKFtDSDJdW0NASF0xW09IXSluKFtjSF1uMiljKGMyMyluW2NIXW5jM1tOSF1DKD1PKWM0W2NIXVtjSF1bY0hdW2NIXVtjSF00

> <s_epik_cmdline>
J2VwaWtfcHl0aG9uJywgJy1waCcsICc3LjAnLCAnLXRuJywgJzgnLCAnLW1hJywgJzIwMCcsICctbWV0YWxfYmluZGluZycsICctaW1hZScsICc8aW5maWxlLm1hZT4nLCAnLW9tYWUnLCAnPG91dGZpbGUubWFlPic=

> <r_epik_Ionization_Penalty>
0.0850405

> <r_epik_Ionization_Penalty_Charging>
0.0850403

> <r_epik_Ionization_Penalty_Neutral>
1.47497e-07

> <r_epik_State_Penalty>
2.6133

> <r_epik_Charging_Adjusted_Penalty>
2.69834

> <i_epik_Tot_Q>
0

> <i_epik_Tot_abs_Q>
0

> <r_epik_Metal_State_Penalty>
2.92945

> <b_epik_Metal_Only>
0

> <s_epik_Chemistry_Notes>
This compound contains an acetal/aminal-like group ( X-CH(R)-Y where X, Y are N, S, or O) that may be acid/base labile, releasing an aldehyde.

> <s_lp_Force_Field>
OPLS_2005

> <r_lp_Energy>
45.0835

> <b_lp_Chiralities_Consistent>
1

> <s_lp_Variant>
AV-unprocessed.smi:36-16

> <Gold.Version>
5.8.1

> <Gold.Id.Protein>
6NUR|6NUR_protein|mol2

> <Gold.PLP.Fitness>
57.4537

> <Gold.PLP.PLP>
-55.6510

> <Gold.PLP.part.hbond>
-2.0000

> <Gold.PLP.part.metal>
0.0000

> <Gold.PLP.part.buried>
-7.1407

> <Gold.PLP.part.nonpolar>
-47.0567

> <Gold.PLP.part.repulsive>
0.0694

> <Gold.PLP.ligand.clash>
0.0000

> <Gold.PLP.ligand.torsion>
1.9137

> <Gold.PLP.Chemscore.Hbond>
1.7760

> <Gold.PLP.Chemscore.CHOScore>
0.0000

> <Gold.PLP.Chemscore.Metal>
0.0000

> <Gold.Chemscore.Hbonds>
donor molecule, donor type, donor heavy atom, donor atom, acceptor molecule, acceptor atom, score
      P1  H  6896  6907       L1    29  1.00
      P1  H  6896  6909       L1    11  0.87

> <Gold.PLP.Chemscore.Internal.Correction>
0.3022

> <Gold.Rescore>
     Score         DG    S(hbond)    S(metal)    S(lipo)     H(rot)  DE(clash)    DE(int)     intcor
     17.00     -17.74       1.51        0.00     121.01       2.70       0.03       0.72       ----

> <Gold.Chemscore.Fitness>
16.9952

> <Gold.Chemscore.DG>
-17.7428

> <Gold.Chemscore.ZeroCoef>
-5.4800

> <Gold.Chemscore.Hbond>
1.5051

> <Gold.Chemscore.Metal>
0.0000

> <Gold.Chemscore.Lipo>
121.0120

> <Gold.Chemscore.Internal_Hbond>
0.0000

> <Gold.Chemscore.DEClash>
0.0297

> <Gold.Chemscore.DEInternal>
0.7180

> <Gold.Chemscore.Rot>
2.7041

> <Gold.Chemscore.Internal.Correction>
   9.000000E+99

> <Gold.Chemscore.Hbonds>
donor molecule, donor type, donor heavy atom, donor atom, acceptor molecule, acceptor atom, score
      P1  H  6896  6907       L1    29  0.94
      P1  H  6896  6909       L1    11  0.72

> <Gold.Chemscore.Hbond.Weighted>
-5.0269

> <Gold.Chemscore.Metal.Weighted>
-0.0000

> <Gold.Chemscore.Lipo.Weighted>
-14.1584

> <Gold.Chemscore.Internal_Hbond.Weighted>
0.0000

> <Gold.Chemscore.DEClash.Weighted>
0.0297

> <Gold.Chemscore.DEInternal.Weighted>
0.7180

> <Gold.Chemscore.Rot.Weighted>
6.9225

> <Gold.Chemscore.Internal.Correction.Weighted>
   9.000000E+99

> <Gold.Protein.RotatedTorsions>
[ 6907 6896 6895 6894 ] final   24.68 input  -60.11 | X-H torsion
[ 7974 7965 7964 7962 ] final    3.45 input  175.53 | X-H torsion
[ 8008 7997 7996 7995 ] final   24.06 input   59.86 | X-H torsion
[ 10167 10162 10161 10158 ] final   73.08 input  -65.29 | X-H torsion
[ 10718 10713 10712 10709 ] final  -48.17 input   66.30 | X-H torsion
[ 10763 10752 10751 10750 ] final -107.90 input  -60.55 | X-H torsion
[ 11005 11000 10999 10996 ] final -118.24 input  -57.11 | X-H torsion

> <Gold.Protein.ActiveResidues>
 VAL166  LYS551  ARG553  GLY616  TRP617  ASP618  TYR619  PRO620  LYS621  CYS622 
 ASP623  PHE694  ASN695  SER759  ASP760  ASP761  ALA762  ILE779  LEU786  VAL792 
 PHE793  MET794  SER795  GLU796  ALA797  LYS798  CYS799  TRP800  GLU811  SER814 

> <Gold.Protein.RotatedAtoms>
  151.9611  135.0123  160.0547 H   0  0  0  0  0  0  0  0  0  0  0  0  # atno 6907 bound_to 6896
  152.1868  133.4740  159.4995 H   0  0  0  0  0  0  0  0  0  0  0  0  # atno 6908 bound_to 6896
  150.6927  134.1681  159.4244 H   0  0  0  0  0  0  0  0  0  0  0  0  # atno 6909 bound_to 6896
  146.2445  140.0684  142.8364 H   0  0  0  0  0  0  0  0  0  0  0  0  # atno 7974 bound_to 7965
  154.9905  140.3113  155.4908 H   0  0  0  0  0  0  0  0  0  0  0  0  # atno 8008 bound_to 7997
  156.2940  140.2250  156.4950 H   0  0  0  0  0  0  0  0  0  0  0  0  # atno 8009 bound_to 7997
  154.7708  140.0452  157.1037 H   0  0  0  0  0  0  0  0  0  0  0  0  # atno 8010 bound_to 7997
  140.0284  144.5485  150.7526 H   0  0  0  0  0  0  0  0  0  0  0  0  # atno 10167 bound_to 10162
  156.2014  130.4156  149.9236 H   0  0  0  0  0  0  0  0  0  0  0  0  # atno 10718 bound_to 10713
  154.8103  135.4657  154.0500 H   0  0  0  0  0  0  0  0  0  0  0  0  # atno 10763 bound_to 10752
  153.1936  135.6858  153.8328 H   0  0  0  0  0  0  0  0  0  0  0  0  # atno 10764 bound_to 10752
  153.7837  135.3253  155.3346 H   0  0  0  0  0  0  0  0  0  0  0  0  # atno 10765 bound_to 10752
  141.0300  133.9996  157.3158 H   0  0  0  0  0  0  0  0  0  0  0  0  # atno 11005 bound_to 11000
  145.0838  140.9239  143.4809 LP  0  0  0  0  0  0  0  0  0  0  0  0  # atno 17320 bound_to 7965
  145.0842  139.2937  143.5768 LP  0  0  0  0  0  0  0  0  0  0  0  0  # atno 17321 bound_to 7965
  140.7313  143.2692  151.3942 LP  0  0  0  0  0  0  0  0  0  0  0  0  # atno 17342 bound_to 10162
  139.6093  144.1132  152.2282 LP  0  0  0  0  0  0  0  0  0  0  0  0  # atno 17343 bound_to 10162
  156.6945  130.8908  151.3592 LP  0  0  0  0  0  0  0  0  0  0  0  0  # atno 17370 bound_to 10713
  157.6987  130.9310  150.0722 LP  0  0  0  0  0  0  0  0  0  0  0  0  # atno 17371 bound_to 10713
  139.9201  135.0200  156.8032 LP  0  0  0  0  0  0  0  0  0  0  0  0  # atno 17394 bound_to 11000
  140.6424  133.9806  155.7714 LP  0  0  0  0  0  0  0  0  0  0  0  0  # atno 17395 bound_to 11000

$$$$
