#       Name:                AV-unprocessed.smi:763
#       Creating user name   scv26
#       Creation time:       Fri Mar 27 01:03:06 2020


#       File generated by GOLD software.
#

@<TRIPOS>MOLECULE
AV-unprocessed.smi:763
    51    52     1
SMALL
NO_CHARGES


@<TRIPOS>ATOM
      1 ****        -1.8295   5.2620   1.2357 C.3            1 S1                 0.0000
      2 ****        -1.8041   4.6540  -0.0460 O.3            1 S1                 0.0000
      3 ****        -1.2526   3.3445  -0.0519 C.3            1 S1                 0.0000
      4 ****         0.2800   3.3655   0.0342 C.3            1 S1                 0.0000
      5 ****         0.7479   2.0372  -0.1674 O.3            1 S1                 0.0000
      6 ****         2.1027   1.7818  -0.1111 C.ar           1 S1                 0.0000
      7 ****         2.9384   2.8371   0.0653 N.ar           1 S1                 0.0000
      8 ****         4.2679   2.6137   0.0941 C.ar           1 S1                 0.0000
      9 ****         4.8365   1.3362  -0.0558 C.ar           1 S1                 0.0000
     10 ****         3.9732   0.2406  -0.2367 C.ar           1 S1                 0.0000
     11 ****         2.5794   0.4527  -0.2578 C.ar           1 S1                 0.0000
     12 ****         1.7460  -0.6603  -0.4308 N.pl3          1 S1                 0.0000
     13 ****         0.0129  -0.7411  -0.5114 S.o2           1 S1                 0.0000
     14 ****        -0.4771   0.1159   0.5800 O.2            1 S1                 0.0000
     15 ****        -0.3252  -0.4459  -1.9121 O.2            1 S1                 0.0000
     16 ****        -0.3081  -2.5348  -0.1003 C.3            1 S1                 0.0000
     17 ****        -1.4920  -2.6697   0.8793 C.3            1 S1                 0.0000
     18 ****        -2.8384  -2.3655   0.1990 C.3            1 S1                 0.0000
     19 ****        -3.0647  -3.2856  -1.0117 C.3            1 S1                 0.0000
     20 ****        -1.9084  -3.1874  -2.0202 C.3            1 S1                 0.0000
     21 ****        -0.5485  -3.4382  -1.3356 C.3            1 S1                 0.0000
     22 ****         0.5094  -3.3225  -2.2646 O.3            1 S1                 0.0000
     23 ****        -2.3158   6.2348   1.1655 H              1 S1                 0.0000
     24 ****        -0.8259   5.4225   1.6288 H              1 S1                 0.0000
     25 ****        -2.3925   4.6582   1.9484 H              1 S1                 0.0000
     26 ****        -1.6833   2.7318   0.7417 H              1 S1                 0.0000
     27 ****        -1.5446   2.8778  -0.9932 H              1 S1                 0.0000
     28 ****         0.6821   4.0264  -0.7354 H              1 S1                 0.0000
     29 ****         0.6045   3.7350   1.0076 H              1 S1                 0.0000
     30 ****         4.8970   3.4798   0.2369 H              1 S1                 0.0000
     31 ****         5.9075   1.2002  -0.0308 H              1 S1                 0.0000
     32 ****         4.3796  -0.7537  -0.3513 H              1 S1                 0.0000
     33 ****         2.2055  -1.5489  -0.2967 H              1 S1                 0.0000
     34 ****         0.5836  -2.8849   0.4203 H              1 S1                 0.0000
     35 ****        -1.5160  -3.6862   1.2737 H              1 S1                 0.0000
     36 ****        -1.3510  -2.0211   1.7439 H              1 S1                 0.0000
     37 ****        -3.6508  -2.4928   0.9151 H              1 S1                 0.0000
     38 ****        -2.8705  -1.3229  -0.1190 H              1 S1                 0.0000
     39 ****        -3.1615  -4.3170  -0.6701 H              1 S1                 0.0000
     40 ****        -4.0063  -3.0335  -1.5004 H              1 S1                 0.0000
     41 ****        -2.0607  -3.9163  -2.8169 H              1 S1                 0.0000
     42 ****        -1.9348  -2.2119  -2.5024 H              1 S1                 0.0000
     43 ****        -0.5398  -4.4743  -0.9945 H              1 S1                 0.0000
     44 ****         0.3400  -3.9068  -2.9876 H              1 S1                 0.0000
     45 ****        -1.2581   5.2282  -0.6560 LP             1 S1                 0.0000
     46 ****        -2.7423   4.6020  -0.3883 LP             1 S1                 0.0000
     47 ****         0.4348   1.7522  -1.0734 LP             1 S1                 0.0000
     48 ****         0.3143   1.4664   0.5299 LP             1 S1                 0.0000
     49 ****         2.5749   3.7626   0.1718 LP             1 S1                 0.0000
     50 ****         1.3725  -3.5713  -1.8252 LP             1 S1                 0.0000
     51 ****         0.5641  -2.3812  -2.5976 LP             1 S1                 0.0000
@<TRIPOS>BOND
    1    1    2 1     
    2    1   23 1     
    3    1   24 1     
    4    1   25 1     
    5    2    3 1     
    6    3    4 1     
    7    3   26 1     
    8    3   27 1     
    9    4    5 1     
   10    4   28 1     
   11    4   29 1     
   12    5    6 1     
   13    6   11 ar    
   14    6    7 ar    
   15    7    8 ar    
   16    8    9 ar    
   17    8   30 1     
   18    9   10 ar    
   19    9   31 1     
   20   10   11 ar    
   21   10   32 1     
   22   11   12 1     
   23   12   13 1     
   24   12   33 1     
   25   13   14 2     
   26   13   15 2     
   27   13   16 1     
   28   16   21 1     
   29   16   17 1     
   30   16   34 1     
   31   17   18 1     
   32   17   35 1     
   33   17   36 1     
   34   18   19 1     
   35   18   37 1     
   36   18   38 1     
   37   19   20 1     
   38   19   39 1     
   39   19   40 1     
   40   20   21 1     
   41   20   41 1     
   42   20   42 1     
   43   21   22 1     
   44   21   43 1     
   45   22   44 1     
   46    2   45 1     
   47    2   46 1     
   48    5   47 1     
   49    5   48 1     
   50    7   49 1     
   51   22   50 1     
   52   22   51 1     
@<TRIPOS>SUBSTRUCTURE
      1 S1             1
@<TRIPOS>SET
LONE_PAIRS      STATIC     ATOMS    <user>   **** ""
9 45 46 47 48 49 14 15 50 51
DONOR_HYDROGENS      STATIC     ATOMS    <user>   **** ""
2 33 44
ATOM$BLUE        STATIC     ATOMS    COLORGROUP SYSTEM
9 45 46 47 48 49 14 15 50 51
ATOM$RED        STATIC     ATOMS    COLORGROUP SYSTEM
2 33 44
