AV-unprocessed.smi:229|AV-procd|sdf|1749|dock6
  -GOLD-   2262020273D 1   1.00000     0.00000
 Structure written by MMmdl.
 58 62  0  0  0  0  0  0  0  0  1 V2000
  141.9609  137.7017  154.1862 C   0  0  0  0  0  0  0  0  0  0  0  0
  142.9652  136.9265  155.0495 C   0  0  0  0  0  0  0  0  0  0  0  0
  144.3841  136.8804  154.4587 C   0  0  2  0  0  0  0  0  0  0  0  0
  145.0555  138.2644  154.4016 C   0  0  0  0  0  0  0  0  0  0  0  0
  146.3433  138.1666  153.7257 N   0  0  0  0  0  0  0  0  0  0  0  0
  147.1642  139.2334  153.9008 C   0  0  0  0  0  0  0  0  0  0  0  0
  146.8242  140.4461  153.3867 N   0  0  0  0  0  0  0  0  0  0  0  0
  147.6191  141.5050  153.5693 C   0  0  0  0  0  0  0  0  0  0  0  0
  148.7813  141.5739  154.2210 N   0  0  0  0  0  0  0  0  0  0  0  0
  149.1339  140.3588  154.7291 C   0  0  0  0  0  0  0  0  0  0  0  0
  148.3930  139.1483  154.6151 C   0  0  0  0  0  0  0  0  0  0  0  0
  149.0758  138.1158  155.2484 N   0  0  0  0  0  0  0  0  0  0  0  0
  150.1500  138.6863  155.7218 C   0  0  0  0  0  0  0  0  0  0  0  0
  150.2629  140.0321  155.4578 N   0  0  0  0  0  0  0  0  0  0  0  0
  151.3427  140.9125  155.8673 C   0  0  0  0  0  0  0  0  0  0  0  0
  151.6503  140.8007  157.3737 C   0  0  1  0  0  0  0  0  0  0  0  0
  152.6713  139.8404  157.5712 O   0  0  0  0  0  0  0  0  0  0  0  0
  152.1092  142.1407  157.9768 C   0  0  2  0  0  0  0  0  0  0  0  0
  152.3415  142.1097  159.4864 C   0  0  0  0  0  0  0  0  0  0  0  0
  152.2582  143.5762  159.8625 C   0  0  0  0  0  0  0  0  0  0  0  0
  151.3581  144.1759  158.7780 C   0  0  0  0  0  0  0  0  0  0  0  0
  151.0867  143.1193  157.8632 O   0  0  0  0  0  0  0  0  0  0  0  0
  146.2373  137.5906  152.3889 C   0  0  0  0  0  0  0  0  0  0  0  0
  145.5190  136.2221  152.4357 C   0  0  1  0  0  0  0  0  0  0  0  0
  145.2084  135.7183  151.0299 C   0  0  0  0  0  0  0  0  0  0  0  0
  146.3851  134.8068  150.7176 C   0  0  0  0  0  0  0  0  0  0  0  0
  146.5900  134.1444  151.9514 O   0  0  0  0  0  0  0  0  0  0  0  0
  146.4070  135.0882  153.0007 C   0  0  0  0  0  0  0  0  0  0  0  0
  144.2771  136.3581  153.1331 O   0  0  0  0  0  0  0  0  0  0  0  0
  140.9905  137.7568  154.6799 H   0  0  0  0  0  0  0  0  0  0  0  0
  141.8086  137.2233  153.2189 H   0  0  0  0  0  0  0  0  0  0  0  0
  142.3007  138.7221  154.0076 H   0  0  0  0  0  0  0  0  0  0  0  0
  143.0093  137.3985  156.0316 H   0  0  0  0  0  0  0  0  0  0  0  0
  142.6002  135.9125  155.2170 H   0  0  0  0  0  0  0  0  0  0  0  0
  144.9899  136.2101  155.0691 H   0  0  0  0  0  0  0  0  0  0  0  0
  144.4237  138.9675  153.8570 H   0  0  0  0  0  0  0  0  0  0  0  0
  145.1703  138.6600  155.4093 H   0  0  0  0  0  0  0  0  0  0  0  0
  147.2725  142.4299  153.1324 H   0  0  0  0  0  0  0  0  0  0  0  0
  150.8921  138.1389  156.2844 H   0  0  0  0  0  0  0  0  0  0  0  0
  152.2288  140.6754  155.2768 H   0  0  0  0  0  0  0  0  0  0  0  0
  151.0624  141.9350  155.6117 H   0  0  0  0  0  0  0  0  0  0  0  0
  150.7583  140.4545  157.8980 H   0  0  0  0  0  0  0  0  0  0  0  0
  152.5229  139.4130  158.4010 H   0  0  0  0  0  0  0  0  0  0  0  0
  153.0044  142.5057  157.4694 H   0  0  0  0  0  0  0  0  0  0  0  0
  151.5418  141.5561  159.9807 H   0  0  0  0  0  0  0  0  0  0  0  0
  153.2928  141.6546  159.7633 H   0  0  0  0  0  0  0  0  0  0  0  0
  151.8602  143.7213  160.8671 H   0  0  0  0  0  0  0  0  0  0  0  0
  153.2473  144.0344  159.8220 H   0  0  0  0  0  0  0  0  0  0  0  0
  150.4239  144.5616  159.1874 H   0  0  0  0  0  0  0  0  0  0  0  0
  151.8646  144.9923  158.2619 H   0  0  0  0  0  0  0  0  0  0  0  0
  145.6761  138.2819  151.7582 H   0  0  0  0  0  0  0  0  0  0  0  0
  147.2266  137.4801  151.9427 H   0  0  0  0  0  0  0  0  0  0  0  0
  144.2931  135.1242  151.0369 H   0  0  0  0  0  0  0  0  0  0  0  0
  145.0790  136.5142  150.2957 H   0  0  0  0  0  0  0  0  0  0  0  0
  146.1739  134.1031  149.9123 H   0  0  0  0  0  0  0  0  0  0  0  0
  147.2729  135.3836  150.4532 H   0  0  0  0  0  0  0  0  0  0  0  0
  147.3793  135.4640  153.3216 H   0  0  0  0  0  0  0  0  0  0  0  0
  145.9542  134.5774  153.8501 H   0  0  0  0  0  0  0  0  0  0  0  0
  1  2  1  0  0  0  0
  1 30  1  0  0  0  0
  1 31  1  0  0  0  0
  1 32  1  0  0  0  0
  2  3  1  0  0  0  0
  2 33  1  0  0  0  0
  2 34  1  0  0  0  0
  3 29  1  0  0  0  0
  3  4  1  0  0  0  0
  3 35  1  0  0  0  0
  4  5  1  0  0  0  0
  4 36  1  0  0  0  0
  4 37  1  0  0  0  0
  5  6  1  0  0  0  0
  5 23  1  0  0  0  0
  6 11  1  0  0  0  0
  6  7  2  0  0  0  0
  7  8  1  0  0  0  0
  8  9  2  0  0  0  0
  8 38  1  0  0  0  0
  9 10  1  0  0  0  0
 10 14  1  0  0  0  0
 10 11  2  0  0  0  0
 11 12  1  0  0  0  0
 12 13  2  0  0  0  0
 13 14  1  0  0  0  0
 13 39  1  0  0  0  0
 14 15  1  0  0  0  0
 15 16  1  0  0  0  0
 15 40  1  0  0  0  0
 15 41  1  0  0  0  0
 16 17  1  0  0  0  0
 16 18  1  0  0  0  0
 16 42  1  0  0  0  0
 17 43  1  0  0  0  0
 18 22  1  0  0  0  0
 18 19  1  0  0  0  0
 18 44  1  0  0  0  0
 19 20  1  0  0  0  0
 19 45  1  0  0  0  0
 19 46  1  0  0  0  0
 20 21  1  0  0  0  0
 20 47  1  0  0  0  0
 20 48  1  0  0  0  0
 21 22  1  0  0  0  0
 21 49  1  0  0  0  0
 21 50  1  0  0  0  0
 23 24  1  0  0  0  0
 23 51  1  0  0  0  0
 23 52  1  0  0  0  0
 24 28  1  0  0  0  0
 24 25  1  0  0  0  0
 24 29  1  0  0  0  0
 25 26  1  0  0  0  0
 25 53  1  0  0  0  0
 25 54  1  0  0  0  0
 26 27  1  0  0  0  0
 26 55  1  0  0  0  0
 26 56  1  0  0  0  0
 27 28  1  0  0  0  0
 28 57  1  0  0  0  0
 28 58  1  0  0  0  0
M  END
> <s_m_source_file>
AV-unprocessed.smi

> <i_m_source_file_index>
229

> <i_lp_mmshare_version>
43012

> <i_f3d_flags>
0

> <s_epik_input>
W0NIMl0xT1tDSDJdW0NIMl1bQ0BdMTJbQ0gyXU4oW0NIMl1bQ0BIXShPMilbQ0gyXVtDSDNdKWMobltjSF1uMyljKGMzNCluW2NIXW40W0NIMl1bQ0BIXShbT0hdKVtDQEBIXTVbQ0gyXVtDSDJdW0NIMl1PNQ==

> <s_epik_cmdline>
J2VwaWtfcHl0aG9uJywgJy1waCcsICc3LjAnLCAnLXRuJywgJzgnLCAnLW1hJywgJzIwMCcsICctbWV0YWxfYmluZGluZycsICctaW1hZScsICc8aW5maWxlLm1hZT4nLCAnLW9tYWUnLCAnPG91dGZpbGUubWFlPic=

> <r_lp_tautomer_probability>
1

> <r_epik_Ionization_Penalty>
0.00318402

> <r_epik_Ionization_Penalty_Charging>
0

> <r_epik_Ionization_Penalty_Neutral>
0.00318402

> <r_epik_State_Penalty>
0.00215642

> <r_epik_Charging_Adjusted_Penalty>
0.00215642

> <i_epik_Tot_Q>
0

> <i_epik_Tot_abs_Q>
0

> <r_epik_Metal_State_Penalty>
-0

> <b_epik_Metal_Only>
0

> <s_lp_Force_Field>
OPLS_2005

> <r_lp_Energy>
54.6587

> <b_lp_Chiralities_Consistent>
1

> <s_lp_Variant>
AV-unprocessed.smi:229-3

> <Gold.Version>
5.8.1

> <Gold.Id.Protein>
6NUR|6NUR_protein|mol2

> <Gold.PLP.Fitness>
38.5263

> <Gold.PLP.PLP>
-36.1610

> <Gold.PLP.part.hbond>
-2.0000

> <Gold.PLP.part.metal>
0.0000

> <Gold.PLP.part.buried>
-4.2321

> <Gold.PLP.part.nonpolar>
-28.7444

> <Gold.PLP.part.repulsive>
0.9312

> <Gold.PLP.ligand.clash>
0.0000

> <Gold.PLP.ligand.torsion>
0.6863

> <Gold.PLP.Chemscore.Hbond>
1.1231

> <Gold.PLP.Chemscore.CHOScore>
0.0000

> <Gold.PLP.Chemscore.Metal>
0.0000

> <Gold.Chemscore.Hbonds>
donor molecule, donor type, donor heavy atom, donor atom, acceptor molecule, acceptor atom, score
      P1  H  7997  8008       L1    17  1.00
      P1  H  8011  8017       L1     9  0.10

> <Gold.PLP.Chemscore.Internal.Correction>
0.3686

> <Gold.Rescore>
     Score         DG    S(hbond)    S(metal)    S(lipo)     H(rot)  DE(clash)    DE(int)     intcor
     12.08     -12.98       0.98        0.00      90.03       2.46       0.09       0.81       ----

> <Gold.Chemscore.Fitness>
12.0758

> <Gold.Chemscore.DG>
-12.9758

> <Gold.Chemscore.ZeroCoef>
-5.4800

> <Gold.Chemscore.Hbond>
0.9754

> <Gold.Chemscore.Metal>
0.0000

> <Gold.Chemscore.Lipo>
90.0271

> <Gold.Chemscore.Internal_Hbond>
0.0000

> <Gold.Chemscore.DEClash>
0.0928

> <Gold.Chemscore.DEInternal>
0.8072

> <Gold.Chemscore.Rot>
2.4591

> <Gold.Chemscore.Internal.Correction>
   9.000000E+99

> <Gold.Chemscore.Hbonds>
donor molecule, donor type, donor heavy atom, donor atom, acceptor molecule, acceptor atom, score
      P1  H  7997  8008       L1    17  0.96

> <Gold.Chemscore.Hbond.Weighted>
-3.2580

> <Gold.Chemscore.Metal.Weighted>
-0.0000

> <Gold.Chemscore.Lipo.Weighted>
-10.5332

> <Gold.Chemscore.Internal_Hbond.Weighted>
0.0000

> <Gold.Chemscore.DEClash.Weighted>
0.0928

> <Gold.Chemscore.DEInternal.Weighted>
0.8072

> <Gold.Chemscore.Rot.Weighted>
6.2953

> <Gold.Chemscore.Internal.Correction.Weighted>
   9.000000E+99

> <Gold.Protein.RotatedTorsions>
[ 6907 6896 6895 6894 ] final  -80.61 input  -60.11 | X-H torsion
[ 7974 7965 7964 7962 ] final  114.80 input  175.53 | X-H torsion
[ 8008 7997 7996 7995 ] final  -67.12 input   59.86 | X-H torsion
[ 10167 10162 10161 10158 ] final  171.64 input  -65.29 | X-H torsion
[ 10718 10713 10712 10709 ] final   23.89 input   66.30 | X-H torsion
[ 10763 10752 10751 10750 ] final  113.06 input  -60.55 | X-H torsion
[ 11005 11000 10999 10996 ] final   71.21 input  -57.11 | X-H torsion

> <Gold.Protein.ActiveResidues>
 VAL166  LYS551  ARG553  GLY616  TRP617  ASP618  TYR619  PRO620  LYS621  CYS622 
 ASP623  PHE694  ASN695  SER759  ASP760  ASP761  ALA762  ILE779  LEU786  VAL792 
 PHE793  MET794  SER795  GLU796  ALA797  LYS798  CYS799  TRP800  GLU811  SER814 

> <Gold.Protein.RotatedAtoms>
  150.6926  134.3943  159.5090 H   0  0  0  0  0  0  0  0  0  0  0  0  # atno 6907 bound_to 6896
  152.1726  134.8818  160.0542 H   0  0  0  0  0  0  0  0  0  0  0  0  # atno 6908 bound_to 6896
  151.9839  133.3732  159.4155 H   0  0  0  0  0  0  0  0  0  0  0  0  # atno 6909 bound_to 6896
  145.1999  139.2957  143.4324 H   0  0  0  0  0  0  0  0  0  0  0  0  # atno 7974 bound_to 7965
  154.4779  140.0899  156.7305 H   0  0  0  0  0  0  0  0  0  0  0  0  # atno 8008 bound_to 7997
  155.4549  140.3459  155.4287 H   0  0  0  0  0  0  0  0  0  0  0  0  # atno 8009 bound_to 7997
  156.1145  140.1457  156.9281 H   0  0  0  0  0  0  0  0  0  0  0  0  # atno 8010 bound_to 7997
  139.5052  144.3463  151.9968 H   0  0  0  0  0  0  0  0  0  0  0  0  # atno 10167 bound_to 10162
  157.1723  130.6765  149.6082 H   0  0  0  0  0  0  0  0  0  0  0  0  # atno 10718 bound_to 10713
  153.4869  135.3667  155.2471 H   0  0  0  0  0  0  0  0  0  0  0  0  # atno 10763 bound_to 10752
  154.8753  135.3967  154.3635 H   0  0  0  0  0  0  0  0  0  0  0  0  # atno 10764 bound_to 10752
  153.4248  135.7081  153.6335 H   0  0  0  0  0  0  0  0  0  0  0  0  # atno 10765 bound_to 10752
  139.9555  134.7151  156.0762 H   0  0  0  0  0  0  0  0  0  0  0  0  # atno 11005 bound_to 11000
  146.3419  140.2240  142.8592 LP  0  0  0  0  0  0  0  0  0  0  0  0  # atno 17320 bound_to 7965
  144.9958  140.8588  143.5312 LP  0  0  0  0  0  0  0  0  0  0  0  0  # atno 17321 bound_to 7965
  140.2900  144.3764  150.6091 LP  0  0  0  0  0  0  0  0  0  0  0  0  # atno 17342 bound_to 10162
  140.5953  143.2167  151.7175 LP  0  0  0  0  0  0  0  0  0  0  0  0  # atno 17343 bound_to 10162
  155.9736  130.4675  150.6326 LP  0  0  0  0  0  0  0  0  0  0  0  0  # atno 17370 bound_to 10713
  157.4031  131.0813  151.1290 LP  0  0  0  0  0  0  0  0  0  0  0  0  # atno 17371 bound_to 10713
  141.1226  133.6608  156.3254 LP  0  0  0  0  0  0  0  0  0  0  0  0  # atno 17394 bound_to 11000
  140.5618  134.5926  157.5435 LP  0  0  0  0  0  0  0  0  0  0  0  0  # atno 17395 bound_to 11000

$$$$
