AV-unprocessed.smi:491|AV-procd|sdf|2707|dock3
  -GOLD-   2262023143D 1   1.00000     0.00000
 Structure written by MMmdl.
 45 46  0  0  0  0  0  0  0  0  1 V2000
  149.7007  140.0075  154.9218 C   0  0  0  0  0  0  0  0  0  0  0  0
  150.5881  138.7539  154.9115 C   0  0  0  0  0  0  0  0  0  0  0  0
  150.9667  138.3221  156.2318 N   0  0  0  0  0  0  0  0  0  0  0  0
  150.0257  137.9992  157.1869 C   0  0  0  0  0  0  0  0  0  0  0  0
  150.3611  137.5930  158.4285 C   0  0  0  0  0  0  0  0  0  0  0  0
  149.3742  137.2670  159.4042 C   0  0  0  0  0  0  0  0  0  0  0  0
  148.5802  137.0221  160.2097 N   0  0  0  0  0  0  0  0  0  0  0  0
  151.7604  137.4730  158.8298 C   0  0  0  0  0  0  0  0  0  0  0  0
  152.1160  137.1305  159.9585 O   0  0  0  0  0  0  0  0  0  0  0  0
  152.7137  137.7938  157.8295 N   0  0  0  0  0  0  0  0  0  0  0  0
  154.1536  137.7208  158.1749 C   0  0  0  0  0  0  0  0  0  0  0  0
  154.5607  138.5438  159.4110 C   0  0  0  0  0  0  0  0  0  0  0  0
  155.1897  137.9989  160.3171 O   0  0  0  0  0  0  0  0  0  0  0  0
  154.2008  139.8359  159.4515 N   0  0  0  0  0  0  0  0  0  0  0  0
  154.4734  140.7567  160.5447 C   0  0  0  0  0  0  0  0  0  0  0  0
  153.3292  141.7763  160.7056 C   0  0  0  0  0  0  0  0  0  0  0  0
  153.2546  142.7177  159.4863 C   0  0  0  0  0  0  0  0  0  0  0  0
  152.1078  143.7328  159.6197 C   0  0  0  0  0  0  0  0  0  0  0  0
  152.2310  144.5435  160.9186 C   0  0  0  0  0  0  0  0  0  0  0  0
  152.2998  143.6171  162.1421 C   0  0  0  0  0  0  0  0  0  0  0  0
  153.4442  142.5994  162.0098 C   0  0  0  0  0  0  0  0  0  0  0  0
  152.3454  138.2202  156.5300 C   0  0  0  0  0  0  0  0  0  0  0  0
  153.2040  138.5034  155.6907 O   0  0  0  0  0  0  0  0  0  0  0  0
  149.4646  140.3203  153.9048 H   0  0  0  0  0  0  0  0  0  0  0  0
  150.2021  140.8398  155.4165 H   0  0  0  0  0  0  0  0  0  0  0  0
  148.7576  139.8292  155.4390 H   0  0  0  0  0  0  0  0  0  0  0  0
  150.1144  137.9075  154.4103 H   0  0  0  0  0  0  0  0  0  0  0  0
  151.5211  138.9481  154.3809 H   0  0  0  0  0  0  0  0  0  0  0  0
  148.9782  138.0747  156.9319 H   0  0  0  0  0  0  0  0  0  0  0  0
  154.4607  136.6869  158.3391 H   0  0  0  0  0  0  0  0  0  0  0  0
  154.7726  138.0434  157.3365 H   0  0  0  0  0  0  0  0  0  0  0  0
  153.6865  140.2060  158.6657 H   0  0  0  0  0  0  0  0  0  0  0  0
  154.6074  140.1872  161.4657 H   0  0  0  0  0  0  0  0  0  0  0  0
  155.4120  141.2784  160.3503 H   0  0  0  0  0  0  0  0  0  0  0  0
  152.3934  141.2159  160.7472 H   0  0  0  0  0  0  0  0  0  0  0  0
  154.1996  143.2517  159.3747 H   0  0  0  0  0  0  0  0  0  0  0  0
  153.1201  142.1364  158.5733 H   0  0  0  0  0  0  0  0  0  0  0  0
  152.1056  144.4053  158.7614 H   0  0  0  0  0  0  0  0  0  0  0  0
  151.1512  143.2085  159.6042 H   0  0  0  0  0  0  0  0  0  0  0  0
  153.1266  145.1648  160.8789 H   0  0  0  0  0  0  0  0  0  0  0  0
  151.3851  145.2248  161.0141 H   0  0  0  0  0  0  0  0  0  0  0  0
  152.4324  144.2082  163.0487 H   0  0  0  0  0  0  0  0  0  0  0  0
  151.3524  143.0882  162.2539 H   0  0  0  0  0  0  0  0  0  0  0  0
  153.4342  141.9438  162.8811 H   0  0  0  0  0  0  0  0  0  0  0  0
  154.4008  143.1232  162.0310 H   0  0  0  0  0  0  0  0  0  0  0  0
  1  2  1  0  0  0  0
  1 24  1  0  0  0  0
  1 25  1  0  0  0  0
  1 26  1  0  0  0  0
  2  3  1  0  0  0  0
  2 27  1  0  0  0  0
  2 28  1  0  0  0  0
  3 22  1  0  0  0  0
  3  4  1  0  0  0  0
  4  5  2  0  0  0  0
  4 29  1  0  0  0  0
  5  6  1  0  0  0  0
  5  8  1  0  0  0  0
  6  7  3  0  0  0  0
  8  9  2  0  0  0  0
  8 10  1  0  0  0  0
 10 11  1  0  0  0  0
 10 22  1  0  0  0  0
 11 12  1  0  0  0  0
 11 30  1  0  0  0  0
 11 31  1  0  0  0  0
 12 13  2  0  0  0  0
 12 14  1  0  0  0  0
 14 15  1  0  0  0  0
 14 32  1  0  0  0  0
 15 16  1  0  0  0  0
 15 33  1  0  0  0  0
 15 34  1  0  0  0  0
 16 21  1  0  0  0  0
 16 17  1  0  0  0  0
 16 35  1  0  0  0  0
 17 18  1  0  0  0  0
 17 36  1  0  0  0  0
 17 37  1  0  0  0  0
 18 19  1  0  0  0  0
 18 38  1  0  0  0  0
 18 39  1  0  0  0  0
 19 20  1  0  0  0  0
 19 40  1  0  0  0  0
 19 41  1  0  0  0  0
 20 21  1  0  0  0  0
 20 42  1  0  0  0  0
 20 43  1  0  0  0  0
 21 44  1  0  0  0  0
 21 45  1  0  0  0  0
 22 23  2  0  0  0  0
M  END
> <s_m_source_file>
AV-unprocessed.smi

> <i_m_source_file_index>
491

> <i_lp_mmshare_version>
43012

> <i_f3d_flags>
0

> <s_epik_input>
W0NIM11bQ0gyXW4xW2NIXWMoQyNOKWMoPU8pbihjMT1PKVtDSDJdQyg9TylbTkhdW0NIMl1bQ0hdMltDSDJdW0NIMl1bQ0gyXVtDSDJdW0NIMl0y

> <s_epik_cmdline>
J2VwaWtfcHl0aG9uJywgJy1waCcsICc3LjAnLCAnLXRuJywgJzgnLCAnLW1hJywgJzIwMCcsICctbWV0YWxfYmluZGluZycsICctaW1hZScsICc8aW5maWxlLm1hZT4nLCAnLW9tYWUnLCAnPG91dGZpbGUubWFlPic=

> <r_lp_tautomer_probability>
1

> <r_epik_Ionization_Penalty>
1.98356e-08

> <r_epik_Ionization_Penalty_Charging>
3.77777e-11

> <r_epik_Ionization_Penalty_Neutral>
1.97978e-08

> <r_epik_State_Penalty>
-0

> <r_epik_Charging_Adjusted_Penalty>
3.77777e-11

> <i_epik_Tot_Q>
0

> <i_epik_Tot_abs_Q>
0

> <r_epik_Metal_State_Penalty>
-0

> <b_epik_Metal_Only>
0

> <s_lp_Force_Field>
OPLS_2005

> <r_lp_Energy>
13.3995

> <b_lp_Chiralities_Consistent>
1

> <s_lp_Variant>
AV-unprocessed.smi:491-1

> <Gold.Version>
5.8.1

> <Gold.Id.Protein>
6NUR|6NUR_protein|mol2

> <Gold.PLP.Fitness>
48.5061

> <Gold.PLP.PLP>
-42.5256

> <Gold.PLP.part.hbond>
-3.0023

> <Gold.PLP.part.metal>
0.0000

> <Gold.PLP.part.buried>
-5.5695

> <Gold.PLP.part.nonpolar>
-34.5180

> <Gold.PLP.part.repulsive>
0.0954

> <Gold.PLP.ligand.clash>
0.0000

> <Gold.PLP.ligand.torsion>
0.3120

> <Gold.PLP.Chemscore.Hbond>
2.1903

> <Gold.PLP.Chemscore.CHOScore>
0.0000

> <Gold.PLP.Chemscore.Metal>
0.0000

> <Gold.Chemscore.Hbonds>
donor molecule, donor type, donor heavy atom, donor atom, acceptor molecule, acceptor atom, score
      P1  H  6896  6908       L1     9  1.00
      P1  H  6931  6943       L1     7  0.51
      P1  H  7997  8009       L1    23  0.90

> <Gold.PLP.Chemscore.Internal.Correction>
0.0335

> <Gold.Rescore>
     Score         DG    S(hbond)    S(metal)    S(lipo)     H(rot)  DE(clash)    DE(int)     intcor
     17.92     -19.33       1.96        0.00     105.10       1.95       0.06       1.35       ----

> <Gold.Chemscore.Fitness>
17.9220

> <Gold.Chemscore.DG>
-19.3317

> <Gold.Chemscore.ZeroCoef>
-5.4800

> <Gold.Chemscore.Hbond>
1.9569

> <Gold.Chemscore.Metal>
0.0000

> <Gold.Chemscore.Lipo>
105.1032

> <Gold.Chemscore.Internal_Hbond>
0.0000

> <Gold.Chemscore.DEClash>
0.0589

> <Gold.Chemscore.DEInternal>
1.3508

> <Gold.Chemscore.Rot>
1.9458

> <Gold.Chemscore.Internal.Correction>
   9.000000E+99

> <Gold.Chemscore.Hbonds>
donor molecule, donor type, donor heavy atom, donor atom, acceptor molecule, acceptor atom, score
      P1  H  6896  6908       L1     9  0.43
      P1  H  6931  6943       L1     7  0.25
      P1  H  7997  8009       L1    23  0.77

> <Gold.Chemscore.Hbond.Weighted>
-6.5359

> <Gold.Chemscore.Metal.Weighted>
-0.0000

> <Gold.Chemscore.Lipo.Weighted>
-12.2971

> <Gold.Chemscore.Internal_Hbond.Weighted>
0.0000

> <Gold.Chemscore.DEClash.Weighted>
0.0589

> <Gold.Chemscore.DEInternal.Weighted>
1.3508

> <Gold.Chemscore.Rot.Weighted>
4.9813

> <Gold.Chemscore.Internal.Correction.Weighted>
   9.000000E+99

> <Gold.Protein.RotatedTorsions>
[ 6907 6896 6895 6894 ] final -111.34 input  -60.11 | X-H torsion
[ 7974 7965 7964 7962 ] final -105.19 input  175.53 | X-H torsion
[ 8008 7997 7996 7995 ] final -150.43 input   59.86 | X-H torsion
[ 10167 10162 10161 10158 ] final -103.70 input  -65.29 | X-H torsion
[ 10718 10713 10712 10709 ] final   38.24 input   66.30 | X-H torsion
[ 10763 10752 10751 10750 ] final  -89.09 input  -60.55 | X-H torsion
[ 11005 11000 10999 10996 ] final -139.21 input  -57.11 | X-H torsion

> <Gold.Protein.ActiveResidues>
 VAL166  LYS551  ARG553  GLY616  TRP617  ASP618  TYR619  PRO620  LYS621  CYS622 
 ASP623  PHE694  ASN695  SER759  ASP760  ASP761  ALA762  ILE779  LEU786  VAL792 
 PHE793  MET794  SER795  GLU796  ALA797  LYS798  CYS799  TRP800  GLU811  SER814 

> <Gold.Protein.RotatedAtoms>
  150.7684  133.9249  159.3408 H   0  0  0  0  0  0  0  0  0  0  0  0  # atno 6907 bound_to 6896
  151.7141  135.0905  160.0282 H   0  0  0  0  0  0  0  0  0  0  0  0  # atno 6908 bound_to 6896
  152.3691  133.6357  159.6109 H   0  0  0  0  0  0  0  0  0  0  0  0  # atno 6909 bound_to 6896
  145.2335  140.9179  143.3191 H   0  0  0  0  0  0  0  0  0  0  0  0  # atno 7974 bound_to 7965
  155.6234  140.0684  157.2671 H   0  0  0  0  0  0  0  0  0  0  0  0  # atno 8008 bound_to 7997
  154.4223  140.1780  156.1445 H   0  0  0  0  0  0  0  0  0  0  0  0  # atno 8009 bound_to 7997
  155.9991  140.3338  155.6831 H   0  0  0  0  0  0  0  0  0  0  0  0  # atno 8010 bound_to 7997
  140.2172  143.3702  152.1000 H   0  0  0  0  0  0  0  0  0  0  0  0  # atno 10167 bound_to 10162
  157.3565  130.7626  149.7016 H   0  0  0  0  0  0  0  0  0  0  0  0  # atno 10718 bound_to 10713
  154.6516  135.5353  153.7909 H   0  0  0  0  0  0  0  0  0  0  0  0  # atno 10763 bound_to 10752
  153.0389  135.6484  154.1008 H   0  0  0  0  0  0  0  0  0  0  0  0  # atno 10764 bound_to 10752
  154.0925  135.2939  155.3248 H   0  0  0  0  0  0  0  0  0  0  0  0  # atno 10765 bound_to 10752
  140.8541  134.2249  157.4744 H   0  0  0  0  0  0  0  0  0  0  0  0  # atno 11005 bound_to 11000
  144.9654  139.3935  143.6335 LP  0  0  0  0  0  0  0  0  0  0  0  0  # atno 17320 bound_to 7965
  146.3347  139.8727  142.8837 LP  0  0  0  0  0  0  0  0  0  0  0  0  # atno 17321 bound_to 7965
  139.5157  144.6967  151.5609 LP  0  0  0  0  0  0  0  0  0  0  0  0  # atno 17342 bound_to 10162
  140.6281  143.9129  150.6582 LP  0  0  0  0  0  0  0  0  0  0  0  0  # atno 17343 bound_to 10162
  155.9730  130.4126  150.4039 LP  0  0  0  0  0  0  0  0  0  0  0  0  # atno 17370 bound_to 10713
  157.2110  131.0460  151.2599 LP  0  0  0  0  0  0  0  0  0  0  0  0  # atno 17371 bound_to 10713
  139.8705  134.9698  156.4678 LP  0  0  0  0  0  0  0  0  0  0  0  0  # atno 17394 bound_to 11000
  140.8757  133.7955  155.9412 LP  0  0  0  0  0  0  0  0  0  0  0  0  # atno 17395 bound_to 11000

$$$$
