#       Name:                AV-unprocessed.smi:1856
#       Creating user name   scv26
#       Creation time:       Fri Mar 27 09:25:00 2020


#       File generated by GOLD software.
#

@<TRIPOS>MOLECULE
AV-unprocessed.smi:1856
    49    50     1
SMALL
NO_CHARGES


@<TRIPOS>ATOM
      1 ****        -5.0155   2.3318   1.8913 C.3            1 S1                 0.0000
      2 ****        -3.6081   2.4206   2.5007 C.3            1 S1                 0.0000
      3 ****        -2.4587   2.4179   1.4737 C.3            1 S1                 0.0000
      4 ****        -2.2883   1.0795   0.7487 C.2            1 S1                 0.0000
      5 ****        -3.0839   0.7451  -0.1292 O.2            1 S1                 0.0000
      6 ****        -1.2332   0.3347   1.1130 N.am           1 S1                 0.0000
      7 ****        -0.8600  -0.9553   0.5380 C.3            1 S1                 0.0000
      8 ****        -1.4027  -2.1108   1.3910 C.3            1 S1                 0.0000
      9 ****         0.6422  -0.9827   0.4239 C.2            1 S1                 0.0000
     10 ****         1.4333  -0.7305   1.4706 N.2            1 S1                 0.0000
     11 ****         2.7003  -0.8589   0.9387 C.ar           1 S1                 0.0000
     12 ****         3.9687  -0.7142   1.5449 C.ar           1 S1                 0.0000
     13 ****         5.1456  -0.8939   0.7890 C.ar           1 S1                 0.0000
     14 ****         5.0708  -1.2193  -0.5807 C.ar           1 S1                 0.0000
     15 ****         3.8167  -1.3676  -1.2037 C.ar           1 S1                 0.0000
     16 ****         2.6442  -1.1888  -0.4443 C.ar           1 S1                 0.0000
     17 ****         1.2856  -1.2568  -0.7415 N.pl3          1 S1                 0.0000
     18 ****         0.7104  -1.5625  -2.0449 C.3            1 S1                 0.0000
     19 ****         0.2524  -0.3027  -2.8081 C.3            1 S1                 0.0000
     20 ****         1.3735   0.7190  -3.0531 C.3            1 S1                 0.0000
     21 ****        -0.2716  -0.7052  -4.0554 O.3            1 S1                 0.0000
     22 ****        -5.7763   2.4317   2.6656 H              1 S1                 0.0000
     23 ****        -5.1826   1.3762   1.3943 H              1 S1                 0.0000
     24 ****        -5.1792   3.1252   1.1616 H              1 S1                 0.0000
     25 ****        -3.5434   3.3389   3.0853 H              1 S1                 0.0000
     26 ****        -3.4693   1.6058   3.2127 H              1 S1                 0.0000
     27 ****        -2.6209   3.2003   0.7315 H              1 S1                 0.0000
     28 ****        -1.5259   2.6721   1.9792 H              1 S1                 0.0000
     29 ****        -0.6275   0.6942   1.8369 H              1 S1                 0.0000
     30 ****        -1.3026  -1.0425  -0.4524 H              1 S1                 0.0000
     31 ****        -1.1229  -3.0740   0.9638 H              1 S1                 0.0000
     32 ****        -2.4912  -2.0789   1.4481 H              1 S1                 0.0000
     33 ****        -1.0144  -2.0728   2.4095 H              1 S1                 0.0000
     34 ****         4.0364  -0.4643   2.5933 H              1 S1                 0.0000
     35 ****         6.1101  -0.7808   1.2618 H              1 S1                 0.0000
     36 ****         5.9768  -1.3545  -1.1533 H              1 S1                 0.0000
     37 ****         3.7585  -1.6140  -2.2533 H              1 S1                 0.0000
     38 ****         1.4551  -2.1008  -2.6322 H              1 S1                 0.0000
     39 ****        -0.1172  -2.2598  -1.9112 H              1 S1                 0.0000
     40 ****        -0.5513   0.1882  -2.2590 H              1 S1                 0.0000
     41 ****         1.7668   1.1104  -2.1148 H              1 S1                 0.0000
     42 ****         1.0100   1.5693  -3.6306 H              1 S1                 0.0000
     43 ****         2.2035   0.2728  -3.6023 H              1 S1                 0.0000
     44 ****        -0.6124   0.0570  -4.4982 H              1 S1                 0.0000
     45 ****        -3.8443   1.3480  -0.3709 LP             1 S1                 0.0000
     46 ****        -2.9699  -0.1294  -0.6006 LP             1 S1                 0.0000
     47 ****         1.1716  -0.5043   2.4089 LP             1 S1                 0.0000
     48 ****        -1.0057  -1.3694  -3.9142 LP             1 S1                 0.0000
     49 ****         0.4519  -1.1202  -4.6070 LP             1 S1                 0.0000
@<TRIPOS>BOND
    1    1    2 1     
    2    1   22 1     
    3    1   23 1     
    4    1   24 1     
    5    2    3 1     
    6    2   25 1     
    7    2   26 1     
    8    3    4 1     
    9    3   27 1     
   10    3   28 1     
   11    4    5 2     
   12    4    6 am    
   13    6    7 1     
   14    6   29 1     
   15    7    8 1     
   16    7    9 1     
   17    7   30 1     
   18    8   31 1     
   19    8   32 1     
   20    8   33 1     
   21    9   17 1     
   22    9   10 2     
   23   10   11 1     
   24   11   16 ar    
   25   11   12 ar    
   26   12   13 ar    
   27   12   34 1     
   28   13   14 ar    
   29   13   35 1     
   30   14   15 ar    
   31   14   36 1     
   32   15   16 ar    
   33   15   37 1     
   34   16   17 1     
   35   17   18 1     
   36   18   19 1     
   37   18   38 1     
   38   18   39 1     
   39   19   20 1     
   40   19   21 1     
   41   19   40 1     
   42   20   41 1     
   43   20   42 1     
   44   20   43 1     
   45   21   44 1     
   46    5   45 1     
   47    5   46 1     
   48   10   47 1     
   49   21   48 1     
   50   21   49 1     
@<TRIPOS>SUBSTRUCTURE
      1 S1             1
@<TRIPOS>SET
LONE_PAIRS      STATIC     ATOMS    <user>   **** ""
5 45 46 47 48 49
DONOR_HYDROGENS      STATIC     ATOMS    <user>   **** ""
2 29 44
ATOM$BLUE        STATIC     ATOMS    COLORGROUP SYSTEM
5 45 46 47 48 49
ATOM$RED        STATIC     ATOMS    COLORGROUP SYSTEM
2 29 44
