#       Name:                AV-unprocessed.smi:85
#       Creating user name   scv26
#       Creation time:       Thu Mar 26 17:20:54 2020


#       File generated by GOLD software.
#

@<TRIPOS>MOLECULE
AV-unprocessed.smi:85
    71    74     1
SMALL
NO_CHARGES


@<TRIPOS>ATOM
      1 ****        -1.8455  -2.3161   1.5212 C.3            1 S1                 0.0000
      2 ****        -2.5573  -1.0478   1.0211 C.3            1 S1                 0.0000
      3 ****        -1.9093   0.1963   1.4512 N.pl3          1 S1                 0.0000
      4 ****        -0.5879   0.3264   1.1784 C.ar           1 S1                 0.0000
      5 ****         0.2081   0.7836   2.1776 N.ar           1 S1                 0.0000
      6 ****         1.5208   0.9284   1.9758 C.ar           1 S1                 0.0000
      7 ****         2.2276   0.6798   0.8718 N.ar           1 S1                 0.0000
      8 ****         1.4306   0.2296  -0.1392 C.ar           1 S1                 0.0000
      9 ****         0.0219   0.0330  -0.0755 C.ar           1 S1                 0.0000
     10 ****        -0.4479  -0.4078  -1.3068 N.2            1 S1                 0.0000
     11 ****         0.6209  -0.4770  -2.0508 C.2            1 S1                 0.0000
     12 ****         1.7981  -0.1350  -1.4237 N.pl3          1 S1                 0.0000
     13 ****         3.1301  -0.1322  -2.0135 C.3            1 S1                 0.0000
     14 ****         3.8573  -1.5104  -1.9954 C.3            1 S1                 0.0000
     15 ****         4.0402  -2.0140  -0.5348 C.3            1 S1                 0.0000
     16 ****         4.8241  -1.1301   0.2411 O.3            1 S1                 0.0000
     17 ****         3.0391  -2.5516  -2.8024 C.3            1 S1                 0.0000
     18 ****         3.8304  -3.8352  -3.1165 C.3            1 S1                 0.0000
     19 ****         5.0398  -3.5149  -3.7904 O.3            1 S1                 0.0000
     20 ****         5.9036  -2.6995  -3.0102 C.3            1 S1                 0.0000
     21 ****         5.2208  -1.3525  -2.7150 C.3            1 S1                 0.0000
     22 ****        -2.6369   1.4699   1.3793 C.3            1 S1                 0.0000
     23 ****        -3.0861   1.8240  -0.0475 C.3            1 S1                 0.0000
     24 ****        -3.8270   3.1678  -0.0517 C.3            1 S1                 0.0000
     25 ****        -4.9302   3.1354   0.8527 O.3            1 S1                 0.0000
     26 ****        -4.6220   2.8570   2.2233 C.3            1 S1                 0.0000
     27 ****        -3.8450   4.0297   2.8599 C.3            1 S1                 0.0000
     28 ****        -5.9859   2.7266   2.9221 C.3            1 S1                 0.0000
     29 ****        -3.8572   1.5143   2.3178 C.3            1 S1                 0.0000
     30 ****        -2.4040  -3.2062   1.2320 H              1 S1                 0.0000
     31 ****        -1.7626  -2.3161   2.6084 H              1 S1                 0.0000
     32 ****        -0.8423  -2.4149   1.1070 H              1 S1                 0.0000
     33 ****        -2.6408  -1.0707  -0.0648 H              1 S1                 0.0000
     34 ****        -3.5785  -1.0713   1.3962 H              1 S1                 0.0000
     35 ****         2.0867   1.2931   2.8203 H              1 S1                 0.0000
     36 ****         0.5800  -0.7917  -3.0834 H              1 S1                 0.0000
     37 ****         3.0320   0.2252  -3.0396 H              1 S1                 0.0000
     38 ****         3.7292   0.6204  -1.4992 H              1 S1                 0.0000
     39 ****         3.0753  -2.1408  -0.0438 H              1 S1                 0.0000
     40 ****         4.5218  -2.9898  -0.5017 H              1 S1                 0.0000
     41 ****         4.8631  -1.4601   1.1258 H              1 S1                 0.0000
     42 ****         2.1247  -2.8184  -2.2721 H              1 S1                 0.0000
     43 ****         2.7246  -2.1093  -3.7487 H              1 S1                 0.0000
     44 ****         4.0430  -4.4081  -2.2137 H              1 S1                 0.0000
     45 ****         3.2377  -4.4842  -3.7614 H              1 S1                 0.0000
     46 ****         6.1898  -3.2158  -2.0933 H              1 S1                 0.0000
     47 ****         6.8223  -2.5322  -3.5727 H              1 S1                 0.0000
     48 ****         5.0703  -0.8395  -3.6659 H              1 S1                 0.0000
     49 ****         5.8930  -0.7148  -2.1402 H              1 S1                 0.0000
     50 ****        -1.9543   2.2543   1.7082 H              1 S1                 0.0000
     51 ****        -2.2289   1.8777  -0.7188 H              1 S1                 0.0000
     52 ****        -3.7458   1.0502  -0.4410 H              1 S1                 0.0000
     53 ****        -3.1500   3.9866   0.1910 H              1 S1                 0.0000
     54 ****        -4.2087   3.3742  -1.0517 H              1 S1                 0.0000
     55 ****        -3.6941   3.8631   3.9270 H              1 S1                 0.0000
     56 ****        -4.3921   4.9662   2.7487 H              1 S1                 0.0000
     57 ****        -2.8601   4.1752   2.4191 H              1 S1                 0.0000
     58 ****        -5.8687   2.4880   3.9797 H              1 S1                 0.0000
     59 ****        -6.5899   1.9385   2.4710 H              1 S1                 0.0000
     60 ****        -6.5563   3.6535   2.8528 H              1 S1                 0.0000
     61 ****        -4.5470   0.7115   2.0594 H              1 S1                 0.0000
     62 ****        -3.5462   1.3298   3.3470 H              1 S1                 0.0000
     63 ****        -0.1885   1.0125   3.0666 LP             1 S1                 0.0000
     64 ****         3.2165   0.8074   0.7953 LP             1 S1                 0.0000
     65 ****        -1.3901  -0.6228  -1.5637 LP             1 S1                 0.0000
     66 ****         4.4086  -0.2205   0.2386 LP             1 S1                 0.0000
     67 ****         5.7473  -1.0759  -0.1394 LP             1 S1                 0.0000
     68 ****         4.8162  -3.0277  -4.6346 LP             1 S1                 0.0000
     69 ****         5.5170  -4.3652  -4.0127 LP             1 S1                 0.0000
     70 ****        -5.5641   2.4306   0.5342 LP             1 S1                 0.0000
     71 ****        -5.3791   4.0282   0.8171 LP             1 S1                 0.0000
@<TRIPOS>BOND
    1    1    2 1     
    2    1   30 1     
    3    1   31 1     
    4    1   32 1     
    5    2    3 1     
    6    2   33 1     
    7    2   34 1     
    8    3    4 1     
    9    3   22 1     
   10    4    9 ar    
   11    4    5 ar    
   12    5    6 ar    
   13    6    7 ar    
   14    6   35 1     
   15    7    8 ar    
   16    8   12 1     
   17    8    9 ar    
   18    9   10 1     
   19   10   11 2     
   20   11   12 1     
   21   11   36 1     
   22   12   13 1     
   23   13   14 1     
   24   13   37 1     
   25   13   38 1     
   26   14   21 1     
   27   14   15 1     
   28   14   17 1     
   29   15   16 1     
   30   15   39 1     
   31   15   40 1     
   32   16   41 1     
   33   17   18 1     
   34   17   42 1     
   35   17   43 1     
   36   18   19 1     
   37   18   44 1     
   38   18   45 1     
   39   19   20 1     
   40   20   21 1     
   41   20   46 1     
   42   20   47 1     
   43   21   48 1     
   44   21   49 1     
   45   22   29 1     
   46   22   23 1     
   47   22   50 1     
   48   23   24 1     
   49   23   51 1     
   50   23   52 1     
   51   24   25 1     
   52   24   53 1     
   53   24   54 1     
   54   25   26 1     
   55   26   27 1     
   56   26   28 1     
   57   26   29 1     
   58   27   55 1     
   59   27   56 1     
   60   27   57 1     
   61   28   58 1     
   62   28   59 1     
   63   28   60 1     
   64   29   61 1     
   65   29   62 1     
   66    5   63 1     
   67    7   64 1     
   68   10   65 1     
   69   16   66 1     
   70   16   67 1     
   71   19   68 1     
   72   19   69 1     
   73   25   70 1     
   74   25   71 1     
@<TRIPOS>SUBSTRUCTURE
      1 S1             1
@<TRIPOS>SET
LONE_PAIRS      STATIC     ATOMS    <user>   **** ""
9 63 64 65 66 67 68 69 70 71
DONOR_HYDROGENS      STATIC     ATOMS    <user>   **** ""
1 41
ATOM$BLUE        STATIC     ATOMS    COLORGROUP SYSTEM
9 63 64 65 66 67 68 69 70 71
ATOM$RED        STATIC     ATOMS    COLORGROUP SYSTEM
1 41
