AV-unprocessed.smi:244|AV-procd|sdf|1874|dock6
  -GOLD-   2262020513D 1   1.00000     0.00000
 Structure written by MMmdl.
 56 60  0  0  0  0  0  0  0  0  1 V2000
  151.0845  139.2286  155.0788 C   0  0  0  0  0  0  0  0  0  0  0  0
  150.3272  138.7551  156.2320 N   0  0  0  0  0  0  0  0  0  0  0  0
  150.4389  139.6396  157.3938 C   0  0  0  0  0  0  0  0  0  0  0  0
  149.6822  140.9693  157.2017 C   0  0  0  0  0  0  0  0  0  0  0  0
  148.2093  140.7385  156.8359 C   0  0  2  0  0  0  0  0  0  0  0  0
  147.5127  140.2189  157.9664 O   0  0  0  0  0  0  0  0  0  0  0  0
  146.1227  140.0553  157.7081 C   0  0  0  0  0  0  0  0  0  0  0  0
  145.9230  139.0481  156.5649 C   0  0  0  0  0  0  0  0  0  0  0  0
  146.6881  139.4610  155.3882 N   0  0  0  0  0  0  0  0  0  0  0  0
  146.4183  138.8477  154.2052 C   0  0  0  0  0  0  0  0  0  0  0  0
  147.0867  139.2264  153.0825 N   0  0  0  0  0  0  0  0  0  0  0  0
  146.8193  138.6499  151.9075 C   0  0  0  0  0  0  0  0  0  0  0  0
  145.9390  137.6865  151.6324 N   0  0  0  0  0  0  0  0  0  0  0  0
  145.2738  137.2900  152.7546 C   0  0  0  0  0  0  0  0  0  0  0  0
  145.4479  137.8133  154.0678 C   0  0  0  0  0  0  0  0  0  0  0  0
  144.5997  137.1548  154.9512 N   0  0  0  0  0  0  0  0  0  0  0  0
  143.9532  136.3043  154.2027 C   0  0  0  0  0  0  0  0  0  0  0  0
  144.3035  136.3101  152.8720 N   0  0  0  0  0  0  0  0  0  0  0  0
  143.7531  135.4647  151.8234 C   0  0  0  0  0  0  0  0  0  0  0  0
  144.7938  134.5331  151.1532 C   0  0  0  0  0  0  0  0  0  0  0  0
  145.5508  135.3128  150.2438 O   0  0  0  0  0  0  0  0  0  0  0  0
  145.7651  133.8939  152.1700 C   0  0  0  0  0  0  0  0  0  0  0  0
  146.6522  132.8150  151.5238 C   0  0  0  0  0  0  0  0  0  0  0  0
  145.8448  131.8342  150.8839 O   0  0  0  0  0  0  0  0  0  0  0  0
  145.0699  132.3702  149.8182 C   0  0  0  0  0  0  0  0  0  0  0  0
  144.0821  133.4171  150.3624 C   0  0  0  0  0  0  0  0  0  0  0  0
  148.0987  139.7554  155.6513 C   0  0  2  0  0  0  0  0  0  0  0  0
  148.9275  138.4707  155.9134 C   0  0  0  0  0  0  0  0  0  0  0  0
  152.1351  139.3529  155.3424 H   0  0  0  0  0  0  0  0  0  0  0  0
  150.7171  140.1817  154.7000 H   0  0  0  0  0  0  0  0  0  0  0  0
  151.0313  138.5014  154.2682 H   0  0  0  0  0  0  0  0  0  0  0  0
  150.0348  139.1168  158.2616 H   0  0  0  0  0  0  0  0  0  0  0  0
  151.4905  139.8288  157.6116 H   0  0  0  0  0  0  0  0  0  0  0  0
  149.7473  141.5669  158.1113 H   0  0  0  0  0  0  0  0  0  0  0  0
  150.1628  141.5602  156.4219 H   0  0  0  0  0  0  0  0  0  0  0  0
  147.7645  141.6977  156.5647 H   0  0  0  0  0  0  0  0  0  0  0  0
  145.6320  139.6984  158.6136 H   0  0  0  0  0  0  0  0  0  0  0  0
  145.6718  141.0176  157.4608 H   0  0  0  0  0  0  0  0  0  0  0  0
  146.2386  138.0537  156.8830 H   0  0  0  0  0  0  0  0  0  0  0  0
  144.8618  138.9855  156.3203 H   0  0  0  0  0  0  0  0  0  0  0  0
  147.3918  139.0137  151.0671 H   0  0  0  0  0  0  0  0  0  0  0  0
  143.2052  135.6369  154.6054 H   0  0  0  0  0  0  0  0  0  0  0  0
  142.9495  134.8715  152.2612 H   0  0  0  0  0  0  0  0  0  0  0  0
  143.2825  136.1063  151.0772 H   0  0  0  0  0  0  0  0  0  0  0  0
  145.5543  134.8783  149.4048 H   0  0  0  0  0  0  0  0  0  0  0  0
  146.3964  134.6514  152.6358 H   0  0  0  0  0  0  0  0  0  0  0  0
  145.1906  133.4348  152.9757 H   0  0  0  0  0  0  0  0  0  0  0  0
  147.3461  133.2556  150.8063 H   0  0  0  0  0  0  0  0  0  0  0  0
  147.2581  132.3262  152.2870 H   0  0  0  0  0  0  0  0  0  0  0  0
  145.7229  132.8013  149.0576 H   0  0  0  0  0  0  0  0  0  0  0  0
  144.5233  131.5576  149.3392 H   0  0  0  0  0  0  0  0  0  0  0  0
  143.3704  132.9100  151.0153 H   0  0  0  0  0  0  0  0  0  0  0  0
  143.4969  133.8403  149.5449 H   0  0  0  0  0  0  0  0  0  0  0  0
  148.5177  140.2609  154.7842 H   0  0  0  0  0  0  0  0  0  0  0  0
  148.8849  137.8038  155.0513 H   0  0  0  0  0  0  0  0  0  0  0  0
  148.5025  137.9165  156.7505 H   0  0  0  0  0  0  0  0  0  0  0  0
  1  2  1  0  0  0  0
  1 29  1  0  0  0  0
  1 30  1  0  0  0  0
  1 31  1  0  0  0  0
  2 28  1  0  0  0  0
  2  3  1  0  0  0  0
  3  4  1  0  0  0  0
  3 32  1  0  0  0  0
  3 33  1  0  0  0  0
  4  5  1  0  0  0  0
  4 34  1  0  0  0  0
  4 35  1  0  0  0  0
  5 27  1  0  0  0  0
  5  6  1  0  0  0  0
  5 36  1  0  0  0  0
  6  7  1  0  0  0  0
  7  8  1  0  0  0  0
  7 37  1  0  0  0  0
  7 38  1  0  0  0  0
  8  9  1  0  0  0  0
  8 39  1  0  0  0  0
  8 40  1  0  0  0  0
  9 10  1  0  0  0  0
  9 27  1  0  0  0  0
 10 15  1  0  0  0  0
 10 11  2  0  0  0  0
 11 12  1  0  0  0  0
 12 13  2  0  0  0  0
 12 41  1  0  0  0  0
 13 14  1  0  0  0  0
 14 18  1  0  0  0  0
 14 15  2  0  0  0  0
 15 16  1  0  0  0  0
 16 17  2  0  0  0  0
 17 18  1  0  0  0  0
 17 42  1  0  0  0  0
 18 19  1  0  0  0  0
 19 20  1  0  0  0  0
 19 43  1  0  0  0  0
 19 44  1  0  0  0  0
 20 26  1  0  0  0  0
 20 21  1  0  0  0  0
 20 22  1  0  0  0  0
 21 45  1  0  0  0  0
 22 23  1  0  0  0  0
 22 46  1  0  0  0  0
 22 47  1  0  0  0  0
 23 24  1  0  0  0  0
 23 48  1  0  0  0  0
 23 49  1  0  0  0  0
 24 25  1  0  0  0  0
 25 26  1  0  0  0  0
 25 50  1  0  0  0  0
 25 51  1  0  0  0  0
 26 52  1  0  0  0  0
 26 53  1  0  0  0  0
 27 28  1  0  0  0  0
 27 54  1  0  0  0  0
 28 55  1  0  0  0  0
 28 56  1  0  0  0  0
M  END
> <s_m_source_file>
AV-unprocessed.smi

> <i_m_source_file_index>
244

> <i_lp_mmshare_version>
43012

> <i_f3d_flags>
0

> <s_epik_input>
W0NIMl0xW0NIMl1OKFtDSDNdKVtDSDJdW0NAQEhdKFtDQEhdMTIpTihbQ0gyXVtDSDJdTzIpYyhuW2NIXW4zKWMoYzM0KW5bY0hdbjRbQ0gyXUM1KFtPSF0pW0NIMl1bQ0gyXU9bQ0gyXVtDSDJdNQ==

> <s_epik_cmdline>
J2VwaWtfcHl0aG9uJywgJy1waCcsICc3LjAnLCAnLXRuJywgJzgnLCAnLW1hJywgJzIwMCcsICctbWV0YWxfYmluZGluZycsICctaW1hZScsICc8aW5maWxlLm1hZT4nLCAnLW9tYWUnLCAnPG91dGZpbGUubWFlPic=

> <r_lp_tautomer_probability>
1

> <r_epik_Ionization_Penalty>
2.27765

> <r_epik_Ionization_Penalty_Charging>
0

> <r_epik_Ionization_Penalty_Neutral>
2.27765

> <r_epik_State_Penalty>
2.4114

> <r_epik_Charging_Adjusted_Penalty>
2.4114

> <i_epik_Tot_Q>
0

> <i_epik_Tot_abs_Q>
0

> <r_epik_Metal_State_Penalty>
2.39769

> <b_epik_Metal_Only>
0

> <s_lp_Force_Field>
OPLS_2005

> <r_lp_Energy>
43.9701

> <b_lp_Chiralities_Consistent>
1

> <s_lp_Variant>
AV-unprocessed.smi:244-11

> <Gold.Version>
5.8.1

> <Gold.Id.Protein>
6NUR|6NUR_protein|mol2

> <Gold.PLP.Fitness>
36.1968

> <Gold.PLP.PLP>
-30.9652

> <Gold.PLP.part.hbond>
-1.9436

> <Gold.PLP.part.metal>
0.0000

> <Gold.PLP.part.buried>
-6.5439

> <Gold.PLP.part.nonpolar>
-25.1816

> <Gold.PLP.part.repulsive>
2.4274

> <Gold.PLP.ligand.clash>
0.0000

> <Gold.PLP.ligand.torsion>
0.5095

> <Gold.PLP.Chemscore.Hbond>
1.0000

> <Gold.PLP.Chemscore.CHOScore>
0.9383

> <Gold.PLP.Chemscore.Metal>
0.0000

> <Gold.Chemscore.Hbonds>
donor molecule, donor type, donor heavy atom, donor atom, acceptor molecule, acceptor atom, score
      L1  H    21    45       P1  7921  0.98
      L1  C    12    41       P1  7957  0.96

> <Gold.PLP.Chemscore.Internal.Correction>
0.4358

> <Gold.Rescore>
     Score         DG    S(hbond)    S(metal)    S(lipo)     H(rot)  DE(clash)    DE(int)     intcor
      8.12     -10.66       0.99        0.00      61.14       2.06       0.71       1.83       ----

> <Gold.Chemscore.Fitness>
8.1209

> <Gold.Chemscore.DG>
-10.6564

> <Gold.Chemscore.ZeroCoef>
-5.4800

> <Gold.Chemscore.Hbond>
0.9880

> <Gold.Chemscore.Metal>
0.0000

> <Gold.Chemscore.Lipo>
61.1360

> <Gold.Chemscore.Internal_Hbond>
0.0000

> <Gold.Chemscore.DEClash>
0.7073

> <Gold.Chemscore.DEInternal>
1.8282

> <Gold.Chemscore.Rot>
2.0611

> <Gold.Chemscore.Internal.Correction>
   9.000000E+99

> <Gold.Chemscore.Hbonds>
donor molecule, donor type, donor heavy atom, donor atom, acceptor molecule, acceptor atom, score
      L1  H    21    45       P1  7921  0.92

> <Gold.Chemscore.Hbond.Weighted>
-3.3000

> <Gold.Chemscore.Metal.Weighted>
-0.0000

> <Gold.Chemscore.Lipo.Weighted>
-7.1529

> <Gold.Chemscore.Internal_Hbond.Weighted>
0.0000

> <Gold.Chemscore.DEClash.Weighted>
0.7073

> <Gold.Chemscore.DEInternal.Weighted>
1.8282

> <Gold.Chemscore.Rot.Weighted>
5.2765

> <Gold.Chemscore.Internal.Correction.Weighted>
   9.000000E+99

> <Gold.Protein.RotatedTorsions>
[ 6907 6896 6895 6894 ] final -109.64 input  -60.11 | X-H torsion
[ 7974 7965 7964 7962 ] final  157.58 input  175.53 | X-H torsion
[ 8008 7997 7996 7995 ] final  -75.98 input   59.86 | X-H torsion
[ 10167 10162 10161 10158 ] final   21.01 input  -65.29 | X-H torsion
[ 10718 10713 10712 10709 ] final -114.13 input   66.30 | X-H torsion
[ 10763 10752 10751 10750 ] final   34.85 input  -60.55 | X-H torsion
[ 11005 11000 10999 10996 ] final    9.61 input  -57.11 | X-H torsion

> <Gold.Protein.ActiveResidues>
 VAL166  LYS551  ARG553  GLY616  TRP617  ASP618  TYR619  PRO620  LYS621  CYS622 
 ASP623  PHE694  ASN695  SER759  ASP760  ASP761  ALA762  ILE779  LEU786  VAL792 
 PHE793  MET794  SER795  GLU796  ALA797  LYS798  CYS799  TRP800  GLU811  SER814 

> <Gold.Protein.RotatedAtoms>
  150.7574  133.9500  159.3482 H   0  0  0  0  0  0  0  0  0  0  0  0  # atno 6907 bound_to 6896
  151.7416  135.0851  160.0326 H   0  0  0  0  0  0  0  0  0  0  0  0  # atno 6908 bound_to 6896
  152.3525  133.6159  159.5991 H   0  0  0  0  0  0  0  0  0  0  0  0  # atno 6909 bound_to 6896
  144.7895  139.7360  143.6227 H   0  0  0  0  0  0  0  0  0  0  0  0  # atno 7974 bound_to 7965
  154.5465  140.0735  156.8597 H   0  0  0  0  0  0  0  0  0  0  0  0  # atno 8008 bound_to 7997
  155.3077  140.3388  155.4227 H   0  0  0  0  0  0  0  0  0  0  0  0  # atno 8009 bound_to 7997
  156.1922  140.1690  156.8055 H   0  0  0  0  0  0  0  0  0  0  0  0  # atno 8010 bound_to 7997
  140.5459  143.9595  150.6548 H   0  0  0  0  0  0  0  0  0  0  0  0  # atno 10167 bound_to 10162
  156.0810  130.6010  150.8734 H   0  0  0  0  0  0  0  0  0  0  0  0  # atno 10718 bound_to 10713
  153.0145  135.6349  154.1733 H   0  0  0  0  0  0  0  0  0  0  0  0  # atno 10763 bound_to 10752
  154.1473  135.2831  155.3146 H   0  0  0  0  0  0  0  0  0  0  0  0  # atno 10764 bound_to 10752
  154.6080  135.5566  153.7504 H   0  0  0  0  0  0  0  0  0  0  0  0  # atno 10765 bound_to 10752
  140.5238  134.0532  155.7853 H   0  0  0  0  0  0  0  0  0  0  0  0  # atno 11005 bound_to 11000
  146.2141  139.5518  142.9661 LP  0  0  0  0  0  0  0  0  0  0  0  0  # atno 17320 bound_to 7965
  145.5832  141.0380  143.2110 LP  0  0  0  0  0  0  0  0  0  0  0  0  # atno 17321 bound_to 7965
  140.3008  143.3262  152.0974 LP  0  0  0  0  0  0  0  0  0  0  0  0  # atno 17342 bound_to 10162
  139.5007  144.6698  151.6270 LP  0  0  0  0  0  0  0  0  0  0  0  0  # atno 17343 bound_to 10162
  157.5927  131.0944  150.9092 LP  0  0  0  0  0  0  0  0  0  0  0  0  # atno 17370 bound_to 10713
  156.9265  130.5334  149.5279 LP  0  0  0  0  0  0  0  0  0  0  0  0  # atno 17371 bound_to 10713
  141.1319  133.9287  157.2517 LP  0  0  0  0  0  0  0  0  0  0  0  0  # atno 17394 bound_to 11000
  139.9591  135.0158  156.9211 LP  0  0  0  0  0  0  0  0  0  0  0  0  # atno 17395 bound_to 11000

$$$$
