AV-unprocessed.smi:526|AV-procd|sdf|2812|dock5
  -GOLD-   2262023293D 1   1.00000     0.00000
 Structure written by MMmdl.
 30 30  0  0  0  0  0  0  0  0  2 V2000
  153.3053  142.2351  159.6834 C   0  0  0  0  0  0  0  0  0  0  0  0
  152.3014  142.9866  160.1653 C   0  0  0  0  0  0  0  0  0  0  0  0
  152.4067  143.7098  161.4948 C   0  0  0  0  0  0  0  0  0  0  0  0
  150.9951  143.1649  159.4132 C   0  0  0  0  0  0  0  0  0  0  0  0
  151.2562  143.6767  157.6856 S   0  0  0  0  0  0  0  0  0  0  0  0
  151.1020  142.1293  156.7246 C   0  0  0  0  0  0  0  0  0  0  0  0
  149.9970  142.1278  155.8843 N   0  0  0  0  0  0  0  0  0  0  0  0
  149.7427  141.0127  155.1079 C   0  0  0  0  0  0  0  0  0  0  0  0
  148.5016  141.1189  154.2393 C   0  0  0  0  0  0  0  0  0  0  0  0
  150.5602  139.9331  155.1451 C   0  0  0  0  0  0  0  0  0  0  0  0
  150.3171  138.6761  154.3072 C   0  0  0  0  0  0  0  0  0  0  0  0
  150.3090  137.3620  155.0979 C   0  0  0  0  0  0  0  0  0  0  0  0
  149.4322  137.2521  155.9822 O   0  0  0  0  0  0  0  0  0  0  0  0
  151.1626  136.4909  154.8175 O   0  5  0  0  0  0  0  0  0  0  0  0
  151.7374  139.9781  156.0386 C   0  0  0  0  0  0  0  0  0  0  0  0
  152.5311  139.0407  156.1092 O   0  0  0  0  0  0  0  0  0  0  0  0
  151.9313  141.1321  156.8136 N   0  0  0  0  0  0  0  0  0  0  0  0
  149.3600  142.9072  155.8123 H   0  0  0  0  0  0  0  0  0  0  0  0
  154.2298  142.1176  160.2296 H   0  0  0  0  0  0  0  0  0  0  0  0
  153.2194  141.7260  158.7346 H   0  0  0  0  0  0  0  0  0  0  0  0
  151.6115  143.3846  162.1660 H   0  0  0  0  0  0  0  0  0  0  0  0
  152.3178  144.7870  161.3545 H   0  0  0  0  0  0  0  0  0  0  0  0
  153.3623  143.5110  161.9811 H   0  0  0  0  0  0  0  0  0  0  0  0
  150.4398  142.2261  159.4227 H   0  0  0  0  0  0  0  0  0  0  0  0
  150.3888  143.9081  159.9321 H   0  0  0  0  0  0  0  0  0  0  0  0
  148.7598  140.9841  153.1887 H   0  0  0  0  0  0  0  0  0  0  0  0
  148.0203  142.0921  154.3426 H   0  0  0  0  0  0  0  0  0  0  0  0
  147.7758  140.3547  154.5173 H   0  0  0  0  0  0  0  0  0  0  0  0
  151.0934  138.6042  153.5455 H   0  0  0  0  0  0  0  0  0  0  0  0
  149.3822  138.7563  153.7518 H   0  0  0  0  0  0  0  0  0  0  0  0
  1  2  2  0  0  0  0
  1 19  1  0  0  0  0
  1 20  1  0  0  0  0
  2  3  1  0  0  0  0
  2  4  1  0  0  0  0
  3 21  1  0  0  0  0
  3 22  1  0  0  0  0
  3 23  1  0  0  0  0
  4 24  1  0  0  0  0
  4 25  1  0  0  0  0
  4  5  1  0  0  0  0
  5  6  1  0  0  0  0
  6 17  2  0  0  0  0
  6  7  1  0  0  0  0
  7  8  1  0  0  0  0
  7 18  1  0  0  0  0
  8 10  2  0  0  0  0
  8  9  1  0  0  0  0
  9 26  1  0  0  0  0
  9 27  1  0  0  0  0
  9 28  1  0  0  0  0
 10 15  1  0  0  0  0
 10 11  1  0  0  0  0
 11 12  1  0  0  0  0
 11 29  1  0  0  0  0
 11 30  1  0  0  0  0
 12 13  2  0  0  0  0
 12 14  1  0  0  0  0
 15 17  1  0  0  0  0
 15 16  2  0  0  0  0
M  CHG  1  14  -1
M  END
> <s_m_source_file>
AV-unprocessed.smi

> <i_m_source_file_index>
526

> <i_lp_mmshare_version>
43012

> <i_f3d_flags>
0

> <s_epik_input>
W0NIMl09QyhbQ0gzXSlbQ0gyXVNjMW5jKFtDSDNdKWMoYyg9TylbbkhdMSlbQ0gyXUMoPU8pW09IXQ==

> <s_epik_cmdline>
J2VwaWtfcHl0aG9uJywgJy1waCcsICc3LjAnLCAnLXRuJywgJzgnLCAnLW1hJywgJzIwMCcsICctbWV0YWxfYmluZGluZycsICctaW1hZScsICc8aW5maWxlLm1hZT4nLCAnLW9tYWUnLCAnPG91dGZpbGUubWFlPic=

> <r_lp_tautomer_probability>
0.273662

> <r_epik_Ionization_Penalty>
0.012426

> <r_epik_Ionization_Penalty_Charging>
0.012254

> <r_epik_Ionization_Penalty_Neutral>
0.000171952

> <r_epik_State_Penalty>
0.787696

> <r_epik_Charging_Adjusted_Penalty>
0.79995

> <i_epik_Tot_Q>
-1

> <i_epik_Tot_abs_Q>
1

> <r_epik_Metal_State_Penalty>
0.901144

> <b_epik_Metal_Only>
0

> <s_lp_Force_Field>
OPLS_2005

> <r_lp_Energy>
7.99396

> <b_lp_Chiralities_Consistent>
1

> <s_lp_Variant>
AV-unprocessed.smi:526-2

> <Gold.Version>
5.8.1

> <Gold.Id.Protein>
6NUR|6NUR_protein|mol2

> <Gold.PLP.Fitness>
46.0034

> <Gold.PLP.PLP>
-34.8490

> <Gold.PLP.part.hbond>
-3.0589

> <Gold.PLP.part.metal>
0.0000

> <Gold.PLP.part.buried>
0.3045

> <Gold.PLP.part.nonpolar>
-31.6241

> <Gold.PLP.part.repulsive>
0.3419

> <Gold.PLP.ligand.clash>
0.0000

> <Gold.PLP.ligand.torsion>
0.4395

> <Gold.PLP.Chemscore.Hbond>
4.0000

> <Gold.PLP.Chemscore.CHOScore>
0.0000

> <Gold.PLP.Chemscore.Metal>
0.0000

> <Gold.Chemscore.Hbonds>
donor molecule, donor type, donor heavy atom, donor atom, acceptor molecule, acceptor atom, score
      L1  H     7    18       P1  8028  1.00
      P1  H  7997  8010       L1    16  0.63
      P1  H 10752 10763       L1    14  1.95

> <Gold.PLP.Chemscore.Internal.Correction>
0.0334

> <Gold.Rescore>
     Score         DG    S(hbond)    S(metal)    S(lipo)     H(rot)  DE(clash)    DE(int)     intcor
     16.50     -18.48       2.70        0.00      85.39       2.34       1.63       0.36       ----

> <Gold.Chemscore.Fitness>
16.4956

> <Gold.Chemscore.DG>
-18.4822

> <Gold.Chemscore.ZeroCoef>
-5.4800

> <Gold.Chemscore.Hbond>
2.6966

> <Gold.Chemscore.Metal>
0.0000

> <Gold.Chemscore.Lipo>
85.3941

> <Gold.Chemscore.Internal_Hbond>
0.0000

> <Gold.Chemscore.DEClash>
1.6311

> <Gold.Chemscore.DEInternal>
0.3556

> <Gold.Chemscore.Rot>
2.3420

> <Gold.Chemscore.Internal.Correction>
   9.000000E+99

> <Gold.Chemscore.Hbonds>
donor molecule, donor type, donor heavy atom, donor atom, acceptor molecule, acceptor atom, score
      L1  H     7    18       P1  8028  0.98
      P1  H  7997  8010       L1    16  0.14
      P1  H 10752 10763       L1    14  0.90

> <Gold.Chemscore.Hbond.Weighted>
-9.0066

> <Gold.Chemscore.Metal.Weighted>
-0.0000

> <Gold.Chemscore.Lipo.Weighted>
-9.9911

> <Gold.Chemscore.Internal_Hbond.Weighted>
0.0000

> <Gold.Chemscore.DEClash.Weighted>
1.6311

> <Gold.Chemscore.DEInternal.Weighted>
0.3556

> <Gold.Chemscore.Rot.Weighted>
5.9955

> <Gold.Chemscore.Internal.Correction.Weighted>
   9.000000E+99

> <Gold.Protein.RotatedTorsions>
[ 6907 6896 6895 6894 ] final  169.27 input  -60.11 | X-H torsion
[ 7974 7965 7964 7962 ] final   -9.17 input  175.53 | X-H torsion
[ 8008 7997 7996 7995 ] final   94.36 input   59.86 | X-H torsion
[ 10167 10162 10161 10158 ] final -119.97 input  -65.29 | X-H torsion
[ 10718 10713 10712 10709 ] final  -50.43 input   66.30 | X-H torsion
[ 10763 10752 10751 10750 ] final   38.72 input  -60.55 | X-H torsion
[ 11005 11000 10999 10996 ] final  -97.38 input  -57.11 | X-H torsion

> <Gold.Protein.ActiveResidues>
 VAL166  LYS551  ARG553  GLY616  TRP617  ASP618  TYR619  PRO620  LYS621  CYS622 
 ASP623  PHE694  ASN695  SER759  ASP760  ASP761  ALA762  ILE779  LEU786  VAL792 
 PHE793  MET794  SER795  GLU796  ALA797  LYS798  CYS799  TRP800  GLU811  SER814 

> <Gold.Protein.RotatedAtoms>
  151.8346  133.3414  159.3623 H   0  0  0  0  0  0  0  0  0  0  0  0  # atno 6907 bound_to 6896
  150.7254  134.5450  159.5775 H   0  0  0  0  0  0  0  0  0  0  0  0  # atno 6908 bound_to 6896
  152.2911  134.7721  160.0429 H   0  0  0  0  0  0  0  0  0  0  0  0  # atno 6909 bound_to 6896
  146.2259  140.2577  142.8350 H   0  0  0  0  0  0  0  0  0  0  0  0  # atno 7974 bound_to 7965
  156.0571  140.3301  155.7418 H   0  0  0  0  0  0  0  0  0  0  0  0  # atno 8008 bound_to 7997
  155.5513  140.0610  157.2867 H   0  0  0  0  0  0  0  0  0  0  0  0  # atno 8009 bound_to 7997
  154.4463  140.1893  156.0677 H   0  0  0  0  0  0  0  0  0  0  0  0  # atno 8010 bound_to 7997
  140.0409  143.5154  152.2130 H   0  0  0  0  0  0  0  0  0  0  0  0  # atno 10167 bound_to 10162
  156.1801  130.4150  149.9519 H   0  0  0  0  0  0  0  0  0  0  0  0  # atno 10718 bound_to 10713
  152.9991  135.6241  154.2350 H   0  0  0  0  0  0  0  0  0  0  0  0  # atno 10763 bound_to 10752
  154.2092  135.2800  155.2966 H   0  0  0  0  0  0  0  0  0  0  0  0  # atno 10764 bound_to 10752
  154.5621  135.5702  153.7075 H   0  0  0  0  0  0  0  0  0  0  0  0  # atno 10765 bound_to 10752
  141.1381  133.8166  157.0698 H   0  0  0  0  0  0  0  0  0  0  0  0  # atno 11005 bound_to 11000
  144.9363  140.8030  143.5658 LP  0  0  0  0  0  0  0  0  0  0  0  0  # atno 17320 bound_to 7965
  145.2525  139.2026  143.4935 LP  0  0  0  0  0  0  0  0  0  0  0  0  # atno 17321 bound_to 7965
  139.6014  144.7584  151.3162 LP  0  0  0  0  0  0  0  0  0  0  0  0  # atno 17342 bound_to 10162
  140.7260  143.7001  150.7852 LP  0  0  0  0  0  0  0  0  0  0  0  0  # atno 17343 bound_to 10162
  156.7292  130.9036  151.3624 LP  0  0  0  0  0  0  0  0  0  0  0  0  # atno 17370 bound_to 10713
  157.6862  130.9188  150.0394 LP  0  0  0  0  0  0  0  0  0  0  0  0  # atno 17371 bound_to 10713
  140.0518  134.9801  157.1150 LP  0  0  0  0  0  0  0  0  0  0  0  0  # atno 17394 bound_to 11000
  140.3978  134.2115  155.7164 LP  0  0  0  0  0  0  0  0  0  0  0  0  # atno 17395 bound_to 11000

$$$$
