#       Name:                AV-unprocessed.smi:2911
#       Creating user name   scv26
#       Creation time:       Fri Mar 27 16:07:01 2020


#       File generated by GOLD software.
#

@<TRIPOS>MOLECULE
AV-unprocessed.smi:2911
    47    48     1
SMALL
NO_CHARGES


@<TRIPOS>ATOM
      1 ****        -7.4598   0.4838   1.5996 C.3            1 S1                 0.0000
      2 ****        -6.1512   0.0270   1.0515 C.2            1 S1                 0.0000
      3 ****        -5.9032  -1.2602   0.8426 N.2            1 S1                 0.0000
      4 ****        -4.5956  -1.2592   0.3357 O.3            1 S1                 0.0000
      5 ****        -4.2220   0.0419   0.2802 C.2            1 S1                 0.0000
      6 ****        -2.8459   0.3785  -0.1871 C.3            1 S1                 0.0000
      7 ****        -1.8096   0.3179   0.9463 C.3            1 S1                 0.0000
      8 ****        -0.4797   0.6904   0.4781 N.am           1 S1                 0.0000
      9 ****         0.3618  -0.1164  -0.1906 C.2            1 S1                 0.0000
     10 ****         0.0565  -1.2673  -0.5038 O.2            1 S1                 0.0000
     11 ****         1.5032   0.5018  -0.5873 N.am           1 S1                 0.0000
     12 ****         2.2831   1.3310   0.3488 C.3            1 S1                 0.0000
     13 ****         3.3629   0.4560   1.0146 C.3            1 S1                 0.0000
     14 ****         4.2733  -0.2146  -0.0366 C.3            1 S1                 0.0000
     15 ****         5.2722  -1.1822   0.6127 C.3            1 S1                 0.0000
     16 ****         3.4391  -0.9081  -1.1357 C.3            1 S1                 0.0000
     17 ****         2.3650   0.0449  -1.6996 C.3            1 S1                 0.0000
     18 ****         1.6198  -0.5536  -2.9116 C.3            1 S1                 0.0000
     19 ****        -5.1460   0.8871   0.7306 N.2            1 S1                 0.0000
     20 ****        -8.1428   0.7265   0.7856 H              1 S1                 0.0000
     21 ****        -7.3255   1.3727   2.2165 H              1 S1                 0.0000
     22 ****        -7.9143  -0.2941   2.2142 H              1 S1                 0.0000
     23 ****        -2.5759  -0.3116  -0.9872 H              1 S1                 0.0000
     24 ****        -2.8634   1.3758  -0.6280 H              1 S1                 0.0000
     25 ****        -2.0915   1.0077   1.7421 H              1 S1                 0.0000
     26 ****        -1.7853  -0.6782   1.3916 H              1 S1                 0.0000
     27 ****        -0.1781   1.6358   0.6649 H              1 S1                 0.0000
     28 ****         2.7488   2.1564  -0.1914 H              1 S1                 0.0000
     29 ****         1.6725   1.8014   1.1202 H              1 S1                 0.0000
     30 ****         3.9623   1.0625   1.6943 H              1 S1                 0.0000
     31 ****         2.8815  -0.3079   1.6271 H              1 S1                 0.0000
     32 ****         4.8506   0.5764  -0.5177 H              1 S1                 0.0000
     33 ****         4.7595  -2.0035   1.1145 H              1 S1                 0.0000
     34 ****         5.8882  -0.6716   1.3533 H              1 S1                 0.0000
     35 ****         5.9415  -1.6133  -0.1323 H              1 S1                 0.0000
     36 ****         4.0974  -1.2438  -1.9379 H              1 S1                 0.0000
     37 ****         2.9618  -1.8029  -0.7331 H              1 S1                 0.0000
     38 ****         2.8750   0.9279  -2.0884 H              1 S1                 0.0000
     39 ****         2.2974  -0.6596  -3.7590 H              1 S1                 0.0000
     40 ****         0.8000   0.0906  -3.2308 H              1 S1                 0.0000
     41 ****         1.2167  -1.5453  -2.7085 H              1 S1                 0.0000
     42 ****        -6.5042  -2.0424   1.0071 LP             1 S1                 0.0000
     43 ****        -4.5758  -1.6664  -0.5774 LP             1 S1                 0.0000
     44 ****        -3.9867  -1.7707   0.9421 LP             1 S1                 0.0000
     45 ****        -0.8432  -1.6297  -0.2605 LP             1 S1                 0.0000
     46 ****         0.7082  -1.8397  -1.0014 LP             1 S1                 0.0000
     47 ****        -5.1113   1.8832   0.8114 LP             1 S1                 0.0000
@<TRIPOS>BOND
    1    1    2 1     
    2    1   20 1     
    3    1   21 1     
    4    1   22 1     
    5    2   19 1     
    6    2    3 2     
    7    3    4 1     
    8    4    5 1     
    9    5    6 1     
   10    5   19 2     
   11    6    7 1     
   12    6   23 1     
   13    6   24 1     
   14    7    8 1     
   15    7   25 1     
   16    7   26 1     
   17    8    9 am    
   18    8   27 1     
   19    9   10 2     
   20    9   11 am    
   21   11   17 1     
   22   11   12 1     
   23   12   13 1     
   24   12   28 1     
   25   12   29 1     
   26   13   14 1     
   27   13   30 1     
   28   13   31 1     
   29   14   15 1     
   30   14   16 1     
   31   14   32 1     
   32   15   33 1     
   33   15   34 1     
   34   15   35 1     
   35   16   17 1     
   36   16   36 1     
   37   16   37 1     
   38   17   18 1     
   39   17   38 1     
   40   18   39 1     
   41   18   40 1     
   42   18   41 1     
   43    3   42 1     
   44    4   43 1     
   45    4   44 1     
   46   10   45 1     
   47   10   46 1     
   48   19   47 1     
@<TRIPOS>SUBSTRUCTURE
      1 S1             1
@<TRIPOS>SET
LONE_PAIRS      STATIC     ATOMS    <user>   **** ""
6 42 43 44 45 46 47
DONOR_HYDROGENS      STATIC     ATOMS    <user>   **** ""
1 27
ATOM$BLUE        STATIC     ATOMS    COLORGROUP SYSTEM
6 42 43 44 45 46 47
ATOM$RED        STATIC     ATOMS    COLORGROUP SYSTEM
1 27
