AV-unprocessed.smi:3116|AV-procd|sdf|11865|dock8
  -GOLD-   2272017243D 1   1.00000     0.00000
 Structure written by MMmdl.
 34 34  0  0  0  0  0  0  0  0  2 V2000
  146.6189  137.4048  154.3781 C   0  0  0  0  0  0  0  0  0  0  0  0
  147.0369  138.5943  153.5004 C   0  0  1  0  0  0  0  0  0  0  0  0
  148.5116  138.6111  153.3558 N   0  3  0  0  0  0  0  0  0  0  0  0
  149.2851  138.9238  154.5834 C   0  0  1  0  0  0  0  0  0  0  0  0
  150.7922  138.8229  154.2795 C   0  0  0  0  0  0  0  0  0  0  0  0
  148.8774  140.3199  155.1236 C   0  0  2  0  0  0  0  0  0  0  0  0
  148.7530  141.3919  154.0239 C   0  0  0  0  0  0  0  0  0  0  0  0
  149.8113  140.7692  156.1512 N   0  0  0  0  0  0  0  0  0  0  0  0
  150.5397  141.9416  156.2106 C   0  0  0  0  0  0  0  0  0  0  0  0
  151.3054  141.8911  157.3398 C   0  0  0  0  0  0  0  0  0  0  0  0
  150.9854  140.6276  157.9088 C   0  0  0  0  0  0  0  0  0  0  0  0
  150.0986  139.9563  157.1920 N   0  0  0  0  0  0  0  0  0  0  0  0
  146.3389  138.5088  152.1355 C   0  0  0  0  0  0  0  0  0  0  0  0
  145.0181  138.3114  152.1379 N   0  0  0  0  0  0  0  0  0  0  0  0
  146.9827  138.6052  151.0925 O   0  0  0  0  0  0  0  0  0  0  0  0
  145.5377  137.3775  154.5210 H   0  0  0  0  0  0  0  0  0  0  0  0
  147.0751  137.4694  155.3665 H   0  0  0  0  0  0  0  0  0  0  0  0
  146.9200  136.4538  153.9362 H   0  0  0  0  0  0  0  0  0  0  0  0
  146.7208  139.5093  154.0031 H   0  0  0  0  0  0  0  0  0  0  0  0
  148.8202  137.7123  153.0142 H   0  0  0  0  0  0  0  0  0  0  0  0
  149.0389  138.1871  155.3497 H   0  0  0  0  0  0  0  0  0  0  0  0
  151.3941  138.9474  155.1793 H   0  0  0  0  0  0  0  0  0  0  0  0
  151.1026  139.5833  153.5621 H   0  0  0  0  0  0  0  0  0  0  0  0
  151.0549  137.8508  153.8629 H   0  0  0  0  0  0  0  0  0  0  0  0
  147.8949  140.2306  155.5919 H   0  0  0  0  0  0  0  0  0  0  0  0
  147.9266  141.1794  153.3461 H   0  0  0  0  0  0  0  0  0  0  0  0
  149.6627  141.4634  153.4272 H   0  0  0  0  0  0  0  0  0  0  0  0
  148.5605  142.3748  154.4558 H   0  0  0  0  0  0  0  0  0  0  0  0
  150.4571  142.7068  155.4530 H   0  0  0  0  0  0  0  0  0  0  0  0
  151.9947  142.6399  157.7012 H   0  0  0  0  0  0  0  0  0  0  0  0
  151.3722  140.1792  158.8121 H   0  0  0  0  0  0  0  0  0  0  0  0
  144.5098  138.2558  151.2670 H   0  0  0  0  0  0  0  0  0  0  0  0
  144.5272  138.2261  153.0168 H   0  0  0  0  0  0  0  0  0  0  0  0
  148.7328  139.3085  152.6580 H   0  0  0  0  0  0  0  0  0  0  0  0
  1  2  1  0  0  0  0
  1 16  1  0  0  0  0
  1 17  1  0  0  0  0
  1 18  1  0  0  0  0
  2  3  1  0  0  0  0
  2 13  1  0  0  0  0
  2 19  1  0  0  0  0
  3  4  1  0  0  0  0
  3 20  1  0  0  0  0
  3 34  1  0  0  0  0
  4  5  1  0  0  0  0
  4  6  1  0  0  0  0
  4 21  1  0  0  0  0
  5 22  1  0  0  0  0
  5 23  1  0  0  0  0
  5 24  1  0  0  0  0
  6  7  1  0  0  0  0
  6  8  1  0  0  0  0
  6 25  1  0  0  0  0
  7 26  1  0  0  0  0
  7 27  1  0  0  0  0
  7 28  1  0  0  0  0
  8 12  1  0  0  0  0
  8  9  1  0  0  0  0
  9 10  2  0  0  0  0
  9 29  1  0  0  0  0
 10 11  1  0  0  0  0
 10 30  1  0  0  0  0
 11 12  2  0  0  0  0
 11 31  1  0  0  0  0
 13 14  1  0  0  0  0
 13 15  2  0  0  0  0
 14 32  1  0  0  0  0
 14 33  1  0  0  0  0
M  CHG  1   3   1
M  END
> <s_m_source_file>
AV-unprocessed.smi

> <i_m_source_file_index>
3116

> <i_lp_mmshare_version>
43012

> <i_f3d_flags>
0

> <s_epik_input>
W05IMl1DKD1PKVtDQEhdKFtDSDNdKVtOSF1bQ0BIXShbQ0gzXSlbQ0BIXShbQ0gzXSluMVtjSF1bY0hdW2NIXW4x

> <s_epik_cmdline>
J2VwaWtfcHl0aG9uJywgJy1waCcsICc3LjAnLCAnLXRuJywgJzgnLCAnLW1hJywgJzIwMCcsICctbWV0YWxfYmluZGluZycsICctaW1hZScsICc8aW5maWxlLm1hZT4nLCAnLW9tYWUnLCAnPG91dGZpbGUubWFlPic=

> <r_lp_tautomer_probability>
1

> <r_epik_Ionization_Penalty>
0.15658

> <r_epik_Ionization_Penalty_Charging>
0.156568

> <r_epik_Ionization_Penalty_Neutral>
1.19778e-05

> <r_epik_State_Penalty>
0.145866

> <r_epik_Charging_Adjusted_Penalty>
0.302434

> <i_epik_Tot_Q>
1

> <i_epik_Tot_abs_Q>
1

> <r_epik_Metal_State_Penalty>
0.146064

> <b_epik_Metal_Only>
0

> <s_lp_Force_Field>
OPLS_2005

> <r_lp_Energy>
9.00386

> <b_lp_Chiralities_Consistent>
1

> <s_lp_Variant>
AV-unprocessed.smi:3116-4

> <Gold.Version>
5.8.1

> <Gold.Id.Protein>
6NUR|6NUR_protein|mol2

> <Gold.PLP.Fitness>
44.1243

> <Gold.PLP.PLP>
-26.9653

> <Gold.PLP.part.hbond>
-5.0000

> <Gold.PLP.part.metal>
0.0000

> <Gold.PLP.part.buried>
-3.5504

> <Gold.PLP.part.nonpolar>
-19.9439

> <Gold.PLP.part.repulsive>
1.4062

> <Gold.PLP.ligand.clash>
0.0000

> <Gold.PLP.ligand.torsion>
0.4773

> <Gold.PLP.Chemscore.Hbond>
5.0000

> <Gold.PLP.Chemscore.CHOScore>
0.9970

> <Gold.PLP.Chemscore.Metal>
0.0000

> <Gold.Chemscore.Hbonds>
donor molecule, donor type, donor heavy atom, donor atom, acceptor molecule, acceptor atom, score
      L1  H     3    20       P1  7948  2.00
      L1  H     3    34       P1  7957  1.00
      L1  H    14    32       P1 10171  1.00
      P1  H  7954  7966       L1    15  1.00
      L1  C     9    29       P1  8028  0.82

> <Gold.PLP.Chemscore.Internal.Correction>
0.1225

> <Gold.Rescore>
     Score         DG    S(hbond)    S(metal)    S(lipo)     H(rot)  DE(clash)    DE(int)     intcor
     18.03     -18.59       3.96        0.00      52.41       2.45       0.22       0.34       ----

> <Gold.Chemscore.Fitness>
18.0287

> <Gold.Chemscore.DG>
-18.5877

> <Gold.Chemscore.ZeroCoef>
-5.4800

> <Gold.Chemscore.Hbond>
3.9635

> <Gold.Chemscore.Metal>
0.0000

> <Gold.Chemscore.Lipo>
52.4148

> <Gold.Chemscore.Internal_Hbond>
0.0000

> <Gold.Chemscore.DEClash>
0.2240

> <Gold.Chemscore.DEInternal>
0.3350

> <Gold.Chemscore.Rot>
2.4465

> <Gold.Chemscore.Internal.Correction>
   9.000000E+99

> <Gold.Chemscore.Hbonds>
donor molecule, donor type, donor heavy atom, donor atom, acceptor molecule, acceptor atom, score
      L1  H     3    20       P1  7948  0.99
      L1  H     3    34       P1  7957  0.98
      L1  H    14    32       P1 10171  0.99
      P1  H  7954  7966       L1    15  0.95

> <Gold.Chemscore.Hbond.Weighted>
-13.2383

> <Gold.Chemscore.Metal.Weighted>
-0.0000

> <Gold.Chemscore.Lipo.Weighted>
-6.1325

> <Gold.Chemscore.Internal_Hbond.Weighted>
0.0000

> <Gold.Chemscore.DEClash.Weighted>
0.2240

> <Gold.Chemscore.DEInternal.Weighted>
0.3350

> <Gold.Chemscore.Rot.Weighted>
6.2631

> <Gold.Chemscore.Internal.Correction.Weighted>
   9.000000E+99

> <Gold.Protein.RotatedTorsions>
[ 6907 6896 6895 6894 ] final   80.48 input  -60.11 | X-H torsion
[ 7974 7965 7964 7962 ] final  130.05 input  175.53 | X-H torsion
[ 8008 7997 7996 7995 ] final   93.66 input   59.86 | X-H torsion
[ 10167 10162 10161 10158 ] final -107.65 input  -65.29 | X-H torsion
[ 10718 10713 10712 10709 ] final  107.12 input   66.30 | X-H torsion
[ 10763 10752 10751 10750 ] final  -75.76 input  -60.55 | X-H torsion
[ 11005 11000 10999 10996 ] final   54.76 input  -57.11 | X-H torsion

> <Gold.Protein.ActiveResidues>
 VAL166  LYS551  ARG553  GLY616  TRP617  ASP618  TYR619  PRO620  LYS621  CYS622 
 ASP623  PHE694  ASN695  SER759  ASP760  ASP761  ALA762  ILE779  LEU786  VAL792 
 PHE793  MET794  SER795  GLU796  ALA797  LYS798  CYS799  TRP800  GLU811  SER814 

> <Gold.Protein.RotatedAtoms>
  152.5236  134.3351  159.9196 H   0  0  0  0  0  0  0  0  0  0  0  0  # atno 6907 bound_to 6896
  151.3301  133.3998  159.2669 H   0  0  0  0  0  0  0  0  0  0  0  0  # atno 6908 bound_to 6896
  150.9888  134.9245  159.7945 H   0  0  0  0  0  0  0  0  0  0  0  0  # atno 6909 bound_to 6896
  145.0221  139.4123  143.5192 H   0  0  0  0  0  0  0  0  0  0  0  0  # atno 7974 bound_to 7965
  156.0492  140.3310  155.7332 H   0  0  0  0  0  0  0  0  0  0  0  0  # atno 8008 bound_to 7997
  155.5627  140.0620  157.2842 H   0  0  0  0  0  0  0  0  0  0  0  0  # atno 8009 bound_to 7997
  154.4428  140.1874  156.0787 H   0  0  0  0  0  0  0  0  0  0  0  0  # atno 8010 bound_to 7997
  140.1746  143.4015  152.1328 H   0  0  0  0  0  0  0  0  0  0  0  0  # atno 10167 bound_to 10162
  157.6641  131.0866  150.6109 H   0  0  0  0  0  0  0  0  0  0  0  0  # atno 10718 bound_to 10713
  154.4908  135.5820  153.6458 H   0  0  0  0  0  0  0  0  0  0  0  0  # atno 10763 bound_to 10752
  152.9862  135.6112  154.3127 H   0  0  0  0  0  0  0  0  0  0  0  0  # atno 10764 bound_to 10752
  154.3026  135.2846  155.2583 H   0  0  0  0  0  0  0  0  0  0  0  0  # atno 10765 bound_to 10752
  140.0660  134.5535  155.9098 H   0  0  0  0  0  0  0  0  0  0  0  0  # atno 11005 bound_to 11000
  146.3487  139.9724  142.8705 LP  0  0  0  0  0  0  0  0  0  0  0  0  # atno 17320 bound_to 7965
  145.1882  140.9799  143.4226 LP  0  0  0  0  0  0  0  0  0  0  0  0  # atno 17321 bound_to 7965
  139.5323  144.7172  151.5014 LP  0  0  0  0  0  0  0  0  0  0  0  0  # atno 17342 bound_to 10162
  140.6559  143.8599  150.6835 LP  0  0  0  0  0  0  0  0  0  0  0  0  # atno 17343 bound_to 10162
  156.6411  130.4458  149.5752 LP  0  0  0  0  0  0  0  0  0  0  0  0  # atno 17370 bound_to 10713
  156.2209  130.6736  151.1367 LP  0  0  0  0  0  0  0  0  0  0  0  0  # atno 17371 bound_to 10713
  141.1993  133.6606  156.5837 LP  0  0  0  0  0  0  0  0  0  0  0  0  # atno 17394 bound_to 11000
  140.3698  134.7616  157.4590 LP  0  0  0  0  0  0  0  0  0  0  0  0  # atno 17395 bound_to 11000

$$$$
