AV-unprocessed.smi:260|AV-procd|sdf|1980|dock8
  -GOLD-   2262021153D 1   1.00000     0.00000
 Structure written by MMmdl.
 53 56  0  0  0  0  0  0  0  0  1 V2000
  147.6138  132.7040  159.6749 C   0  0  0  0  0  0  0  0  0  0  0  0
  147.5664  133.3236  158.3597 N   0  0  0  0  0  0  0  0  0  0  0  0
  147.9638  134.5787  158.0959 C   0  0  0  0  0  0  0  0  0  0  0  0
  148.3963  135.3249  158.9757 O   0  0  0  0  0  0  0  0  0  0  0  0
  147.8635  135.0961  156.6365 C   0  0  2  0  0  0  0  0  0  0  0  0
  146.3837  135.0955  156.2064 C   0  0  0  0  0  0  0  0  0  0  0  0
  148.7614  134.3377  155.6323 C   0  0  0  0  0  0  0  0  0  0  0  0
  150.1498  134.9722  155.7891 C   0  0  0  0  0  0  0  0  0  0  0  0
  149.9098  136.2921  156.3545 N   0  0  0  0  0  0  0  0  0  0  0  0
  150.7627  137.3225  156.1207 C   0  0  0  0  0  0  0  0  0  0  0  0
  151.9347  137.0706  155.4792 N   0  0  0  0  0  0  0  0  0  0  0  0
  152.8002  138.0582  155.2331 C   0  0  0  0  0  0  0  0  0  0  0  0
  152.6939  139.3539  155.5315 N   0  0  0  0  0  0  0  0  0  0  0  0
  151.5145  139.6186  156.1622 C   0  0  0  0  0  0  0  0  0  0  0  0
  150.5004  138.6742  156.4923 C   0  0  0  0  0  0  0  0  0  0  0  0
  149.4425  139.3259  157.1184 N   0  0  0  0  0  0  0  0  0  0  0  0
  149.8142  140.5757  157.1649 C   0  0  0  0  0  0  0  0  0  0  0  0
  151.0470  140.8391  156.6145 N   0  0  0  0  0  0  0  0  0  0  0  0
  151.7091  142.1291  156.5315 C   0  0  0  0  0  0  0  0  0  0  0  0
  151.3493  143.0488  157.7151 C   0  0  2  0  0  0  0  0  0  0  0  0
  151.2617  144.3841  157.2541 O   0  0  0  0  0  0  0  0  0  0  0  0
  152.3888  142.9794  158.8494 C   0  0  1  0  0  0  0  0  0  0  0  0
  151.9803  143.7198  160.1254 C   0  0  0  0  0  0  0  0  0  0  0  0
  152.7857  142.9919  161.1761 C   0  0  0  0  0  0  0  0  0  0  0  0
  152.6959  141.5512  160.6851 C   0  0  0  0  0  0  0  0  0  0  0  0
  152.5850  141.6287  159.2662 O   0  0  0  0  0  0  0  0  0  0  0  0
  148.4792  136.5053  156.5360 C   0  0  0  0  0  0  0  0  0  0  0  0
  147.1802  131.7052  159.6304 H   0  0  0  0  0  0  0  0  0  0  0  0
  147.0496  133.2883  160.4030 H   0  0  0  0  0  0  0  0  0  0  0  0
  148.6438  132.6144  160.0219 H   0  0  0  0  0  0  0  0  0  0  0  0
  147.2181  132.7618  157.5966 H   0  0  0  0  0  0  0  0  0  0  0  0
  146.2613  135.5042  155.2030 H   0  0  0  0  0  0  0  0  0  0  0  0
  145.7681  135.6979  156.8763 H   0  0  0  0  0  0  0  0  0  0  0  0
  145.9751  134.0844  156.1987 H   0  0  0  0  0  0  0  0  0  0  0  0
  148.7753  133.2544  155.7551 H   0  0  0  0  0  0  0  0  0  0  0  0
  148.4064  134.5246  154.6178 H   0  0  0  0  0  0  0  0  0  0  0  0
  150.7621  134.3964  156.4836 H   0  0  0  0  0  0  0  0  0  0  0  0
  150.6685  135.0211  154.8310 H   0  0  0  0  0  0  0  0  0  0  0  0
  153.7079  137.7680  154.7247 H   0  0  0  0  0  0  0  0  0  0  0  0
  149.1967  141.3434  157.6077 H   0  0  0  0  0  0  0  0  0  0  0  0
  152.7850  141.9540  156.4996 H   0  0  0  0  0  0  0  0  0  0  0  0
  151.4426  142.5998  155.5841 H   0  0  0  0  0  0  0  0  0  0  0  0
  150.3718  142.7638  158.1070 H   0  0  0  0  0  0  0  0  0  0  0  0
  150.8813  144.3785  156.3892 H   0  0  0  0  0  0  0  0  0  0  0  0
  153.3518  143.3616  158.5063 H   0  0  0  0  0  0  0  0  0  0  0  0
  152.1960  144.7878  160.0857 H   0  0  0  0  0  0  0  0  0  0  0  0
  150.9143  143.5937  160.3208 H   0  0  0  0  0  0  0  0  0  0  0  0
  153.8216  143.3333  161.1578 H   0  0  0  0  0  0  0  0  0  0  0  0
  152.3973  143.1251  162.1863 H   0  0  0  0  0  0  0  0  0  0  0  0
  153.5571  140.9546  160.9869 H   0  0  0  0  0  0  0  0  0  0  0  0
  151.7977  141.0712  161.0751 H   0  0  0  0  0  0  0  0  0  0  0  0
  148.0801  137.0406  155.6730 H   0  0  0  0  0  0  0  0  0  0  0  0
  148.2851  137.1134  157.4208 H   0  0  0  0  0  0  0  0  0  0  0  0
  1  2  1  0  0  0  0
  1 28  1  0  0  0  0
  1 29  1  0  0  0  0
  1 30  1  0  0  0  0
  2  3  1  0  0  0  0
  2 31  1  0  0  0  0
  3  4  2  0  0  0  0
  3  5  1  0  0  0  0
  5 27  1  0  0  0  0
  5  6  1  0  0  0  0
  5  7  1  0  0  0  0
  6 32  1  0  0  0  0
  6 33  1  0  0  0  0
  6 34  1  0  0  0  0
  7  8  1  0  0  0  0
  7 35  1  0  0  0  0
  7 36  1  0  0  0  0
  8  9  1  0  0  0  0
  8 37  1  0  0  0  0
  8 38  1  0  0  0  0
  9 10  1  0  0  0  0
  9 27  1  0  0  0  0
 10 15  1  0  0  0  0
 10 11  2  0  0  0  0
 11 12  1  0  0  0  0
 12 13  2  0  0  0  0
 12 39  1  0  0  0  0
 13 14  1  0  0  0  0
 14 18  1  0  0  0  0
 14 15  2  0  0  0  0
 15 16  1  0  0  0  0
 16 17  2  0  0  0  0
 17 18  1  0  0  0  0
 17 40  1  0  0  0  0
 18 19  1  0  0  0  0
 19 20  1  0  0  0  0
 19 41  1  0  0  0  0
 19 42  1  0  0  0  0
 20 21  1  0  0  0  0
 20 22  1  0  0  0  0
 20 43  1  0  0  0  0
 21 44  1  0  0  0  0
 22 26  1  0  0  0  0
 22 23  1  0  0  0  0
 22 45  1  0  0  0  0
 23 24  1  0  0  0  0
 23 46  1  0  0  0  0
 23 47  1  0  0  0  0
 24 25  1  0  0  0  0
 24 48  1  0  0  0  0
 24 49  1  0  0  0  0
 25 26  1  0  0  0  0
 25 50  1  0  0  0  0
 25 51  1  0  0  0  0
 27 52  1  0  0  0  0
 27 53  1  0  0  0  0
M  END
> <s_m_source_file>
AV-unprocessed.smi

> <i_m_source_file_index>
260

> <i_lp_mmshare_version>
43012

> <i_f3d_flags>
0

> <s_epik_input>
W0NIM11bTkhdQyg9TylbQ0BAXTEoW0NIM10pW0NIMl1bQ0gyXU4oW0NIMl0xKWMobltjSF1uMiljKGMyMyluW2NIXW4zW0NIMl1bQ0BIXShbT0hdKVtDQEBIXTRbQ0gyXVtDSDJdW0NIMl1PNA==

> <s_epik_cmdline>
J2VwaWtfcHl0aG9uJywgJy1waCcsICc3LjAnLCAnLXRuJywgJzgnLCAnLW1hJywgJzIwMCcsICctbWV0YWxfYmluZGluZycsICctaW1hZScsICc8aW5maWxlLm1hZT4nLCAnLW9tYWUnLCAnPG91dGZpbGUubWFlPic=

> <r_lp_tautomer_probability>
1

> <r_epik_Ionization_Penalty>
0.00115068

> <r_epik_Ionization_Penalty_Charging>
0

> <r_epik_Ionization_Penalty_Neutral>
0.00115068

> <r_epik_State_Penalty>
0.000668876

> <r_epik_Charging_Adjusted_Penalty>
0.000668876

> <i_epik_Tot_Q>
0

> <i_epik_Tot_abs_Q>
0

> <r_epik_Metal_State_Penalty>
-0

> <b_epik_Metal_Only>
0

> <s_lp_Force_Field>
OPLS_2005

> <r_lp_Energy>
49.109

> <b_lp_Chiralities_Consistent>
1

> <s_lp_Variant>
AV-unprocessed.smi:260-6

> <Gold.Version>
5.8.1

> <Gold.Id.Protein>
6NUR|6NUR_protein|mol2

> <Gold.PLP.Fitness>
51.8279

> <Gold.PLP.PLP>
-41.6712

> <Gold.PLP.part.hbond>
-5.0000

> <Gold.PLP.part.metal>
0.0000

> <Gold.PLP.part.buried>
-7.2298

> <Gold.PLP.part.nonpolar>
-29.7459

> <Gold.PLP.part.repulsive>
0.1664

> <Gold.PLP.ligand.clash>
0.0000

> <Gold.PLP.ligand.torsion>
1.0889

> <Gold.PLP.Chemscore.Hbond>
4.0019

> <Gold.PLP.Chemscore.CHOScore>
0.0000

> <Gold.PLP.Chemscore.Metal>
0.0000

> <Gold.Chemscore.Hbonds>
donor molecule, donor type, donor heavy atom, donor atom, acceptor molecule, acceptor atom, score
      L1  H    21    44       P1  8028  0.51
      P1  H  7997  8008       L1    13  1.00
      P1  H 10752 10763       L1    11  0.50

> <Gold.PLP.Chemscore.Internal.Correction>
0.3290

> <Gold.Rescore>
     Score         DG    S(hbond)    S(metal)    S(lipo)     H(rot)  DE(clash)    DE(int)     intcor
     16.28     -19.76       3.22        0.00      85.44       2.53       1.43       2.04       ----

> <Gold.Chemscore.Fitness>
16.2841

> <Gold.Chemscore.DG>
-19.7588

> <Gold.Chemscore.ZeroCoef>
-5.4800

> <Gold.Chemscore.Hbond>
3.2181

> <Gold.Chemscore.Metal>
0.0000

> <Gold.Chemscore.Lipo>
85.4423

> <Gold.Chemscore.Internal_Hbond>
0.0000

> <Gold.Chemscore.DEClash>
1.4327

> <Gold.Chemscore.DEInternal>
2.0421

> <Gold.Chemscore.Rot>
2.5259

> <Gold.Chemscore.Internal.Correction>
   9.000000E+99

> <Gold.Chemscore.Hbonds>
donor molecule, donor type, donor heavy atom, donor atom, acceptor molecule, acceptor atom, score
      L1  H    21    44       P1  8028  0.51
      P1  H  6896  6908       L1     4  0.03
      P1  H  7997  8008       L1    13  0.83
      P1  H 10752 10763       L1    11  0.06

> <Gold.Chemscore.Hbond.Weighted>
-10.7484

> <Gold.Chemscore.Metal.Weighted>
-0.0000

> <Gold.Chemscore.Lipo.Weighted>
-9.9967

> <Gold.Chemscore.Internal_Hbond.Weighted>
0.0000

> <Gold.Chemscore.DEClash.Weighted>
1.4327

> <Gold.Chemscore.DEInternal.Weighted>
2.0421

> <Gold.Chemscore.Rot.Weighted>
6.4663

> <Gold.Chemscore.Internal.Correction.Weighted>
   9.000000E+99

> <Gold.Protein.RotatedTorsions>
[ 6907 6896 6895 6894 ] final  168.36 input  -60.11 | X-H torsion
[ 7974 7965 7964 7962 ] final  -99.34 input  175.53 | X-H torsion
[ 8008 7997 7996 7995 ] final  -33.04 input   59.86 | X-H torsion
[ 10167 10162 10161 10158 ] final  -21.69 input  -65.29 | X-H torsion
[ 10718 10713 10712 10709 ] final -149.14 input   66.30 | X-H torsion
[ 10763 10752 10751 10750 ] final   44.47 input  -60.55 | X-H torsion
[ 11005 11000 10999 10996 ] final  -31.72 input  -57.11 | X-H torsion

> <Gold.Protein.ActiveResidues>
 VAL166  LYS551  ARG553  GLY616  TRP617  ASP618  TYR619  PRO620  LYS621  CYS622 
 ASP623  PHE694  ASN695  SER759  ASP760  ASP761  ALA762  ILE779  LEU786  VAL792 
 PHE793  MET794  SER795  GLU796  ALA797  LYS798  CYS799  TRP800  GLU811  SER814 

> <Gold.Protein.RotatedAtoms>
  151.8489  133.3436  159.3666 H   0  0  0  0  0  0  0  0  0  0  0  0  # atno 6907 bound_to 6896
  150.7212  134.5318  159.5713 H   0  0  0  0  0  0  0  0  0  0  0  0  # atno 6908 bound_to 6896
  152.2808  134.7832  160.0448 H   0  0  0  0  0  0  0  0  0  0  0  0  # atno 6909 bound_to 6896
  145.3089  140.9395  143.2781 H   0  0  0  0  0  0  0  0  0  0  0  0  # atno 7974 bound_to 7965
  154.4161  140.1721  156.1824 H   0  0  0  0  0  0  0  0  0  0  0  0  # atno 8008 bound_to 7997
  155.9671  140.3389  155.6518 H   0  0  0  0  0  0  0  0  0  0  0  0  # atno 8009 bound_to 7997
  155.6674  140.0708  157.2523 H   0  0  0  0  0  0  0  0  0  0  0  0  # atno 8010 bound_to 7997
  140.7283  143.4604  151.0388 H   0  0  0  0  0  0  0  0  0  0  0  0  # atno 10167 bound_to 10162
  156.4292  130.8067  151.2293 H   0  0  0  0  0  0  0  0  0  0  0  0  # atno 10718 bound_to 10713
  152.9840  135.6069  154.3279 H   0  0  0  0  0  0  0  0  0  0  0  0  # atno 10763 bound_to 10752
  154.2984  135.2773  155.2624 H   0  0  0  0  0  0  0  0  0  0  0  0  # atno 10764 bound_to 10752
  154.4887  135.5898  153.6499 H   0  0  0  0  0  0  0  0  0  0  0  0  # atno 10765 bound_to 10752
  140.9492  133.7231  156.1193 H   0  0  0  0  0  0  0  0  0  0  0  0  # atno 11005 bound_to 11000
  144.9032  139.4623  143.6622 LP  0  0  0  0  0  0  0  0  0  0  0  0  # atno 17320 bound_to 7965
  146.3125  139.7798  142.9009 LP  0  0  0  0  0  0  0  0  0  0  0  0  # atno 17321 bound_to 7965
  139.8288  143.7719  152.3179 LP  0  0  0  0  0  0  0  0  0  0  0  0  # atno 17342 bound_to 10162
  139.7827  144.7438  151.0065 LP  0  0  0  0  0  0  0  0  0  0  0  0  # atno 17343 bound_to 10162
  157.7508  131.0203  150.3705 LP  0  0  0  0  0  0  0  0  0  0  0  0  # atno 17370 bound_to 10713
  156.4039  130.3921  149.6940 LP  0  0  0  0  0  0  0  0  0  0  0  0  # atno 17371 bound_to 10713
  140.7627  134.3921  157.5523 LP  0  0  0  0  0  0  0  0  0  0  0  0  # atno 17394 bound_to 11000
  139.8842  134.8971  156.2717 LP  0  0  0  0  0  0  0  0  0  0  0  0  # atno 17395 bound_to 11000

$$$$
