#       Name:                AV-unprocessed.smi:2143
#       Creating user name   scv26
#       Creation time:       Fri Mar 27 11:49:24 2020


#       File generated by GOLD software.
#

@<TRIPOS>MOLECULE
AV-unprocessed.smi:2143
    50    51     1
SMALL
NO_CHARGES


@<TRIPOS>ATOM
      1 ****        -4.4741  -0.5448   0.4366 C.3            1 S1                 0.0000
      2 ****        -3.7757  -1.6739  -0.3491 C.3            1 S1                 0.0000
      3 ****        -4.0127  -1.5393  -1.8669 C.3            1 S1                 0.0000
      4 ****        -3.2118  -0.3797  -2.4789 C.3            1 S1                 0.0000
      5 ****        -1.7140  -0.5235  -2.1778 C.3            1 S1                 0.0000
      6 ****        -1.4392  -0.6519  -0.6669 C.3            1 S1                 0.0000
      7 ****        -0.0039  -0.8566  -0.4743 N.am           1 S1                 0.0000
      8 ****         0.7879  -0.1612   0.3569 C.2            1 S1                 0.0000
      9 ****         0.3761   0.7306   1.1003 O.2            1 S1                 0.0000
     10 ****         2.2699  -0.5602   0.3572 C.3            1 S1                 0.0000
     11 ****         3.1554   0.5073   0.8398 N.am           1 S1                 0.0000
     12 ****         3.6130   0.4805   2.1445 C.2            1 S1                 0.0000
     13 ****         4.4137   1.4318   2.6726 C.2            1 S1                 0.0000
     14 ****         4.8534   2.5691   1.8733 C.2            1 S1                 0.0000
     15 ****         5.5648   3.4689   2.3212 O.2            1 S1                 0.0000
     16 ****         4.3841   2.5637   0.5377 N.am           1 S1                 0.0000
     17 ****         4.7509   3.6647  -0.3289 C.3            1 S1                 0.0000
     18 ****         3.5338   1.5739  -0.0040 C.2            1 S1                 0.0000
     19 ****         3.1236   1.6312  -1.1661 O.2            1 S1                 0.0000
     20 ****        -2.2592  -1.8151  -0.0465 C.3            1 S1                 0.0000
     21 ****        -1.9805  -2.0247   1.4551 C.3            1 S1                 0.0000
     22 ****        -4.0305   0.4308   0.2402 H              1 S1                 0.0000
     23 ****        -4.4288  -0.7173   1.5116 H              1 S1                 0.0000
     24 ****        -5.5298  -0.4830   0.1709 H              1 S1                 0.0000
     25 ****        -4.2568  -2.6024  -0.0384 H              1 S1                 0.0000
     26 ****        -3.7227  -2.4688  -2.3588 H              1 S1                 0.0000
     27 ****        -5.0753  -1.4086  -2.0744 H              1 S1                 0.0000
     28 ****        -3.3695  -0.3506  -3.5573 H              1 S1                 0.0000
     29 ****        -3.5757   0.5725  -2.0923 H              1 S1                 0.0000
     30 ****        -1.3285  -1.4016  -2.6986 H              1 S1                 0.0000
     31 ****        -1.1764   0.3346  -2.5832 H              1 S1                 0.0000
     32 ****        -1.7434   0.2825  -0.1932 H              1 S1                 0.0000
     33 ****         0.4259  -1.5779  -1.0350 H              1 S1                 0.0000
     34 ****         2.3823  -1.4479   0.9810 H              1 S1                 0.0000
     35 ****         2.5694  -0.8658  -0.6470 H              1 S1                 0.0000
     36 ****         3.3113  -0.3398   2.7798 H              1 S1                 0.0000
     37 ****         4.7302   1.3523   3.7023 H              1 S1                 0.0000
     38 ****         4.9643   3.2693  -1.3235 H              1 S1                 0.0000
     39 ****         5.6505   4.1577   0.0402 H              1 S1                 0.0000
     40 ****         3.9030   4.3510  -0.3448 H              1 S1                 0.0000
     41 ****        -1.9335  -2.7311  -0.5426 H              1 S1                 0.0000
     42 ****        -2.1470  -1.1110   2.0260 H              1 S1                 0.0000
     43 ****        -0.9506  -2.3358   1.6301 H              1 S1                 0.0000
     44 ****        -2.6236  -2.8013   1.8698 H              1 S1                 0.0000
     45 ****        -0.5950   0.9693   1.1047 LP             1 S1                 0.0000
     46 ****         1.0129   1.2159   1.6994 LP             1 S1                 0.0000
     47 ****         5.8673   3.4398   3.2740 LP             1 S1                 0.0000
     48 ****         5.8401   4.2288   1.7322 LP             1 S1                 0.0000
     49 ****         2.5174   0.9181  -1.5181 LP             1 S1                 0.0000
     50 ****         3.3973   2.3908  -1.7560 LP             1 S1                 0.0000
@<TRIPOS>BOND
    1    1    2 1     
    2    1   22 1     
    3    1   23 1     
    4    1   24 1     
    5    2   20 1     
    6    2    3 1     
    7    2   25 1     
    8    3    4 1     
    9    3   26 1     
   10    3   27 1     
   11    4    5 1     
   12    4   28 1     
   13    4   29 1     
   14    5    6 1     
   15    5   30 1     
   16    5   31 1     
   17    6    7 1     
   18    6   20 1     
   19    6   32 1     
   20    7    8 am    
   21    7   33 1     
   22    8    9 2     
   23    8   10 1     
   24   10   11 1     
   25   10   34 1     
   26   10   35 1     
   27   11   18 am    
   28   11   12 1     
   29   12   13 2     
   30   12   36 1     
   31   13   14 1     
   32   13   37 1     
   33   14   15 2     
   34   14   16 am    
   35   16   17 1     
   36   16   18 am    
   37   17   38 1     
   38   17   39 1     
   39   17   40 1     
   40   18   19 2     
   41   20   21 1     
   42   20   41 1     
   43   21   42 1     
   44   21   43 1     
   45   21   44 1     
   46    9   45 1     
   47    9   46 1     
   48   15   47 1     
   49   15   48 1     
   50   19   49 1     
   51   19   50 1     
@<TRIPOS>SUBSTRUCTURE
      1 S1             1
@<TRIPOS>SET
LONE_PAIRS      STATIC     ATOMS    <user>   **** ""
6 45 46 47 48 49 50
DONOR_HYDROGENS      STATIC     ATOMS    <user>   **** ""
1 33
ATOM$BLUE        STATIC     ATOMS    COLORGROUP SYSTEM
6 45 46 47 48 49 50
ATOM$RED        STATIC     ATOMS    COLORGROUP SYSTEM
1 33
