#       Name:                AV-unprocessed.smi:1824
#       Creating user name   scv26
#       Creation time:       Fri Mar 27 09:06:32 2020


#       File generated by GOLD software.
#

@<TRIPOS>MOLECULE
AV-unprocessed.smi:1824
    50    52     1
SMALL
NO_CHARGES


@<TRIPOS>ATOM
      1 ****        -4.9939   2.0043   1.3346 C.3            1 S1                 0.0000
      2 ****        -3.5294   1.9562   0.8862 C.3            1 S1                 0.0000
      3 ****        -3.0482   0.5169   0.6218 C.3            1 S1                 0.0000
      4 ****        -1.6779   0.4794   0.1231 N.3            1 S1                 0.0000
      5 ****        -1.2431  -0.8981  -0.1096 C.3            1 S1                 0.0000
      6 ****         0.2577  -1.0706  -0.4260 C.3            1 S1                 0.0000
      7 ****         0.4389  -1.0536  -1.8294 O.3            1 S1                 0.0000
      8 ****         0.8117  -2.4004   0.1227 C.3            1 S1                 0.0000
      9 ****         2.2277  -2.5690  -0.1526 N.pl3          1 S1                 0.0000
     10 ****         2.7853  -3.3395  -1.1065 C.2            1 S1                 0.0000
     11 ****         4.1132  -3.3470  -1.1843 N.2            1 S1                 0.0000
     12 ****         4.4581  -2.4811  -0.1609 C.ar           1 S1                 0.0000
     13 ****         5.7271  -2.0518   0.2893 C.ar           1 S1                 0.0000
     14 ****         5.8356  -1.1496   1.3681 C.ar           1 S1                 0.0000
     15 ****         7.0595  -0.7490   1.7868 F              1 S1                 0.0000
     16 ****         4.6782  -0.6636   2.0121 C.ar           1 S1                 0.0000
     17 ****         4.7911   0.2031   3.0463 F              1 S1                 0.0000
     18 ****         3.4030  -1.0777   1.5818 C.ar           1 S1                 0.0000
     19 ****         3.3001  -1.9775   0.5051 C.ar           1 S1                 0.0000
     20 ****        -1.5882   1.3098  -1.0750 C.3            1 S1                 0.0000
     21 ****        -2.0706   2.7504  -0.8175 C.3            1 S1                 0.0000
     22 ****        -2.0595   3.6005  -2.0919 C.3            1 S1                 0.0000
     23 ****        -3.4026   2.7145  -0.3133 O.3            1 S1                 0.0000
     24 ****        -5.1399   1.4426   2.2576 H              1 S1                 0.0000
     25 ****        -5.6528   1.5807   0.5764 H              1 S1                 0.0000
     26 ****        -5.3121   3.0311   1.5168 H              1 S1                 0.0000
     27 ****        -2.9105   2.4127   1.6605 H              1 S1                 0.0000
     28 ****        -3.1201  -0.0605   1.5443 H              1 S1                 0.0000
     29 ****        -3.7148   0.0381  -0.0976 H              1 S1                 0.0000
     30 ****        -1.4491  -1.4616   0.8014 H              1 S1                 0.0000
     31 ****        -1.8542  -1.3687  -0.8819 H              1 S1                 0.0000
     32 ****         0.8252  -0.2478   0.0113 H              1 S1                 0.0000
     33 ****         0.1316  -0.2234  -2.1598 H              1 S1                 0.0000
     34 ****         0.6710  -2.4503   1.2031 H              1 S1                 0.0000
     35 ****         0.2683  -3.2458  -0.3024 H              1 S1                 0.0000
     36 ****         2.1818  -3.9259  -1.7841 H              1 S1                 0.0000
     37 ****         6.6196  -2.4170  -0.1964 H              1 S1                 0.0000
     38 ****         2.5152  -0.7073   2.0723 H              1 S1                 0.0000
     39 ****        -0.5580   1.3472  -1.4282 H              1 S1                 0.0000
     40 ****        -2.1794   0.8649  -1.8770 H              1 S1                 0.0000
     41 ****        -1.4255   3.2238  -0.0753 H              1 S1                 0.0000
     42 ****        -1.0548   3.6673  -2.5101 H              1 S1                 0.0000
     43 ****        -2.4016   4.6150  -1.8863 H              1 S1                 0.0000
     44 ****        -2.7130   3.1767  -2.8548 H              1 S1                 0.0000
     45 ****        -1.0532   0.8529   0.8088 LP             1 S1                 0.0000
     46 ****        -0.0836  -1.7973  -2.2464 LP             1 S1                 0.0000
     47 ****         1.4087  -1.1652  -2.0461 LP             1 S1                 0.0000
     48 ****         4.7061  -3.8466  -1.8158 LP             1 S1                 0.0000
     49 ****        -3.6979   3.6520  -0.1292 LP             1 S1                 0.0000
     50 ****        -3.9950   2.3091  -1.0095 LP             1 S1                 0.0000
@<TRIPOS>BOND
    1    1    2 1     
    2    1   24 1     
    3    1   25 1     
    4    1   26 1     
    5    2   23 1     
    6    2    3 1     
    7    2   27 1     
    8    3    4 1     
    9    3   28 1     
   10    3   29 1     
   11    4    5 1     
   12    4   20 1     
   13    5    6 1     
   14    5   30 1     
   15    5   31 1     
   16    6    7 1     
   17    6    8 1     
   18    6   32 1     
   19    7   33 1     
   20    8    9 1     
   21    8   34 1     
   22    8   35 1     
   23    9   19 1     
   24    9   10 1     
   25   10   11 2     
   26   10   36 1     
   27   11   12 1     
   28   12   19 ar    
   29   12   13 ar    
   30   13   14 ar    
   31   13   37 1     
   32   14   15 1     
   33   14   16 ar    
   34   16   17 1     
   35   16   18 ar    
   36   18   19 ar    
   37   18   38 1     
   38   20   21 1     
   39   20   39 1     
   40   20   40 1     
   41   21   22 1     
   42   21   23 1     
   43   21   41 1     
   44   22   42 1     
   45   22   43 1     
   46   22   44 1     
   47    4   45 1     
   48    7   46 1     
   49    7   47 1     
   50   11   48 1     
   51   23   49 1     
   52   23   50 1     
@<TRIPOS>SUBSTRUCTURE
      1 S1             1
@<TRIPOS>SET
LONE_PAIRS      STATIC     ATOMS    <user>   **** ""
6 45 46 47 48 49 50
DONOR_HYDROGENS      STATIC     ATOMS    <user>   **** ""
1 33
ATOM$BLUE        STATIC     ATOMS    COLORGROUP SYSTEM
6 45 46 47 48 49 50
ATOM$RED        STATIC     ATOMS    COLORGROUP SYSTEM
1 33
