AV-unprocessed.smi:24|AV-procd|sdf|177|dock9
  -GOLD-   2262015433D 1   1.00000     0.00000
 Structure written by MMmdl.
 61 65  0  0  0  0  0  0  0  0  1 V2000
  152.3440  139.3689  155.5652 C   0  0  0  0  0  0  0  0  0  0  0  0
  152.4727  138.2311  156.4050 O   0  0  0  0  0  0  0  0  0  0  0  0
  151.9371  137.0384  155.9682 C   0  0  0  0  0  0  0  0  0  0  0  0
  152.1855  135.8973  156.7572 C   0  0  0  0  0  0  0  0  0  0  0  0
  151.6762  134.6386  156.3867 C   0  0  0  0  0  0  0  0  0  0  0  0
  150.9111  134.4982  155.2082 C   0  0  0  0  0  0  0  0  0  0  0  0
  150.3385  133.1457  154.7855 C   0  0  2  0  0  0  0  0  0  0  0  0
  149.6356  133.2199  153.4273 C   0  0  0  0  0  0  0  0  0  0  0  0
  148.2637  132.7454  153.7714 C   0  0  0  0  0  0  0  0  0  0  0  0
  147.1910  132.6631  152.7556 C   0  0  0  0  0  0  0  0  0  0  0  0
  147.4013  133.2267  151.4762 C   0  0  0  0  0  0  0  0  0  0  0  0
  146.3785  133.1536  150.5104 C   0  0  0  0  0  0  0  0  0  0  0  0
  145.1565  132.5242  150.8199 C   0  0  0  0  0  0  0  0  0  0  0  0
  144.9516  131.9642  152.0966 C   0  0  0  0  0  0  0  0  0  0  0  0
  145.9673  132.0301  153.0707 C   0  0  0  0  0  0  0  0  0  0  0  0
  148.1196  132.4292  155.0048 N   0  0  0  0  0  0  0  0  0  0  0  0
  149.2896  132.6137  155.6661 N   0  0  0  0  0  0  0  0  0  0  0  0
  149.4783  132.2451  156.9527 C   0  0  0  0  0  0  0  0  0  0  0  0
  150.5851  132.3038  157.4914 O   0  0  0  0  0  0  0  0  0  0  0  0
  148.2606  131.7323  157.7505 C   0  0  0  0  0  0  0  0  0  0  0  0
  148.4867  131.6922  159.2121 N   0  0  0  0  0  0  0  0  0  0  0  0
  147.9443  132.7317  160.0067 C   0  0  0  0  0  0  0  0  0  0  0  0
  147.3092  133.6585  159.5010 O   0  0  0  0  0  0  0  0  0  0  0  0
  148.1890  132.6194  161.4389 C   0  0  0  0  0  0  0  0  0  0  0  0
  147.6654  133.5299  162.2770 F   0  0  0  0  0  0  0  0  0  0  0  0
  148.9190  131.6029  161.9417 C   0  0  0  0  0  0  0  0  0  0  0  0
  149.4957  130.6235  161.1496 N   0  0  0  0  0  0  0  0  0  0  0  0
  150.2597  129.4419  161.7295 C   0  0  1  0  0  0  0  0  0  0  0  0
  151.7543  129.4239  161.3836 C   0  0  0  0  0  0  0  0  0  0  0  0
  152.4046  130.0735  162.6022 C   0  0  0  0  0  0  0  0  0  0  0  0
  151.2422  130.3678  163.5569 C   0  0  0  0  0  0  0  0  0  0  0  0
  150.1955  129.5127  163.1181 O   0  0  0  0  0  0  0  0  0  0  0  0
  149.2516  130.6333  159.7573 C   0  0  0  0  0  0  0  0  0  0  0  0
  149.7018  129.7424  159.0334 O   0  0  0  0  0  0  0  0  0  0  0  0
  150.6526  135.6368  154.4187 C   0  0  0  0  0  0  0  0  0  0  0  0
  151.1610  136.8966  154.7909 C   0  0  0  0  0  0  0  0  0  0  0  0
  152.8186  140.2250  156.0446 H   0  0  0  0  0  0  0  0  0  0  0  0
  151.2968  139.6235  155.3972 H   0  0  0  0  0  0  0  0  0  0  0  0
  152.8373  139.2138  154.6049 H   0  0  0  0  0  0  0  0  0  0  0  0
  152.7729  135.9878  157.6592 H   0  0  0  0  0  0  0  0  0  0  0  0
  151.8777  133.7835  157.0150 H   0  0  0  0  0  0  0  0  0  0  0  0
  151.1484  132.4151  154.7369 H   0  0  0  0  0  0  0  0  0  0  0  0
  149.6083  134.2346  153.0275 H   0  0  0  0  0  0  0  0  0  0  0  0
  150.1112  132.5667  152.6948 H   0  0  0  0  0  0  0  0  0  0  0  0
  148.3312  133.7137  151.2200 H   0  0  0  0  0  0  0  0  0  0  0  0
  146.5313  133.5819  149.5308 H   0  0  0  0  0  0  0  0  0  0  0  0
  144.3745  132.4708  150.0767 H   0  0  0  0  0  0  0  0  0  0  0  0
  144.0126  131.4838  152.3291 H   0  0  0  0  0  0  0  0  0  0  0  0
  145.7853  131.5947  154.0419 H   0  0  0  0  0  0  0  0  0  0  0  0
  147.3976  132.3601  157.5224 H   0  0  0  0  0  0  0  0  0  0  0  0
  147.9830  130.7495  157.3661 H   0  0  0  0  0  0  0  0  0  0  0  0
  149.0349  131.5697  163.0133 H   0  0  0  0  0  0  0  0  0  0  0  0
  149.7537  128.5537  161.3480 H   0  0  0  0  0  0  0  0  0  0  0  0
  152.0727  128.3835  161.3119 H   0  0  0  0  0  0  0  0  0  0  0  0
  151.9735  129.9010  160.4287 H   0  0  0  0  0  0  0  0  0  0  0  0
  153.1128  129.3826  163.0605 H   0  0  0  0  0  0  0  0  0  0  0  0
  152.9474  130.9834  162.3452 H   0  0  0  0  0  0  0  0  0  0  0  0
  151.4991  130.1766  164.5989 H   0  0  0  0  0  0  0  0  0  0  0  0
  150.9249  131.4082  163.4759 H   0  0  0  0  0  0  0  0  0  0  0  0
  150.0617  135.5479  153.5189 H   0  0  0  0  0  0  0  0  0  0  0  0
  150.9404  137.7399  154.1548 H   0  0  0  0  0  0  0  0  0  0  0  0
  1  2  1  0  0  0  0
  1 37  1  0  0  0  0
  1 38  1  0  0  0  0
  1 39  1  0  0  0  0
  2  3  1  0  0  0  0
  3 36  1  0  0  0  0
  3  4  2  0  0  0  0
  4  5  1  0  0  0  0
  4 40  1  0  0  0  0
  5  6  2  0  0  0  0
  5 41  1  0  0  0  0
  6  7  1  0  0  0  0
  6 35  1  0  0  0  0
  7 17  1  0  0  0  0
  7  8  1  0  0  0  0
  7 42  1  0  0  0  0
  8  9  1  0  0  0  0
  8 43  1  0  0  0  0
  8 44  1  0  0  0  0
  9 10  1  0  0  0  0
  9 16  2  0  0  0  0
 10 15  1  0  0  0  0
 10 11  2  0  0  0  0
 11 12  1  0  0  0  0
 11 45  1  0  0  0  0
 12 13  2  0  0  0  0
 12 46  1  0  0  0  0
 13 14  1  0  0  0  0
 13 47  1  0  0  0  0
 14 15  2  0  0  0  0
 14 48  1  0  0  0  0
 15 49  1  0  0  0  0
 16 17  1  0  0  0  0
 17 18  1  0  0  0  0
 18 19  2  0  0  0  0
 18 20  1  0  0  0  0
 20 21  1  0  0  0  0
 20 50  1  0  0  0  0
 20 51  1  0  0  0  0
 21 33  1  0  0  0  0
 21 22  1  0  0  0  0
 22 23  2  0  0  0  0
 22 24  1  0  0  0  0
 24 25  1  0  0  0  0
 24 26  2  0  0  0  0
 26 27  1  0  0  0  0
 26 52  1  0  0  0  0
 27 28  1  0  0  0  0
 27 33  1  0  0  0  0
 28 32  1  0  0  0  0
 28 29  1  0  0  0  0
 28 53  1  0  0  0  0
 29 30  1  0  0  0  0
 29 54  1  0  0  0  0
 29 55  1  0  0  0  0
 30 31  1  0  0  0  0
 30 56  1  0  0  0  0
 30 57  1  0  0  0  0
 31 32  1  0  0  0  0
 31 58  1  0  0  0  0
 31 59  1  0  0  0  0
 33 34  2  0  0  0  0
 35 36  2  0  0  0  0
 35 60  1  0  0  0  0
 36 61  1  0  0  0  0
M  END
> <s_m_source_file>
AV-unprocessed.smi

> <i_m_source_file_index>
24

> <i_lp_mmshare_version>
43012

> <i_f3d_flags>
0

> <s_epik_input>
W0NIM11PYzFbY0hdW2NIXWMoW2NIXVtjSF0xKVtDQEBIXTJbQ0gyXUMoYzNbY0hdW2NIXVtjSF1bY0hdW2NIXTMpPU5OMkMoPU8pW0NIMl1uNGMoPU8pYyhGKVtjSF1uKGM0PU8pW0NAQEhdNVtDSDJdW0NIMl1bQ0gyXU81

> <s_epik_cmdline>
J2VwaWtfcHl0aG9uJywgJy1waCcsICc3LjAnLCAnLXRuJywgJzgnLCAnLW1hJywgJzIwMCcsICctbWV0YWxfYmluZGluZycsICctaW1hZScsICc8aW5maWxlLm1hZT4nLCAnLW9tYWUnLCAnPG91dGZpbGUubWFlPic=

> <r_lp_tautomer_probability>
1

> <r_epik_Ionization_Penalty>
1.46326e-08

> <r_epik_Ionization_Penalty_Charging>
4.53232e-09

> <r_epik_Ionization_Penalty_Neutral>
1.01002e-08

> <r_epik_State_Penalty>
-0

> <r_epik_Charging_Adjusted_Penalty>
4.53232e-09

> <i_epik_Tot_Q>
0

> <i_epik_Tot_abs_Q>
0

> <r_epik_Metal_State_Penalty>
-0

> <b_epik_Metal_Only>
0

> <s_epik_Chemistry_Notes>
This compound has an imine and may undergo hydrolysis. This compound contains an acetal/aminal-like group ( X-CH(R)-Y where X, Y are N, S, or O) that may be acid/base labile, releasing an aldehyde.

> <s_lp_Force_Field>
OPLS_2005

> <r_lp_Energy>
47.9394

> <b_lp_Chiralities_Consistent>
1

> <s_lp_Variant>
AV-unprocessed.smi:24-3

> <Gold.Version>
5.8.1

> <Gold.Id.Protein>
6NUR|6NUR_protein|mol2

> <Gold.PLP.Fitness>
49.9039

> <Gold.PLP.PLP>
-48.1775

> <Gold.PLP.part.hbond>
-1.0000

> <Gold.PLP.part.metal>
0.0000

> <Gold.PLP.part.buried>
-3.0742

> <Gold.PLP.part.nonpolar>
-43.1970

> <Gold.PLP.part.repulsive>
0.0542

> <Gold.PLP.ligand.clash>
0.0000

> <Gold.PLP.ligand.torsion>
0.7391

> <Gold.PLP.Chemscore.Hbond>
1.0000

> <Gold.PLP.Chemscore.CHOScore>
0.0000

> <Gold.PLP.Chemscore.Metal>
0.0000

> <Gold.Chemscore.Hbonds>
donor molecule, donor type, donor heavy atom, donor atom, acceptor molecule, acceptor atom, score
      P1  H  6896  6909       L1    19  0.75

> <Gold.PLP.Chemscore.Internal.Correction>
0.2045

> <Gold.Rescore>
     Score         DG    S(hbond)    S(metal)    S(lipo)     H(rot)  DE(clash)    DE(int)     intcor
     16.31     -18.55       0.99        0.00     126.76       1.98       0.17       2.07       ----

> <Gold.Chemscore.Fitness>
16.3057

> <Gold.Chemscore.DG>
-18.5488

> <Gold.Chemscore.ZeroCoef>
-5.4800

> <Gold.Chemscore.Hbond>
0.9863

> <Gold.Chemscore.Metal>
0.0000

> <Gold.Chemscore.Lipo>
126.7560

> <Gold.Chemscore.Internal_Hbond>
0.0000

> <Gold.Chemscore.DEClash>
0.1702

> <Gold.Chemscore.DEInternal>
2.0729

> <Gold.Chemscore.Rot>
1.9750

> <Gold.Chemscore.Internal.Correction>
   9.000000E+99

> <Gold.Chemscore.Hbonds>
donor molecule, donor type, donor heavy atom, donor atom, acceptor molecule, acceptor atom, score
      P1  H  6896  6909       L1    19  0.75

> <Gold.Chemscore.Hbond.Weighted>
-3.2944

> <Gold.Chemscore.Metal.Weighted>
-0.0000

> <Gold.Chemscore.Lipo.Weighted>
-14.8305

> <Gold.Chemscore.Internal_Hbond.Weighted>
0.0000

> <Gold.Chemscore.DEClash.Weighted>
0.1702

> <Gold.Chemscore.DEInternal.Weighted>
2.0729

> <Gold.Chemscore.Rot.Weighted>
5.0561

> <Gold.Chemscore.Internal.Correction.Weighted>
   9.000000E+99

> <Gold.Protein.RotatedTorsions>
[ 6907 6896 6895 6894 ] final  -32.50 input  -60.11 | X-H torsion
[ 7974 7965 7964 7962 ] final   11.67 input  175.53 | X-H torsion
[ 8008 7997 7996 7995 ] final  -19.87 input   59.86 | X-H torsion
[ 10167 10162 10161 10158 ] final   67.15 input  -65.29 | X-H torsion
[ 10718 10713 10712 10709 ] final    2.51 input   66.30 | X-H torsion
[ 10763 10752 10751 10750 ] final  162.49 input  -60.55 | X-H torsion
[ 11005 11000 10999 10996 ] final -123.60 input  -57.11 | X-H torsion

> <Gold.Protein.ActiveResidues>
 VAL166  LYS551  ARG553  GLY616  TRP617  ASP618  TYR619  PRO620  LYS621  CYS622 
 ASP623  PHE694  ASN695  SER759  ASP760  ASP761  ALA762  ILE779  LEU786  VAL792 
 PHE793  MET794  SER795  GLU796  ALA797  LYS798  CYS799  TRP800  GLU811  SER814 

> <Gold.Protein.RotatedAtoms>
  151.0779  134.9840  159.8341 H   0  0  0  0  0  0  0  0  0  0  0  0  # atno 6907 bound_to 6896
  152.5416  134.2218  159.8800 H   0  0  0  0  0  0  0  0  0  0  0  0  # atno 6908 bound_to 6896
  151.2246  133.4440  159.2635 H   0  0  0  0  0  0  0  0  0  0  0  0  # atno 6909 bound_to 6896
  146.2366  139.9450  142.8478 H   0  0  0  0  0  0  0  0  0  0  0  0  # atno 7974 bound_to 7965
  154.4807  140.2077  155.9770 H   0  0  0  0  0  0  0  0  0  0  0  0  # atno 8008 bound_to 7997
  156.1160  140.3221  155.8110 H   0  0  0  0  0  0  0  0  0  0  0  0  # atno 8009 bound_to 7997
  155.4551  140.0520  157.2988 H   0  0  0  0  0  0  0  0  0  0  0  0  # atno 8010 bound_to 7997
  140.0927  144.4974  150.7088 H   0  0  0  0  0  0  0  0  0  0  0  0  # atno 10167 bound_to 10162
  156.8641  130.5597  149.5661 H   0  0  0  0  0  0  0  0  0  0  0  0  # atno 10718 bound_to 10713
  154.2792  135.2763  155.2704 H   0  0  0  0  0  0  0  0  0  0  0  0  # atno 10763 bound_to 10752
  154.5233  135.5750  153.6702 H   0  0  0  0  0  0  0  0  0  0  0  0  # atno 10764 bound_to 10752
  152.9932  135.6210  154.2950 H   0  0  0  0  0  0  0  0  0  0  0  0  # atno 10765 bound_to 10752
  140.9906  134.0544  157.3658 H   0  0  0  0  0  0  0  0  0  0  0  0  # atno 11005 bound_to 11000
  145.1916  140.9814  143.4208 LP  0  0  0  0  0  0  0  0  0  0  0  0  # atno 17320 bound_to 7965
  144.9852  139.3743  143.6242 LP  0  0  0  0  0  0  0  0  0  0  0  0  # atno 17321 bound_to 7965
  140.7020  143.2441  151.4837 LP  0  0  0  0  0  0  0  0  0  0  0  0  # atno 17342 bound_to 10162
  139.5715  144.1917  152.1843 LP  0  0  0  0  0  0  0  0  0  0  0  0  # atno 17343 bound_to 10162
  156.0761  130.5783  150.9476 LP  0  0  0  0  0  0  0  0  0  0  0  0  # atno 17370 bound_to 10713
  157.6233  131.0928  150.8581 LP  0  0  0  0  0  0  0  0  0  0  0  0  # atno 17371 bound_to 10713
  139.8991  135.0157  156.7178 LP  0  0  0  0  0  0  0  0  0  0  0  0  # atno 17394 bound_to 11000
  140.7045  133.9277  155.8045 LP  0  0  0  0  0  0  0  0  0  0  0  0  # atno 17395 bound_to 11000

$$$$
