#       Name:                AV-unprocessed.smi:662
#       Creating user name   scv26
#       Creation time:       Fri Mar 27 00:19:18 2020


#       File generated by GOLD software.
#

@<TRIPOS>MOLECULE
AV-unprocessed.smi:662
    37    38     1
SMALL
NO_CHARGES


@<TRIPOS>ATOM
      1 ****        -1.0035   0.5047  -1.2297 O.2            1 S1                 0.0000
      2 ****        -1.1564   0.9421  -0.0884 C.2            1 S1                 0.0000
      3 ****        -0.8524   0.2411   1.0149 N.am           1 S1                 0.0000
      4 ****        -0.3101  -1.1128   1.0185 C.3            1 S1                 0.0000
      5 ****         1.2066  -1.1140   0.7690 C.3            1 S1                 0.0000
      6 ****         1.7790  -2.4913   0.7551 C.2            1 S1                 0.0000
      7 ****         1.8474  -3.2464  -0.3440 N.2            1 S1                 0.0000
      8 ****         2.3938  -4.5111  -0.0999 C.2            1 S1                 0.0000
      9 ****         2.5552  -5.4845  -1.2318 C.3            1 S1                 0.0000
     10 ****         3.0860  -6.6353  -0.8178 F              1 S1                 0.0000
     11 ****         1.3807  -5.7645  -1.7959 F              1 S1                 0.0000
     12 ****         3.3538  -4.9924  -2.1784 F              1 S1                 0.0000
     13 ****         2.7263  -4.7060   1.2189 C.2            1 S1                 0.0000
     14 ****         2.3653  -3.3102   2.1972 S.3            1 S1                 0.0000
     15 ****        -1.7017   2.3575   0.1330 C.3            1 S1                 0.0000
     16 ****        -0.5622   3.3792   0.2450 C.3            1 S1                 0.0000
     17 ****        -1.2109   4.6772  -0.2119 C.3            1 S1                 0.0000
     18 ****        -2.2082   4.2279  -1.2812 C.3            1 S1                 0.0000
     19 ****        -2.5288   2.8115  -1.0065 N.4            1 S1                 1.0000
     20 ****        -1.0026   0.6740   1.9151 H              1 S1                 0.0000
     21 ****        -0.5275  -1.5650   1.9867 H              1 S1                 0.0000
     22 ****        -0.8214  -1.7222   0.2710 H              1 S1                 0.0000
     23 ****         1.4362  -0.6348  -0.1839 H              1 S1                 0.0000
     24 ****         1.7154  -0.5338   1.5394 H              1 S1                 0.0000
     25 ****         3.1585  -5.5855   1.6726 H              1 S1                 0.0000
     26 ****        -2.3220   2.3883   1.0303 H              1 S1                 0.0000
     27 ****        -0.1572   3.4494   1.2551 H              1 S1                 0.0000
     28 ****         0.2602   3.1290  -0.4283 H              1 S1                 0.0000
     29 ****        -1.7471   5.1302   0.6233 H              1 S1                 0.0000
     30 ****        -0.4905   5.4073  -0.5821 H              1 S1                 0.0000
     31 ****        -3.1087   4.8427  -1.2829 H              1 S1                 0.0000
     32 ****        -1.7580   4.2906  -2.2725 H              1 S1                 0.0000
     33 ****        -2.2882   2.2601  -1.8187 H              1 S1                 0.0000
     34 ****        -3.5083   2.6954  -0.7903 H              1 S1                 0.0000
     35 ****        -0.6364  -0.4152  -1.3675 LP             1 S1                 0.0000
     36 ****        -1.2464   1.0695  -2.0183 LP             1 S1                 0.0000
     37 ****         1.5409  -2.9406  -1.2454 LP             1 S1                 0.0000
@<TRIPOS>BOND
    1    1    2 2     
    2    2    3 am    
    3    2   15 1     
    4    3    4 1     
    5    3   20 1     
    6    4    5 1     
    7    4   21 1     
    8    4   22 1     
    9    5    6 1     
   10    5   23 1     
   11    5   24 1     
   12    6   14 1     
   13    6    7 2     
   14    7    8 1     
   15    8    9 1     
   16    8   13 2     
   17    9   10 1     
   18    9   11 1     
   19    9   12 1     
   20   13   14 1     
   21   13   25 1     
   22   15   19 1     
   23   15   16 1     
   24   15   26 1     
   25   16   17 1     
   26   16   27 1     
   27   16   28 1     
   28   17   18 1     
   29   17   29 1     
   30   17   30 1     
   31   18   19 1     
   32   18   31 1     
   33   18   32 1     
   34   19   33 1     
   35   19   34 1     
   36    1   35 1     
   37    1   36 1     
   38    7   37 1     
@<TRIPOS>SUBSTRUCTURE
      1 S1             1
@<TRIPOS>SET
LONE_PAIRS      STATIC     ATOMS    <user>   **** ""
3 35 36 37
DONOR_HYDROGENS      STATIC     ATOMS    <user>   **** ""
3 20 33 34
ATOM$BLUE        STATIC     ATOMS    COLORGROUP SYSTEM
3 35 36 37
ATOM$RED        STATIC     ATOMS    COLORGROUP SYSTEM
3 20 33 34
