AV-unprocessed.smi:109|AV-procd|sdf|1052|dock7
  -GOLD-   2262018103D 1   1.00000     0.00000
 Structure written by MMmdl.
 58 61  0  0  0  0  0  0  0  0  1 V2000
  151.7087  137.1750  154.9178 O   0  0  0  0  0  0  0  0  0  0  0  0
  151.2931  138.5017  154.6759 C   0  0  0  0  0  0  0  0  0  0  0  0
  152.0289  139.4619  155.6240 C   0  0  0  0  0  0  0  0  0  0  0  0
  151.1881  140.7045  155.9920 C   0  0  1  0  0  0  0  0  0  0  0  0
  149.8616  140.2888  156.4479 N   0  0  0  0  0  0  0  0  0  0  0  0
  148.8100  140.2132  155.6021 C   0  0  0  0  0  0  0  0  0  0  0  0
  148.3058  141.3209  154.9984 N   0  0  0  0  0  0  0  0  0  0  0  0
  147.2738  141.2118  154.1571 C   0  0  0  0  0  0  0  0  0  0  0  0
  146.6135  140.1133  153.7855 N   0  0  0  0  0  0  0  0  0  0  0  0
  147.1127  138.9964  154.3898 C   0  0  0  0  0  0  0  0  0  0  0  0
  148.2004  138.9663  155.3071 C   0  0  0  0  0  0  0  0  0  0  0  0
  148.4302  137.6617  155.7229 N   0  0  0  0  0  0  0  0  0  0  0  0
  147.5294  136.9643  155.0848 C   0  0  0  0  0  0  0  0  0  0  0  0
  146.6957  137.6853  154.2587 N   0  0  0  0  0  0  0  0  0  0  0  0
  145.5889  137.1477  153.4011 C   0  0  2  0  0  0  0  0  0  0  0  0
  145.4878  135.7667  153.5861 O   0  0  0  0  0  0  0  0  0  0  0  0
  145.6690  135.0838  152.3483 C   0  0  1  0  0  0  0  0  0  0  0  0
  144.8909  133.7563  152.3353 C   0  0  0  0  0  0  0  0  0  0  0  0
  143.5989  133.9374  152.8750 O   0  0  0  0  0  0  0  0  0  0  0  0
  145.3054  136.1181  151.2729 C   0  0  1  0  0  0  0  0  0  0  0  0
  143.9083  136.1651  151.0489 O   0  0  0  0  0  0  0  0  0  0  0  0
  145.7867  137.4192  151.8952 C   0  0  2  0  0  0  0  0  0  0  0  0
  147.1289  137.6834  151.5273 O   0  0  0  0  0  0  0  0  0  0  0  0
  151.8583  141.6403  157.0350 C   0  0  0  0  0  0  0  0  0  0  0  0
  152.0323  140.9695  158.4148 C   0  0  0  0  0  0  0  0  0  0  0  0
  152.7926  141.8824  159.3909 C   0  0  0  0  0  0  0  0  0  0  0  0
  152.0970  143.2451  159.5351 C   0  0  0  0  0  0  0  0  0  0  0  0
  151.9115  143.9217  158.1678 C   0  0  0  0  0  0  0  0  0  0  0  0
  151.1533  143.0073  157.1913 C   0  0  0  0  0  0  0  0  0  0  0  0
  144.6854  137.6159  153.7938 H   0  0  0  0  0  0  0  0  0  0  0  0
  146.7332  134.8634  152.2591 H   0  0  0  0  0  0  0  0  0  0  0  0
  145.7922  135.9041  150.3203 H   0  0  0  0  0  0  0  0  0  0  0  0
  145.1823  138.2762  151.5946 H   0  0  0  0  0  0  0  0  0  0  0  0
  151.1054  136.7782  155.5274 H   0  0  0  0  0  0  0  0  0  0  0  0
  151.5008  138.7538  153.6356 H   0  0  0  0  0  0  0  0  0  0  0  0
  150.2136  138.5622  154.8174 H   0  0  0  0  0  0  0  0  0  0  0  0
  152.3230  138.9259  156.5274 H   0  0  0  0  0  0  0  0  0  0  0  0
  152.9540  139.7696  155.1379 H   0  0  0  0  0  0  0  0  0  0  0  0
  151.0721  141.2755  155.0703 H   0  0  0  0  0  0  0  0  0  0  0  0
  149.7768  140.1145  157.4392 H   0  0  0  0  0  0  0  0  0  0  0  0
  146.9289  142.1353  153.7162 H   0  0  0  0  0  0  0  0  0  0  0  0
  147.4493  135.8929  155.1982 H   0  0  0  0  0  0  0  0  0  0  0  0
  144.7858  133.4006  151.3101 H   0  0  0  0  0  0  0  0  0  0  0  0
  145.4153  132.9770  152.8883 H   0  0  0  0  0  0  0  0  0  0  0  0
  143.3397  133.1384  153.3084 H   0  0  0  0  0  0  0  0  0  0  0  0
  143.7051  136.9784  150.6122 H   0  0  0  0  0  0  0  0  0  0  0  0
  147.6953  137.1387  152.0521 H   0  0  0  0  0  0  0  0  0  0  0  0
  152.8675  141.8442  156.6732 H   0  0  0  0  0  0  0  0  0  0  0  0
  151.0626  140.7239  158.8471 H   0  0  0  0  0  0  0  0  0  0  0  0
  152.5700  140.0271  158.3054 H   0  0  0  0  0  0  0  0  0  0  0  0
  152.8704  141.4002  160.3659 H   0  0  0  0  0  0  0  0  0  0  0  0
  153.8135  142.0282  159.0358 H   0  0  0  0  0  0  0  0  0  0  0  0
  151.1247  143.1099  160.0104 H   0  0  0  0  0  0  0  0  0  0  0  0
  152.6771  143.8913  160.1945 H   0  0  0  0  0  0  0  0  0  0  0  0
  151.3734  144.8623  158.2893 H   0  0  0  0  0  0  0  0  0  0  0  0
  152.8863  144.1754  157.7495 H   0  0  0  0  0  0  0  0  0  0  0  0
  151.0694  143.5036  156.2241 H   0  0  0  0  0  0  0  0  0  0  0  0
  150.1357  142.8673  157.5566 H   0  0  0  0  0  0  0  0  0  0  0  0
  1  2  1  0  0  0  0
  1 34  1  0  0  0  0
  2  3  1  0  0  0  0
  2 35  1  0  0  0  0
  2 36  1  0  0  0  0
  3  4  1  0  0  0  0
  3 37  1  0  0  0  0
  3 38  1  0  0  0  0
  4  5  1  0  0  0  0
  4 24  1  0  0  0  0
  4 39  1  0  0  0  0
  5  6  1  0  0  0  0
  5 40  1  0  0  0  0
  6 11  1  0  0  0  0
  6  7  2  0  0  0  0
  7  8  1  0  0  0  0
  8  9  2  0  0  0  0
  8 41  1  0  0  0  0
  9 10  1  0  0  0  0
 10 14  1  0  0  0  0
 10 11  2  0  0  0  0
 11 12  1  0  0  0  0
 12 13  2  0  0  0  0
 13 14  1  0  0  0  0
 13 42  1  0  0  0  0
 14 15  1  0  0  0  0
 15 30  1  0  0  0  0
 15 22  1  0  0  0  0
 15 16  1  0  0  0  0
 16 17  1  0  0  0  0
 17 31  1  0  0  0  0
 17 18  1  0  0  0  0
 17 20  1  0  0  0  0
 18 19  1  0  0  0  0
 18 43  1  0  0  0  0
 18 44  1  0  0  0  0
 19 45  1  0  0  0  0
 20 32  1  0  0  0  0
 20 21  1  0  0  0  0
 20 22  1  0  0  0  0
 21 46  1  0  0  0  0
 22 33  1  0  0  0  0
 22 23  1  0  0  0  0
 23 47  1  0  0  0  0
 24 29  1  0  0  0  0
 24 25  1  0  0  0  0
 24 48  1  0  0  0  0
 25 26  1  0  0  0  0
 25 49  1  0  0  0  0
 25 50  1  0  0  0  0
 26 27  1  0  0  0  0
 26 51  1  0  0  0  0
 26 52  1  0  0  0  0
 27 28  1  0  0  0  0
 27 53  1  0  0  0  0
 27 54  1  0  0  0  0
 28 29  1  0  0  0  0
 28 55  1  0  0  0  0
 28 56  1  0  0  0  0
 29 57  1  0  0  0  0
 29 58  1  0  0  0  0
M  END
> <s_m_source_file>
AV-unprocessed.smi

> <i_m_source_file_index>
109

> <i_lp_mmshare_version>
43012

> <i_f3d_flags>
0

> <s_epik_input>
W0NIMl0xW0NIMl1bQ0gyXVtDSDJdW0NIMl1bQ0hdMVtDQEhdKFtDSDJdW0NIMl1bT0hdKVtOSF1jKG5bY0hdbjIpYyhjMjMpbltjSF1uM1tDQEBIXTRPW0NASF0oW0NIMl1bT0hdKVtDQEBIXShbT0hdKVtDQEhdNFtPSF0=

> <s_epik_cmdline>
J2VwaWtfcHl0aG9uJywgJy1waCcsICc3LjAnLCAnLXRuJywgJzgnLCAnLW1hJywgJzIwMCcsICctbWV0YWxfYmluZGluZycsICctaW1hZScsICc8aW5maWxlLm1hZT4nLCAnLW9tYWUnLCAnPG91dGZpbGUubWFlPic=

> <r_lp_tautomer_probability>
1

> <r_epik_Ionization_Penalty>
0.000793976

> <r_epik_Ionization_Penalty_Charging>
0

> <r_epik_Ionization_Penalty_Neutral>
0.000793976

> <r_epik_State_Penalty>
-0

> <r_epik_Charging_Adjusted_Penalty>
0

> <i_epik_Tot_Q>
0

> <i_epik_Tot_abs_Q>
0

> <r_epik_Metal_State_Penalty>
-0

> <b_epik_Metal_Only>
0

> <s_epik_Chemistry_Notes>
This compound contains an acetal/aminal-like group ( X-CH(R)-Y where X, Y are N, S, or O) that may be acid/base labile, releasing an aldehyde.

> <s_lp_Force_Field>
OPLS_2005

> <r_lp_Energy>
55.7279

> <b_lp_Chiralities_Consistent>
1

> <s_lp_Variant>
AV-unprocessed.smi:109-22

> <Gold.Version>
5.8.1

> <Gold.Id.Protein>
6NUR|6NUR_protein|mol2

> <Gold.PLP.Fitness>
52.4714

> <Gold.PLP.PLP>
-40.5083

> <Gold.PLP.part.hbond>
-4.2780

> <Gold.PLP.part.metal>
0.0000

> <Gold.PLP.part.buried>
-5.9018

> <Gold.PLP.part.nonpolar>
-32.7408

> <Gold.PLP.part.repulsive>
0.4111

> <Gold.PLP.ligand.clash>
0.0000

> <Gold.PLP.ligand.torsion>
1.3439

> <Gold.PLP.Chemscore.Hbond>
4.7613

> <Gold.PLP.Chemscore.CHOScore>
0.0000

> <Gold.PLP.Chemscore.Metal>
0.0000

> <Gold.Chemscore.Hbonds>
donor molecule, donor type, donor heavy atom, donor atom, acceptor molecule, acceptor atom, score
      L1  H    19    45       P1 10957  0.78
      L1  H    21    46       P1 10171  1.00
      L1  H    23    47       P1  7948  0.74
      P1  H  7954  7966       L1    23  1.00
      P1  H 10752 10765       L1     1  1.00

> <Gold.PLP.Chemscore.Internal.Correction>
0.3671

> <Gold.Rescore>
     Score         DG    S(hbond)    S(metal)    S(lipo)     H(rot)  DE(clash)    DE(int)     intcor
     14.19     -16.88       3.96        0.00     103.93       5.47       1.32       1.37       ----

> <Gold.Chemscore.Fitness>
14.1917

> <Gold.Chemscore.DG>
-16.8805

> <Gold.Chemscore.ZeroCoef>
-5.4800

> <Gold.Chemscore.Hbond>
3.9624

> <Gold.Chemscore.Metal>
0.0000

> <Gold.Chemscore.Lipo>
103.9270

> <Gold.Chemscore.Internal_Hbond>
0.0000

> <Gold.Chemscore.DEClash>
1.3163

> <Gold.Chemscore.DEInternal>
1.3724

> <Gold.Chemscore.Rot>
5.4662

> <Gold.Chemscore.Internal.Correction>
   9.000000E+99

> <Gold.Chemscore.Hbonds>
donor molecule, donor type, donor heavy atom, donor atom, acceptor molecule, acceptor atom, score
      L1  H    19    45       P1 10957  0.65
      L1  H    21    46       P1 10171  1.00
      L1  H    23    47       P1  7948  0.70
      P1  H  7954  7966       L1    23  0.30
      P1  H 10752 10765       L1     1  0.40

> <Gold.Chemscore.Hbond.Weighted>
-13.2345

> <Gold.Chemscore.Metal.Weighted>
-0.0000

> <Gold.Chemscore.Lipo.Weighted>
-12.1595

> <Gold.Chemscore.Internal_Hbond.Weighted>
0.0000

> <Gold.Chemscore.DEClash.Weighted>
1.3163

> <Gold.Chemscore.DEInternal.Weighted>
1.3724

> <Gold.Chemscore.Rot.Weighted>
13.9935

> <Gold.Chemscore.Internal.Correction.Weighted>
   9.000000E+99

> <Gold.Protein.RotatedTorsions>
[ 6907 6896 6895 6894 ] final  -28.46 input  -60.11 | X-H torsion
[ 7974 7965 7964 7962 ] final  -94.17 input  175.53 | X-H torsion
[ 8008 7997 7996 7995 ] final  -73.63 input   59.86 | X-H torsion
[ 10167 10162 10161 10158 ] final   32.26 input  -65.29 | X-H torsion
[ 10718 10713 10712 10709 ] final  168.01 input   66.30 | X-H torsion
[ 10763 10752 10751 10750 ] final  165.92 input  -60.55 | X-H torsion
[ 11005 11000 10999 10996 ] final   23.14 input  -57.11 | X-H torsion

> <Gold.Protein.ActiveResidues>
 VAL166  LYS551  ARG553  GLY616  TRP617  ASP618  TYR619  PRO620  LYS621  CYS622 
 ASP623  PHE694  ASN695  SER759  ASP760  ASP761  ALA762  ILE779  LEU786  VAL792 
 PHE793  MET794  SER795  GLU796  ALA797  LYS798  CYS799  TRP800  GLU811  SER814 

> <Gold.Protein.RotatedAtoms>
  151.1327  135.0139  159.8589 H   0  0  0  0  0  0  0  0  0  0  0  0  # atno 6907 bound_to 6896
  152.5451  134.1591  159.8560 H   0  0  0  0  0  0  0  0  0  0  0  0  # atno 6908 bound_to 6896
  151.1659  133.4770  159.2627 H   0  0  0  0  0  0  0  0  0  0  0  0  # atno 6909 bound_to 6896
  145.3768  140.9512  143.2416 H   0  0  0  0  0  0  0  0  0  0  0  0  # atno 7974 bound_to 7965
  154.5263  140.0776  156.8264 H   0  0  0  0  0  0  0  0  0  0  0  0  # atno 8008 bound_to 7997
  155.3469  140.3410  155.4221 H   0  0  0  0  0  0  0  0  0  0  0  0  # atno 8009 bound_to 7997
  156.1735  140.1627  156.8392 H   0  0  0  0  0  0  0  0  0  0  0  0  # atno 8010 bound_to 7997
  140.4514  144.1042  150.6192 H   0  0  0  0  0  0  0  0  0  0  0  0  # atno 10167 bound_to 10162
  157.0433  131.0293  151.2706 H   0  0  0  0  0  0  0  0  0  0  0  0  # atno 10718 bound_to 10713
  154.3312  135.2755  155.2471 H   0  0  0  0  0  0  0  0  0  0  0  0  # atno 10763 bound_to 10752
  154.4782  135.5865  153.6373 H   0  0  0  0  0  0  0  0  0  0  0  0  # atno 10764 bound_to 10752
  152.9866  135.6105  154.3505 H   0  0  0  0  0  0  0  0  0  0  0  0  # atno 10765 bound_to 10752
  140.3728  134.2004  155.7666 H   0  0  0  0  0  0  0  0  0  0  0  0  # atno 11005 bound_to 11000
  144.8537  139.5283  143.6845 LP  0  0  0  0  0  0  0  0  0  0  0  0  # atno 17320 bound_to 7965
  146.2860  139.7007  142.9195 LP  0  0  0  0  0  0  0  0  0  0  0  0  # atno 17321 bound_to 7965
  140.4202  143.2615  151.9724 LP  0  0  0  0  0  0  0  0  0  0  0  0  # atno 17342 bound_to 10162
  139.4797  144.5837  151.7889 LP  0  0  0  0  0  0  0  0  0  0  0  0  # atno 17343 bound_to 10162
  157.5087  130.7925  149.7682 LP  0  0  0  0  0  0  0  0  0  0  0  0  # atno 17370 bound_to 10713
  156.0031  130.3869  150.2531 LP  0  0  0  0  0  0  0  0  0  0  0  0  # atno 17371 bound_to 10713
  141.1949  133.8118  157.0738 LP  0  0  0  0  0  0  0  0  0  0  0  0  # atno 17394 bound_to 11000
  140.0538  134.9791  157.1184 LP  0  0  0  0  0  0  0  0  0  0  0  0  # atno 17395 bound_to 11000

$$$$
