AV-unprocessed.smi:3308|AV-procd|sdf|12711|dock8
  -GOLD-   2272019 43D 1   1.00000     0.00000
 Structure written by MMmdl.
 41 42  0  0  0  0  0  0  0  0  2 V2000
  151.4969  137.7219  155.1100 C   0  0  0  0  0  0  0  0  0  0  0  0
  150.2244  138.3139  154.4729 C   0  0  1  0  0  0  0  0  0  0  0  0
  149.1314  137.3131  154.4446 N   0  3  0  0  0  0  0  0  0  0  0  0
  149.1202  136.3429  155.5612 C   0  0  0  0  0  0  0  0  0  0  0  0
  149.8651  135.0467  155.2121 C   0  0  0  0  0  0  0  0  0  0  0  0
  151.0424  134.9102  155.5484 O   0  0  0  0  0  0  0  0  0  0  0  0
  149.1959  134.0897  154.5367 N   0  0  0  0  0  0  0  0  0  0  0  0
  149.7883  132.8117  154.1463 C   0  0  0  0  0  0  0  0  0  0  0  0
  148.6264  131.9499  153.6520 C   0  0  0  0  0  0  0  0  0  0  0  0
  147.5837  132.9590  153.1910 C   0  0  0  0  0  0  0  0  0  0  0  0
  147.8014  134.1681  154.1015 C   0  0  0  0  0  0  0  0  0  0  0  0
  149.7694  139.6158  155.1837 C   0  0  1  0  0  0  0  0  0  0  0  0
  150.9421  140.5447  155.5512 C   0  0  0  0  0  0  0  0  0  0  0  0
  148.7203  140.3276  154.4594 N   0  0  0  0  0  0  0  0  0  0  0  0
  148.5589  141.6914  154.3189 C   0  0  0  0  0  0  0  0  0  0  0  0
  147.4326  141.8970  153.5750 C   0  0  0  0  0  0  0  0  0  0  0  0
  146.9617  140.5825  153.3041 C   0  0  0  0  0  0  0  0  0  0  0  0
  147.7299  139.6470  153.8381 N   0  0  0  0  0  0  0  0  0  0  0  0
  152.2802  138.4765  155.1880 H   0  0  0  0  0  0  0  0  0  0  0  0
  151.9033  136.9034  154.5163 H   0  0  0  0  0  0  0  0  0  0  0  0
  151.3052  137.3389  156.1129 H   0  0  0  0  0  0  0  0  0  0  0  0
  150.4562  138.5779  153.4400 H   0  0  0  0  0  0  0  0  0  0  0  0
  148.2450  137.7974  154.4154 H   0  0  0  0  0  0  0  0  0  0  0  0
  149.5843  136.8008  156.4356 H   0  0  0  0  0  0  0  0  0  0  0  0
  148.0913  136.0941  155.8202 H   0  0  0  0  0  0  0  0  0  0  0  0
  150.5059  132.9841  153.3428 H   0  0  0  0  0  0  0  0  0  0  0  0
  150.3140  132.3309  154.9729 H   0  0  0  0  0  0  0  0  0  0  0  0
  148.9201  131.2551  152.8645 H   0  0  0  0  0  0  0  0  0  0  0  0
  148.2265  131.3646  154.4812 H   0  0  0  0  0  0  0  0  0  0  0  0
  147.7830  133.2405  152.1560 H   0  0  0  0  0  0  0  0  0  0  0  0
  146.5665  132.5691  153.2409 H   0  0  0  0  0  0  0  0  0  0  0  0
  147.1508  134.1075  154.9753 H   0  0  0  0  0  0  0  0  0  0  0  0
  147.5802  135.0966  153.5738 H   0  0  0  0  0  0  0  0  0  0  0  0
  149.3244  139.3108  156.1322 H   0  0  0  0  0  0  0  0  0  0  0  0
  151.6742  140.0242  156.1692 H   0  0  0  0  0  0  0  0  0  0  0  0
  150.5916  141.4081  156.1178 H   0  0  0  0  0  0  0  0  0  0  0  0
  151.4613  140.9195  154.6689 H   0  0  0  0  0  0  0  0  0  0  0  0
  149.2511  142.3960  154.7558 H   0  0  0  0  0  0  0  0  0  0  0  0
  147.0092  142.8428  153.2705 H   0  0  0  0  0  0  0  0  0  0  0  0
  146.0896  140.2826  152.7419 H   0  0  0  0  0  0  0  0  0  0  0  0
  149.2236  136.7825  153.5900 H   0  0  0  0  0  0  0  0  0  0  0  0
  1  2  1  0  0  0  0
  1 19  1  0  0  0  0
  1 20  1  0  0  0  0
  1 21  1  0  0  0  0
  2  3  1  0  0  0  0
  2 12  1  0  0  0  0
  2 22  1  0  0  0  0
  3  4  1  0  0  0  0
  3 23  1  0  0  0  0
  3 41  1  0  0  0  0
  4  5  1  0  0  0  0
  4 24  1  0  0  0  0
  4 25  1  0  0  0  0
  5  6  2  0  0  0  0
  5  7  1  0  0  0  0
  7 11  1  0  0  0  0
  7  8  1  0  0  0  0
  8  9  1  0  0  0  0
  8 26  1  0  0  0  0
  8 27  1  0  0  0  0
  9 10  1  0  0  0  0
  9 28  1  0  0  0  0
  9 29  1  0  0  0  0
 10 11  1  0  0  0  0
 10 30  1  0  0  0  0
 10 31  1  0  0  0  0
 11 32  1  0  0  0  0
 11 33  1  0  0  0  0
 12 13  1  0  0  0  0
 12 14  1  0  0  0  0
 12 34  1  0  0  0  0
 13 35  1  0  0  0  0
 13 36  1  0  0  0  0
 13 37  1  0  0  0  0
 14 18  1  0  0  0  0
 14 15  1  0  0  0  0
 15 16  2  0  0  0  0
 15 38  1  0  0  0  0
 16 17  1  0  0  0  0
 16 39  1  0  0  0  0
 17 18  2  0  0  0  0
 17 40  1  0  0  0  0
M  CHG  1   3   1
M  END
> <s_m_source_file>
AV-unprocessed.smi

> <i_m_source_file_index>
3308

> <i_lp_mmshare_version>
43012

> <i_f3d_flags>
0

> <s_epik_input>
bjFbY0hdW2NIXVtjSF1uMVtDQEBIXShbQ0gzXSlbQ0BIXShbQ0gzXSlbTkhdW0NIMl1DKD1PKU4yW0NIMl1bQ0gyXVtDSDJdW0NIMl0y

> <s_epik_cmdline>
J2VwaWtfcHl0aG9uJywgJy1waCcsICc3LjAnLCAnLXRuJywgJzgnLCAnLW1hJywgJzIwMCcsICctbWV0YWxfYmluZGluZycsICctaW1hZScsICc8aW5maWxlLm1hZT4nLCAnLW9tYWUnLCAnPG91dGZpbGUubWFlPic=

> <r_lp_tautomer_probability>
1

> <r_epik_Ionization_Penalty>
0.141739

> <r_epik_Ionization_Penalty_Charging>
0.141731

> <r_epik_Ionization_Penalty_Neutral>
8.82171e-06

> <r_epik_State_Penalty>
0.131043

> <r_epik_Charging_Adjusted_Penalty>
0.272773

> <i_epik_Tot_Q>
1

> <i_epik_Tot_abs_Q>
1

> <r_epik_Metal_State_Penalty>
0.131385

> <b_epik_Metal_Only>
0

> <s_lp_Force_Field>
OPLS_2005

> <r_lp_Energy>
32.7398

> <b_lp_Chiralities_Consistent>
1

> <s_lp_Variant>
AV-unprocessed.smi:3308-4

> <Gold.Version>
5.8.1

> <Gold.Id.Protein>
6NUR|6NUR_protein|mol2

> <Gold.PLP.Fitness>
44.4182

> <Gold.PLP.PLP>
-33.4359

> <Gold.PLP.part.hbond>
-2.0000

> <Gold.PLP.part.metal>
0.0000

> <Gold.PLP.part.buried>
-1.7704

> <Gold.PLP.part.nonpolar>
-28.9044

> <Gold.PLP.part.repulsive>
0.2355

> <Gold.PLP.ligand.clash>
0.0000

> <Gold.PLP.ligand.torsion>
1.5737

> <Gold.PLP.Chemscore.Hbond>
2.6880

> <Gold.PLP.Chemscore.CHOScore>
1.9628

> <Gold.PLP.Chemscore.Metal>
0.0000

> <Gold.Chemscore.Hbonds>
donor molecule, donor type, donor heavy atom, donor atom, acceptor molecule, acceptor atom, score
      L1  H     3    41       P1  7948  2.00
      P1  H 10752 10763       L1     6  0.60
      L1  C    15    38       P1  8028  1.00
      L1  C    17    40       P1 10175  1.00

> <Gold.PLP.Chemscore.Internal.Correction>
0.1776

> <Gold.Rescore>
     Score         DG    S(hbond)    S(metal)    S(lipo)     H(rot)  DE(clash)    DE(int)     intcor
     11.03     -14.94       1.73        0.00      70.49       1.78       0.08       3.83       ----

> <Gold.Chemscore.Fitness>
11.0310

> <Gold.Chemscore.DG>
-14.9414

> <Gold.Chemscore.ZeroCoef>
-5.4800

> <Gold.Chemscore.Hbond>
1.7307

> <Gold.Chemscore.Metal>
0.0000

> <Gold.Chemscore.Lipo>
70.4872

> <Gold.Chemscore.Internal_Hbond>
0.0000

> <Gold.Chemscore.DEClash>
0.0776

> <Gold.Chemscore.DEInternal>
3.8329

> <Gold.Chemscore.Rot>
1.7836

> <Gold.Chemscore.Internal.Correction>
   9.000000E+99

> <Gold.Chemscore.Hbonds>
donor molecule, donor type, donor heavy atom, donor atom, acceptor molecule, acceptor atom, score
      L1  H     3    41       P1  7948  0.97
      P1  H 10752 10763       L1     6  0.58

> <Gold.Chemscore.Hbond.Weighted>
-5.7804

> <Gold.Chemscore.Metal.Weighted>
-0.0000

> <Gold.Chemscore.Lipo.Weighted>
-8.2470

> <Gold.Chemscore.Internal_Hbond.Weighted>
0.0000

> <Gold.Chemscore.DEClash.Weighted>
0.0776

> <Gold.Chemscore.DEInternal.Weighted>
3.8329

> <Gold.Chemscore.Rot.Weighted>
4.5660

> <Gold.Chemscore.Internal.Correction.Weighted>
   9.000000E+99

> <Gold.Protein.RotatedTorsions>
[ 6907 6896 6895 6894 ] final  171.15 input  -60.11 | X-H torsion
[ 7974 7965 7964 7962 ] final  111.05 input  175.53 | X-H torsion
[ 8008 7997 7996 7995 ] final  170.34 input   59.86 | X-H torsion
[ 10167 10162 10161 10158 ] final -168.66 input  -65.29 | X-H torsion
[ 10718 10713 10712 10709 ] final  -51.29 input   66.30 | X-H torsion
[ 10763 10752 10751 10750 ] final   74.46 input  -60.55 | X-H torsion
[ 11005 11000 10999 10996 ] final  -61.60 input  -57.11 | X-H torsion

> <Gold.Protein.ActiveResidues>
 VAL166  LYS551  ARG553  GLY616  TRP617  ASP618  TYR619  PRO620  LYS621  CYS622 
 ASP623  PHE694  ASN695  SER759  ASP760  ASP761  ALA762  ILE779  LEU786  VAL792 
 PHE793  MET794  SER795  GLU796  ALA797  LYS798  CYS799  TRP800  GLU811  SER814 

> <Gold.Protein.RotatedAtoms>
  151.8048  133.3374  159.3537 H   0  0  0  0  0  0  0  0  0  0  0  0  # atno 6907 bound_to 6896
  150.7346  134.5720  159.5904 H   0  0  0  0  0  0  0  0  0  0  0  0  # atno 6908 bound_to 6896
  152.3117  134.7490  160.0386 H   0  0  0  0  0  0  0  0  0  0  0  0  # atno 6909 bound_to 6896
  145.2472  139.2754  143.4087 H   0  0  0  0  0  0  0  0  0  0  0  0  # atno 7974 bound_to 7965
  156.1374  140.1540  156.8973 H   0  0  0  0  0  0  0  0  0  0  0  0  # atno 8008 bound_to 7997
  154.4959  140.0838  156.7733 H   0  0  0  0  0  0  0  0  0  0  0  0  # atno 8009 bound_to 7997
  155.4143  140.3420  155.4268 H   0  0  0  0  0  0  0  0  0  0  0  0  # atno 8010 bound_to 7997
  139.5971  144.1089  152.1701 H   0  0  0  0  0  0  0  0  0  0  0  0  # atno 10167 bound_to 10162
  156.1724  130.4149  149.9628 H   0  0  0  0  0  0  0  0  0  0  0  0  # atno 10718 bound_to 10713
  153.0588  135.5025  154.8046 H   0  0  0  0  0  0  0  0  0  0  0  0  # atno 10763 bound_to 10752
  154.6851  135.2975  154.9562 H   0  0  0  0  0  0  0  0  0  0  0  0  # atno 10764 bound_to 10752
  154.0335  135.6726  153.4835 H   0  0  0  0  0  0  0  0  0  0  0  0  # atno 10765 bound_to 10752
  141.1330  133.6631  156.5400 H   0  0  0  0  0  0  0  0  0  0  0  0  # atno 11005 bound_to 11000
  146.3312  140.2852  142.8612 LP  0  0  0  0  0  0  0  0  0  0  0  0  # atno 17320 bound_to 7965
  144.9536  140.8203  143.5557 LP  0  0  0  0  0  0  0  0  0  0  0  0  # atno 17321 bound_to 7965
  140.0677  144.5805  150.7215 LP  0  0  0  0  0  0  0  0  0  0  0  0  # atno 17342 bound_to 10162
  140.7220  143.2598  151.4245 LP  0  0  0  0  0  0  0  0  0  0  0  0  # atno 17343 bound_to 10162
  156.7424  130.9084  151.3633 LP  0  0  0  0  0  0  0  0  0  0  0  0  # atno 17370 bound_to 10713
  157.6812  130.9141  150.0271 LP  0  0  0  0  0  0  0  0  0  0  0  0  # atno 17371 bound_to 10713
  140.4147  134.7240  157.4856 LP  0  0  0  0  0  0  0  0  0  0  0  0  # atno 17394 bound_to 11000
  140.0402  134.6278  155.8991 LP  0  0  0  0  0  0  0  0  0  0  0  0  # atno 17395 bound_to 11000

$$$$
