AV-unprocessed.smi:3348|AV-procd|sdf|12917|dock8
  -GOLD-   2272019333D 1   1.00000     0.00000
 Structure written by MMmdl.
 47 48  0  0  0  0  0  0  0  0  2 V2000
  145.0342  135.3350  153.0630 C   0  0  0  0  0  0  0  0  0  0  0  0
  144.9379  136.2883  151.8639 C   0  0  2  0  0  0  0  0  0  0  0  0
  144.8209  135.4838  150.5491 C   0  0  0  0  0  0  0  0  0  0  0  0
  145.0747  134.0631  150.7065 N   0  0  0  0  0  0  0  0  0  0  0  0
  144.2487  133.0054  150.3876 C   0  0  0  0  0  0  0  0  0  0  0  0
  144.9208  131.8577  150.6965 C   0  0  0  0  0  0  0  0  0  0  0  0
  146.1708  132.3210  151.1944 C   0  0  0  0  0  0  0  0  0  0  0  0
  146.2617  133.6413  151.1941 N   0  0  0  0  0  0  0  0  0  0  0  0
  146.1210  137.1803  151.8615 N   0  3  0  0  0  0  0  0  0  0  0  0
  146.2135  138.1232  152.9969 C   0  0  0  0  0  0  0  0  0  0  0  0
  147.2242  139.2354  152.7047 C   0  0  0  0  0  0  0  0  0  0  0  0
  147.6945  139.7492  153.9410 O   0  0  0  0  0  0  0  0  0  0  0  0
  148.0855  141.1179  153.9058 C   0  0  1  0  0  0  0  0  0  0  0  0
  146.8478  142.0245  153.7325 C   0  0  0  0  0  0  0  0  0  0  0  0
  145.9012  141.9293  154.9404 C   0  0  0  0  0  0  0  0  0  0  0  0
  146.6368  142.2509  156.2499 C   0  0  0  0  0  0  0  0  0  0  0  0
  147.8730  141.3555  156.4325 C   0  0  0  0  0  0  0  0  0  0  0  0
  148.8242  141.4485  155.2220 C   0  0  1  0  0  0  0  0  0  0  0  0
  150.0795  140.5826  155.4121 C   0  0  0  0  0  0  0  0  0  0  0  0
  144.1544  134.6940  153.1264 H   0  0  0  0  0  0  0  0  0  0  0  0
  145.1038  135.8873  154.0009 H   0  0  0  0  0  0  0  0  0  0  0  0
  145.9105  134.6899  152.9899 H   0  0  0  0  0  0  0  0  0  0  0  0
  144.0384  136.8887  152.0087 H   0  0  0  0  0  0  0  0  0  0  0  0
  143.8314  135.6161  150.1092 H   0  0  0  0  0  0  0  0  0  0  0  0
  145.5352  135.8623  149.8165 H   0  0  0  0  0  0  0  0  0  0  0  0
  143.2619  133.1547  149.9745 H   0  0  0  0  0  0  0  0  0  0  0  0
  144.5743  130.8416  150.5793 H   0  0  0  0  0  0  0  0  0  0  0  0
  147.0093  131.7413  151.5516 H   0  0  0  0  0  0  0  0  0  0  0  0
  146.9402  136.5912  151.9133 H   0  0  0  0  0  0  0  0  0  0  0  0
  145.2389  138.5692  153.1871 H   0  0  0  0  0  0  0  0  0  0  0  0
  146.5037  137.5886  153.9022 H   0  0  0  0  0  0  0  0  0  0  0  0
  148.0531  138.8527  152.1072 H   0  0  0  0  0  0  0  0  0  0  0  0
  146.7382  140.0207  152.1258 H   0  0  0  0  0  0  0  0  0  0  0  0
  148.7750  141.2836  153.0759 H   0  0  0  0  0  0  0  0  0  0  0  0
  147.1755  143.0584  153.6175 H   0  0  0  0  0  0  0  0  0  0  0  0
  146.3085  141.7802  152.8178 H   0  0  0  0  0  0  0  0  0  0  0  0
  145.0616  142.6125  154.8095 H   0  0  0  0  0  0  0  0  0  0  0  0
  145.4759  140.9264  154.9960 H   0  0  0  0  0  0  0  0  0  0  0  0
  146.9414  143.2983  156.2494 H   0  0  0  0  0  0  0  0  0  0  0  0
  145.9596  142.1271  157.0955 H   0  0  0  0  0  0  0  0  0  0  0  0
  148.3986  141.6452  157.3430 H   0  0  0  0  0  0  0  0  0  0  0  0
  147.5559  140.3219  156.5775 H   0  0  0  0  0  0  0  0  0  0  0  0
  149.1629  142.4836  155.1533 H   0  0  0  0  0  0  0  0  0  0  0  0
  149.8261  139.5274  155.5184 H   0  0  0  0  0  0  0  0  0  0  0  0
  150.6295  140.8820  156.3048 H   0  0  0  0  0  0  0  0  0  0  0  0
  150.7555  140.6791  154.5620 H   0  0  0  0  0  0  0  0  0  0  0  0
  146.1523  137.6896  150.9900 H   0  0  0  0  0  0  0  0  0  0  0  0
  1  2  1  0  0  0  0
  1 20  1  0  0  0  0
  1 21  1  0  0  0  0
  1 22  1  0  0  0  0
  2  3  1  0  0  0  0
  2  9  1  0  0  0  0
  2 23  1  0  0  0  0
  3  4  1  0  0  0  0
  3 24  1  0  0  0  0
  3 25  1  0  0  0  0
  4  8  1  0  0  0  0
  4  5  1  0  0  0  0
  5  6  2  0  0  0  0
  5 26  1  0  0  0  0
  6  7  1  0  0  0  0
  6 27  1  0  0  0  0
  7  8  2  0  0  0  0
  7 28  1  0  0  0  0
  9 10  1  0  0  0  0
  9 29  1  0  0  0  0
  9 47  1  0  0  0  0
 10 11  1  0  0  0  0
 10 30  1  0  0  0  0
 10 31  1  0  0  0  0
 11 12  1  0  0  0  0
 11 32  1  0  0  0  0
 11 33  1  0  0  0  0
 12 13  1  0  0  0  0
 13 18  1  0  0  0  0
 13 14  1  0  0  0  0
 13 34  1  0  0  0  0
 14 15  1  0  0  0  0
 14 35  1  0  0  0  0
 14 36  1  0  0  0  0
 15 16  1  0  0  0  0
 15 37  1  0  0  0  0
 15 38  1  0  0  0  0
 16 17  1  0  0  0  0
 16 39  1  0  0  0  0
 16 40  1  0  0  0  0
 17 18  1  0  0  0  0
 17 41  1  0  0  0  0
 17 42  1  0  0  0  0
 18 19  1  0  0  0  0
 18 43  1  0  0  0  0
 19 44  1  0  0  0  0
 19 45  1  0  0  0  0
 19 46  1  0  0  0  0
M  CHG  1   9   1
M  END
> <s_m_source_file>
AV-unprocessed.smi

> <i_m_source_file_index>
3348

> <i_lp_mmshare_version>
43012

> <i_f3d_flags>
0

> <s_epik_input>
bjFbY0hdW2NIXVtjSF1uMVtDSDJdW0NAQEhdKFtDSDNdKVtOSF1bQ0gyXVtDSDJdT1tDQEBIXTJbQ0gyXVtDSDJdW0NIMl1bQ0gyXVtDQEhdMltDSDNd

> <s_epik_cmdline>
J2VwaWtfcHl0aG9uJywgJy1waCcsICc3LjAnLCAnLXRuJywgJzgnLCAnLW1hJywgJzIwMCcsICctbWV0YWxfYmluZGluZycsICctaW1hZScsICc8aW5maWxlLm1hZT4nLCAnLW9tYWUnLCAnPG91dGZpbGUubWFlPic=

> <r_lp_tautomer_probability>
1

> <r_epik_Ionization_Penalty>
0.00925088

> <r_epik_Ionization_Penalty_Charging>
0.00924645

> <r_epik_Ionization_Penalty_Neutral>
4.42413e-06

> <r_epik_State_Penalty>
0.0070118

> <r_epik_Charging_Adjusted_Penalty>
0.0162583

> <i_epik_Tot_Q>
1

> <i_epik_Tot_abs_Q>
1

> <r_epik_Metal_State_Penalty>
0.00701222

> <b_epik_Metal_Only>
0

> <s_lp_Force_Field>
OPLS_2005

> <r_lp_Energy>
17.627

> <b_lp_Chiralities_Consistent>
1

> <s_lp_Variant>
AV-unprocessed.smi:3348-3

> <Gold.Version>
5.8.1

> <Gold.Id.Protein>
6NUR|6NUR_protein|mol2

> <Gold.PLP.Fitness>
45.5111

> <Gold.PLP.PLP>
-35.6703

> <Gold.PLP.part.hbond>
-1.0881

> <Gold.PLP.part.metal>
0.0000

> <Gold.PLP.part.buried>
-2.3873

> <Gold.PLP.part.nonpolar>
-31.8380

> <Gold.PLP.part.repulsive>
0.4128

> <Gold.PLP.ligand.clash>
0.0000

> <Gold.PLP.ligand.torsion>
1.1558

> <Gold.PLP.Chemscore.Hbond>
2.0000

> <Gold.PLP.Chemscore.CHOScore>
1.9977

> <Gold.PLP.Chemscore.Metal>
0.0000

> <Gold.Chemscore.Hbonds>
donor molecule, donor type, donor heavy atom, donor atom, acceptor molecule, acceptor atom, score
      L1  H     9    29       P1  7948  2.00
      L1  C     5    26       P1 10186  0.78
      L1  C     7    28       P1 10747  0.98

> <Gold.PLP.Chemscore.Internal.Correction>
0.1593

> <Gold.Rescore>
     Score         DG    S(hbond)    S(metal)    S(lipo)     H(rot)  DE(clash)    DE(int)     intcor
     11.57     -13.94       0.96        0.00      84.56       1.82       0.13       2.23       ----

> <Gold.Chemscore.Fitness>
11.5718

> <Gold.Chemscore.DG>
-13.9358

> <Gold.Chemscore.ZeroCoef>
-5.4800

> <Gold.Chemscore.Hbond>
0.9616

> <Gold.Chemscore.Metal>
0.0000

> <Gold.Chemscore.Lipo>
84.5623

> <Gold.Chemscore.Internal_Hbond>
0.0000

> <Gold.Chemscore.DEClash>
0.1334

> <Gold.Chemscore.DEInternal>
2.2306

> <Gold.Chemscore.Rot>
1.8163

> <Gold.Chemscore.Internal.Correction>
   9.000000E+99

> <Gold.Chemscore.Hbonds>
donor molecule, donor type, donor heavy atom, donor atom, acceptor molecule, acceptor atom, score
      L1  H     9    29       P1  7948  0.91

> <Gold.Chemscore.Hbond.Weighted>
-3.2117

> <Gold.Chemscore.Metal.Weighted>
-0.0000

> <Gold.Chemscore.Lipo.Weighted>
-9.8938

> <Gold.Chemscore.Internal_Hbond.Weighted>
0.0000

> <Gold.Chemscore.DEClash.Weighted>
0.1334

> <Gold.Chemscore.DEInternal.Weighted>
2.2306

> <Gold.Chemscore.Rot.Weighted>
4.6497

> <Gold.Chemscore.Internal.Correction.Weighted>
   9.000000E+99

> <Gold.Protein.RotatedTorsions>
[ 6907 6896 6895 6894 ] final -155.13 input  -60.11 | X-H torsion
[ 7974 7965 7964 7962 ] final  179.57 input  175.53 | X-H torsion
[ 8008 7997 7996 7995 ] final  -70.94 input   59.86 | X-H torsion
[ 10167 10162 10161 10158 ] final  113.65 input  -65.29 | X-H torsion
[ 10718 10713 10712 10709 ] final -135.60 input   66.30 | X-H torsion
[ 10763 10752 10751 10750 ] final  -13.75 input  -60.55 | X-H torsion
[ 11005 11000 10999 10996 ] final  -61.68 input  -57.11 | X-H torsion

> <Gold.Protein.ActiveResidues>
 VAL166  LYS551  ARG553  GLY616  TRP617  ASP618  TYR619  PRO620  LYS621  CYS622 
 ASP623  PHE694  ASN695  SER759  ASP760  ASP761  ALA762  ILE779  LEU786  VAL792 
 PHE793  MET794  SER795  GLU796  ALA797  LYS798  CYS799  TRP800  GLU811  SER814 

> <Gold.Protein.RotatedAtoms>
  151.2679  133.4269  159.2619 H   0  0  0  0  0  0  0  0  0  0  0  0  # atno 6907 bound_to 6896
  151.0471  134.9648  159.8202 H   0  0  0  0  0  0  0  0  0  0  0  0  # atno 6908 bound_to 6896
  152.5376  134.2635  159.8997 H   0  0  0  0  0  0  0  0  0  0  0  0  # atno 6909 bound_to 6896
  144.7144  140.0568  143.6434 H   0  0  0  0  0  0  0  0  0  0  0  0  # atno 7974 bound_to 7965
  154.5050  140.0825  156.7875 H   0  0  0  0  0  0  0  0  0  0  0  0  # atno 8008 bound_to 7997
  155.3915  140.3433  155.4233 H   0  0  0  0  0  0  0  0  0  0  0  0  # atno 8009 bound_to 7997
  156.1504  140.1556  156.8767 H   0  0  0  0  0  0  0  0  0  0  0  0  # atno 8010 bound_to 7997
  139.6446  144.7126  151.2168 H   0  0  0  0  0  0  0  0  0  0  0  0  # atno 10167 bound_to 10162
  156.2680  130.7248  151.1206 H   0  0  0  0  0  0  0  0  0  0  0  0  # atno 10718 bound_to 10713
  153.5180  135.7016  153.5746 H   0  0  0  0  0  0  0  0  0  0  0  0  # atno 10763 bound_to 10752
  153.3807  135.3921  155.1855 H   0  0  0  0  0  0  0  0  0  0  0  0  # atno 10764 bound_to 10752
  154.8697  135.3834  154.4666 H   0  0  0  0  0  0  0  0  0  0  0  0  # atno 10765 bound_to 10752
  141.1333  133.6632  156.5412 H   0  0  0  0  0  0  0  0  0  0  0  0  # atno 11005 bound_to 11000
  145.9898  139.3006  143.0992 LP  0  0  0  0  0  0  0  0  0  0  0  0  # atno 17320 bound_to 7965
  145.8916  140.9300  143.0549 LP  0  0  0  0  0  0  0  0  0  0  0  0  # atno 17321 bound_to 7965
  140.7508  143.6253  150.8474 LP  0  0  0  0  0  0  0  0  0  0  0  0  # atno 17342 bound_to 10162
  139.9894  143.5863  152.2915 LP  0  0  0  0  0  0  0  0  0  0  0  0  # atno 17343 bound_to 10162
  157.7274  131.0639  150.5867 LP  0  0  0  0  0  0  0  0  0  0  0  0  # atno 17370 bound_to 10713
  156.5961  130.4342  149.5916 LP  0  0  0  0  0  0  0  0  0  0  0  0  # atno 17371 bound_to 10713
  140.4138  134.7249  157.4851 LP  0  0  0  0  0  0  0  0  0  0  0  0  # atno 17394 bound_to 11000
  140.0408  134.6270  155.8983 LP  0  0  0  0  0  0  0  0  0  0  0  0  # atno 17395 bound_to 11000

$$$$
