AV-unprocessed.smi:1129|AV-procd|sdf|4847|dock8
  -GOLD-   22720 3413D 1   1.00000     0.00000
 Structure written by MMmdl.
 40 41  0  0  0  0  0  0  0  0  1 V2000
  152.0227  144.7704  159.0937 C   0  0  0  0  0  0  0  0  0  0  0  0
  151.1641  143.7090  158.7143 O   0  0  0  0  0  0  0  0  0  0  0  0
  151.7778  142.8137  157.8020 C   0  0  0  0  0  0  0  0  0  0  0  0
  150.8060  141.6729  157.4851 C   0  0  0  0  0  0  0  0  0  0  0  0
  150.9204  141.3424  156.1043 O   0  0  0  0  0  0  0  0  0  0  0  0
  150.6852  140.0392  155.7168 C   0  0  0  0  0  0  0  0  0  0  0  0
  150.8273  139.0162  156.6751 C   0  0  0  0  0  0  0  0  0  0  0  0
  150.5910  137.6830  156.2889 C   0  0  0  0  0  0  0  0  0  0  0  0
  150.2260  137.4139  154.9484 C   0  0  0  0  0  0  0  0  0  0  0  0
  149.9411  136.1158  154.4461 N   0  0  0  0  0  0  0  0  0  0  0  0
  150.1256  134.9277  155.0514 C   0  0  0  0  0  0  0  0  0  0  0  0
  150.6046  134.7932  156.1774 O   0  0  0  0  0  0  0  0  0  0  0  0
  149.7006  133.6901  154.2369 C   0  0  1  0  0  0  0  0  0  0  0  0
  149.9940  132.3702  154.9747 C   0  0  0  0  0  0  0  0  0  0  0  0
  149.0702  132.1293  156.1838 C   0  0  0  0  0  0  0  0  0  0  0  0
  147.5982  132.4807  155.9193 C   0  0  0  0  0  0  0  0  0  0  0  0
  146.7322  132.0680  156.6871 O   0  0  0  0  0  0  0  0  0  0  0  0
  147.2916  133.2702  154.8749 N   0  0  0  0  0  0  0  0  0  0  0  0
  148.2101  133.7260  153.8298 C   0  0  0  0  0  0  0  0  0  0  0  0
  150.0935  138.5102  154.0713 C   0  0  0  0  0  0  0  0  0  0  0  0
  150.3209  139.7900  154.4345 N   0  0  0  0  0  0  0  0  0  0  0  0
  151.5044  145.4294  159.7899 H   0  0  0  0  0  0  0  0  0  0  0  0
  152.3230  145.3632  158.2287 H   0  0  0  0  0  0  0  0  0  0  0  0
  152.9190  144.3953  159.5896 H   0  0  0  0  0  0  0  0  0  0  0  0
  152.0741  143.3282  156.8864 H   0  0  0  0  0  0  0  0  0  0  0  0
  152.6820  142.4050  158.2554 H   0  0  0  0  0  0  0  0  0  0  0  0
  151.0685  140.8032  158.0894 H   0  0  0  0  0  0  0  0  0  0  0  0
  149.7856  141.9640  157.7405 H   0  0  0  0  0  0  0  0  0  0  0  0
  151.1089  139.2504  157.6910 H   0  0  0  0  0  0  0  0  0  0  0  0
  150.6789  136.9007  157.0265 H   0  0  0  0  0  0  0  0  0  0  0  0
  149.6240  136.0808  153.4880 H   0  0  0  0  0  0  0  0  0  0  0  0
  150.2877  133.6972  153.3169 H   0  0  0  0  0  0  0  0  0  0  0  0
  149.8827  131.5417  154.2739 H   0  0  0  0  0  0  0  0  0  0  0  0
  151.0349  132.3436  155.2997 H   0  0  0  0  0  0  0  0  0  0  0  0
  149.1418  131.0886  156.5018 H   0  0  0  0  0  0  0  0  0  0  0  0
  149.4056  132.7305  157.0294 H   0  0  0  0  0  0  0  0  0  0  0  0
  146.3202  133.5198  154.7563 H   0  0  0  0  0  0  0  0  0  0  0  0
  147.9174  134.7306  153.5215 H   0  0  0  0  0  0  0  0  0  0  0  0
  148.0581  133.0874  152.9589 H   0  0  0  0  0  0  0  0  0  0  0  0
  149.8012  138.3571  153.0427 H   0  0  0  0  0  0  0  0  0  0  0  0
  1  2  1  0  0  0  0
  1 22  1  0  0  0  0
  1 23  1  0  0  0  0
  1 24  1  0  0  0  0
  2  3  1  0  0  0  0
  3  4  1  0  0  0  0
  3 25  1  0  0  0  0
  3 26  1  0  0  0  0
  4  5  1  0  0  0  0
  4 27  1  0  0  0  0
  4 28  1  0  0  0  0
  5  6  1  0  0  0  0
  6 21  1  0  0  0  0
  6  7  2  0  0  0  0
  7  8  1  0  0  0  0
  7 29  1  0  0  0  0
  8  9  2  0  0  0  0
  8 30  1  0  0  0  0
  9 10  1  0  0  0  0
  9 20  1  0  0  0  0
 10 11  1  0  0  0  0
 10 31  1  0  0  0  0
 11 12  2  0  0  0  0
 11 13  1  0  0  0  0
 13 19  1  0  0  0  0
 13 14  1  0  0  0  0
 13 32  1  0  0  0  0
 14 15  1  0  0  0  0
 14 33  1  0  0  0  0
 14 34  1  0  0  0  0
 15 16  1  0  0  0  0
 15 35  1  0  0  0  0
 15 36  1  0  0  0  0
 16 17  2  0  0  0  0
 16 18  1  0  0  0  0
 18 19  1  0  0  0  0
 18 37  1  0  0  0  0
 19 38  1  0  0  0  0
 19 39  1  0  0  0  0
 20 21  2  0  0  0  0
 20 40  1  0  0  0  0
M  END
> <s_m_source_file>
AV-unprocessed.smi

> <i_m_source_file_index>
1129

> <i_lp_mmshare_version>
43012

> <i_f3d_flags>
0

> <s_epik_input>
W0NIM11PW0NIMl1bQ0gyXU9jMVtjSF1bY0hdYyhbY0hdbjEpW05IXUMoPU8pW0NAQEhdMltDSDJdW0NIMl1DKD1PKVtOSF1bQ0gyXTI=

> <s_epik_cmdline>
J2VwaWtfcHl0aG9uJywgJy1waCcsICc3LjAnLCAnLXRuJywgJzgnLCAnLW1hJywgJzIwMCcsICctbWV0YWxfYmluZGluZycsICctaW1hZScsICc8aW5maWxlLm1hZT4nLCAnLW9tYWUnLCAnPG91dGZpbGUubWFlPic=

> <r_lp_tautomer_probability>
1

> <r_epik_Ionization_Penalty>
1.79985e-05

> <r_epik_Ionization_Penalty_Charging>
0

> <r_epik_Ionization_Penalty_Neutral>
1.79985e-05

> <r_epik_State_Penalty>
-0

> <r_epik_Charging_Adjusted_Penalty>
0

> <i_epik_Tot_Q>
0

> <i_epik_Tot_abs_Q>
0

> <r_epik_Metal_State_Penalty>
-0

> <b_epik_Metal_Only>
0

> <s_lp_Force_Field>
OPLS_2005

> <r_lp_Energy>
14.8931

> <b_lp_Chiralities_Consistent>
1

> <s_lp_Variant>
AV-unprocessed.smi:1129-2

> <Gold.Version>
5.8.1

> <Gold.Id.Protein>
6NUR|6NUR_protein|mol2

> <Gold.PLP.Fitness>
38.8863

> <Gold.PLP.PLP>
-28.4465

> <Gold.PLP.part.hbond>
-2.5821

> <Gold.PLP.part.metal>
0.0000

> <Gold.PLP.part.buried>
-5.1960

> <Gold.PLP.part.nonpolar>
-22.1539

> <Gold.PLP.part.repulsive>
0.3631

> <Gold.PLP.ligand.clash>
0.0000

> <Gold.PLP.ligand.torsion>
0.8135

> <Gold.PLP.Chemscore.Hbond>
2.0000

> <Gold.PLP.Chemscore.CHOScore>
2.0000

> <Gold.PLP.Chemscore.Metal>
0.0000

> <Gold.Chemscore.Hbonds>
donor molecule, donor type, donor heavy atom, donor atom, acceptor molecule, acceptor atom, score
      L1  H    10    31       P1  7948  1.00
      P1  H  7989  7998       L1    21  1.00
      L1  C    20    40       P1  7948  1.00
      L1  C    20    40       P1  7957  1.00

> <Gold.PLP.Chemscore.Internal.Correction>
0.0669

> <Gold.Rescore>
     Score         DG    S(hbond)    S(metal)    S(lipo)     H(rot)  DE(clash)    DE(int)     intcor
     10.94     -13.13       1.50        0.00      66.90       2.03       0.05       2.13       ----

> <Gold.Chemscore.Fitness>
10.9435

> <Gold.Chemscore.DG>
-13.1293

> <Gold.Chemscore.ZeroCoef>
-5.4800

> <Gold.Chemscore.Hbond>
1.4990

> <Gold.Chemscore.Metal>
0.0000

> <Gold.Chemscore.Lipo>
66.9050

> <Gold.Chemscore.Internal_Hbond>
0.0000

> <Gold.Chemscore.DEClash>
0.0530

> <Gold.Chemscore.DEInternal>
2.1328

> <Gold.Chemscore.Rot>
2.0255

> <Gold.Chemscore.Internal.Correction>
   9.000000E+99

> <Gold.Chemscore.Hbonds>
donor molecule, donor type, donor heavy atom, donor atom, acceptor molecule, acceptor atom, score
      L1  H    10    31       P1  7948  0.30
      P1  H  7989  7998       L1    21  0.29

> <Gold.Chemscore.Hbond.Weighted>
-5.0066

> <Gold.Chemscore.Metal.Weighted>
-0.0000

> <Gold.Chemscore.Lipo.Weighted>
-7.8279

> <Gold.Chemscore.Internal_Hbond.Weighted>
0.0000

> <Gold.Chemscore.DEClash.Weighted>
0.0530

> <Gold.Chemscore.DEInternal.Weighted>
2.1328

> <Gold.Chemscore.Rot.Weighted>
5.1853

> <Gold.Chemscore.Internal.Correction.Weighted>
   9.000000E+99

> <Gold.Protein.RotatedTorsions>
[ 6907 6896 6895 6894 ] final   29.01 input  -60.11 | X-H torsion
[ 7974 7965 7964 7962 ] final  157.69 input  175.53 | X-H torsion
[ 8008 7997 7996 7995 ] final  -44.13 input   59.86 | X-H torsion
[ 10167 10162 10161 10158 ] final -162.58 input  -65.29 | X-H torsion
[ 10718 10713 10712 10709 ] final   12.71 input   66.30 | X-H torsion
[ 10763 10752 10751 10750 ] final    9.82 input  -60.55 | X-H torsion
[ 11005 11000 10999 10996 ] final  172.37 input  -57.11 | X-H torsion

> <Gold.Protein.ActiveResidues>
 VAL166  LYS551  ARG553  GLY616  TRP617  ASP618  TYR619  PRO620  LYS621  CYS622 
 ASP623  PHE694  ASN695  SER759  ASP760  ASP761  ALA762  ILE779  LEU786  VAL792 
 PHE793  MET794  SER795  GLU796  ALA797  LYS798  CYS799  TRP800  GLU811  SER814 

> <Gold.Protein.RotatedAtoms>
  152.0254  134.9799  160.0571 H   0  0  0  0  0  0  0  0  0  0  0  0  # atno 6907 bound_to 6896
  152.1297  133.4396  159.4723 H   0  0  0  0  0  0  0  0  0  0  0  0  # atno 6908 bound_to 6896
  150.6855  134.2354  159.4494 H   0  0  0  0  0  0  0  0  0  0  0  0  # atno 6909 bound_to 6896
  144.7889  139.7375  143.6229 H   0  0  0  0  0  0  0  0  0  0  0  0  # atno 7974 bound_to 7965
  154.3997  140.1430  156.3632 H   0  0  0  0  0  0  0  0  0  0  0  0  # atno 8008 bound_to 7997
  155.8162  140.3471  155.5466 H   0  0  0  0  0  0  0  0  0  0  0  0  # atno 8009 bound_to 7997
  155.8336  140.0916  157.1768 H   0  0  0  0  0  0  0  0  0  0  0  0  # atno 8010 bound_to 7997
  139.6382  144.0310  152.2071 H   0  0  0  0  0  0  0  0  0  0  0  0  # atno 10167 bound_to 10162
  157.0140  130.6128  149.5712 H   0  0  0  0  0  0  0  0  0  0  0  0  # atno 10718 bound_to 10713
  153.2099  135.6867  153.8127 H   0  0  0  0  0  0  0  0  0  0  0  0  # atno 10763 bound_to 10752
  153.7363  135.3245  155.3296 H   0  0  0  0  0  0  0  0  0  0  0  0  # atno 10764 bound_to 10752
  154.8216  135.4648  154.0901 H   0  0  0  0  0  0  0  0  0  0  0  0  # atno 10765 bound_to 10752
  140.3290  134.7373  157.4120 H   0  0  0  0  0  0  0  0  0  0  0  0  # atno 11005 bound_to 11000
  146.2132  139.5504  142.9667 LP  0  0  0  0  0  0  0  0  0  0  0  0  # atno 17320 bound_to 7965
  145.5848  141.0378  143.2102 LP  0  0  0  0  0  0  0  0  0  0  0  0  # atno 17321 bound_to 7965
  139.9993  144.6305  150.7744 LP  0  0  0  0  0  0  0  0  0  0  0  0  # atno 17342 bound_to 10162
  140.7476  143.2910  151.3332 LP  0  0  0  0  0  0  0  0  0  0  0  0  # atno 17343 bound_to 10162
  156.0126  130.5218  150.8035 LP  0  0  0  0  0  0  0  0  0  0  0  0  # atno 17370 bound_to 10713
  157.5299  131.0936  150.9969 LP  0  0  0  0  0  0  0  0  0  0  0  0  # atno 17371 bound_to 10713
  140.0877  134.5644  155.8476 LP  0  0  0  0  0  0  0  0  0  0  0  0  # atno 17394 bound_to 11000
  141.2068  133.6658  156.6265 LP  0  0  0  0  0  0  0  0  0  0  0  0  # atno 17395 bound_to 11000

$$$$
