AV-unprocessed.smi:224|AV-procd|sdf|1711|dock3
  -GOLD-   2262020173D 1   1.00000     0.00000
 Structure written by MMmdl.
 56 59  0  0  0  0  0  0  0  0  2 V2000
  143.1588  136.0950  153.8293 C   0  0  0  0  0  0  0  0  0  0  0  0
  143.6792  137.5361  153.7215 C   0  0  2  0  0  0  0  0  0  0  0  0
  143.5227  137.9632  152.3847 O   0  0  0  0  0  0  0  0  0  0  0  0
  145.1672  137.6668  154.1044 C   0  0  0  0  0  0  0  0  0  0  0  0
  145.6288  139.0847  154.1183 N   0  3  2  0  0  0  0  0  0  0  0  0
  146.7893  139.2767  153.2011 C   0  0  0  0  0  0  0  0  0  0  0  0
  147.2901  140.7309  153.1784 C   0  0  0  0  0  0  0  0  0  0  0  0
  147.5469  141.2200  154.5281 N   0  0  0  0  0  0  0  0  0  0  0  0
  148.7642  141.0099  155.0991 C   0  0  0  0  0  0  0  0  0  0  0  0
  149.7054  140.2842  154.4380 N   0  0  0  0  0  0  0  0  0  0  0  0
  150.8966  140.0482  154.9949 C   0  0  0  0  0  0  0  0  0  0  0  0
  151.3513  140.4393  156.1857 N   0  0  0  0  0  0  0  0  0  0  0  0
  150.4208  141.1811  156.8508 C   0  0  0  0  0  0  0  0  0  0  0  0
  149.1184  141.5167  156.3830 C   0  0  0  0  0  0  0  0  0  0  0  0
  148.4695  142.3048  157.3270 N   0  0  0  0  0  0  0  0  0  0  0  0
  149.3304  142.4137  158.3014 C   0  0  0  0  0  0  0  0  0  0  0  0
  150.5240  141.7576  158.1045 N   0  0  0  0  0  0  0  0  0  0  0  0
  151.6495  141.6974  159.0238 C   0  0  0  0  0  0  0  0  0  0  0  0
  152.2910  143.0783  159.2949 C   0  0  2  0  0  0  0  0  0  0  0  0
  153.6499  142.8963  159.6542 O   0  0  0  0  0  0  0  0  0  0  0  0
  151.6031  143.8793  160.3977 C   0  0  0  0  0  0  0  0  0  0  0  0
  151.7846  145.3188  159.9375 C   0  0  0  0  0  0  0  0  0  0  0  0
  151.5938  145.2181  158.5370 O   0  0  0  0  0  0  0  0  0  0  0  0
  152.2287  144.0279  158.0816 C   0  0  0  0  0  0  0  0  0  0  0  0
  146.3899  141.0996  155.4056 C   0  0  0  0  0  0  0  0  0  0  0  0
  145.8767  139.6437  155.4868 C   0  0  1  0  0  0  0  0  0  0  0  0
  144.6164  139.6344  156.3772 C   0  0  0  0  0  0  0  0  0  0  0  0
  143.2196  135.7285  154.8543 H   0  0  0  0  0  0  0  0  0  0  0  0
  143.7336  135.4148  153.1995 H   0  0  0  0  0  0  0  0  0  0  0  0
  142.1143  136.0307  153.5221 H   0  0  0  0  0  0  0  0  0  0  0  0
  143.0620  138.1906  154.3357 H   0  0  0  0  0  0  0  0  0  0  0  0
  143.3022  138.8823  152.3806 H   0  0  0  0  0  0  0  0  0  0  0  0
  145.2961  137.1864  155.0707 H   0  0  0  0  0  0  0  0  0  0  0  0
  145.7910  137.0942  153.4158 H   0  0  0  0  0  0  0  0  0  0  0  0
  147.5985  138.6132  153.5082 H   0  0  0  0  0  0  0  0  0  0  0  0
  146.5237  138.9863  152.1857 H   0  0  0  0  0  0  0  0  0  0  0  0
  148.1783  140.8258  152.5523 H   0  0  0  0  0  0  0  0  0  0  0  0
  146.5326  141.3712  152.7247 H   0  0  0  0  0  0  0  0  0  0  0  0
  151.5824  139.4598  154.4032 H   0  0  0  0  0  0  0  0  0  0  0  0
  149.1139  142.9742  159.1991 H   0  0  0  0  0  0  0  0  0  0  0  0
  151.3099  141.2480  159.9582 H   0  0  0  0  0  0  0  0  0  0  0  0
  152.3905  141.0133  158.6080 H   0  0  0  0  0  0  0  0  0  0  0  0
  154.1727  142.9084  158.8670 H   0  0  0  0  0  0  0  0  0  0  0  0
  150.5363  143.6532  160.4192 H   0  0  0  0  0  0  0  0  0  0  0  0
  152.0025  143.6916  161.3954 H   0  0  0  0  0  0  0  0  0  0  0  0
  151.0693  146.0027  160.3944 H   0  0  0  0  0  0  0  0  0  0  0  0
  152.7934  145.6768  160.1491 H   0  0  0  0  0  0  0  0  0  0  0  0
  153.2215  144.2698  157.6984 H   0  0  0  0  0  0  0  0  0  0  0  0
  151.6539  143.6098  157.2546 H   0  0  0  0  0  0  0  0  0  0  0  0
  146.6047  141.4682  156.4071 H   0  0  0  0  0  0  0  0  0  0  0  0
  145.6040  141.7460  155.0127 H   0  0  0  0  0  0  0  0  0  0  0  0
  146.6461  139.0351  155.9652 H   0  0  0  0  0  0  0  0  0  0  0  0
  144.7875  140.2000  157.2939 H   0  0  0  0  0  0  0  0  0  0  0  0
  144.3259  138.6347  156.6955 H   0  0  0  0  0  0  0  0  0  0  0  0
  143.7667  140.0901  155.8675 H   0  0  0  0  0  0  0  0  0  0  0  0
  144.8702  139.6342  153.7406 H   0  0  0  0  0  0  0  0  0  0  0  0
  1  2  1  0  0  0  0
  1 28  1  0  0  0  0
  1 29  1  0  0  0  0
  1 30  1  0  0  0  0
  2  3  1  0  0  0  0
  2  4  1  0  0  0  0
  2 31  1  0  0  0  0
  3 32  1  0  0  0  0
  4  5  1  0  0  0  0
  4 33  1  0  0  0  0
  4 34  1  0  0  0  0
  5 26  1  0  0  0  0
  5  6  1  0  0  0  0
  5 56  1  0  0  0  0
  6  7  1  0  0  0  0
  6 35  1  0  0  0  0
  6 36  1  0  0  0  0
  7  8  1  0  0  0  0
  7 37  1  0  0  0  0
  7 38  1  0  0  0  0
  8  9  1  0  0  0  0
  8 25  1  0  0  0  0
  9 14  1  0  0  0  0
  9 10  2  0  0  0  0
 10 11  1  0  0  0  0
 11 12  2  0  0  0  0
 11 39  1  0  0  0  0
 12 13  1  0  0  0  0
 13 17  1  0  0  0  0
 13 14  2  0  0  0  0
 14 15  1  0  0  0  0
 15 16  2  0  0  0  0
 16 17  1  0  0  0  0
 16 40  1  0  0  0  0
 17 18  1  0  0  0  0
 18 19  1  0  0  0  0
 18 41  1  0  0  0  0
 18 42  1  0  0  0  0
 19 24  1  0  0  0  0
 19 20  1  0  0  0  0
 19 21  1  0  0  0  0
 20 43  1  0  0  0  0
 21 22  1  0  0  0  0
 21 44  1  0  0  0  0
 21 45  1  0  0  0  0
 22 23  1  0  0  0  0
 22 46  1  0  0  0  0
 22 47  1  0  0  0  0
 23 24  1  0  0  0  0
 24 48  1  0  0  0  0
 24 49  1  0  0  0  0
 25 26  1  0  0  0  0
 25 50  1  0  0  0  0
 25 51  1  0  0  0  0
 26 27  1  0  0  0  0
 26 52  1  0  0  0  0
 27 53  1  0  0  0  0
 27 54  1  0  0  0  0
 27 55  1  0  0  0  0
M  CHG  1   5   1
M  END
> <s_m_source_file>
AV-unprocessed.smi

> <i_m_source_file_index>
224

> <i_lp_mmshare_version>
43012

> <i_f3d_flags>
0

> <s_epik_input>
W0NIM11bQ0BIXShbT0hdKVtDSDJdTjFbQ0gyXVtDSDJdTihbQ0gyXVtDQEhdMVtDSDNdKWMobltjSF1uMiljKGMyMyluW2NIXW4zW0NIMl1bQ0BAXTQoW09IXSlbQ0gyXVtDSDJdT1tDSDJdNA==

> <s_epik_cmdline>
J2VwaWtfcHl0aG9uJywgJy1waCcsICc3LjAnLCAnLXRuJywgJzgnLCAnLW1hJywgJzIwMCcsICctbWV0YWxfYmluZGluZycsICctaW1hZScsICc8aW5maWxlLm1hZT4nLCAnLW9tYWUnLCAnPG91dGZpbGUubWFlPic=

> <r_lp_tautomer_probability>
1

> <r_epik_Ionization_Penalty>
0.00516958

> <r_epik_Ionization_Penalty_Charging>
0.00509693

> <r_epik_Ionization_Penalty_Neutral>
7.26542e-05

> <r_epik_State_Penalty>
-0

> <r_epik_Charging_Adjusted_Penalty>
0.00509693

> <i_epik_Tot_Q>
1

> <i_epik_Tot_abs_Q>
1

> <r_epik_Metal_State_Penalty>
-0

> <b_epik_Metal_Only>
0

> <s_lp_Force_Field>
OPLS_2005

> <r_lp_Energy>
47.9311

> <b_lp_Chiralities_Consistent>
1

> <s_lp_Variant>
AV-unprocessed.smi:224-5

> <Gold.Version>
5.8.1

> <Gold.Id.Protein>
6NUR|6NUR_protein|mol2

> <Gold.PLP.Fitness>
48.5816

> <Gold.PLP.PLP>
-41.7671

> <Gold.PLP.part.hbond>
-3.8150

> <Gold.PLP.part.metal>
0.0000

> <Gold.PLP.part.buried>
-3.7669

> <Gold.PLP.part.nonpolar>
-34.6972

> <Gold.PLP.part.repulsive>
1.3965

> <Gold.PLP.ligand.clash>
0.0000

> <Gold.PLP.ligand.torsion>
1.4470

> <Gold.PLP.Chemscore.Hbond>
3.0000

> <Gold.PLP.Chemscore.CHOScore>
0.0000

> <Gold.PLP.Chemscore.Metal>
0.0000

> <Gold.Chemscore.Hbonds>
donor molecule, donor type, donor heavy atom, donor atom, acceptor molecule, acceptor atom, score
      L1  H     3    32       P1 10175  1.00
      L1  H     5    56       P1 10175  2.00

> <Gold.PLP.Chemscore.Internal.Correction>
0.7085

> <Gold.Rescore>
     Score         DG    S(hbond)    S(metal)    S(lipo)     H(rot)  DE(clash)    DE(int)     intcor
     10.95     -13.92       1.98        0.00      89.12       3.36       1.85       1.12       ----

> <Gold.Chemscore.Fitness>
10.9465

> <Gold.Chemscore.DG>
-13.9201

> <Gold.Chemscore.ZeroCoef>
-5.4800

> <Gold.Chemscore.Hbond>
1.9812

> <Gold.Chemscore.Metal>
0.0000

> <Gold.Chemscore.Lipo>
89.1218

> <Gold.Chemscore.Internal_Hbond>
0.0000

> <Gold.Chemscore.DEClash>
1.8497

> <Gold.Chemscore.DEInternal>
1.1239

> <Gold.Chemscore.Rot>
3.3611

> <Gold.Chemscore.Internal.Correction>
   9.000000E+99

> <Gold.Chemscore.Hbonds>
donor molecule, donor type, donor heavy atom, donor atom, acceptor molecule, acceptor atom, score
      L1  H     3    32       P1 10175  0.96
      L1  H     5    56       P1 10175  0.99

> <Gold.Chemscore.Hbond.Weighted>
-6.6173

> <Gold.Chemscore.Metal.Weighted>
-0.0000

> <Gold.Chemscore.Lipo.Weighted>
-10.4273

> <Gold.Chemscore.Internal_Hbond.Weighted>
0.0000

> <Gold.Chemscore.DEClash.Weighted>
1.8497

> <Gold.Chemscore.DEInternal.Weighted>
1.1239

> <Gold.Chemscore.Rot.Weighted>
8.6045

> <Gold.Chemscore.Internal.Correction.Weighted>
   9.000000E+99

> <Gold.Protein.RotatedTorsions>
[ 6907 6896 6895 6894 ] final    7.57 input  -60.11 | X-H torsion
[ 7974 7965 7964 7962 ] final  -65.11 input  175.53 | X-H torsion
[ 8008 7997 7996 7995 ] final   14.96 input   59.86 | X-H torsion
[ 10167 10162 10161 10158 ] final   64.52 input  -65.29 | X-H torsion
[ 10718 10713 10712 10709 ] final    3.65 input   66.30 | X-H torsion
[ 10763 10752 10751 10750 ] final -125.73 input  -60.55 | X-H torsion
[ 11005 11000 10999 10996 ] final  122.60 input  -57.11 | X-H torsion

> <Gold.Protein.ActiveResidues>
 VAL166  LYS551  ARG553  GLY616  TRP617  ASP618  TYR619  PRO620  LYS621  CYS622 
 ASP623  PHE694  ASN695  SER759  ASP760  ASP761  ALA762  ILE779  LEU786  VAL792 
 PHE793  MET794  SER795  GLU796  ALA797  LYS798  CYS799  TRP800  GLU811  SER814 

> <Gold.Protein.RotatedAtoms>
  151.6920  135.0945  160.0235 H   0  0  0  0  0  0  0  0  0  0  0  0  # atno 6907 bound_to 6896
  152.3773  133.6494  159.6142 H   0  0  0  0  0  0  0  0  0  0  0  0  # atno 6908 bound_to 6896
  150.7719  133.9089  159.3405 H   0  0  0  0  0  0  0  0  0  0  0  0  # atno 6909 bound_to 6896
  145.7584  140.8874  143.0443 H   0  0  0  0  0  0  0  0  0  0  0  0  # atno 7974 bound_to 7965
  154.8558  140.2936  155.5570 H   0  0  0  0  0  0  0  0  0  0  0  0  # atno 8008 bound_to 7997
  156.3018  140.2487  156.3456 H   0  0  0  0  0  0  0  0  0  0  0  0  # atno 8009 bound_to 7997
  154.8972  140.0392  157.1861 H   0  0  0  0  0  0  0  0  0  0  0  0  # atno 8010 bound_to 7997
  140.1212  144.4729  150.6919 H   0  0  0  0  0  0  0  0  0  0  0  0  # atno 10167 bound_to 10162
  156.8810  130.5653  149.5653 H   0  0  0  0  0  0  0  0  0  0  0  0  # atno 10718 bound_to 10713
  154.8739  135.4019  154.3316 H   0  0  0  0  0  0  0  0  0  0  0  0  # atno 10763 bound_to 10752
  153.4129  135.7021  153.6352 H   0  0  0  0  0  0  0  0  0  0  0  0  # atno 10764 bound_to 10752
  153.5047  135.3720  155.2528 H   0  0  0  0  0  0  0  0  0  0  0  0  # atno 10765 bound_to 10752
  139.9275  134.9641  156.8133 H   0  0  0  0  0  0  0  0  0  0  0  0  # atno 11005 bound_to 11000
  144.6835  139.9688  143.7482 LP  0  0  0  0  0  0  0  0  0  0  0  0  # atno 17320 bound_to 7965
  146.0289  139.3317  143.0767 LP  0  0  0  0  0  0  0  0  0  0  0  0  # atno 17321 bound_to 7965
  140.6871  143.2355  151.5232 LP  0  0  0  0  0  0  0  0  0  0  0  0  # atno 17342 bound_to 10162
  139.5568  144.2257  152.1625 LP  0  0  0  0  0  0  0  0  0  0  0  0  # atno 17343 bound_to 10162
  156.0677  130.5717  150.9322 LP  0  0  0  0  0  0  0  0  0  0  0  0  # atno 17370 bound_to 10713
  157.6140  131.0934  150.8743 LP  0  0  0  0  0  0  0  0  0  0  0  0  # atno 17371 bound_to 10713
  140.6294  133.9920  155.7655 LP  0  0  0  0  0  0  0  0  0  0  0  0  # atno 17394 bound_to 11000
  141.0843  134.0015  157.3338 LP  0  0  0  0  0  0  0  0  0  0  0  0  # atno 17395 bound_to 11000

$$$$
