#       Name:                AV-unprocessed.smi:33
#       Creating user name   scv26
#       Creation time:       Thu Mar 26 15:47:58 2020


#       File generated by GOLD software.
#

@<TRIPOS>MOLECULE
AV-unprocessed.smi:33
    80    85     1
SMALL
NO_CHARGES


@<TRIPOS>ATOM
      1 ****        -6.6480   3.5205  -0.6509 O.2            1 S1                 0.0000
      2 ****        -6.1088   2.8472  -1.5318 C.2            1 S1                 0.0000
      3 ****        -5.2931   1.8048  -1.2789 O.3            1 S1                 0.0000
      4 ****        -5.0117   1.4362   0.0618 C.3            1 S1                 0.0000
      5 ****        -4.0541   0.2395   0.0790 C.3            1 S1                 0.0000
      6 ****        -3.6542  -0.0443   1.4113 O.3            1 S1                 0.0000
      7 ****        -3.1558  -1.3448   1.4689 C.3            1 S1                 0.0000
      8 ****        -1.6706  -1.2688   1.2564 N.pl3          1 S1                 0.0000
      9 ****        -0.9447  -1.1534   0.0862 C.2            1 S1                 0.0000
     10 ****         0.3504  -1.0763   0.2337 N.2            1 S1                 0.0000
     11 ****         0.5332  -1.1143   1.6089 C.ar           1 S1                 0.0000
     12 ****         1.6715  -1.0606   2.4575 C.ar           1 S1                 0.0000
     13 ****         2.9357  -0.9649   1.9838 N.am           1 S1                 0.0000
     14 ****         3.6405   0.3098   2.1902 C.2            1 S1                 0.0000
     15 ****         2.9885   1.3420   2.3600 O.2            1 S1                 0.0000
     16 ****         5.1412   0.3733   2.1366 C.ar           1 S1                 0.0000
     17 ****         5.7776   1.3833   1.3820 C.ar           1 S1                 0.0000
     18 ****         7.1833   1.4550   1.3331 C.ar           1 S1                 0.0000
     19 ****         7.9617   0.5288   2.0530 C.ar           1 S1                 0.0000
     20 ****         7.3339  -0.4619   2.8318 C.ar           1 S1                 0.0000
     21 ****         5.9283  -0.5338   2.8819 C.ar           1 S1                 0.0000
     22 ****         3.4813  -2.1484   1.3039 C.2            1 S1                 0.0000
     23 ****         3.0400  -3.2658   1.5793 O.2            1 S1                 0.0000
     24 ****         4.6001  -2.0087   0.3114 C.ar           1 S1                 0.0000
     25 ****         5.7184  -2.8682   0.3805 C.ar           1 S1                 0.0000
     26 ****         6.7632  -2.7500  -0.5564 C.ar           1 S1                 0.0000
     27 ****         6.6868  -1.7860  -1.5797 C.ar           1 S1                 0.0000
     28 ****         5.5608  -0.9459  -1.6721 C.ar           1 S1                 0.0000
     29 ****         4.5168  -1.0615  -0.7341 C.ar           1 S1                 0.0000
     30 ****         1.4696  -1.1074   3.7998 N.ar           1 S1                 0.0000
     31 ****         0.2263  -1.2044   4.2802 C.ar           1 S1                 0.0000
     32 ****        -0.9263  -1.2706   3.6088 N.ar           1 S1                 0.0000
     33 ****        -0.7257  -1.2232   2.2595 C.ar           1 S1                 0.0000
     34 ****        -3.8546  -2.1455   0.3515 C.3            1 S1                 0.0000
     35 ****        -4.6908  -3.1621   0.8650 O.3            1 S1                 0.0000
     36 ****        -4.6823  -1.0821  -0.3656 C.3            1 S1                 0.0000
     37 ****        -4.6268  -1.2327  -1.6894 F              1 S1                 0.0000
     38 ****        -6.2892   3.1055  -2.9896 C.ar           1 S1                 0.0000
     39 ****        -7.0922   4.1932  -3.4054 C.ar           1 S1                 0.0000
     40 ****        -7.2794   4.4651  -4.7746 C.ar           1 S1                 0.0000
     41 ****        -6.6662   3.6518  -5.7451 C.ar           1 S1                 0.0000
     42 ****        -5.8660   2.5657  -5.3447 C.ar           1 S1                 0.0000
     43 ****        -5.6771   2.2925  -3.9755 C.ar           1 S1                 0.0000
     44 ****        -4.5500   2.2811   0.5747 H              1 S1                 0.0000
     45 ****        -5.9343   1.1961   0.5921 H              1 S1                 0.0000
     46 ****        -3.1660   0.4648  -0.5125 H              1 S1                 0.0000
     47 ****        -3.2788  -1.7743   2.4640 H              1 S1                 0.0000
     48 ****        -1.4000  -1.1277  -0.8929 H              1 S1                 0.0000
     49 ****         5.1904   2.0987   0.8242 H              1 S1                 0.0000
     50 ****         7.6642   2.2214   0.7431 H              1 S1                 0.0000
     51 ****         9.0396   0.5831   2.0133 H              1 S1                 0.0000
     52 ****         7.9304  -1.1671   3.3915 H              1 S1                 0.0000
     53 ****         5.4581  -1.2964   3.4858 H              1 S1                 0.0000
     54 ****         5.7870  -3.6112   1.1620 H              1 S1                 0.0000
     55 ****         7.6232  -3.4000  -0.4902 H              1 S1                 0.0000
     56 ****         7.4883  -1.6966  -2.2981 H              1 S1                 0.0000
     57 ****         5.4966  -0.2135  -2.4631 H              1 S1                 0.0000
     58 ****         3.6549  -0.4149  -0.8170 H              1 S1                 0.0000
     59 ****         0.1425  -1.2328   5.3566 H              1 S1                 0.0000
     60 ****        -3.1237  -2.6077  -0.3117 H              1 S1                 0.0000
     61 ****        -4.1532  -3.7905   1.3228 H              1 S1                 0.0000
     62 ****        -5.7306  -1.1265  -0.0649 H              1 S1                 0.0000
     63 ****        -7.5729   4.8325  -2.6789 H              1 S1                 0.0000
     64 ****        -7.8944   5.2991  -5.0795 H              1 S1                 0.0000
     65 ****        -6.8098   3.8608  -6.7950 H              1 S1                 0.0000
     66 ****        -5.3957   1.9403  -6.0892 H              1 S1                 0.0000
     67 ****        -5.0572   1.4509  -3.7025 H              1 S1                 0.0000
     68 ****        -6.4889   3.3035   0.3122 LP             1 S1                 0.0000
     69 ****        -7.2445   4.2837  -0.8995 LP             1 S1                 0.0000
     70 ****        -4.4410   0.0405   2.0227 LP             1 S1                 0.0000
     71 ****        -2.9429   0.6000   1.6922 LP             1 S1                 0.0000
     72 ****         1.0485  -1.0061  -0.4788 LP             1 S1                 0.0000
     73 ****         1.9891   1.3084   2.3567 LP             1 S1                 0.0000
     74 ****         3.4590   2.2131   2.5011 LP             1 S1                 0.0000
     75 ****         2.3153  -3.3630   2.2615 LP             1 S1                 0.0000
     76 ****         3.4066  -4.0752   1.1206 LP             1 S1                 0.0000
     77 ****         2.2482  -1.0694   4.4262 LP             1 S1                 0.0000
     78 ****        -1.8249  -1.3456   4.0411 LP             1 S1                 0.0000
     79 ****        -5.1724  -3.6139   0.1141 LP             1 S1                 0.0000
     80 ****        -5.3564  -2.7643   1.4965 LP             1 S1                 0.0000
@<TRIPOS>BOND
    1    1    2 2     
    2    2    3 1     
    3    2   38 1     
    4    3    4 1     
    5    4    5 1     
    6    4   44 1     
    7    4   45 1     
    8    5   36 1     
    9    5    6 1     
   10    5   46 1     
   11    6    7 1     
   12    7    8 1     
   13    7   34 1     
   14    7   47 1     
   15    8   33 1     
   16    8    9 1     
   17    9   10 2     
   18    9   48 1     
   19   10   11 1     
   20   11   33 ar    
   21   11   12 ar    
   22   12   13 1     
   23   12   30 ar    
   24   13   14 am    
   25   13   22 am    
   26   14   15 2     
   27   14   16 1     
   28   16   21 ar    
   29   16   17 ar    
   30   17   18 ar    
   31   17   49 1     
   32   18   19 ar    
   33   18   50 1     
   34   19   20 ar    
   35   19   51 1     
   36   20   21 ar    
   37   20   52 1     
   38   21   53 1     
   39   22   23 2     
   40   22   24 1     
   41   24   29 ar    
   42   24   25 ar    
   43   25   26 ar    
   44   25   54 1     
   45   26   27 ar    
   46   26   55 1     
   47   27   28 ar    
   48   27   56 1     
   49   28   29 ar    
   50   28   57 1     
   51   29   58 1     
   52   30   31 ar    
   53   31   32 ar    
   54   31   59 1     
   55   32   33 ar    
   56   34   35 1     
   57   34   36 1     
   58   34   60 1     
   59   35   61 1     
   60   36   37 1     
   61   36   62 1     
   62   38   43 ar    
   63   38   39 ar    
   64   39   40 ar    
   65   39   63 1     
   66   40   41 ar    
   67   40   64 1     
   68   41   42 ar    
   69   41   65 1     
   70   42   43 ar    
   71   42   66 1     
   72   43   67 1     
   73    1   68 1     
   74    1   69 1     
   75    6   70 1     
   76    6   71 1     
   77   10   72 1     
   78   15   73 1     
   79   15   74 1     
   80   23   75 1     
   81   23   76 1     
   82   30   77 1     
   83   32   78 1     
   84   35   79 1     
   85   35   80 1     
@<TRIPOS>SUBSTRUCTURE
      1 S1             1
@<TRIPOS>SET
LONE_PAIRS      STATIC     ATOMS    <user>   **** ""
13 68 69 70 71 72 73 74 75 76 77 78 79 80
DONOR_HYDROGENS      STATIC     ATOMS    <user>   **** ""
1 61
ATOM$BLUE        STATIC     ATOMS    COLORGROUP SYSTEM
13 68 69 70 71 72 73 74 75 76 77 78 79 80
ATOM$RED        STATIC     ATOMS    COLORGROUP SYSTEM
1 61
