AV-unprocessed.smi:114|AV-procd|sdf|1118|dock1
  -GOLD-   2262018243D 1   1.00000     0.00000
 Structure written by MMmdl.
 32 34  0  0  0  0  0  0  0  0  1 V2000
  150.6806  134.2223  155.2336 N   0  0  0  0  0  0  0  0  0  0  0  0
  150.4226  135.5257  155.0558 C   0  0  0  0  0  0  0  0  0  0  0  0
  151.4573  136.3571  154.7918 N   0  0  0  0  0  0  0  0  0  0  0  0
  151.2430  137.6657  154.6078 C   0  0  0  0  0  0  0  0  0  0  0  0
  152.3343  138.4233  154.3471 F   0  0  0  0  0  0  0  0  0  0  0  0
  150.0716  138.3087  154.6520 N   0  0  0  0  0  0  0  0  0  0  0  0
  149.0247  137.4746  154.9169 C   0  0  0  0  0  0  0  0  0  0  0  0
  149.1186  136.0733  155.1314 C   0  0  0  0  0  0  0  0  0  0  0  0
  147.8581  135.5450  155.3757 N   0  0  0  0  0  0  0  0  0  0  0  0
  147.0660  136.5815  155.3089 C   0  0  0  0  0  0  0  0  0  0  0  0
  147.6833  137.7817  155.0318 N   0  0  0  0  0  0  0  0  0  0  0  0
  147.0393  139.1259  154.8875 C   0  0  1  0  0  0  0  0  0  0  0  0
  147.6826  140.0198  155.7397 O   0  0  0  0  0  0  0  0  0  0  0  0
  147.7153  141.3037  155.1278 C   0  0  1  0  0  0  0  0  0  0  0  0
  148.7792  142.2021  155.7834 C   0  0  0  0  0  0  0  0  0  0  0  0
  148.4046  142.5108  157.1094 O   0  0  0  0  0  0  0  0  0  0  0  0
  147.9419  140.9782  153.6438 C   0  0  1  0  0  0  0  0  0  0  0  0
  149.3198  140.8018  153.3630 O   0  0  0  0  0  0  0  0  0  0  0  0
  147.1326  139.6959  153.4558 C   0  0  1  0  0  0  0  0  0  0  0  0
  147.6688  138.8226  152.4744 O   0  0  0  0  0  0  0  0  0  0  0  0
  146.0091  138.9735  155.2117 H   0  0  0  0  0  0  0  0  0  0  0  0
  146.7271  141.7581  155.2273 H   0  0  0  0  0  0  0  0  0  0  0  0
  147.5735  141.7773  152.9997 H   0  0  0  0  0  0  0  0  0  0  0  0
  146.1171  139.9580  153.1556 H   0  0  0  0  0  0  0  0  0  0  0  0
  149.9246  133.5826  155.4317 H   0  0  0  0  0  0  0  0  0  0  0  0
  151.6295  133.8829  155.1699 H   0  0  0  0  0  0  0  0  0  0  0  0
  145.9992  136.4975  155.4567 H   0  0  0  0  0  0  0  0  0  0  0  0
  149.7622  141.7297  155.7674 H   0  0  0  0  0  0  0  0  0  0  0  0
  148.8614  143.1449  155.2418 H   0  0  0  0  0  0  0  0  0  0  0  0
  148.2978  143.4470  157.1801 H   0  0  0  0  0  0  0  0  0  0  0  0
  149.4036  140.1517  152.6820 H   0  0  0  0  0  0  0  0  0  0  0  0
  148.2856  139.3067  151.9469 H   0  0  0  0  0  0  0  0  0  0  0  0
  1  2  1  0  0  0  0
  1 25  1  0  0  0  0
  1 26  1  0  0  0  0
  2  8  1  0  0  0  0
  2  3  2  0  0  0  0
  3  4  1  0  0  0  0
  4  5  1  0  0  0  0
  4  6  2  0  0  0  0
  6  7  1  0  0  0  0
  7 11  1  0  0  0  0
  7  8  2  0  0  0  0
  8  9  1  0  0  0  0
  9 10  2  0  0  0  0
 10 11  1  0  0  0  0
 10 27  1  0  0  0  0
 11 12  1  0  0  0  0
 12 21  1  0  0  0  0
 12 19  1  0  0  0  0
 12 13  1  0  0  0  0
 13 14  1  0  0  0  0
 14 22  1  0  0  0  0
 14 15  1  0  0  0  0
 14 17  1  0  0  0  0
 15 16  1  0  0  0  0
 15 28  1  0  0  0  0
 15 29  1  0  0  0  0
 16 30  1  0  0  0  0
 17 23  1  0  0  0  0
 17 18  1  0  0  0  0
 17 19  1  0  0  0  0
 18 31  1  0  0  0  0
 19 24  1  0  0  0  0
 19 20  1  0  0  0  0
 20 32  1  0  0  0  0
M  END
> <s_m_source_file>
AV-unprocessed.smi

> <i_m_source_file_index>
114

> <i_lp_mmshare_version>
43012

> <i_f3d_flags>
0

> <s_epik_input>
RmMobjEpbmMoW05IMl0pYyhjMTIpbltjSF1uMltDQEBIXTNPW0NASF0oW0NIMl1bT0hdKVtDQEBIXShbT0hdKVtDQEBIXTNbT0hd

> <s_epik_cmdline>
J2VwaWtfcHl0aG9uJywgJy1waCcsICc3LjAnLCAnLXRuJywgJzgnLCAnLW1hJywgJzIwMCcsICctbWV0YWxfYmluZGluZycsICctaW1hZScsICc8aW5maWxlLm1hZT4nLCAnLW9tYWUnLCAnPG91dGZpbGUubWFlPic=

> <r_lp_tautomer_probability>
1

> <r_epik_Ionization_Penalty>
1.13199e-05

> <r_epik_Ionization_Penalty_Charging>
0

> <r_epik_Ionization_Penalty_Neutral>
1.13199e-05

> <r_epik_State_Penalty>
-0

> <r_epik_Charging_Adjusted_Penalty>
0

> <i_epik_Tot_Q>
0

> <i_epik_Tot_abs_Q>
0

> <r_epik_Metal_State_Penalty>
-0

> <b_epik_Metal_Only>
0

> <s_epik_Chemistry_Notes>
This compound contains an acetal/aminal-like group ( X-CH(R)-Y where X, Y are N, S, or O) that may be acid/base labile, releasing an aldehyde.

> <s_lp_Force_Field>
OPLS_2005

> <r_lp_Energy>
48.1785

> <b_lp_Chiralities_Consistent>
1

> <s_lp_Variant>
AV-unprocessed.smi:114-12

> <Gold.Version>
5.8.1

> <Gold.Id.Protein>
6NUR|6NUR_protein|mol2

> <Gold.PLP.Fitness>
35.5308

> <Gold.PLP.PLP>
-23.0941

> <Gold.PLP.part.hbond>
-6.4845

> <Gold.PLP.part.metal>
0.0000

> <Gold.PLP.part.buried>
-1.0508

> <Gold.PLP.part.nonpolar>
-16.8573

> <Gold.PLP.part.repulsive>
0.4718

> <Gold.PLP.ligand.clash>
0.0000

> <Gold.PLP.ligand.torsion>
0.1018

> <Gold.PLP.Chemscore.Hbond>
4.2126

> <Gold.PLP.Chemscore.CHOScore>
0.0000

> <Gold.PLP.Chemscore.Metal>
0.0000

> <Gold.Chemscore.Hbonds>
donor molecule, donor type, donor heavy atom, donor atom, acceptor molecule, acceptor atom, score
      L1  H    16    30       P1  8028  0.29
      L1  H    18    31       P1  7957  0.82
      L1  H    20    32       P1  7957  1.00
      P1  H  7989  7998       L1    18  0.04
      P1  H  8011  8017       L1    18  0.95
      P1  H 10752 10764       L1     3  1.00

> <Gold.PLP.Chemscore.Internal.Correction>
0.0024

> <Gold.Rescore>
     Score         DG    S(hbond)    S(metal)    S(lipo)     H(rot)  DE(clash)    DE(int)     intcor
      6.69      -8.24       2.94        0.00      27.85       4.03       1.42       0.14       ----

> <Gold.Chemscore.Fitness>
6.6888

> <Gold.Chemscore.DG>
-8.2400

> <Gold.Chemscore.ZeroCoef>
-5.4800

> <Gold.Chemscore.Hbond>
2.9379

> <Gold.Chemscore.Metal>
0.0000

> <Gold.Chemscore.Lipo>
27.8482

> <Gold.Chemscore.Internal_Hbond>
0.0000

> <Gold.Chemscore.DEClash>
1.4156

> <Gold.Chemscore.DEInternal>
0.1355

> <Gold.Chemscore.Rot>
4.0277

> <Gold.Chemscore.Internal.Correction>
   9.000000E+99

> <Gold.Chemscore.Hbonds>
donor molecule, donor type, donor heavy atom, donor atom, acceptor molecule, acceptor atom, score
      L1  H    16    30       P1  8028  0.02
      L1  H    18    31       P1  7957  0.75
      L1  H    20    32       P1  7957  1.00
      P1  H  8011  8017       L1    18  0.09
      P1  H 10752 10764       L1     3  0.88

> <Gold.Chemscore.Hbond.Weighted>
-9.8128

> <Gold.Chemscore.Metal.Weighted>
-0.0000

> <Gold.Chemscore.Lipo.Weighted>
-3.2582

> <Gold.Chemscore.Internal_Hbond.Weighted>
0.0000

> <Gold.Chemscore.DEClash.Weighted>
1.4156

> <Gold.Chemscore.DEInternal.Weighted>
0.1355

> <Gold.Chemscore.Rot.Weighted>
10.3110

> <Gold.Chemscore.Internal.Correction.Weighted>
   9.000000E+99

> <Gold.Protein.RotatedTorsions>
[ 6907 6896 6895 6894 ] final   71.64 input  -60.11 | X-H torsion
[ 7974 7965 7964 7962 ] final  -46.72 input  175.53 | X-H torsion
[ 8008 7997 7996 7995 ] final  120.47 input   59.86 | X-H torsion
[ 10167 10162 10161 10158 ] final  145.48 input  -65.29 | X-H torsion
[ 10718 10713 10712 10709 ] final -131.51 input   66.30 | X-H torsion
[ 10763 10752 10751 10750 ] final  -55.86 input  -60.55 | X-H torsion
[ 11005 11000 10999 10996 ] final   50.63 input  -57.11 | X-H torsion

> <Gold.Protein.ActiveResidues>
 VAL166  LYS551  ARG553  GLY616  TRP617  ASP618  TYR619  PRO620  LYS621  CYS622 
 ASP623  PHE694  ASN695  SER759  ASP760  ASP761  ALA762  ILE779  LEU786  VAL792 
 PHE793  MET794  SER795  GLU796  ALA797  LYS798  CYS799  TRP800  GLU811  SER814 

> <Gold.Protein.RotatedAtoms>
  152.4822  134.4690  159.9629 H   0  0  0  0  0  0  0  0  0  0  0  0  # atno 6907 bound_to 6896
  151.4693  133.3567  159.2829 H   0  0  0  0  0  0  0  0  0  0  0  0  # atno 6908 bound_to 6896
  150.8903  134.8331  159.7349 H   0  0  0  0  0  0  0  0  0  0  0  0  # atno 6909 bound_to 6896
  145.9690  140.7402  142.9420 H   0  0  0  0  0  0  0  0  0  0  0  0  # atno 7974 bound_to 7965
  156.2644  140.2830  156.1154 H   0  0  0  0  0  0  0  0  0  0  0  0  # atno 8008 bound_to 7997
  155.1212  140.0392  157.2768 H   0  0  0  0  0  0  0  0  0  0  0  0  # atno 8009 bound_to 7997
  154.6669  140.2579  155.7055 H   0  0  0  0  0  0  0  0  0  0  0  0  # atno 8010 bound_to 7997
  139.4925  144.5898  151.6703 H   0  0  0  0  0  0  0  0  0  0  0  0  # atno 10167 bound_to 10162
  156.2251  130.7003  151.0798 H   0  0  0  0  0  0  0  0  0  0  0  0  # atno 10718 bound_to 10713
  154.1975  135.6416  153.5077 H   0  0  0  0  0  0  0  0  0  0  0  0  # atno 10763 bound_to 10752
  153.0020  135.5443  154.6350 H   0  0  0  0  0  0  0  0  0  0  0  0  # atno 10764 bound_to 10752
  154.5755  135.2920  155.0758 H   0  0  0  0  0  0  0  0  0  0  0  0  # atno 10765 bound_to 10752
  140.1001  134.5092  155.8770 H   0  0  0  0  0  0  0  0  0  0  0  0  # atno 11005 bound_to 11000
  144.6832  140.2717  143.7305 LP  0  0  0  0  0  0  0  0  0  0  0  0  # atno 17320 bound_to 7965
  145.7933  139.1935  143.2090 LP  0  0  0  0  0  0  0  0  0  0  0  0  # atno 17321 bound_to 7965
  140.5523  144.0405  150.6132 LP  0  0  0  0  0  0  0  0  0  0  0  0  # atno 17342 bound_to 10162
  140.3463  143.2989  152.0534 LP  0  0  0  0  0  0  0  0  0  0  0  0  # atno 17343 bound_to 10162
  157.7106  131.0736  150.6512 LP  0  0  0  0  0  0  0  0  0  0  0  0  # atno 17370 bound_to 10713
  156.6577  130.4503  149.5698 LP  0  0  0  0  0  0  0  0  0  0  0  0  # atno 17371 bound_to 10713
  141.2103  133.6693  156.6501 LP  0  0  0  0  0  0  0  0  0  0  0  0  # atno 17394 bound_to 11000
  140.3231  134.7991  157.4268 LP  0  0  0  0  0  0  0  0  0  0  0  0  # atno 17395 bound_to 11000

$$$$
