AV-unprocessed.smi:2429|AV-procd|sdf|9582|dock10
  -GOLD-   2272013213D 1   1.00000     0.00000
 Structure written by MMmdl.
 34 35  0  0  0  0  0  0  0  0  1 V2000
  148.4712  140.0456  154.1712 C   0  0  0  0  0  0  0  0  0  0  0  0
  147.7470  141.2355  154.8370 C   0  0  0  0  0  0  0  0  0  0  0  0
  148.6924  141.9983  155.6665 N   0  0  0  0  0  0  0  0  0  0  0  0
  149.5994  141.5360  156.5435 C   0  0  0  0  0  0  0  0  0  0  0  0
  149.7770  140.3427  156.7855 O   0  0  0  0  0  0  0  0  0  0  0  0
  150.2882  142.5493  157.0954 N   0  0  0  0  0  0  0  0  0  0  0  0
  151.3204  142.4995  158.0717 C   0  0  0  0  0  0  0  0  0  0  0  0
  151.5871  141.3764  158.8919 C   0  0  0  0  0  0  0  0  0  0  0  0
  152.6304  141.4627  159.8356 C   0  0  0  0  0  0  0  0  0  0  0  0
  153.3888  142.5661  160.0080 N   0  0  0  0  0  0  0  0  0  0  0  0
  153.1219  143.6396  159.2348 C   0  0  0  0  0  0  0  0  0  0  0  0
  152.1023  143.6584  158.2621 C   0  0  0  0  0  0  0  0  0  0  0  0
  151.8837  144.7726  157.5223 F   0  0  0  0  0  0  0  0  0  0  0  0
  147.0666  142.1299  153.7719 C   0  0  0  0  0  0  0  0  0  0  0  0
  146.1540  143.1927  154.4097 C   0  0  0  0  0  0  0  0  0  0  0  0
  145.1710  142.5605  155.2208 O   0  0  0  0  0  0  0  0  0  0  0  0
  145.7326  141.8251  156.3016 C   0  0  0  0  0  0  0  0  0  0  0  0
  146.6346  140.6981  155.7633 C   0  0  0  0  0  0  0  0  0  0  0  0
  147.7715  139.4154  153.6214 H   0  0  0  0  0  0  0  0  0  0  0  0
  148.9639  139.4159  154.9130 H   0  0  0  0  0  0  0  0  0  0  0  0
  149.2294  140.3727  153.4597 H   0  0  0  0  0  0  0  0  0  0  0  0
  148.6495  143.0005  155.5528 H   0  0  0  0  0  0  0  0  0  0  0  0
  150.0868  143.4701  156.7338 H   0  0  0  0  0  0  0  0  0  0  0  0
  151.0132  140.4649  158.8279 H   0  0  0  0  0  0  0  0  0  0  0  0
  152.8575  140.6226  160.4751 H   0  0  0  0  0  0  0  0  0  0  0  0
  153.7382  144.5116  159.3966 H   0  0  0  0  0  0  0  0  0  0  0  0
  147.8003  142.6091  153.1242 H   0  0  0  0  0  0  0  0  0  0  0  0
  146.4585  141.5065  153.1147 H   0  0  0  0  0  0  0  0  0  0  0  0
  146.7299  143.9056  155.0016 H   0  0  0  0  0  0  0  0  0  0  0  0
  145.6490  143.7647  153.6313 H   0  0  0  0  0  0  0  0  0  0  0  0
  146.2862  142.4947  156.9614 H   0  0  0  0  0  0  0  0  0  0  0  0
  144.9219  141.4011  156.8943 H   0  0  0  0  0  0  0  0  0  0  0  0
  146.0112  139.9905  155.2147 H   0  0  0  0  0  0  0  0  0  0  0  0
  147.0660  140.1390  156.5948 H   0  0  0  0  0  0  0  0  0  0  0  0
  1  2  1  0  0  0  0
  1 19  1  0  0  0  0
  1 20  1  0  0  0  0
  1 21  1  0  0  0  0
  2 18  1  0  0  0  0
  2  3  1  0  0  0  0
  2 14  1  0  0  0  0
  3  4  1  0  0  0  0
  3 22  1  0  0  0  0
  4  5  2  0  0  0  0
  4  6  1  0  0  0  0
  6  7  1  0  0  0  0
  6 23  1  0  0  0  0
  7 12  1  0  0  0  0
  7  8  2  0  0  0  0
  8  9  1  0  0  0  0
  8 24  1  0  0  0  0
  9 10  2  0  0  0  0
  9 25  1  0  0  0  0
 10 11  1  0  0  0  0
 11 12  2  0  0  0  0
 11 26  1  0  0  0  0
 12 13  1  0  0  0  0
 14 15  1  0  0  0  0
 14 27  1  0  0  0  0
 14 28  1  0  0  0  0
 15 16  1  0  0  0  0
 15 29  1  0  0  0  0
 15 30  1  0  0  0  0
 16 17  1  0  0  0  0
 17 18  1  0  0  0  0
 17 31  1  0  0  0  0
 17 32  1  0  0  0  0
 18 33  1  0  0  0  0
 18 34  1  0  0  0  0
M  END
> <s_m_source_file>
AV-unprocessed.smi

> <i_m_source_file_index>
2429

> <i_lp_mmshare_version>
43012

> <i_f3d_flags>
0

> <s_epik_input>
W0NIMl0xW0NIMl1PW0NIMl1bQ0gyXUMxKFtDSDNdKVtOSF1DKD1PKVtOSF1jMltjSF1bY0hdbltjSF1jMkY=

> <s_epik_cmdline>
J2VwaWtfcHl0aG9uJywgJy1waCcsICc3LjAnLCAnLXRuJywgJzgnLCAnLW1hJywgJzIwMCcsICctbWV0YWxfYmluZGluZycsICctaW1hZScsICc8aW5maWxlLm1hZT4nLCAnLW9tYWUnLCAnPG91dGZpbGUubWFlPic=

> <r_epik_Ionization_Penalty>
0.00367474

> <r_epik_Ionization_Penalty_Charging>
0

> <r_epik_Ionization_Penalty_Neutral>
0.00367474

> <r_epik_State_Penalty>
0.00258877

> <r_epik_Charging_Adjusted_Penalty>
0.00258877

> <i_epik_Tot_Q>
0

> <i_epik_Tot_abs_Q>
0

> <r_epik_Metal_State_Penalty>
-0

> <b_epik_Metal_Only>
0

> <s_lp_Force_Field>
OPLS_2005

> <r_lp_Energy>
14.8008

> <b_lp_Chiralities_Consistent>
1

> <s_lp_Variant>
AV-unprocessed.smi:2429-1

> <Gold.Version>
5.8.1

> <Gold.Id.Protein>
6NUR|6NUR_protein|mol2

> <Gold.PLP.Fitness>
40.0167

> <Gold.PLP.PLP>
-34.5494

> <Gold.PLP.part.hbond>
-2.0000

> <Gold.PLP.part.metal>
0.0000

> <Gold.PLP.part.buried>
-6.5409

> <Gold.PLP.part.nonpolar>
-26.3720

> <Gold.PLP.part.repulsive>
0.3170

> <Gold.PLP.ligand.clash>
0.0000

> <Gold.PLP.ligand.torsion>
0.2701

> <Gold.PLP.Chemscore.Hbond>
2.0000

> <Gold.PLP.Chemscore.CHOScore>
0.0000

> <Gold.PLP.Chemscore.Metal>
0.0000

> <Gold.Chemscore.Hbonds>
donor molecule, donor type, donor heavy atom, donor atom, acceptor molecule, acceptor atom, score
      L1  H     3    22       P1  8028  1.00
      L1  H     6    23       P1  8028  0.99

> <Gold.PLP.Chemscore.Internal.Correction>
0.0074

> <Gold.Rescore>
     Score         DG    S(hbond)    S(metal)    S(lipo)     H(rot)  DE(clash)    DE(int)     intcor
     15.88     -18.81       1.95        0.00      80.18       1.00       0.60       2.32       ----

> <Gold.Chemscore.Fitness>
15.8837

> <Gold.Chemscore.DG>
-18.8051

> <Gold.Chemscore.ZeroCoef>
-5.4800

> <Gold.Chemscore.Hbond>
1.9473

> <Gold.Chemscore.Metal>
0.0000

> <Gold.Chemscore.Lipo>
80.1791

> <Gold.Chemscore.Internal_Hbond>
0.0000

> <Gold.Chemscore.DEClash>
0.6005

> <Gold.Chemscore.DEInternal>
2.3209

> <Gold.Chemscore.Rot>
1.0000

> <Gold.Chemscore.Internal.Correction>
   9.000000E+99

> <Gold.Chemscore.Hbonds>
donor molecule, donor type, donor heavy atom, donor atom, acceptor molecule, acceptor atom, score
      L1  H     3    22       P1  8028  1.00
      L1  H     6    23       P1  8028  0.88

> <Gold.Chemscore.Hbond.Weighted>
-6.5041

> <Gold.Chemscore.Metal.Weighted>
-0.0000

> <Gold.Chemscore.Lipo.Weighted>
-9.3809

> <Gold.Chemscore.Internal_Hbond.Weighted>
0.0000

> <Gold.Chemscore.DEClash.Weighted>
0.6005

> <Gold.Chemscore.DEInternal.Weighted>
2.3209

> <Gold.Chemscore.Rot.Weighted>
2.5600

> <Gold.Chemscore.Internal.Correction.Weighted>
   9.000000E+99

> <Gold.Protein.RotatedTorsions>
[ 6907 6896 6895 6894 ] final  154.85 input  -60.11 | X-H torsion
[ 7974 7965 7964 7962 ] final -143.17 input  175.53 | X-H torsion
[ 8008 7997 7996 7995 ] final  127.03 input   59.86 | X-H torsion
[ 10167 10162 10161 10158 ] final -165.67 input  -65.29 | X-H torsion
[ 10718 10713 10712 10709 ] final  -72.71 input   66.30 | X-H torsion
[ 10763 10752 10751 10750 ] final  104.78 input  -60.55 | X-H torsion
[ 11005 11000 10999 10996 ] final   -9.53 input  -57.11 | X-H torsion

> <Gold.Protein.ActiveResidues>
 VAL166  LYS551  ARG553  GLY616  TRP617  ASP618  TYR619  PRO620  LYS621  CYS622 
 ASP623  PHE694  ASN695  SER759  ASP760  ASP761  ALA762  ILE779  LEU786  VAL792 
 PHE793  MET794  SER795  GLU796  ALA797  LYS798  CYS799  TRP800  GLU811  SER814 

> <Gold.Protein.RotatedAtoms>
  152.0526  133.4025  159.4383 H   0  0  0  0  0  0  0  0  0  0  0  0  # atno 6907 bound_to 6896
  150.6869  134.3291  159.4828 H   0  0  0  0  0  0  0  0  0  0  0  0  # atno 6908 bound_to 6896
  152.1103  134.9279  160.0617 H   0  0  0  0  0  0  0  0  0  0  0  0  # atno 6909 bound_to 6896
  144.8389  140.5868  143.5465 H   0  0  0  0  0  0  0  0  0  0  0  0  # atno 7974 bound_to 7965
  156.2880  140.2678  156.2206 H   0  0  0  0  0  0  0  0  0  0  0  0  # atno 8008 bound_to 7997
  155.0171  140.0387  157.2441 H   0  0  0  0  0  0  0  0  0  0  0  0  # atno 8009 bound_to 7997
  154.7467  140.2735  155.6332 H   0  0  0  0  0  0  0  0  0  0  0  0  # atno 8010 bound_to 7997
  139.6166  144.0707  152.1894 H   0  0  0  0  0  0  0  0  0  0  0  0  # atno 10167 bound_to 10162
  156.0309  130.4378  150.2634 H   0  0  0  0  0  0  0  0  0  0  0  0  # atno 10718 bound_to 10713
  153.3706  135.3931  155.1785 H   0  0  0  0  0  0  0  0  0  0  0  0  # atno 10763 bound_to 10752
  154.8693  135.3701  154.4983 H   0  0  0  0  0  0  0  0  0  0  0  0  # atno 10764 bound_to 10752
  153.5450  135.7084  153.5679 H   0  0  0  0  0  0  0  0  0  0  0  0  # atno 10765 bound_to 10752
  140.7351  133.8716  155.8923 H   0  0  0  0  0  0  0  0  0  0  0  0  # atno 11005 bound_to 11000
  145.4735  139.1501  143.3801 LP  0  0  0  0  0  0  0  0  0  0  0  0  # atno 17320 bound_to 7965
  146.2684  140.4869  142.8824 LP  0  0  0  0  0  0  0  0  0  0  0  0  # atno 17321 bound_to 7965
  140.0339  144.6060  150.7465 LP  0  0  0  0  0  0  0  0  0  0  0  0  # atno 17342 bound_to 10162
  140.7355  143.2741  151.3795 LP  0  0  0  0  0  0  0  0  0  0  0  0  # atno 17343 bound_to 10162
  157.0736  131.0124  151.3181 LP  0  0  0  0  0  0  0  0  0  0  0  0  # atno 17370 bound_to 10713
  157.4981  130.7863  149.7576 LP  0  0  0  0  0  0  0  0  0  0  0  0  # atno 17371 bound_to 10713
  140.9886  134.1309  157.4429 LP  0  0  0  0  0  0  0  0  0  0  0  0  # atno 17394 bound_to 11000
  139.8818  135.0033  156.6181 LP  0  0  0  0  0  0  0  0  0  0  0  0  # atno 17395 bound_to 11000

$$$$
