AV-unprocessed.smi:2027|AV-procd|sdf|8218|dock1
  -GOLD-   2272010483D 1   1.00000     0.00000
 Structure written by MMmdl.
 51 53  0  0  0  0  0  0  0  0  3 V2000
  152.1759  144.0837  161.0019 C   0  0  0  0  0  0  0  0  0  0  0  0
  151.9772  143.1381  159.8293 C   0  0  0  0  0  0  0  0  0  0  0  0
  151.1849  143.5694  158.7418 C   0  0  0  0  0  0  0  0  0  0  0  0
  151.0197  142.6814  157.6856 C   0  0  0  0  0  0  0  0  0  0  0  0
  150.3091  142.8060  156.4901 N   0  3  0  0  0  0  0  0  0  0  0  0
  150.4384  141.6621  155.7628 C   0  0  0  0  0  0  0  0  0  0  0  0
  151.2237  140.8083  156.4752 N   0  0  0  0  0  0  0  0  0  0  0  0
  151.6588  139.4417  156.1499 C   0  0  0  0  0  0  0  0  0  0  0  0
  150.6651  138.6927  155.2409 C   0  0  1  0  0  0  0  0  0  0  0  0
  150.6985  139.2482  153.9408 O   0  0  0  0  0  0  0  0  0  0  0  0
  151.0080  137.1925  155.1420 C   0  0  0  0  0  0  0  0  0  0  0  0
  149.8948  136.3938  154.5677 N   0  3  1  0  0  0  0  0  0  0  0  0
  150.2045  134.9442  154.5542 C   0  0  0  0  0  0  0  0  0  0  0  0
  148.5812  136.6942  155.1947 C   0  0  0  0  0  0  0  0  0  0  0  0
  148.5474  136.2687  156.6376 C   0  0  0  0  0  0  0  0  0  0  0  0
  148.7196  134.9560  157.1626 C   0  0  0  0  0  0  0  0  0  0  0  0
  148.6339  134.9145  158.4816 N   0  0  0  0  0  0  0  0  0  0  0  0
  148.3989  136.1920  158.8442 N   0  0  0  0  0  0  0  0  0  0  0  0
  148.2416  136.5193  160.2453 C   0  0  0  0  0  0  0  0  0  0  0  0
  148.3387  137.0310  157.7528 C   0  0  0  0  0  0  0  0  0  0  0  0
  151.6104  141.4024  157.6834 C   0  0  0  0  0  0  0  0  0  0  0  0
  152.3976  140.9638  158.7461 C   0  0  0  0  0  0  0  0  0  0  0  0
  152.5770  141.8522  159.8306 C   0  0  0  0  0  0  0  0  0  0  0  0
  153.4297  141.3998  161.0039 C   0  0  0  0  0  0  0  0  0  0  0  0
  151.6149  145.0094  160.8679 H   0  0  0  0  0  0  0  0  0  0  0  0
  153.2293  144.3438  161.1083 H   0  0  0  0  0  0  0  0  0  0  0  0
  151.8371  143.6223  161.9298 H   0  0  0  0  0  0  0  0  0  0  0  0
  150.7264  144.5476  158.7334 H   0  0  0  0  0  0  0  0  0  0  0  0
  149.9936  141.4671  154.7975 H   0  0  0  0  0  0  0  0  0  0  0  0
  152.6547  139.4741  155.7079 H   0  0  0  0  0  0  0  0  0  0  0  0
  151.7651  138.9089  157.0956 H   0  0  0  0  0  0  0  0  0  0  0  0
  149.6604  138.8312  155.6395 H   0  0  0  0  0  0  0  0  0  0  0  0
  149.8164  139.2707  153.6009 H   0  0  0  0  0  0  0  0  0  0  0  0
  151.9036  137.0851  154.5271 H   0  0  0  0  0  0  0  0  0  0  0  0
  151.2681  136.7897  156.1223 H   0  0  0  0  0  0  0  0  0  0  0  0
  150.3089  134.5579  155.5690 H   0  0  0  0  0  0  0  0  0  0  0  0
  151.1354  134.7536  154.0192 H   0  0  0  0  0  0  0  0  0  0  0  0
  149.4242  134.3747  154.0495 H   0  0  0  0  0  0  0  0  0  0  0  0
  148.3687  137.7592  155.0895 H   0  0  0  0  0  0  0  0  0  0  0  0
  147.7862  136.1849  154.6511 H   0  0  0  0  0  0  0  0  0  0  0  0
  148.9068  134.0375  156.6258 H   0  0  0  0  0  0  0  0  0  0  0  0
  148.2020  137.6013  160.3744 H   0  0  0  0  0  0  0  0  0  0  0  0
  149.0835  136.1262  160.8161 H   0  0  0  0  0  0  0  0  0  0  0  0
  147.3167  136.0827  160.6229 H   0  0  0  0  0  0  0  0  0  0  0  0
  148.1562  138.0904  157.8587 H   0  0  0  0  0  0  0  0  0  0  0  0
  152.8580  139.9870  158.7498 H   0  0  0  0  0  0  0  0  0  0  0  0
  153.8346  140.4004  160.8417 H   0  0  0  0  0  0  0  0  0  0  0  0
  152.8379  141.3746  161.9193 H   0  0  0  0  0  0  0  0  0  0  0  0
  154.2695  142.0791  161.1522 H   0  0  0  0  0  0  0  0  0  0  0  0
  149.8287  136.6743  153.5991 H   0  0  0  0  0  0  0  0  0  0  0  0
  149.7704  143.6098  156.1929 H   0  0  0  0  0  0  0  0  0  0  0  0
  1  2  1  0  0  0  0
  1 25  1  0  0  0  0
  1 26  1  0  0  0  0
  1 27  1  0  0  0  0
  2 23  1  0  0  0  0
  2  3  2  0  0  0  0
  3  4  1  0  0  0  0
  3 28  1  0  0  0  0
  4 21  2  0  0  0  0
  4  5  1  0  0  0  0
  5  6  2  0  0  0  0
  5 51  1  0  0  0  0
  6  7  1  0  0  0  0
  6 29  1  0  0  0  0
  7  8  1  0  0  0  0
  7 21  1  0  0  0  0
  8  9  1  0  0  0  0
  8 30  1  0  0  0  0
  8 31  1  0  0  0  0
  9 10  1  0  0  0  0
  9 11  1  0  0  0  0
  9 32  1  0  0  0  0
 10 33  1  0  0  0  0
 11 12  1  0  0  0  0
 11 34  1  0  0  0  0
 11 35  1  0  0  0  0
 12 13  1  0  0  0  0
 12 14  1  0  0  0  0
 12 50  1  0  0  0  0
 13 36  1  0  0  0  0
 13 37  1  0  0  0  0
 13 38  1  0  0  0  0
 14 15  1  0  0  0  0
 14 39  1  0  0  0  0
 14 40  1  0  0  0  0
 15 20  2  0  0  0  0
 15 16  1  0  0  0  0
 16 17  2  0  0  0  0
 16 41  1  0  0  0  0
 17 18  1  0  0  0  0
 18 19  1  0  0  0  0
 18 20  1  0  0  0  0
 19 42  1  0  0  0  0
 19 43  1  0  0  0  0
 19 44  1  0  0  0  0
 20 45  1  0  0  0  0
 21 22  1  0  0  0  0
 22 23  2  0  0  0  0
 22 46  1  0  0  0  0
 23 24  1  0  0  0  0
 24 47  1  0  0  0  0
 24 48  1  0  0  0  0
 24 49  1  0  0  0  0
M  CHG  1   5   1
M  CHG  1  12   1
M  END
> <s_m_source_file>
AV-unprocessed.smi

> <i_m_source_file_index>
2027

> <i_lp_mmshare_version>
43012

> <i_f3d_flags>
0

> <s_epik_input>
W0NIM11jKFtjSF0xKWMoW0NIM10pW2NIXWMoYzEyKW4oW2NIXW4yKVtDSDJdW0NASF0oW09IXSlbQ0gyXU4oW0NIM10pW0NIMl1jM1tjSF1ubihbQ0gzXSlbY0hdMw==

> <s_epik_cmdline>
J2VwaWtfcHl0aG9uJywgJy1waCcsICc3LjAnLCAnLXRuJywgJzgnLCAnLW1hJywgJzIwMCcsICctbWV0YWxfYmluZGluZycsICctaW1hZScsICc8aW5maWxlLm1hZT4nLCAnLW9tYWUnLCAnPG91dGZpbGUubWFlPic=

> <r_lp_tautomer_probability>
1

> <r_epik_Ionization_Penalty>
1.77469

> <r_epik_Ionization_Penalty_Charging>
1.77463

> <r_epik_Ionization_Penalty_Neutral>
6.41153e-05

> <r_epik_State_Penalty>
1.85225

> <r_epik_Charging_Adjusted_Penalty>
3.62688

> <i_epik_Tot_Q>
2

> <i_epik_Tot_abs_Q>
2

> <r_epik_Metal_State_Penalty>
1.92669

> <b_epik_Metal_Only>
0

> <s_lp_Force_Field>
OPLS_2005

> <r_lp_Energy>
18.885

> <b_lp_Chiralities_Consistent>
1

> <s_lp_Variant>
AV-unprocessed.smi:2027-10

> <Gold.Version>
5.8.1

> <Gold.Id.Protein>
6NUR|6NUR_protein|mol2

> <Gold.PLP.Fitness>
62.1695

> <Gold.PLP.PLP>
-44.9655

> <Gold.PLP.part.hbond>
-4.7540

> <Gold.PLP.part.metal>
0.0000

> <Gold.PLP.part.buried>
-5.6716

> <Gold.PLP.part.nonpolar>
-36.0693

> <Gold.PLP.part.repulsive>
0.1079

> <Gold.PLP.ligand.clash>
0.0000

> <Gold.PLP.ligand.torsion>
0.5782

> <Gold.PLP.Chemscore.Hbond>
6.0000

> <Gold.PLP.Chemscore.CHOScore>
0.0000

> <Gold.PLP.Chemscore.Metal>
0.0000

> <Gold.Chemscore.Hbonds>
donor molecule, donor type, donor heavy atom, donor atom, acceptor molecule, acceptor atom, score
      L1  H     5    51       P1  8028  1.92
      L1  H    12    50       P1  7948  1.76
      P1  H  6896  6908       L1    17  0.26
      P1  H  7989  7998       L1    10  1.00

> <Gold.PLP.Chemscore.Internal.Correction>
0.3603

> <Gold.Rescore>
     Score         DG    S(hbond)    S(metal)    S(lipo)     H(rot)  DE(clash)    DE(int)     intcor
     21.98     -23.50       3.45        0.00     112.17       2.58       0.07       1.44       ----

> <Gold.Chemscore.Fitness>
21.9802

> <Gold.Chemscore.DG>
-23.4986

> <Gold.Chemscore.ZeroCoef>
-5.4800

> <Gold.Chemscore.Hbond>
3.4456

> <Gold.Chemscore.Metal>
0.0000

> <Gold.Chemscore.Lipo>
112.1715

> <Gold.Chemscore.Internal_Hbond>
0.0000

> <Gold.Chemscore.DEClash>
0.0743

> <Gold.Chemscore.DEInternal>
1.4440

> <Gold.Chemscore.Rot>
2.5836

> <Gold.Chemscore.Internal.Correction>
   9.000000E+99

> <Gold.Chemscore.Hbonds>
donor molecule, donor type, donor heavy atom, donor atom, acceptor molecule, acceptor atom, score
      L1  H     5    51       P1  8028  0.91
      L1  H    12    50       P1  7948  0.34
      P1  H  6896  6908       L1    17  0.16
      P1  H  7989  7998       L1    10  0.73

> <Gold.Chemscore.Hbond.Weighted>
-11.5084

> <Gold.Chemscore.Metal.Weighted>
-0.0000

> <Gold.Chemscore.Lipo.Weighted>
-13.1241

> <Gold.Chemscore.Internal_Hbond.Weighted>
0.0000

> <Gold.Chemscore.DEClash.Weighted>
0.0743

> <Gold.Chemscore.DEInternal.Weighted>
1.4440

> <Gold.Chemscore.Rot.Weighted>
6.6139

> <Gold.Chemscore.Internal.Correction.Weighted>
   9.000000E+99

> <Gold.Protein.RotatedTorsions>
[ 6907 6896 6895 6894 ] final  142.60 input  -60.11 | X-H torsion
[ 7974 7965 7964 7962 ] final   60.22 input  175.53 | X-H torsion
[ 8008 7997 7996 7995 ] final  -28.02 input   59.86 | X-H torsion
[ 10167 10162 10161 10158 ] final   67.23 input  -65.29 | X-H torsion
[ 10718 10713 10712 10709 ] final  -86.08 input   66.30 | X-H torsion
[ 10763 10752 10751 10750 ] final   82.81 input  -60.55 | X-H torsion
[ 11005 11000 10999 10996 ] final -126.52 input  -57.11 | X-H torsion

> <Gold.Protein.ActiveResidues>
 VAL166  LYS551  ARG553  GLY616  TRP617  ASP618  TYR619  PRO620  LYS621  CYS622 
 ASP623  PHE694  ASN695  SER759  ASP760  ASP761  ALA762  ILE779  LEU786  VAL792 
 PHE793  MET794  SER795  GLU796  ALA797  LYS798  CYS799  TRP800  GLU811  SER814 

> <Gold.Protein.RotatedAtoms>
  152.2168  133.4952  159.5139 H   0  0  0  0  0  0  0  0  0  0  0  0  # atno 6907 bound_to 6896
  150.7003  134.1395  159.4109 H   0  0  0  0  0  0  0  0  0  0  0  0  # atno 6908 bound_to 6896
  151.9316  135.0254  160.0580 H   0  0  0  0  0  0  0  0  0  0  0  0  # atno 6909 bound_to 6896
  145.8984  139.3563  143.0607 H   0  0  0  0  0  0  0  0  0  0  0  0  # atno 7974 bound_to 7965
  154.4351  140.1856  156.1023 H   0  0  0  0  0  0  0  0  0  0  0  0  # atno 8008 bound_to 7997
  156.0282  140.3333  155.7085 H   0  0  0  0  0  0  0  0  0  0  0  0  # atno 8009 bound_to 7997
  155.5877  140.0628  157.2757 H   0  0  0  0  0  0  0  0  0  0  0  0  # atno 8010 bound_to 7997
  140.0918  144.4981  150.7094 H   0  0  0  0  0  0  0  0  0  0  0  0  # atno 10167 bound_to 10162
  155.9992  130.4753  150.4660 H   0  0  0  0  0  0  0  0  0  0  0  0  # atno 10718 bound_to 10713
  153.1235  135.4714  154.9235 H   0  0  0  0  0  0  0  0  0  0  0  0  # atno 10763 bound_to 10752
  154.7598  135.3128  154.8402 H   0  0  0  0  0  0  0  0  0  0  0  0  # atno 10764 bound_to 10752
  153.8960  135.6880  153.4811 H   0  0  0  0  0  0  0  0  0  0  0  0  # atno 10765 bound_to 10752
  140.9674  134.0852  157.3905 H   0  0  0  0  0  0  0  0  0  0  0  0  # atno 11005 bound_to 11000
  145.8821  140.9356  143.0596 LP  0  0  0  0  0  0  0  0  0  0  0  0  # atno 17320 bound_to 7965
  144.6734  140.0794  143.7470 LP  0  0  0  0  0  0  0  0  0  0  0  0  # atno 17321 bound_to 7965
  140.7024  143.2444  151.4824 LP  0  0  0  0  0  0  0  0  0  0  0  0  # atno 17342 bound_to 10162
  139.5720  144.1905  152.1850 LP  0  0  0  0  0  0  0  0  0  0  0  0  # atno 17343 bound_to 10162
  157.2680  131.0581  151.2278 LP  0  0  0  0  0  0  0  0  0  0  0  0  # atno 17370 bound_to 10713
  157.3369  130.7013  149.6358 LP  0  0  0  0  0  0  0  0  0  0  0  0  # atno 17371 bound_to 10713
  139.8900  135.0109  156.6709 LP  0  0  0  0  0  0  0  0  0  0  0  0  # atno 17394 bound_to 11000
  140.7378  133.9003  155.8257 LP  0  0  0  0  0  0  0  0  0  0  0  0  # atno 17395 bound_to 11000

$$$$
