AV-unprocessed.smi:3138|AV-procd|sdf|11954|dock7
  -GOLD-   2272017353D 1   1.00000     0.00000
 Structure written by MMmdl.
 38 39  0  0  0  0  0  0  0  0  2 V2000
  146.8837  139.7873  151.8670 O   0  0  0  0  0  0  0  0  0  0  0  0
  146.7702  139.4037  153.0329 C   0  0  0  0  0  0  0  0  0  0  0  0
  146.2854  137.9694  153.2944 C   0  0  0  0  0  0  0  0  0  0  0  0
  146.2599  137.1490  152.0659 N   0  3  0  0  0  0  0  0  0  0  0  0
  145.5248  135.8763  152.2039 C   0  0  0  0  0  0  0  0  0  0  0  0
  144.9302  135.4203  150.8597 C   0  0  0  0  0  0  0  0  0  0  0  0
  144.9696  133.9785  150.6806 N   0  0  0  0  0  0  0  0  0  0  0  0
  143.9108  133.0997  150.5830 C   0  0  0  0  0  0  0  0  0  0  0  0
  144.4331  131.8519  150.3972 C   0  0  0  0  0  0  0  0  0  0  0  0
  145.8386  132.0720  150.3810 C   0  0  0  0  0  0  0  0  0  0  0  0
  146.1558  133.3463  150.5451 N   0  0  0  0  0  0  0  0  0  0  0  0
  147.0552  140.2039  154.0891 N   0  0  0  0  0  0  0  0  0  0  0  0
  146.8952  139.8392  155.5040 C   0  0  0  0  0  0  0  0  0  0  0  0
  145.7229  140.6442  156.0935 C   0  0  0  0  0  0  0  0  0  0  0  0
  145.9475  142.1570  155.9080 C   0  0  0  0  0  0  0  0  0  0  0  0
  146.3067  142.5052  154.4509 C   0  0  0  0  0  0  0  0  0  0  0  0
  147.4493  141.6107  153.9353 C   0  0  0  0  0  0  0  0  0  0  0  0
  146.9430  137.4940  154.0234 H   0  0  0  0  0  0  0  0  0  0  0  0
  145.2786  137.9996  153.7137 H   0  0  0  0  0  0  0  0  0  0  0  0
  145.8244  137.6918  151.3334 H   0  0  0  0  0  0  0  0  0  0  0  0
  146.2066  135.1124  152.5792 H   0  0  0  0  0  0  0  0  0  0  0  0
  144.7371  135.9886  152.9501 H   0  0  0  0  0  0  0  0  0  0  0  0
  143.8959  135.7556  150.7730 H   0  0  0  0  0  0  0  0  0  0  0  0
  145.4778  135.8789  150.0355 H   0  0  0  0  0  0  0  0  0  0  0  0
  142.8847  133.4298  150.6538 H   0  0  0  0  0  0  0  0  0  0  0  0
  143.8936  130.9231  150.2834 H   0  0  0  0  0  0  0  0  0  0  0  0
  146.6316  131.3498  150.2526 H   0  0  0  0  0  0  0  0  0  0  0  0
  146.7344  138.7753  155.6698 H   0  0  0  0  0  0  0  0  0  0  0  0
  147.8153  140.0778  156.0395 H   0  0  0  0  0  0  0  0  0  0  0  0
  144.7944  140.3486  155.6033 H   0  0  0  0  0  0  0  0  0  0  0  0
  145.6019  140.4131  157.1522 H   0  0  0  0  0  0  0  0  0  0  0  0
  145.0627  142.7117  156.2218 H   0  0  0  0  0  0  0  0  0  0  0  0
  146.7598  142.4788  156.5609 H   0  0  0  0  0  0  0  0  0  0  0  0
  145.4287  142.3747  153.8169 H   0  0  0  0  0  0  0  0  0  0  0  0
  146.5885  143.5560  154.3767 H   0  0  0  0  0  0  0  0  0  0  0  0
  148.3591  141.7963  154.5081 H   0  0  0  0  0  0  0  0  0  0  0  0
  147.6900  141.8751  152.9046 H   0  0  0  0  0  0  0  0  0  0  0  0
  147.2120  136.9500  151.7939 H   0  0  0  0  0  0  0  0  0  0  0  0
  1  2  2  0  0  0  0
  2  3  1  0  0  0  0
  2 12  1  0  0  0  0
  3  4  1  0  0  0  0
  3 18  1  0  0  0  0
  3 19  1  0  0  0  0
  4  5  1  0  0  0  0
  4 20  1  0  0  0  0
  4 38  1  0  0  0  0
  5  6  1  0  0  0  0
  5 21  1  0  0  0  0
  5 22  1  0  0  0  0
  6  7  1  0  0  0  0
  6 23  1  0  0  0  0
  6 24  1  0  0  0  0
  7 11  1  0  0  0  0
  7  8  1  0  0  0  0
  8  9  2  0  0  0  0
  8 25  1  0  0  0  0
  9 10  1  0  0  0  0
  9 26  1  0  0  0  0
 10 11  2  0  0  0  0
 10 27  1  0  0  0  0
 12 17  1  0  0  0  0
 12 13  1  0  0  0  0
 13 14  1  0  0  0  0
 13 28  1  0  0  0  0
 13 29  1  0  0  0  0
 14 15  1  0  0  0  0
 14 30  1  0  0  0  0
 14 31  1  0  0  0  0
 15 16  1  0  0  0  0
 15 32  1  0  0  0  0
 15 33  1  0  0  0  0
 16 17  1  0  0  0  0
 16 34  1  0  0  0  0
 16 35  1  0  0  0  0
 17 36  1  0  0  0  0
 17 37  1  0  0  0  0
M  CHG  1   4   1
M  END
> <s_m_source_file>
AV-unprocessed.smi

> <i_m_source_file_index>
3138

> <i_lp_mmshare_version>
43012

> <i_f3d_flags>
0

> <s_epik_input>
W0NIMl0xW0NIMl1bQ0gyXVtDSDJdW0NIMl1OMUMoPU8pW0NIMl1bTkhdW0NIMl1bQ0gyXW4yW2NIXVtjSF1bY0hdbjI=

> <s_epik_cmdline>
J2VwaWtfcHl0aG9uJywgJy1waCcsICc3LjAnLCAnLXRuJywgJzgnLCAnLW1hJywgJzIwMCcsICctbWV0YWxfYmluZGluZycsICctaW1hZScsICc8aW5maWxlLm1hZT4nLCAnLW9tYWUnLCAnPG91dGZpbGUubWFlPic=

> <r_lp_tautomer_probability>
1

> <r_epik_Ionization_Penalty>
0.202061

> <r_epik_Ionization_Penalty_Charging>
0.202058

> <r_epik_Ionization_Penalty_Neutral>
2.33614e-06

> <r_epik_State_Penalty>
0.191938

> <r_epik_Charging_Adjusted_Penalty>
0.393996

> <i_epik_Tot_Q>
1

> <i_epik_Tot_abs_Q>
1

> <r_epik_Metal_State_Penalty>
0.192416

> <b_epik_Metal_Only>
0

> <s_lp_Force_Field>
OPLS_2005

> <r_lp_Energy>
21.8037

> <b_lp_Chiralities_Consistent>
1

> <s_lp_Variant>
AV-unprocessed.smi:3138-1

> <Gold.Version>
5.8.1

> <Gold.Id.Protein>
6NUR|6NUR_protein|mol2

> <Gold.PLP.Fitness>
41.9971

> <Gold.PLP.PLP>
-31.1683

> <Gold.PLP.part.hbond>
-1.0000

> <Gold.PLP.part.metal>
0.0000

> <Gold.PLP.part.buried>
-8.1142

> <Gold.PLP.part.nonpolar>
-26.2037

> <Gold.PLP.part.repulsive>
3.4579

> <Gold.PLP.ligand.clash>
0.0000

> <Gold.PLP.ligand.torsion>
0.6157

> <Gold.PLP.Chemscore.Hbond>
2.0000

> <Gold.PLP.Chemscore.CHOScore>
2.0000

> <Gold.PLP.Chemscore.Metal>
0.0000

> <Gold.Chemscore.Hbonds>
donor molecule, donor type, donor heavy atom, donor atom, acceptor molecule, acceptor atom, score
      L1  H     4    38       P1  7948  2.00
      L1  C     8    25       P1 10186  1.00
      L1  C    10    27       P1 10747  1.00

> <Gold.PLP.Chemscore.Internal.Correction>
0.0603

> <Gold.Rescore>
     Score         DG    S(hbond)    S(metal)    S(lipo)     H(rot)  DE(clash)    DE(int)     intcor
      9.59     -11.86       1.00        0.00      66.21       1.84       1.69       0.58       ----

> <Gold.Chemscore.Fitness>
9.5905

> <Gold.Chemscore.DG>
-11.8558

> <Gold.Chemscore.ZeroCoef>
-5.4800

> <Gold.Chemscore.Hbond>
1.0000

> <Gold.Chemscore.Metal>
0.0000

> <Gold.Chemscore.Lipo>
66.2123

> <Gold.Chemscore.Internal_Hbond>
0.0000

> <Gold.Chemscore.DEClash>
1.6895

> <Gold.Chemscore.DEInternal>
0.5758

> <Gold.Chemscore.Rot>
1.8402

> <Gold.Chemscore.Internal.Correction>
   9.000000E+99

> <Gold.Chemscore.Hbonds>
donor molecule, donor type, donor heavy atom, donor atom, acceptor molecule, acceptor atom, score
      L1  H     4    38       P1  7948  1.00

> <Gold.Chemscore.Hbond.Weighted>
-3.3399

> <Gold.Chemscore.Metal.Weighted>
-0.0000

> <Gold.Chemscore.Lipo.Weighted>
-7.7468

> <Gold.Chemscore.Internal_Hbond.Weighted>
0.0000

> <Gold.Chemscore.DEClash.Weighted>
1.6895

> <Gold.Chemscore.DEInternal.Weighted>
0.5758

> <Gold.Chemscore.Rot.Weighted>
4.7110

> <Gold.Chemscore.Internal.Correction.Weighted>
   9.000000E+99

> <Gold.Protein.RotatedTorsions>
[ 6907 6896 6895 6894 ] final   60.39 input  -60.11 | X-H torsion
[ 7974 7965 7964 7962 ] final   43.55 input  175.53 | X-H torsion
[ 8008 7997 7996 7995 ] final   60.55 input   59.86 | X-H torsion
[ 10167 10162 10161 10158 ] final   38.58 input  -65.29 | X-H torsion
[ 10718 10713 10712 10709 ] final  110.46 input   66.30 | X-H torsion
[ 10763 10752 10751 10750 ] final  -16.24 input  -60.55 | X-H torsion
[ 11005 11000 10999 10996 ] final  -52.27 input  -57.11 | X-H torsion

> <Gold.Protein.ActiveResidues>
 VAL166  LYS551  ARG553  GLY616  TRP617  ASP618  TYR619  PRO620  LYS621  CYS622 
 ASP623  PHE694  ASN695  SER759  ASP760  ASP761  ALA762  ILE779  LEU786  VAL792 
 PHE793  MET794  SER795  GLU796  ALA797  LYS798  CYS799  TRP800  GLU811  SER814 

> <Gold.Protein.RotatedAtoms>
  152.3998  134.6305  160.0073 H   0  0  0  0  0  0  0  0  0  0  0  0  # atno 6907 bound_to 6896
  151.6513  133.3315  159.3160 H   0  0  0  0  0  0  0  0  0  0  0  0  # atno 6908 bound_to 6896
  150.7900  134.6959  159.6567 H   0  0  0  0  0  0  0  0  0  0  0  0  # atno 6909 bound_to 6896
  146.0645  139.5174  142.9637 H   0  0  0  0  0  0  0  0  0  0  0  0  # atno 7974 bound_to 7965
  155.5840  140.3492  155.4548 H   0  0  0  0  0  0  0  0  0  0  0  0  # atno 8008 bound_to 7997
  156.0351  140.1283  157.0241 H   0  0  0  0  0  0  0  0  0  0  0  0  # atno 8009 bound_to 7997
  154.4368  140.1035  156.6142 H   0  0  0  0  0  0  0  0  0  0  0  0  # atno 8010 bound_to 7997
  140.3922  144.1836  150.6131 H   0  0  0  0  0  0  0  0  0  0  0  0  # atno 10167 bound_to 10162
  157.6493  131.0933  150.6605 H   0  0  0  0  0  0  0  0  0  0  0  0  # atno 10718 bound_to 10713
  153.5556  135.7011  153.5571 H   0  0  0  0  0  0  0  0  0  0  0  0  # atno 10763 bound_to 10752
  153.3476  135.4004  155.1620 H   0  0  0  0  0  0  0  0  0  0  0  0  # atno 10764 bound_to 10752
  154.8655  135.3757  154.5070 H   0  0  0  0  0  0  0  0  0  0  0  0  # atno 10765 bound_to 10752
  141.0916  133.6632  156.4000 H   0  0  0  0  0  0  0  0  0  0  0  0  # atno 11005 bound_to 11000
  145.6501  141.0265  143.1765 LP  0  0  0  0  0  0  0  0  0  0  0  0  # atno 17320 bound_to 7965
  144.7194  139.8081  143.7387 LP  0  0  0  0  0  0  0  0  0  0  0  0  # atno 17321 bound_to 7965
  140.4827  143.2373  151.8932 LP  0  0  0  0  0  0  0  0  0  0  0  0  # atno 17342 bound_to 10162
  139.4788  144.5252  151.8746 LP  0  0  0  0  0  0  0  0  0  0  0  0  # atno 17343 bound_to 10162
  156.6918  130.4597  149.5597 LP  0  0  0  0  0  0  0  0  0  0  0  0  # atno 17370 bound_to 10713
  156.1856  130.6527  151.1002 LP  0  0  0  0  0  0  0  0  0  0  0  0  # atno 17371 bound_to 10713
  140.5239  134.6277  157.5327 LP  0  0  0  0  0  0  0  0  0  0  0  0  # atno 17394 bound_to 11000
  139.9743  134.7242  155.9981 LP  0  0  0  0  0  0  0  0  0  0  0  0  # atno 17395 bound_to 11000

$$$$
