AV-unprocessed.smi:1936|AV-procd|sdf|7830|dock6
  -GOLD-   22720 9573D 1   1.00000     0.00000
 Structure written by MMmdl.
 38 39  0  0  0  0  0  0  0  0  1 V2000
  147.2642  137.0105  154.9375 C   0  0  0  0  0  0  0  0  0  0  0  0
  146.5732  137.7555  153.7835 C   0  0  1  0  0  0  0  0  0  0  0  0
  147.3393  139.0418  153.4043 C   0  0  0  0  0  0  0  0  0  0  0  0
  148.3944  139.4413  154.3366 N   0  0  0  0  0  0  0  0  0  0  0  0
  148.6917  140.8711  154.2763 C   0  0  0  0  0  0  0  0  0  0  0  0
  149.8264  141.2653  155.2378 C   0  0  0  0  0  0  0  0  0  0  0  0
  150.9867  140.4910  154.9534 O   0  0  0  0  0  0  0  0  0  0  0  0
  150.7483  139.0910  155.0553 C   0  0  0  0  0  0  0  0  0  0  0  0
  149.6210  138.6910  154.0880 C   0  0  0  0  0  0  0  0  0  0  0  0
  146.4921  136.8691  152.6242 N   0  0  0  0  0  0  0  0  0  0  0  0
  145.3592  136.4663  152.0287 C   0  0  0  0  0  0  0  0  0  0  0  0
  144.2385  136.8000  152.4171 O   0  0  0  0  0  0  0  0  0  0  0  0
  145.5409  135.5502  150.8119 C   0  0  0  0  0  0  0  0  0  0  0  0
  145.1563  134.1728  151.0749 N   0  0  0  0  0  0  0  0  0  0  0  0
  144.1264  133.4479  150.5116 C   0  0  0  0  0  0  0  0  0  0  0  0
  144.1558  132.2006  151.0665 C   0  0  0  0  0  0  0  0  0  0  0  0
  145.2532  132.2588  151.9704 C   0  0  0  0  0  0  0  0  0  0  0  0
  145.8485  133.4407  151.9755 N   0  0  0  0  0  0  0  0  0  0  0  0
  147.3250  137.6366  155.8282 H   0  0  0  0  0  0  0  0  0  0  0  0
  148.2788  136.7144  154.6686 H   0  0  0  0  0  0  0  0  0  0  0  0
  146.7151  136.1091  155.2117 H   0  0  0  0  0  0  0  0  0  0  0  0
  145.5707  138.0296  154.1188 H   0  0  0  0  0  0  0  0  0  0  0  0
  147.8085  138.8699  152.4347 H   0  0  0  0  0  0  0  0  0  0  0  0
  146.6432  139.8667  153.2422 H   0  0  0  0  0  0  0  0  0  0  0  0
  148.9676  141.1492  153.2580 H   0  0  0  0  0  0  0  0  0  0  0  0
  147.8057  141.4517  154.5314 H   0  0  0  0  0  0  0  0  0  0  0  0
  150.0668  142.3228  155.1266 H   0  0  0  0  0  0  0  0  0  0  0  0
  149.5240  141.1126  156.2751 H   0  0  0  0  0  0  0  0  0  0  0  0
  151.6654  138.5544  154.8124 H   0  0  0  0  0  0  0  0  0  0  0  0
  150.4871  138.8322  156.0826 H   0  0  0  0  0  0  0  0  0  0  0  0
  149.4276  137.6219  154.1848 H   0  0  0  0  0  0  0  0  0  0  0  0
  149.9537  138.8558  153.0619 H   0  0  0  0  0  0  0  0  0  0  0  0
  147.3680  136.5463  152.2392 H   0  0  0  0  0  0  0  0  0  0  0  0
  144.9525  135.9353  149.9773 H   0  0  0  0  0  0  0  0  0  0  0  0
  146.5864  135.5620  150.5010 H   0  0  0  0  0  0  0  0  0  0  0  0
  143.4682  133.8752  149.7695 H   0  0  0  0  0  0  0  0  0  0  0  0
  143.4953  131.3723  150.8574 H   0  0  0  0  0  0  0  0  0  0  0  0
  145.6319  131.4827  152.6191 H   0  0  0  0  0  0  0  0  0  0  0  0
  1  2  1  0  0  0  0
  1 19  1  0  0  0  0
  1 20  1  0  0  0  0
  1 21  1  0  0  0  0
  2  3  1  0  0  0  0
  2 10  1  0  0  0  0
  2 22  1  0  0  0  0
  3  4  1  0  0  0  0
  3 23  1  0  0  0  0
  3 24  1  0  0  0  0
  4  9  1  0  0  0  0
  4  5  1  0  0  0  0
  5  6  1  0  0  0  0
  5 25  1  0  0  0  0
  5 26  1  0  0  0  0
  6  7  1  0  0  0  0
  6 27  1  0  0  0  0
  6 28  1  0  0  0  0
  7  8  1  0  0  0  0
  8  9  1  0  0  0  0
  8 29  1  0  0  0  0
  8 30  1  0  0  0  0
  9 31  1  0  0  0  0
  9 32  1  0  0  0  0
 10 11  1  0  0  0  0
 10 33  1  0  0  0  0
 11 12  2  0  0  0  0
 11 13  1  0  0  0  0
 13 14  1  0  0  0  0
 13 34  1  0  0  0  0
 13 35  1  0  0  0  0
 14 18  1  0  0  0  0
 14 15  1  0  0  0  0
 15 16  2  0  0  0  0
 15 36  1  0  0  0  0
 16 17  1  0  0  0  0
 16 37  1  0  0  0  0
 17 18  2  0  0  0  0
 17 38  1  0  0  0  0
M  END
> <s_m_source_file>
AV-unprocessed.smi

> <i_m_source_file_index>
1936

> <i_lp_mmshare_version>
43012

> <i_f3d_flags>
0

> <s_epik_input>
W0NIMl0xW0NIMl1PW0NIMl1bQ0gyXU4xW0NIMl1bQ0BASF0oW0NIM10pW05IXUMoPU8pW0NIMl1uMltjSF1bY0hdW2NIXW4y

> <s_epik_cmdline>
J2VwaWtfcHl0aG9uJywgJy1waCcsICc3LjAnLCAnLXRuJywgJzgnLCAnLW1hJywgJzIwMCcsICctbWV0YWxfYmluZGluZycsICctaW1hZScsICc8aW5maWxlLm1hZT4nLCAnLW9tYWUnLCAnPG91dGZpbGUubWFlPic=

> <r_lp_tautomer_probability>
1

> <r_epik_Ionization_Penalty>
0.196927

> <r_epik_Ionization_Penalty_Charging>
0

> <r_epik_Ionization_Penalty_Neutral>
0.196927

> <r_epik_State_Penalty>
0.186684

> <r_epik_Charging_Adjusted_Penalty>
0.186684

> <i_epik_Tot_Q>
0

> <i_epik_Tot_abs_Q>
0

> <r_epik_Metal_State_Penalty>
0.186682

> <b_epik_Metal_Only>
0

> <s_lp_Force_Field>
OPLS_2005

> <r_lp_Energy>
27.4163

> <b_lp_Chiralities_Consistent>
1

> <s_lp_Variant>
AV-unprocessed.smi:1936-2

> <Gold.Version>
5.8.1

> <Gold.Id.Protein>
6NUR|6NUR_protein|mol2

> <Gold.PLP.Fitness>
38.5764

> <Gold.PLP.PLP>
-31.6726

> <Gold.PLP.part.hbond>
-2.0000

> <Gold.PLP.part.metal>
0.0000

> <Gold.PLP.part.buried>
-5.3914

> <Gold.PLP.part.nonpolar>
-25.0808

> <Gold.PLP.part.repulsive>
0.5988

> <Gold.PLP.ligand.clash>
0.0000

> <Gold.PLP.ligand.torsion>
1.0770

> <Gold.PLP.Chemscore.Hbond>
2.0000

> <Gold.PLP.Chemscore.CHOScore>
1.0000

> <Gold.PLP.Chemscore.Metal>
0.0000

> <Gold.Chemscore.Hbonds>
donor molecule, donor type, donor heavy atom, donor atom, acceptor molecule, acceptor atom, score
      L1  H    10    33       P1  7948  1.00
      P1  H  7989  7998       L1     7  1.00
      L1  C    15    36       P1 10186  1.00

> <Gold.PLP.Chemscore.Internal.Correction>
0.0577

> <Gold.Rescore>
     Score         DG    S(hbond)    S(metal)    S(lipo)     H(rot)  DE(clash)    DE(int)     intcor
     13.07     -14.18       1.63        0.00      68.57       1.85       0.05       1.06       ----

> <Gold.Chemscore.Fitness>
13.0684

> <Gold.Chemscore.DG>
-14.1837

> <Gold.Chemscore.ZeroCoef>
-5.4800

> <Gold.Chemscore.Hbond>
1.6258

> <Gold.Chemscore.Metal>
0.0000

> <Gold.Chemscore.Lipo>
68.5655

> <Gold.Chemscore.Internal_Hbond>
0.0000

> <Gold.Chemscore.DEClash>
0.0512

> <Gold.Chemscore.DEInternal>
1.0641

> <Gold.Chemscore.Rot>
1.8549

> <Gold.Chemscore.Internal.Correction>
   9.000000E+99

> <Gold.Chemscore.Hbonds>
donor molecule, donor type, donor heavy atom, donor atom, acceptor molecule, acceptor atom, score
      L1  H    10    33       P1  7948  1.00
      P1  H  7989  7998       L1     7  0.65

> <Gold.Chemscore.Hbond.Weighted>
-5.4300

> <Gold.Chemscore.Metal.Weighted>
-0.0000

> <Gold.Chemscore.Lipo.Weighted>
-8.0222

> <Gold.Chemscore.Internal_Hbond.Weighted>
0.0000

> <Gold.Chemscore.DEClash.Weighted>
0.0512

> <Gold.Chemscore.DEInternal.Weighted>
1.0641

> <Gold.Chemscore.Rot.Weighted>
4.7485

> <Gold.Chemscore.Internal.Correction.Weighted>
   9.000000E+99

> <Gold.Protein.RotatedTorsions>
[ 6907 6896 6895 6894 ] final   45.72 input  -60.11 | X-H torsion
[ 7974 7965 7964 7962 ] final  -62.68 input  175.53 | X-H torsion
[ 8008 7997 7996 7995 ] final -142.48 input   59.86 | X-H torsion
[ 10167 10162 10161 10158 ] final   49.59 input  -65.29 | X-H torsion
[ 10718 10713 10712 10709 ] final   30.55 input   66.30 | X-H torsion
[ 10763 10752 10751 10750 ] final   54.56 input  -60.55 | X-H torsion
[ 11005 11000 10999 10996 ] final -141.81 input  -57.11 | X-H torsion

> <Gold.Protein.ActiveResidues>
 VAL166  LYS551  ARG553  GLY616  TRP617  ASP618  TYR619  PRO620  LYS621  CYS622 
 ASP623  PHE694  ASN695  SER759  ASP760  ASP761  ALA762  ILE779  LEU786  VAL792 
 PHE793  MET794  SER795  GLU796  ALA797  LYS798  CYS799  TRP800  GLU811  SER814 

> <Gold.Protein.RotatedAtoms>
  152.2479  134.8163  160.0450 H   0  0  0  0  0  0  0  0  0  0  0  0  # atno 6907 bound_to 6896
  151.8853  133.3499  159.3788 H   0  0  0  0  0  0  0  0  0  0  0  0  # atno 6908 bound_to 6896
  150.7074  134.4904  159.5557 H   0  0  0  0  0  0  0  0  0  0  0  0  # atno 6909 bound_to 6896
  145.7883  140.8724  143.0294 H   0  0  0  0  0  0  0  0  0  0  0  0  # atno 7974 bound_to 7965
  155.4948  140.0571  157.2948 H   0  0  0  0  0  0  0  0  0  0  0  0  # atno 8008 bound_to 7997
  154.4609  140.1996  156.0198 H   0  0  0  0  0  0  0  0  0  0  0  0  # atno 8009 bound_to 7997
  156.0888  140.3236  155.7793 H   0  0  0  0  0  0  0  0  0  0  0  0  # atno 8010 bound_to 7997
  140.2813  144.3153  150.6263 H   0  0  0  0  0  0  0  0  0  0  0  0  # atno 10167 bound_to 10162
  157.2611  130.7161  149.6454 H   0  0  0  0  0  0  0  0  0  0  0  0  # atno 10718 bound_to 10713
  152.9806  135.5741  154.4924 H   0  0  0  0  0  0  0  0  0  0  0  0  # atno 10763 bound_to 10752
  154.4456  135.2777  155.1819 H   0  0  0  0  0  0  0  0  0  0  0  0  # atno 10764 bound_to 10752
  154.3468  135.6217  153.5677 H   0  0  0  0  0  0  0  0  0  0  0  0  # atno 10765 bound_to 10752
  140.8288  134.2542  157.4866 H   0  0  0  0  0  0  0  0  0  0  0  0  # atno 11005 bound_to 11000
  144.6785  140.0087  143.7484 LP  0  0  0  0  0  0  0  0  0  0  0  0  # atno 17320 bound_to 7965
  146.0003  139.3085  143.0932 LP  0  0  0  0  0  0  0  0  0  0  0  0  # atno 17321 bound_to 7965
  140.5809  143.2173  151.7429 LP  0  0  0  0  0  0  0  0  0  0  0  0  # atno 17342 bound_to 10162
  139.4962  144.4081  152.0110 LP  0  0  0  0  0  0  0  0  0  0  0  0  # atno 17343 bound_to 10162
  155.9664  130.4397  150.5270 LP  0  0  0  0  0  0  0  0  0  0  0  0  # atno 17370 bound_to 10713
  157.3174  131.0675  151.1956 LP  0  0  0  0  0  0  0  0  0  0  0  0  # atno 17371 bound_to 10713
  139.8705  134.9575  156.4270 LP  0  0  0  0  0  0  0  0  0  0  0  0  # atno 17394 bound_to 11000
  140.9021  133.7772  155.9692 LP  0  0  0  0  0  0  0  0  0  0  0  0  # atno 17395 bound_to 11000

$$$$
