AV-unprocessed.smi:1795|AV-procd|sdf|7243|dock5
  -GOLD-   22720 8493D 1   1.00000     0.00000
 Structure written by MMmdl.
 48 49  0  0  0  0  0  0  0  0  2 V2000
  145.6826  132.2381  149.9153 C   0  0  0  0  0  0  0  0  0  0  0  0
  146.1226  133.3811  150.8372 C   0  0  2  0  0  0  0  0  0  0  0  0
  147.1338  132.9072  151.8978 C   0  0  0  0  0  0  0  0  0  0  0  0
  147.4726  134.0033  152.8453 N   0  3  2  0  0  0  0  0  0  0  0  0
  148.5117  133.6808  153.8782 C   0  0  2  0  0  0  0  0  0  0  0  0
  148.1482  132.3615  154.5965 C   0  0  0  0  0  0  0  0  0  0  0  0
  148.7426  134.8134  154.9188 C   0  0  0  0  0  0  0  0  0  0  0  0
  149.5726  135.9021  154.4100 N   0  0  0  0  0  0  0  0  0  0  0  0
  150.3236  136.7150  155.1688 C   0  0  0  0  0  0  0  0  0  0  0  0
  150.3656  136.6378  156.3974 O   0  0  0  0  0  0  0  0  0  0  0  0
  151.1296  137.7853  154.4187 C   0  0  0  0  0  0  0  0  0  0  0  0
  150.7223  139.1602  154.7538 N   0  0  0  0  0  0  0  0  0  0  0  0
  149.4960  139.6139  154.2279 C   0  0  0  0  0  0  0  0  0  0  0  0
  149.0318  140.8493  154.4737 C   0  0  0  0  0  0  0  0  0  0  0  0
  149.8260  141.7246  155.3030 C   0  0  0  0  0  0  0  0  0  0  0  0
  150.9986  141.2996  155.8140 C   0  0  0  0  0  0  0  0  0  0  0  0
  151.5091  139.9494  155.5494 C   0  0  0  0  0  0  0  0  0  0  0  0
  152.5774  139.5512  156.0146 O   0  0  0  0  0  0  0  0  0  0  0  0
  146.2213  134.5366  153.4490 C   0  0  0  0  0  0  0  0  0  0  0  0
  145.2086  134.9750  152.3748 C   0  0  1  0  0  0  0  0  0  0  0  0
  145.6005  136.2761  151.6514 C   0  0  0  0  0  0  0  0  0  0  0  0
  144.9598  133.9001  151.4725 O   0  0  0  0  0  0  0  0  0  0  0  0
  146.5346  131.8061  149.3900 H   0  0  0  0  0  0  0  0  0  0  0  0
  144.9756  132.5924  149.1646 H   0  0  0  0  0  0  0  0  0  0  0  0
  145.1975  131.4405  150.4787 H   0  0  0  0  0  0  0  0  0  0  0  0
  146.5784  134.1539  150.2178 H   0  0  0  0  0  0  0  0  0  0  0  0
  146.7371  132.0551  152.4525 H   0  0  0  0  0  0  0  0  0  0  0  0
  148.0214  132.5695  151.3642 H   0  0  0  0  0  0  0  0  0  0  0  0
  149.4558  133.5337  153.3511 H   0  0  0  0  0  0  0  0  0  0  0  0
  148.9107  132.0703  155.3187 H   0  0  0  0  0  0  0  0  0  0  0  0
  148.0510  131.5223  153.9099 H   0  0  0  0  0  0  0  0  0  0  0  0
  147.2049  132.4565  155.1354 H   0  0  0  0  0  0  0  0  0  0  0  0
  147.7995  135.2546  155.2443 H   0  0  0  0  0  0  0  0  0  0  0  0
  149.2267  134.4123  155.8098 H   0  0  0  0  0  0  0  0  0  0  0  0
  149.5906  136.0356  153.4090 H   0  0  0  0  0  0  0  0  0  0  0  0
  152.1932  137.6519  154.6259 H   0  0  0  0  0  0  0  0  0  0  0  0
  151.0225  137.6028  153.3486 H   0  0  0  0  0  0  0  0  0  0  0  0
  148.9595  138.8969  153.6233 H   0  0  0  0  0  0  0  0  0  0  0  0
  148.0879  141.1786  154.0647 H   0  0  0  0  0  0  0  0  0  0  0  0
  149.4774  142.7245  155.5163 H   0  0  0  0  0  0  0  0  0  0  0  0
  151.5784  141.9682  156.4336 H   0  0  0  0  0  0  0  0  0  0  0  0
  145.7714  133.7606  154.0707 H   0  0  0  0  0  0  0  0  0  0  0  0
  146.4231  135.3793  154.1079 H   0  0  0  0  0  0  0  0  0  0  0  0
  144.2596  135.1695  152.8755 H   0  0  0  0  0  0  0  0  0  0  0  0
  145.6551  137.1069  152.3552 H   0  0  0  0  0  0  0  0  0  0  0  0
  144.8617  136.5365  150.8930 H   0  0  0  0  0  0  0  0  0  0  0  0
  146.5714  136.2038  151.1624 H   0  0  0  0  0  0  0  0  0  0  0  0
  147.8632  134.7419  152.2778 H   0  0  0  0  0  0  0  0  0  0  0  0
  1  2  1  0  0  0  0
  1 23  1  0  0  0  0
  1 24  1  0  0  0  0
  1 25  1  0  0  0  0
  2 22  1  0  0  0  0
  2  3  1  0  0  0  0
  2 26  1  0  0  0  0
  3  4  1  0  0  0  0
  3 27  1  0  0  0  0
  3 28  1  0  0  0  0
  4  5  1  0  0  0  0
  4 19  1  0  0  0  0
  4 48  1  0  0  0  0
  5  6  1  0  0  0  0
  5  7  1  0  0  0  0
  5 29  1  0  0  0  0
  6 30  1  0  0  0  0
  6 31  1  0  0  0  0
  6 32  1  0  0  0  0
  7  8  1  0  0  0  0
  7 33  1  0  0  0  0
  7 34  1  0  0  0  0
  8  9  1  0  0  0  0
  8 35  1  0  0  0  0
  9 10  2  0  0  0  0
  9 11  1  0  0  0  0
 11 12  1  0  0  0  0
 11 36  1  0  0  0  0
 11 37  1  0  0  0  0
 12 17  1  0  0  0  0
 12 13  1  0  0  0  0
 13 14  2  0  0  0  0
 13 38  1  0  0  0  0
 14 15  1  0  0  0  0
 14 39  1  0  0  0  0
 15 16  2  0  0  0  0
 15 40  1  0  0  0  0
 16 17  1  0  0  0  0
 16 41  1  0  0  0  0
 17 18  2  0  0  0  0
 19 20  1  0  0  0  0
 19 42  1  0  0  0  0
 19 43  1  0  0  0  0
 20 21  1  0  0  0  0
 20 22  1  0  0  0  0
 20 44  1  0  0  0  0
 21 45  1  0  0  0  0
 21 46  1  0  0  0  0
 21 47  1  0  0  0  0
M  CHG  1   4   1
M  END
> <s_m_source_file>
AV-unprocessed.smi

> <i_m_source_file_index>
1795

> <i_lp_mmshare_version>
43012

> <i_f3d_flags>
0

> <s_epik_input>
W0NIM11bQ0BASF0xW0NIMl1OKFtDSDJdW0NASF0oTzEpW0NIM10pW0NASF0oW0NIM10pW0NIMl1bTkhdQyg9TylbQ0gyXW4yW2NIXVtjSF1bY0hdW2NIXWMyPU8=

> <s_epik_cmdline>
J2VwaWtfcHl0aG9uJywgJy1waCcsICc3LjAnLCAnLXRuJywgJzgnLCAnLW1hJywgJzIwMCcsICctbWV0YWxfYmluZGluZycsICctaW1hZScsICc8aW5maWxlLm1hZT4nLCAnLW9tYWUnLCAnPG91dGZpbGUubWFlPic=

> <r_lp_tautomer_probability>
1

> <r_epik_Ionization_Penalty>
0.656654

> <r_epik_Ionization_Penalty_Charging>
0.656654

> <r_epik_Ionization_Penalty_Neutral>
8.90321e-08

> <r_epik_State_Penalty>
0.675641

> <r_epik_Charging_Adjusted_Penalty>
1.33229

> <i_epik_Tot_Q>
1

> <i_epik_Tot_abs_Q>
1

> <r_epik_Metal_State_Penalty>
0.675691

> <b_epik_Metal_Only>
0

> <s_lp_Force_Field>
OPLS_2005

> <r_lp_Energy>
31.532

> <b_lp_Chiralities_Consistent>
1

> <s_lp_Variant>
AV-unprocessed.smi:1795-7

> <Gold.Version>
5.8.1

> <Gold.Id.Protein>
6NUR|6NUR_protein|mol2

> <Gold.PLP.Fitness>
52.7730

> <Gold.PLP.PLP>
-41.8899

> <Gold.PLP.part.hbond>
-3.1860

> <Gold.PLP.part.metal>
0.0000

> <Gold.PLP.part.buried>
-1.9150

> <Gold.PLP.part.nonpolar>
-36.4127

> <Gold.PLP.part.repulsive>
0.1598

> <Gold.PLP.ligand.clash>
0.0000

> <Gold.PLP.ligand.torsion>
0.6818

> <Gold.PLP.Chemscore.Hbond>
4.0000

> <Gold.PLP.Chemscore.CHOScore>
0.0562

> <Gold.PLP.Chemscore.Metal>
0.0000

> <Gold.Chemscore.Hbonds>
donor molecule, donor type, donor heavy atom, donor atom, acceptor molecule, acceptor atom, score
      L1  H     4    48       P1  7948  2.00
      L1  H     8    35       P1  7948  1.00
      P1  H  7997  8010       L1    18  1.00
      L1  C    13    38       P1  7957  0.12

> <Gold.PLP.Chemscore.Internal.Correction>
0.0780

> <Gold.Rescore>
     Score         DG    S(hbond)    S(metal)    S(lipo)     H(rot)  DE(clash)    DE(int)     intcor
     18.84     -19.38       2.84        0.00      78.97       1.89       0.12       0.42       ----

> <Gold.Chemscore.Fitness>
18.8442

> <Gold.Chemscore.DG>
-19.3844

> <Gold.Chemscore.ZeroCoef>
-5.4800

> <Gold.Chemscore.Hbond>
2.8430

> <Gold.Chemscore.Metal>
0.0000

> <Gold.Chemscore.Lipo>
78.9691

> <Gold.Chemscore.Internal_Hbond>
0.0000

> <Gold.Chemscore.DEClash>
0.1205

> <Gold.Chemscore.DEInternal>
0.4198

> <Gold.Chemscore.Rot>
1.8870

> <Gold.Chemscore.Internal.Correction>
   9.000000E+99

> <Gold.Chemscore.Hbonds>
donor molecule, donor type, donor heavy atom, donor atom, acceptor molecule, acceptor atom, score
      L1  H     4    48       P1  7948  0.65
      L1  H     8    35       P1  7948  0.25
      P1  H  7997  8010       L1    18  0.95

> <Gold.Chemscore.Hbond.Weighted>
-9.4958

> <Gold.Chemscore.Metal.Weighted>
-0.0000

> <Gold.Chemscore.Lipo.Weighted>
-9.2394

> <Gold.Chemscore.Internal_Hbond.Weighted>
0.0000

> <Gold.Chemscore.DEClash.Weighted>
0.1205

> <Gold.Chemscore.DEInternal.Weighted>
0.4198

> <Gold.Chemscore.Rot.Weighted>
4.8308

> <Gold.Chemscore.Internal.Correction.Weighted>
   9.000000E+99

> <Gold.Protein.RotatedTorsions>
[ 6907 6896 6895 6894 ] final   18.19 input  -60.11 | X-H torsion
[ 7974 7965 7964 7962 ] final  152.77 input  175.53 | X-H torsion
[ 8008 7997 7996 7995 ] final  101.13 input   59.86 | X-H torsion
[ 10167 10162 10161 10158 ] final  123.09 input  -65.29 | X-H torsion
[ 10718 10713 10712 10709 ] final  136.67 input   66.30 | X-H torsion
[ 10763 10752 10751 10750 ] final  -23.85 input  -60.55 | X-H torsion
[ 11005 11000 10999 10996 ] final   -4.04 input  -57.11 | X-H torsion

> <Gold.Protein.ActiveResidues>
 VAL166  LYS551  ARG553  GLY616  TRP617  ASP618  TYR619  PRO620  LYS621  CYS622 
 ASP623  PHE694  ASN695  SER759  ASP760  ASP761  ALA762  ILE779  LEU786  VAL792 
 PHE793  MET794  SER795  GLU796  ALA797  LYS798  CYS799  TRP800  GLU811  SER814 

> <Gold.Protein.RotatedAtoms>
  151.8614  135.0523  160.0469 H   0  0  0  0  0  0  0  0  0  0  0  0  # atno 6907 bound_to 6896
  152.2660  133.5335  159.5418 H   0  0  0  0  0  0  0  0  0  0  0  0  # atno 6908 bound_to 6896
  150.7134  134.0680  159.3897 H   0  0  0  0  0  0  0  0  0  0  0  0  # atno 6909 bound_to 6896
  144.8200  139.6712  143.6105 H   0  0  0  0  0  0  0  0  0  0  0  0  # atno 7974 bound_to 7965
  156.1270  140.3202  155.8292 H   0  0  0  0  0  0  0  0  0  0  0  0  # atno 8008 bound_to 7997
  155.4401  140.0525  157.3028 H   0  0  0  0  0  0  0  0  0  0  0  0  # atno 8009 bound_to 7997
  154.4870  140.2077  155.9646 H   0  0  0  0  0  0  0  0  0  0  0  0  # atno 8010 bound_to 7997
  139.5820  144.6990  151.3504 H   0  0  0  0  0  0  0  0  0  0  0  0  # atno 10167 bound_to 10162
  157.4441  131.1060  151.0109 H   0  0  0  0  0  0  0  0  0  0  0  0  # atno 10718 bound_to 10713
  153.6745  135.6970  153.5137 H   0  0  0  0  0  0  0  0  0  0  0  0  # atno 10763 bound_to 10752
  153.2532  135.4268  155.0818 H   0  0  0  0  0  0  0  0  0  0  0  0  # atno 10764 bound_to 10752
  154.8417  135.3536  154.6288 H   0  0  0  0  0  0  0  0  0  0  0  0  # atno 10765 bound_to 10752
  140.6759  133.9195  155.8524 H   0  0  0  0  0  0  0  0  0  0  0  0  # atno 11005 bound_to 11000
  146.2505  139.6188  142.9430 LP  0  0  0  0  0  0  0  0  0  0  0  0  # atno 17320 bound_to 7965
  145.5128  141.0435  143.2478 LP  0  0  0  0  0  0  0  0  0  0  0  0  # atno 17321 bound_to 7965
  140.7097  143.7422  150.7545 LP  0  0  0  0  0  0  0  0  0  0  0  0  # atno 17342 bound_to 10162
  140.0957  143.4835  152.2453 LP  0  0  0  0  0  0  0  0  0  0  0  0  # atno 17343 bound_to 10162
  157.0961  130.5962  149.5450 LP  0  0  0  0  0  0  0  0  0  0  0  0  # atno 17370 bound_to 10713
  155.9960  130.5029  150.7482 LP  0  0  0  0  0  0  0  0  0  0  0  0  # atno 17371 bound_to 10713
  141.0355  134.0695  157.3964 LP  0  0  0  0  0  0  0  0  0  0  0  0  # atno 17394 bound_to 11000
  139.8967  135.0147  156.7062 LP  0  0  0  0  0  0  0  0  0  0  0  0  # atno 17395 bound_to 11000

$$$$
