AV-unprocessed.smi:1041|AV-procd|sdf|4535|dock1
  -GOLD-   22720 2563D 1   1.00000     0.00000
 Structure written by MMmdl.
 51 52  0  0  0  0  0  0  0  0  2 V2000
  144.2424  132.3929  149.5822 C   0  0  0  0  0  0  0  0  0  0  0  0
  144.5309  131.8100  150.8406 O   0  0  0  0  0  0  0  0  0  0  0  0
  145.4919  132.5506  151.5758 C   0  0  0  0  0  0  0  0  0  0  0  0
  145.5113  132.0917  153.0438 C   0  0  0  0  0  0  0  0  0  0  0  0
  146.4918  132.7566  153.9045 N   0  0  0  0  0  0  0  0  0  0  0  0
  147.8591  132.6524  153.3883 C   0  0  0  0  0  0  0  0  0  0  0  0
  148.8844  133.3829  154.2724 C   0  0  0  0  0  0  0  0  0  0  0  0
  148.8426  132.8571  155.7182 C   0  0  0  0  0  0  0  0  0  0  0  0
  149.8314  133.6154  156.6227 C   0  0  0  0  0  0  0  0  0  0  0  0
  149.4921  135.0293  156.7023 N   0  0  0  0  0  0  0  0  0  0  0  0
  150.3809  136.0319  156.6741 C   0  0  0  0  0  0  0  0  0  0  0  0
  151.5970  135.8567  156.6032 O   0  0  0  0  0  0  0  0  0  0  0  0
  149.8060  137.4486  156.7221 C   0  0  0  0  0  0  0  0  0  0  0  0
  150.6622  138.4801  157.4558 C   0  0  0  0  0  0  0  0  0  0  0  0
  151.7947  139.0238  156.9233 C   0  0  0  0  0  0  0  0  0  0  0  0
  152.3270  138.6501  155.5500 C   0  0  0  0  0  0  0  0  0  0  0  0
  152.5454  139.9780  157.6309 N   0  0  0  0  0  0  0  0  0  0  0  0
  152.1598  140.3469  158.7928 C   0  0  0  0  0  0  0  0  0  0  0  0
  152.9704  141.3780  159.5486 C   0  0  0  0  0  0  0  0  0  0  0  0
  151.0324  139.8636  159.4174 N   0  5  0  0  0  0  0  0  0  0  0  0
  150.2561  138.9274  158.8008 C   0  0  0  0  0  0  0  0  0  0  0  0
  149.2511  138.4602  159.3349 O   0  0  0  0  0  0  0  0  0  0  0  0
  147.3894  132.9232  156.2319 C   0  0  0  0  0  0  0  0  0  0  0  0
  146.4352  132.2093  155.2601 C   0  0  0  0  0  0  0  0  0  0  0  0
  143.4915  131.7956  149.0653 H   0  0  0  0  0  0  0  0  0  0  0  0
  145.1326  132.4311  148.9532 H   0  0  0  0  0  0  0  0  0  0  0  0
  143.8492  133.4038  149.6955 H   0  0  0  0  0  0  0  0  0  0  0  0
  146.4849  132.4544  151.1332 H   0  0  0  0  0  0  0  0  0  0  0  0
  145.2216  133.6068  151.5348 H   0  0  0  0  0  0  0  0  0  0  0  0
  144.5182  132.2936  153.4473 H   0  0  0  0  0  0  0  0  0  0  0  0
  145.6345  131.0086  153.0924 H   0  0  0  0  0  0  0  0  0  0  0  0
  148.1401  131.6025  153.2911 H   0  0  0  0  0  0  0  0  0  0  0  0
  147.9165  133.0840  152.3903 H   0  0  0  0  0  0  0  0  0  0  0  0
  149.8842  133.2581  153.8555 H   0  0  0  0  0  0  0  0  0  0  0  0
  148.6751  134.4535  154.2606 H   0  0  0  0  0  0  0  0  0  0  0  0
  149.1451  131.8086  155.6976 H   0  0  0  0  0  0  0  0  0  0  0  0
  149.8186  133.1917  157.6282 H   0  0  0  0  0  0  0  0  0  0  0  0
  150.8488  133.5068  156.2427 H   0  0  0  0  0  0  0  0  0  0  0  0
  148.5119  135.2634  156.7606 H   0  0  0  0  0  0  0  0  0  0  0  0
  149.6428  137.8053  155.7044 H   0  0  0  0  0  0  0  0  0  0  0  0
  148.8057  137.3923  157.1520 H   0  0  0  0  0  0  0  0  0  0  0  0
  152.5881  137.5925  155.5147 H   0  0  0  0  0  0  0  0  0  0  0  0
  153.2237  139.2210  155.3066 H   0  0  0  0  0  0  0  0  0  0  0  0
  151.5844  138.8520  154.7785 H   0  0  0  0  0  0  0  0  0  0  0  0
  153.1088  141.0706  160.5857 H   0  0  0  0  0  0  0  0  0  0  0  0
  152.4576  142.3402  159.5382 H   0  0  0  0  0  0  0  0  0  0  0  0
  153.9556  141.5083  159.0991 H   0  0  0  0  0  0  0  0  0  0  0  0
  147.3090  132.4656  157.2182 H   0  0  0  0  0  0  0  0  0  0  0  0
  147.0820  133.9637  156.3472 H   0  0  0  0  0  0  0  0  0  0  0  0
  145.4188  132.2921  155.6470 H   0  0  0  0  0  0  0  0  0  0  0  0
  146.6695  131.1437  155.2386 H   0  0  0  0  0  0  0  0  0  0  0  0
  1  2  1  0  0  0  0
  1 25  1  0  0  0  0
  1 26  1  0  0  0  0
  1 27  1  0  0  0  0
  2  3  1  0  0  0  0
  3  4  1  0  0  0  0
  3 28  1  0  0  0  0
  3 29  1  0  0  0  0
  4  5  1  0  0  0  0
  4 30  1  0  0  0  0
  4 31  1  0  0  0  0
  5 24  1  0  0  0  0
  5  6  1  0  0  0  0
  6  7  1  0  0  0  0
  6 32  1  0  0  0  0
  6 33  1  0  0  0  0
  7  8  1  0  0  0  0
  7 34  1  0  0  0  0
  7 35  1  0  0  0  0
  8  9  1  0  0  0  0
  8 23  1  0  0  0  0
  8 36  1  0  0  0  0
  9 10  1  0  0  0  0
  9 37  1  0  0  0  0
  9 38  1  0  0  0  0
 10 11  1  0  0  0  0
 10 39  1  0  0  0  0
 11 12  2  0  0  0  0
 11 13  1  0  0  0  0
 13 14  1  0  0  0  0
 13 40  1  0  0  0  0
 13 41  1  0  0  0  0
 14 21  1  0  0  0  0
 14 15  2  0  0  0  0
 15 16  1  0  0  0  0
 15 17  1  0  0  0  0
 16 42  1  0  0  0  0
 16 43  1  0  0  0  0
 16 44  1  0  0  0  0
 17 18  2  0  0  0  0
 18 19  1  0  0  0  0
 18 20  1  0  0  0  0
 19 45  1  0  0  0  0
 19 46  1  0  0  0  0
 19 47  1  0  0  0  0
 20 21  1  0  0  0  0
 21 22  2  0  0  0  0
 23 24  1  0  0  0  0
 23 48  1  0  0  0  0
 23 49  1  0  0  0  0
 24 50  1  0  0  0  0
 24 51  1  0  0  0  0
M  CHG  1  20  -1
M  END
> <s_m_source_file>
AV-unprocessed.smi

> <i_m_source_file_index>
1041

> <i_lp_mmshare_version>
43012

> <i_f3d_flags>
0

> <s_epik_input>
W0NIM11PW0NIMl1bQ0gyXU4xW0NIMl1bQ0gyXVtDSF0oW0NIMl1bQ0gyXTEpW0NIMl1bTkhdQyg9TylbQ0gyXWMyYyhbQ0gzXSluYyhbQ0gzXSlbbkhdYzI9Tw==

> <s_epik_cmdline>
J2VwaWtfcHl0aG9uJywgJy1waCcsICc3LjAnLCAnLXRuJywgJzgnLCAnLW1hJywgJzIwMCcsICctbWV0YWxfYmluZGluZycsICctaW1hZScsICc8aW5maWxlLm1hZT4nLCAnLW9tYWUnLCAnPG91dGZpbGUubWFlPic=

> <r_lp_tautomer_probability>
0.839158

> <r_epik_Ionization_Penalty>
9.04559

> <r_epik_Ionization_Penalty_Charging>
6.70107e-08

> <r_epik_Ionization_Penalty_Neutral>
9.04559

> <r_epik_State_Penalty>
7.10582

> <r_epik_Charging_Adjusted_Penalty>
7.10582

> <i_epik_Tot_Q>
-1

> <i_epik_Tot_abs_Q>
1

> <r_epik_Metal_State_Penalty>
3.46994

> <b_epik_Metal_Only>
1

> <s_lp_Force_Field>
OPLS_2005

> <r_lp_Energy>
32.0623

> <b_lp_Chiralities_Consistent>
1

> <s_lp_Variant>
AV-unprocessed.smi:1041-8

> <Gold.Version>
5.8.1

> <Gold.Id.Protein>
6NUR|6NUR_protein|mol2

> <Gold.PLP.Fitness>
39.1116

> <Gold.PLP.PLP>
-34.4332

> <Gold.PLP.part.hbond>
-3.0000

> <Gold.PLP.part.metal>
0.0000

> <Gold.PLP.part.buried>
-5.0509

> <Gold.PLP.part.nonpolar>
-26.3883

> <Gold.PLP.part.repulsive>
0.3363

> <Gold.PLP.ligand.clash>
0.0000

> <Gold.PLP.ligand.torsion>
0.7392

> <Gold.PLP.Chemscore.Hbond>
2.0000

> <Gold.PLP.Chemscore.CHOScore>
0.0000

> <Gold.PLP.Chemscore.Metal>
0.0000

> <Gold.Chemscore.Hbonds>
donor molecule, donor type, donor heavy atom, donor atom, acceptor molecule, acceptor atom, score
      P1  H  7997  8008       L1    17  0.89
      P1  H 10752 10764       L1    12  0.31

> <Gold.PLP.Chemscore.Internal.Correction>
0.1567

> <Gold.Rescore>
     Score         DG    S(hbond)    S(metal)    S(lipo)     H(rot)  DE(clash)    DE(int)     intcor
     14.16     -15.67       1.84        0.00      84.50       2.28       0.08       1.43       ----

> <Gold.Chemscore.Fitness>
14.1551

> <Gold.Chemscore.DG>
-15.6698

> <Gold.Chemscore.ZeroCoef>
-5.4800

> <Gold.Chemscore.Hbond>
1.8396

> <Gold.Chemscore.Metal>
0.0000

> <Gold.Chemscore.Lipo>
84.4985

> <Gold.Chemscore.Internal_Hbond>
0.0000

> <Gold.Chemscore.DEClash>
0.0805

> <Gold.Chemscore.DEInternal>
1.4342

> <Gold.Chemscore.Rot>
2.2816

> <Gold.Chemscore.Internal.Correction>
   9.000000E+99

> <Gold.Chemscore.Hbonds>
donor molecule, donor type, donor heavy atom, donor atom, acceptor molecule, acceptor atom, score
      P1  H  7997  8008       L1    17  0.52
      P1  H 10752 10764       L1    12  0.29

> <Gold.Chemscore.Hbond.Weighted>
-6.1444

> <Gold.Chemscore.Metal.Weighted>
-0.0000

> <Gold.Chemscore.Lipo.Weighted>
-9.8863

> <Gold.Chemscore.Internal_Hbond.Weighted>
0.0000

> <Gold.Chemscore.DEClash.Weighted>
0.0805

> <Gold.Chemscore.DEInternal.Weighted>
1.4342

> <Gold.Chemscore.Rot.Weighted>
5.8409

> <Gold.Chemscore.Internal.Correction.Weighted>
   9.000000E+99

> <Gold.Protein.RotatedTorsions>
[ 6907 6896 6895 6894 ] final  -79.41 input  -60.11 | X-H torsion
[ 7974 7965 7964 7962 ] final  176.51 input  175.53 | X-H torsion
[ 8008 7997 7996 7995 ] final  -63.29 input   59.86 | X-H torsion
[ 10167 10162 10161 10158 ] final -105.98 input  -65.29 | X-H torsion
[ 10718 10713 10712 10709 ] final  -13.76 input   66.30 | X-H torsion
[ 10763 10752 10751 10750 ] final  -49.20 input  -60.55 | X-H torsion
[ 11005 11000 10999 10996 ] final  118.36 input  -57.11 | X-H torsion

> <Gold.Protein.ActiveResidues>
 VAL166  LYS551  ARG553  GLY616  TRP617  ASP618  TYR619  PRO620  LYS621  CYS622 
 ASP623  PHE694  ASN695  SER759  ASP760  ASP761  ALA762  ILE779  LEU786  VAL792 
 PHE793  MET794  SER795  GLU796  ALA797  LYS798  CYS799  TRP800  GLU811  SER814 

> <Gold.Protein.RotatedAtoms>
  150.6950  134.4126  159.5168 H   0  0  0  0  0  0  0  0  0  0  0  0  # atno 6907 bound_to 6896
  152.1882  134.8692  160.0529 H   0  0  0  0  0  0  0  0  0  0  0  0  # atno 6908 bound_to 6896
  151.9658  133.3675  159.4089 H   0  0  0  0  0  0  0  0  0  0  0  0  # atno 6909 bound_to 6896
  144.7183  140.0108  143.6440 H   0  0  0  0  0  0  0  0  0  0  0  0  # atno 7974 bound_to 7965
  154.4546  140.0978  156.6719 H   0  0  0  0  0  0  0  0  0  0  0  0  # atno 8008 bound_to 7997
  155.5178  140.3478  155.4382 H   0  0  0  0  0  0  0  0  0  0  0  0  # atno 8009 bound_to 7997
  156.0751  140.1359  156.9770 H   0  0  0  0  0  0  0  0  0  0  0  0  # atno 8010 bound_to 7997
  140.1927  143.3879  152.1193 H   0  0  0  0  0  0  0  0  0  0  0  0  # atno 10167 bound_to 10162
  156.6256  130.4887  149.6148 H   0  0  0  0  0  0  0  0  0  0  0  0  # atno 10718 bound_to 10713
  154.0903  135.6578  153.4851 H   0  0  0  0  0  0  0  0  0  0  0  0  # atno 10763 bound_to 10752
  153.0324  135.5201  154.7387 H   0  0  0  0  0  0  0  0  0  0  0  0  # atno 10764 bound_to 10752
  154.6509  135.3001  154.9957 H   0  0  0  0  0  0  0  0  0  0  0  0  # atno 10765 bound_to 10752
  139.9107  134.9619  156.7492 H   0  0  0  0  0  0  0  0  0  0  0  0  # atno 11005 bound_to 11000
  146.0260  139.3292  143.0784 LP  0  0  0  0  0  0  0  0  0  0  0  0  # atno 17320 bound_to 7965
  145.8511  140.9528  143.0749 LP  0  0  0  0  0  0  0  0  0  0  0  0  # atno 17321 bound_to 7965
  139.5249  144.7089  151.5267 LP  0  0  0  0  0  0  0  0  0  0  0  0  # atno 17342 bound_to 10162
  140.6444  143.8823  150.6723 LP  0  0  0  0  0  0  0  0  0  0  0  0  # atno 17343 bound_to 10162
  156.2276  130.6775  151.1431 LP  0  0  0  0  0  0  0  0  0  0  0  0  # atno 17370 bound_to 10713
  157.7215  131.0678  150.6115 LP  0  0  0  0  0  0  0  0  0  0  0  0  # atno 17371 bound_to 10713
  140.6787  133.9494  155.7898 LP  0  0  0  0  0  0  0  0  0  0  0  0  # atno 17394 bound_to 11000
  141.0525  134.0463  157.3764 LP  0  0  0  0  0  0  0  0  0  0  0  0  # atno 17395 bound_to 11000

$$$$
