AV-unprocessed.smi:160|AV-procd|sdf|1352|dock6
  -GOLD-   2262019 53D 1   1.00000     0.00000
 Structure written by MMmdl.
 29 30  0  0  0  0  0  0  0  0  1 V2000
  146.9910  136.1846  159.4916 N   0  0  0  0  0  0  0  0  0  0  0  0
  148.2113  136.5748  159.8741 C   0  0  0  0  0  0  0  0  0  0  0  0
  148.5128  136.7278  161.0567 O   0  0  0  0  0  0  0  0  0  0  0  0
  149.2082  136.8132  158.7735 C   0  0  0  0  0  0  0  0  0  0  0  0
  150.5500  136.8211  159.0269 N   0  0  0  0  0  0  0  0  0  0  0  0
  150.9924  137.0671  157.8005 C   0  0  0  0  0  0  0  0  0  0  0  0
  150.0260  137.1802  156.8808 N   0  0  0  0  0  0  0  0  0  0  0  0
  150.0855  137.4968  155.4166 C   0  0  1  0  0  0  0  0  0  0  0  0
  149.3615  138.6643  155.1853 O   0  0  0  0  0  0  0  0  0  0  0  0
  150.2201  139.7845  155.3542 C   0  0  2  0  0  0  0  0  0  0  0  0
  149.6194  141.0159  154.6596 C   0  0  0  0  0  0  0  0  0  0  0  0
  149.3130  140.7139  153.3151 O   0  0  0  0  0  0  0  0  0  0  0  0
  151.5242  139.2954  154.7125 C   0  0  1  0  0  0  0  0  0  0  0  0
  152.6322  139.9167  155.3323 O   0  0  0  0  0  0  0  0  0  0  0  0
  151.5338  137.7889  154.9806 C   0  0  2  0  0  0  0  0  0  0  0  0
  151.8730  137.0777  153.8076 O   0  0  0  0  0  0  0  0  0  0  0  0
  148.8341  137.0385  157.5125 N   0  0  0  0  0  0  0  0  0  0  0  0
  149.6260  136.6315  154.9367 H   0  0  0  0  0  0  0  0  0  0  0  0
  150.3752  139.9731  156.4185 H   0  0  0  0  0  0  0  0  0  0  0  0
  151.5225  139.5038  153.6411 H   0  0  0  0  0  0  0  0  0  0  0  0
  152.2331  137.5188  155.7734 H   0  0  0  0  0  0  0  0  0  0  0  0
  146.2787  136.0077  160.1845 H   0  0  0  0  0  0  0  0  0  0  0  0
  146.7910  136.0683  158.5088 H   0  0  0  0  0  0  0  0  0  0  0  0
  152.0431  137.1686  157.5709 H   0  0  0  0  0  0  0  0  0  0  0  0
  148.6888  141.3041  155.1493 H   0  0  0  0  0  0  0  0  0  0  0  0
  150.2933  141.8716  154.7138 H   0  0  0  0  0  0  0  0  0  0  0  0
  148.4136  140.4273  153.2689 H   0  0  0  0  0  0  0  0  0  0  0  0
  152.3283  140.6930  155.7773 H   0  0  0  0  0  0  0  0  0  0  0  0
  151.1172  137.0571  153.2405 H   0  0  0  0  0  0  0  0  0  0  0  0
  1  2  1  0  0  0  0
  1 22  1  0  0  0  0
  1 23  1  0  0  0  0
  2  3  2  0  0  0  0
  2  4  1  0  0  0  0
  4 17  2  0  0  0  0
  4  5  1  0  0  0  0
  5  6  2  0  0  0  0
  6  7  1  0  0  0  0
  6 24  1  0  0  0  0
  7  8  1  0  0  0  0
  7 17  1  0  0  0  0
  8 18  1  0  0  0  0
  8 15  1  0  0  0  0
  8  9  1  0  0  0  0
  9 10  1  0  0  0  0
 10 19  1  0  0  0  0
 10 11  1  0  0  0  0
 10 13  1  0  0  0  0
 11 12  1  0  0  0  0
 11 25  1  0  0  0  0
 11 26  1  0  0  0  0
 12 27  1  0  0  0  0
 13 20  1  0  0  0  0
 13 14  1  0  0  0  0
 13 15  1  0  0  0  0
 14 28  1  0  0  0  0
 15 21  1  0  0  0  0
 15 16  1  0  0  0  0
 16 29  1  0  0  0  0
M  END
> <s_m_source_file>
AV-unprocessed.smi

> <i_m_source_file_index>
160

> <i_lp_mmshare_version>
43012

> <i_f3d_flags>
0

> <s_epik_input>
W05IMl1DKD1PKWMxbltjSF1uKG4xKVtDQEBIXTJPW0NASF0oW0NIMl1bT0hdKVtDQEBIXShbT0hdKVtDQEhdMltPSF0=

> <s_epik_cmdline>
J2VwaWtfcHl0aG9uJywgJy1waCcsICc3LjAnLCAnLXRuJywgJzgnLCAnLW1hJywgJzIwMCcsICctbWV0YWxfYmluZGluZycsICctaW1hZScsICc8aW5maWxlLm1hZT4nLCAnLW9tYWUnLCAnPG91dGZpbGUubWFlPic=

> <r_lp_tautomer_probability>
1

> <r_epik_Ionization_Penalty>
1.06932e-05

> <r_epik_Ionization_Penalty_Charging>
0

> <r_epik_Ionization_Penalty_Neutral>
1.06932e-05

> <r_epik_State_Penalty>
-0

> <r_epik_Charging_Adjusted_Penalty>
0

> <i_epik_Tot_Q>
0

> <i_epik_Tot_abs_Q>
0

> <r_epik_Metal_State_Penalty>
0.0142097

> <b_epik_Metal_Only>
0

> <s_epik_Chemistry_Notes>
This compound contains an acetal/aminal-like group ( X-CH(R)-Y where X, Y are N, S, or O) that may be acid/base labile, releasing an aldehyde.

> <s_lp_Force_Field>
OPLS_2005

> <r_lp_Energy>
33.6029

> <b_lp_Chiralities_Consistent>
1

> <s_lp_Variant>
AV-unprocessed.smi:160-10

> <Gold.Version>
5.8.1

> <Gold.Id.Protein>
6NUR|6NUR_protein|mol2

> <Gold.PLP.Fitness>
39.8246

> <Gold.PLP.PLP>
-24.9973

> <Gold.PLP.part.hbond>
-8.1350

> <Gold.PLP.part.metal>
0.0000

> <Gold.PLP.part.buried>
-1.6790

> <Gold.PLP.part.nonpolar>
-14.9055

> <Gold.PLP.part.repulsive>
0.1478

> <Gold.PLP.ligand.clash>
0.0000

> <Gold.PLP.ligand.torsion>
0.2255

> <Gold.PLP.Chemscore.Hbond>
5.0772

> <Gold.PLP.Chemscore.CHOScore>
0.0000

> <Gold.PLP.Chemscore.Metal>
0.0000

> <Gold.Chemscore.Hbonds>
donor molecule, donor type, donor heavy atom, donor atom, acceptor molecule, acceptor atom, score
      L1  H    16    29       P1  7949  0.38
      P1  H  6896  6907       L1     5  1.00
      P1  H  6931  6943       L1     3  1.00
      P1  H  7997  8009       L1    14  0.66
      P1  H  8011  8017       L1    12  1.00
      P1  H 10752 10765       L1    16  1.00

> <Gold.PLP.Chemscore.Internal.Correction>
0.0464

> <Gold.Rescore>
     Score         DG    S(hbond)    S(metal)    S(lipo)     H(rot)  DE(clash)    DE(int)     intcor
      9.74     -10.61       3.62        0.00      29.34       4.06       0.55       0.32       ----

> <Gold.Chemscore.Fitness>
9.7414

> <Gold.Chemscore.DG>
-10.6111

> <Gold.Chemscore.ZeroCoef>
-5.4800

> <Gold.Chemscore.Hbond>
3.6205

> <Gold.Chemscore.Metal>
0.0000

> <Gold.Chemscore.Lipo>
29.3362

> <Gold.Chemscore.Internal_Hbond>
0.0000

> <Gold.Chemscore.DEClash>
0.5477

> <Gold.Chemscore.DEInternal>
0.3220

> <Gold.Chemscore.Rot>
4.0600

> <Gold.Chemscore.Internal.Correction>
   9.000000E+99

> <Gold.Chemscore.Hbonds>
donor molecule, donor type, donor heavy atom, donor atom, acceptor molecule, acceptor atom, score
      L1  H    16    29       P1  7949  0.16
      P1  H  6896  6907       L1     5  0.57
      P1  H  6931  6943       L1     3  0.99
      P1  H  7997  8009       L1    14  0.09
      P1  H  8011  8017       L1    12  0.40
      P1  H 10752 10765       L1    16  0.94

> <Gold.Chemscore.Hbond.Weighted>
-12.0923

> <Gold.Chemscore.Metal.Weighted>
-0.0000

> <Gold.Chemscore.Lipo.Weighted>
-3.4323

> <Gold.Chemscore.Internal_Hbond.Weighted>
0.0000

> <Gold.Chemscore.DEClash.Weighted>
0.5477

> <Gold.Chemscore.DEInternal.Weighted>
0.3220

> <Gold.Chemscore.Rot.Weighted>
10.3936

> <Gold.Chemscore.Internal.Correction.Weighted>
   9.000000E+99

> <Gold.Protein.RotatedTorsions>
[ 6907 6896 6895 6894 ] final  -33.68 input  -60.11 | X-H torsion
[ 7974 7965 7964 7962 ] final -120.99 input  175.53 | X-H torsion
[ 8008 7997 7996 7995 ] final -118.13 input   59.86 | X-H torsion
[ 10167 10162 10161 10158 ] final  159.61 input  -65.29 | X-H torsion
[ 10718 10713 10712 10709 ] final -157.19 input   66.30 | X-H torsion
[ 10763 10752 10751 10750 ] final  139.77 input  -60.55 | X-H torsion
[ 11005 11000 10999 10996 ] final  111.82 input  -57.11 | X-H torsion

> <Gold.Protein.ActiveResidues>
 VAL166  LYS551  ARG553  GLY616  TRP617  ASP618  TYR619  PRO620  LYS621  CYS622 
 ASP623  PHE694  ASN695  SER759  ASP760  ASP761  ALA762  ILE779  LEU786  VAL792 
 PHE793  MET794  SER795  GLU796  ALA797  LYS798  CYS799  TRP800  GLU811  SER814 

> <Gold.Protein.RotatedAtoms>
  151.0625  134.9746  159.8267 H   0  0  0  0  0  0  0  0  0  0  0  0  # atno 6907 bound_to 6896
  152.5397  134.2400  159.8868 H   0  0  0  0  0  0  0  0  0  0  0  0  # atno 6908 bound_to 6896
  151.2420  133.4351  159.2641 H   0  0  0  0  0  0  0  0  0  0  0  0  # atno 6909 bound_to 6896
  145.0452  140.8176  143.4242 H   0  0  0  0  0  0  0  0  0  0  0  0  # atno 7974 bound_to 7965
  155.0947  140.0395  157.2679 H   0  0  0  0  0  0  0  0  0  0  0  0  # atno 8008 bound_to 7997
  154.6805  140.2632  155.6889 H   0  0  0  0  0  0  0  0  0  0  0  0  # atno 8009 bound_to 7997
  156.2693  140.2779  156.1347 H   0  0  0  0  0  0  0  0  0  0  0  0  # atno 8010 bound_to 7997
  139.4833  144.4713  151.8572 H   0  0  0  0  0  0  0  0  0  0  0  0  # atno 10167 bound_to 10162
  156.5368  130.8545  151.2735 H   0  0  0  0  0  0  0  0  0  0  0  0  # atno 10718 bound_to 10713
  153.9116  135.3010  155.3448 H   0  0  0  0  0  0  0  0  0  0  0  0  # atno 10763 bound_to 10752
  154.7620  135.4929  153.9486 H   0  0  0  0  0  0  0  0  0  0  0  0  # atno 10764 bound_to 10752
  153.1190  135.6777  153.9470 H   0  0  0  0  0  0  0  0  0  0  0  0  # atno 10765 bound_to 10752
  139.8912  134.9516  156.6491 H   0  0  0  0  0  0  0  0  0  0  0  0  # atno 11005 bound_to 11000
  145.1596  139.2466  143.5398 LP  0  0  0  0  0  0  0  0  0  0  0  0  # atno 17320 bound_to 7965
  146.3513  140.1320  142.8597 LP  0  0  0  0  0  0  0  0  0  0  0  0  # atno 17321 bound_to 7965
  140.4182  144.2278  150.5887 LP  0  0  0  0  0  0  0  0  0  0  0  0  # atno 17342 bound_to 10162
  140.4900  143.2351  151.8833 LP  0  0  0  0  0  0  0  0  0  0  0  0  # atno 17343 bound_to 10162
  157.7412  130.9865  150.2430 LP  0  0  0  0  0  0  0  0  0  0  0  0  # atno 17370 bound_to 10713
  156.3008  130.3758  149.7752 LP  0  0  0  0  0  0  0  0  0  0  0  0  # atno 17371 bound_to 10713
  140.7535  133.8878  155.8364 LP  0  0  0  0  0  0  0  0  0  0  0  0  # atno 17394 bound_to 11000
  140.9981  134.1187  157.4344 LP  0  0  0  0  0  0  0  0  0  0  0  0  # atno 17395 bound_to 11000

$$$$
