AV-unprocessed.smi:1840|AV-procd|sdf|7491|dock8
  -GOLD-   22720 9193D 1   1.00000     0.00000
 Structure written by MMmdl.
 43 44  0  0  0  0  0  0  0  0  1 V2000
  143.8712  136.9228  152.5542 C   0  0  0  0  0  0  0  0  0  0  0  0
  145.0085  135.9425  152.2370 C   0  0  1  0  0  0  0  0  0  0  0  0
  145.0497  135.5934  150.7329 C   0  0  0  0  0  0  0  0  0  0  0  0
  145.1023  134.1620  150.4895 N   0  0  0  0  0  0  0  0  0  0  0  0
  144.1602  133.3618  149.8770 C   0  0  0  0  0  0  0  0  0  0  0  0
  144.6617  132.0924  149.8487 C   0  0  0  0  0  0  0  0  0  0  0  0
  145.9299  132.2168  150.4818 C   0  0  0  0  0  0  0  0  0  0  0  0
  146.1892  133.4559  150.8677 N   0  0  0  0  0  0  0  0  0  0  0  0
  146.2783  136.5302  152.6619 N   0  0  0  0  0  0  0  0  0  0  0  0
  146.4844  137.1849  153.8138 C   0  0  0  0  0  0  0  0  0  0  0  0
  145.5998  137.4587  154.6249 O   0  0  0  0  0  0  0  0  0  0  0  0
  147.7818  137.4625  153.9977 N   0  0  0  0  0  0  0  0  0  0  0  0
  148.3564  138.0665  155.2003 C   0  0  1  0  0  0  0  0  0  0  0  0
  149.2438  137.0544  155.9613 C   0  0  0  0  0  0  0  0  0  0  0  0
  150.5299  136.7175  155.1885 C   0  0  0  0  0  0  0  0  0  0  0  0
  151.3198  137.9903  154.8494 C   0  0  0  0  0  0  0  0  0  0  0  0
  150.4526  139.0018  154.0820 C   0  0  0  0  0  0  0  0  0  0  0  0
  149.1590  139.3444  154.8514 C   0  0  1  0  0  0  0  0  0  0  0  0
  148.3171  140.3931  154.1041 C   0  0  0  0  0  0  0  0  0  0  0  0
  142.9042  136.5041  152.2741 H   0  0  0  0  0  0  0  0  0  0  0  0
  143.9946  137.8637  152.0167 H   0  0  0  0  0  0  0  0  0  0  0  0
  143.8343  137.1492  153.6204 H   0  0  0  0  0  0  0  0  0  0  0  0
  144.8136  135.0293  152.8024 H   0  0  0  0  0  0  0  0  0  0  0  0
  144.1666  135.9905  150.2301 H   0  0  0  0  0  0  0  0  0  0  0  0
  145.9133  136.0589  150.2560 H   0  0  0  0  0  0  0  0  0  0  0  0
  143.2275  133.7601  149.5057 H   0  0  0  0  0  0  0  0  0  0  0  0
  144.1957  131.2103  149.4355 H   0  0  0  0  0  0  0  0  0  0  0  0
  146.6653  131.4486  150.6704 H   0  0  0  0  0  0  0  0  0  0  0  0
  147.0749  136.3641  152.0646 H   0  0  0  0  0  0  0  0  0  0  0  0
  148.4315  137.1959  153.2726 H   0  0  0  0  0  0  0  0  0  0  0  0
  147.5311  138.3561  155.8537 H   0  0  0  0  0  0  0  0  0  0  0  0
  149.5120  137.4752  156.9312 H   0  0  0  0  0  0  0  0  0  0  0  0
  148.6906  136.1395  156.1771 H   0  0  0  0  0  0  0  0  0  0  0  0
  151.1500  136.0418  155.7782 H   0  0  0  0  0  0  0  0  0  0  0  0
  150.2810  136.1827  154.2710 H   0  0  0  0  0  0  0  0  0  0  0  0
  151.6851  138.4481  155.7696 H   0  0  0  0  0  0  0  0  0  0  0  0
  152.2014  137.7346  154.2608 H   0  0  0  0  0  0  0  0  0  0  0  0
  151.0295  139.9097  153.9031 H   0  0  0  0  0  0  0  0  0  0  0  0
  150.2067  138.5980  153.0990 H   0  0  0  0  0  0  0  0  0  0  0  0
  149.4582  139.8010  155.7962 H   0  0  0  0  0  0  0  0  0  0  0  0
  148.0149  140.0422  153.1169 H   0  0  0  0  0  0  0  0  0  0  0  0
  148.8788  141.3173  153.9657 H   0  0  0  0  0  0  0  0  0  0  0  0
  147.4131  140.6390  154.6619 H   0  0  0  0  0  0  0  0  0  0  0  0
  1  2  1  0  0  0  0
  1 20  1  0  0  0  0
  1 21  1  0  0  0  0
  1 22  1  0  0  0  0
  2  3  1  0  0  0  0
  2  9  1  0  0  0  0
  2 23  1  0  0  0  0
  3  4  1  0  0  0  0
  3 24  1  0  0  0  0
  3 25  1  0  0  0  0
  4  8  1  0  0  0  0
  4  5  1  0  0  0  0
  5  6  2  0  0  0  0
  5 26  1  0  0  0  0
  6  7  1  0  0  0  0
  6 27  1  0  0  0  0
  7  8  2  0  0  0  0
  7 28  1  0  0  0  0
  9 10  1  0  0  0  0
  9 29  1  0  0  0  0
 10 11  2  0  0  0  0
 10 12  1  0  0  0  0
 12 13  1  0  0  0  0
 12 30  1  0  0  0  0
 13 18  1  0  0  0  0
 13 14  1  0  0  0  0
 13 31  1  0  0  0  0
 14 15  1  0  0  0  0
 14 32  1  0  0  0  0
 14 33  1  0  0  0  0
 15 16  1  0  0  0  0
 15 34  1  0  0  0  0
 15 35  1  0  0  0  0
 16 17  1  0  0  0  0
 16 36  1  0  0  0  0
 16 37  1  0  0  0  0
 17 18  1  0  0  0  0
 17 38  1  0  0  0  0
 17 39  1  0  0  0  0
 18 19  1  0  0  0  0
 18 40  1  0  0  0  0
 19 41  1  0  0  0  0
 19 42  1  0  0  0  0
 19 43  1  0  0  0  0
M  END
> <s_m_source_file>
AV-unprocessed.smi

> <i_m_source_file_index>
1840

> <i_lp_mmshare_version>
43012

> <i_f3d_flags>
0

> <s_epik_input>
bjFbY0hdW2NIXVtjSF1uMVtDSDJdW0NAQEhdKFtDSDNdKVtOSF1DKD1PKVtOSF1bQ0BASF0yW0NIMl1bQ0gyXVtDSDJdW0NIMl1bQ0BIXTJbQ0gzXQ==

> <s_epik_cmdline>
J2VwaWtfcHl0aG9uJywgJy1waCcsICc3LjAnLCAnLXRuJywgJzgnLCAnLW1hJywgJzIwMCcsICctbWV0YWxfYmluZGluZycsICctaW1hZScsICc8aW5maWxlLm1hZT4nLCAnLW9tYWUnLCAnPG91dGZpbGUubWFlPic=

> <r_lp_tautomer_probability>
1

> <r_epik_Ionization_Penalty>
7.38659e-05

> <r_epik_Ionization_Penalty_Charging>
0

> <r_epik_Ionization_Penalty_Neutral>
7.38659e-05

> <r_epik_State_Penalty>
-0

> <r_epik_Charging_Adjusted_Penalty>
0

> <i_epik_Tot_Q>
0

> <i_epik_Tot_abs_Q>
0

> <r_epik_Metal_State_Penalty>
-0

> <b_epik_Metal_Only>
0

> <s_lp_Force_Field>
OPLS_2005

> <r_lp_Energy>
6.83703

> <b_lp_Chiralities_Consistent>
1

> <s_lp_Variant>
AV-unprocessed.smi:1840-4

> <Gold.Version>
5.8.1

> <Gold.Id.Protein>
6NUR|6NUR_protein|mol2

> <Gold.PLP.Fitness>
42.4944

> <Gold.PLP.PLP>
-32.4113

> <Gold.PLP.part.hbond>
-2.0000

> <Gold.PLP.part.metal>
0.0000

> <Gold.PLP.part.buried>
-3.5822

> <Gold.PLP.part.nonpolar>
-26.5992

> <Gold.PLP.part.repulsive>
0.2670

> <Gold.PLP.ligand.clash>
0.0000

> <Gold.PLP.ligand.torsion>
0.9737

> <Gold.PLP.Chemscore.Hbond>
2.0000

> <Gold.PLP.Chemscore.CHOScore>
2.0000

> <Gold.PLP.Chemscore.Metal>
0.0000

> <Gold.Chemscore.Hbonds>
donor molecule, donor type, donor heavy atom, donor atom, acceptor molecule, acceptor atom, score
      L1  H     9    29       P1  7948  1.00
      L1  H    12    30       P1  7948  1.00
      L1  C     5    26       P1 10186  1.00
      L1  C     7    28       P1 10747  1.00

> <Gold.PLP.Chemscore.Internal.Correction>
0.0303

> <Gold.Rescore>
     Score         DG    S(hbond)    S(metal)    S(lipo)     H(rot)  DE(clash)    DE(int)     intcor
     14.75     -17.15       1.95        0.00      78.17       1.56       0.01       2.40       ----

> <Gold.Chemscore.Fitness>
14.7528

> <Gold.Chemscore.DG>
-17.1541

> <Gold.Chemscore.ZeroCoef>
-5.4800

> <Gold.Chemscore.Hbond>
1.9508

> <Gold.Chemscore.Metal>
0.0000

> <Gold.Chemscore.Lipo>
78.1701

> <Gold.Chemscore.Internal_Hbond>
0.0000

> <Gold.Chemscore.DEClash>
0.0052

> <Gold.Chemscore.DEInternal>
2.3960

> <Gold.Chemscore.Rot>
1.5576

> <Gold.Chemscore.Internal.Correction>
   9.000000E+99

> <Gold.Chemscore.Hbonds>
donor molecule, donor type, donor heavy atom, donor atom, acceptor molecule, acceptor atom, score
      L1  H     9    29       P1  7948  0.94
      L1  H    12    30       P1  7948  0.98

> <Gold.Chemscore.Hbond.Weighted>
-6.5157

> <Gold.Chemscore.Metal.Weighted>
-0.0000

> <Gold.Chemscore.Lipo.Weighted>
-9.1459

> <Gold.Chemscore.Internal_Hbond.Weighted>
0.0000

> <Gold.Chemscore.DEClash.Weighted>
0.0052

> <Gold.Chemscore.DEInternal.Weighted>
2.3960

> <Gold.Chemscore.Rot.Weighted>
3.9875

> <Gold.Chemscore.Internal.Correction.Weighted>
   9.000000E+99

> <Gold.Protein.RotatedTorsions>
[ 6907 6896 6895 6894 ] final -161.57 input  -60.11 | X-H torsion
[ 7974 7965 7964 7962 ] final  163.32 input  175.53 | X-H torsion
[ 8008 7997 7996 7995 ] final -151.46 input   59.86 | X-H torsion
[ 10167 10162 10161 10158 ] final   27.61 input  -65.29 | X-H torsion
[ 10718 10713 10712 10709 ] final  -59.68 input   66.30 | X-H torsion
[ 10763 10752 10751 10750 ] final   67.71 input  -60.55 | X-H torsion
[ 11005 11000 10999 10996 ] final   39.06 input  -57.11 | X-H torsion

> <Gold.Protein.ActiveResidues>
 VAL166  LYS551  ARG553  GLY616  TRP617  ASP618  TYR619  PRO620  LYS621  CYS622 
 ASP623  PHE694  ASN695  SER759  ASP760  ASP761  ALA762  ILE779  LEU786  VAL792 
 PHE793  MET794  SER795  GLU796  ALA797  LYS798  CYS799  TRP800  GLU811  SER814 

> <Gold.Protein.RotatedAtoms>
  151.3666  133.3870  159.2695 H   0  0  0  0  0  0  0  0  0  0  0  0  # atno 6907 bound_to 6896
  150.9683  134.9061  159.7783 H   0  0  0  0  0  0  0  0  0  0  0  0  # atno 6908 bound_to 6896
  152.5175  134.3628  159.9343 H   0  0  0  0  0  0  0  0  0  0  0  0  # atno 6909 bound_to 6896
  144.7595  139.8166  143.6338 H   0  0  0  0  0  0  0  0  0  0  0  0  # atno 7974 bound_to 7965
  155.6398  140.0700  157.2622 H   0  0  0  0  0  0  0  0  0  0  0  0  # atno 8008 bound_to 7997
  154.4186  140.1752  156.1610 H   0  0  0  0  0  0  0  0  0  0  0  0  # atno 8009 bound_to 7997
  155.9865  140.3349  155.6715 H   0  0  0  0  0  0  0  0  0  0  0  0  # atno 8010 bound_to 7997
  140.4923  144.0447  150.6301 H   0  0  0  0  0  0  0  0  0  0  0  0  # atno 10167 bound_to 10162
  156.1044  130.4182  150.0749 H   0  0  0  0  0  0  0  0  0  0  0  0  # atno 10718 bound_to 10713
  153.0199  135.5274  154.7021 H   0  0  0  0  0  0  0  0  0  0  0  0  # atno 10763 bound_to 10752
  154.6127  135.2880  155.0416 H   0  0  0  0  0  0  0  0  0  0  0  0  # atno 10764 bound_to 10752
  154.1432  135.6575  153.4999 H   0  0  0  0  0  0  0  0  0  0  0  0  # atno 10765 bound_to 10752
  140.2065  134.3807  155.8070 H   0  0  0  0  0  0  0  0  0  0  0  0  # atno 11005 bound_to 11000
  146.1643  139.4768  142.9968 LP  0  0  0  0  0  0  0  0  0  0  0  0  # atno 17320 bound_to 7965
  145.6667  141.0227  143.1680 LP  0  0  0  0  0  0  0  0  0  0  0  0  # atno 17321 bound_to 7965
  140.3720  143.2849  152.0268 LP  0  0  0  0  0  0  0  0  0  0  0  0  # atno 17342 bound_to 10162
  139.4854  144.6223  151.7232 LP  0  0  0  0  0  0  0  0  0  0  0  0  # atno 17343 bound_to 10162
  156.8728  130.9530  151.3607 LP  0  0  0  0  0  0  0  0  0  0  0  0  # atno 17370 bound_to 10713
  157.6219  130.8661  149.9123 LP  0  0  0  0  0  0  0  0  0  0  0  0  # atno 17371 bound_to 10713
  141.2227  133.7120  156.8345 LP  0  0  0  0  0  0  0  0  0  0  0  0  # atno 17394 bound_to 11000
  140.1998  134.8905  157.3155 LP  0  0  0  0  0  0  0  0  0  0  0  0  # atno 17395 bound_to 11000

$$$$
