AV-unprocessed.smi:3038|AV-procd|sdf|11588|dock9
  -GOLD-   2272016563D 1   1.00000     0.00000
 Structure written by MMmdl.
 37 39  0  0  0  0  0  0  0  0  2 V2000
  150.4438  140.3943  155.0930 O   0  0  0  0  0  0  0  0  0  0  0  0
  149.7279  141.3881  155.2110 C   0  0  0  0  0  0  0  0  0  0  0  0
  148.5059  141.5619  154.3070 C   0  0  0  0  0  0  0  0  0  0  0  0
  147.2921  141.7150  155.0877 N   0  0  0  0  0  0  0  0  0  0  0  0
  146.0072  141.6749  154.7290 C   0  0  0  0  0  0  0  0  0  0  0  0
  145.2054  141.8828  155.7621 N   0  0  0  0  0  0  0  0  0  0  0  0
  146.0871  142.0579  156.8156 N   0  0  0  0  0  0  0  0  0  0  0  0
  147.3269  141.9599  156.4217 N   0  0  0  0  0  0  0  0  0  0  0  0
  149.9519  142.3577  156.1125 N   0  0  0  0  0  0  0  0  0  0  0  0
  151.0687  142.3956  157.0508 C   0  0  2  0  0  0  0  0  0  0  0  0
  150.8842  141.3485  158.1647 C   0  0  0  0  0  0  0  0  0  0  0  0
  152.0004  141.4550  159.2174 C   0  0  0  0  0  0  0  0  0  0  0  0
  152.0707  142.8241  159.7859 N   0  3  1  0  0  0  0  0  0  0  0  0
  153.0642  142.9236  160.8772 C   0  0  0  0  0  0  0  0  0  0  0  0
  152.5930  142.3300  162.1842 C   0  0  0  0  0  0  0  0  0  0  0  0
  152.6382  143.8314  162.0075 C   0  0  0  0  0  0  0  0  0  0  0  0
  152.2925  143.8459  158.7325 C   0  0  0  0  0  0  0  0  0  0  0  0
  151.1789  143.7971  157.6731 C   0  0  0  0  0  0  0  0  0  0  0  0
  148.6283  142.4428  153.6752 H   0  0  0  0  0  0  0  0  0  0  0  0
  148.4064  140.7009  153.6445 H   0  0  0  0  0  0  0  0  0  0  0  0
  145.6635  141.5008  153.7201 H   0  0  0  0  0  0  0  0  0  0  0  0
  149.3079  143.1358  156.1360 H   0  0  0  0  0  0  0  0  0  0  0  0
  151.9968  142.1864  156.5149 H   0  0  0  0  0  0  0  0  0  0  0  0
  149.9161  141.4882  158.6484 H   0  0  0  0  0  0  0  0  0  0  0  0
  150.8759  140.3438  157.7401 H   0  0  0  0  0  0  0  0  0  0  0  0
  151.8166  140.7359  160.0166 H   0  0  0  0  0  0  0  0  0  0  0  0
  152.9624  141.1943  158.7728 H   0  0  0  0  0  0  0  0  0  0  0  0
  154.1116  142.8597  160.5863 H   0  0  0  0  0  0  0  0  0  0  0  0
  151.6124  141.8581  162.2143 H   0  0  0  0  0  0  0  0  0  0  0  0
  153.3443  141.8821  162.8315 H   0  0  0  0  0  0  0  0  0  0  0  0
  153.4195  144.3721  162.5379 H   0  0  0  0  0  0  0  0  0  0  0  0
  151.6881  144.3556  161.9188 H   0  0  0  0  0  0  0  0  0  0  0  0
  152.3209  144.8379  159.1847 H   0  0  0  0  0  0  0  0  0  0  0  0
  153.2646  143.6837  158.2642 H   0  0  0  0  0  0  0  0  0  0  0  0
  151.3752  144.5377  156.8969 H   0  0  0  0  0  0  0  0  0  0  0  0
  150.2296  144.0760  158.1335 H   0  0  0  0  0  0  0  0  0  0  0  0
  151.1685  143.0174  160.1968 H   0  0  0  0  0  0  0  0  0  0  0  0
  1  2  2  0  0  0  0
  2  3  1  0  0  0  0
  2  9  1  0  0  0  0
  3  4  1  0  0  0  0
  3 19  1  0  0  0  0
  3 20  1  0  0  0  0
  4  8  1  0  0  0  0
  4  5  1  0  0  0  0
  5  6  2  0  0  0  0
  5 21  1  0  0  0  0
  6  7  1  0  0  0  0
  7  8  2  0  0  0  0
  9 10  1  0  0  0  0
  9 22  1  0  0  0  0
 10 18  1  0  0  0  0
 10 11  1  0  0  0  0
 10 23  1  0  0  0  0
 11 12  1  0  0  0  0
 11 24  1  0  0  0  0
 11 25  1  0  0  0  0
 12 13  1  0  0  0  0
 12 26  1  0  0  0  0
 12 27  1  0  0  0  0
 13 14  1  0  0  0  0
 13 17  1  0  0  0  0
 13 37  1  0  0  0  0
 14 16  1  0  0  0  0
 14 15  1  0  0  0  0
 14 28  1  0  0  0  0
 15 16  1  0  0  0  0
 15 29  1  0  0  0  0
 15 30  1  0  0  0  0
 16 31  1  0  0  0  0
 16 32  1  0  0  0  0
 17 18  1  0  0  0  0
 17 33  1  0  0  0  0
 17 34  1  0  0  0  0
 18 35  1  0  0  0  0
 18 36  1  0  0  0  0
M  CHG  1  13   1
M  END
> <s_m_source_file>
AV-unprocessed.smi

> <i_m_source_file_index>
3038

> <i_lp_mmshare_version>
43012

> <i_f3d_flags>
0

> <s_epik_input>
bjFubltjSF1uMVtDSDJdQyg9TylbTkhdW0NIXTJbQ0gyXVtDSDJdTihbQ0gyXVtDSDJdMilbQ0hdM1tDSDJdW0NIMl0z

> <s_epik_cmdline>
J2VwaWtfcHl0aG9uJywgJy1waCcsICc3LjAnLCAnLXRuJywgJzgnLCAnLW1hJywgJzIwMCcsICctbWV0YWxfYmluZGluZycsICctaW1hZScsICc8aW5maWxlLm1hZT4nLCAnLW9tYWUnLCAnPG91dGZpbGUubWFlPic=

> <r_lp_tautomer_probability>
1

> <r_epik_Ionization_Penalty>
0.284275

> <r_epik_Ionization_Penalty_Charging>
0.284273

> <r_epik_Ionization_Penalty_Neutral>
2.31262e-06

> <r_epik_State_Penalty>
0.277002

> <r_epik_Charging_Adjusted_Penalty>
0.561274

> <i_epik_Tot_Q>
1

> <i_epik_Tot_abs_Q>
1

> <r_epik_Metal_State_Penalty>
0.277002

> <b_epik_Metal_Only>
0

> <s_lp_Force_Field>
OPLS_2005

> <r_lp_Energy>
27.0237

> <b_lp_Chiralities_Consistent>
1

> <s_lp_Variant>
AV-unprocessed.smi:3038-1

> <Gold.Version>
5.8.1

> <Gold.Id.Protein>
6NUR|6NUR_protein|mol2

> <Gold.PLP.Fitness>
45.5375

> <Gold.PLP.PLP>
-37.1980

> <Gold.PLP.part.hbond>
-2.0000

> <Gold.PLP.part.metal>
0.0000

> <Gold.PLP.part.buried>
-5.5211

> <Gold.PLP.part.nonpolar>
-31.6459

> <Gold.PLP.part.repulsive>
0.5787

> <Gold.PLP.ligand.clash>
0.0000

> <Gold.PLP.ligand.torsion>
0.9385

> <Gold.PLP.Chemscore.Hbond>
1.9920

> <Gold.PLP.Chemscore.CHOScore>
0.9930

> <Gold.PLP.Chemscore.Metal>
0.0000

> <Gold.Chemscore.Hbonds>
donor molecule, donor type, donor heavy atom, donor atom, acceptor molecule, acceptor atom, score
      L1  H     9    22       P1  8028  1.00
      P1  H  7989  7998       L1     1  0.98
      L1  C     5    21       P1 10175  0.98

> <Gold.PLP.Chemscore.Internal.Correction>
1.2615

> <Gold.Rescore>
     Score         DG    S(hbond)    S(metal)    S(lipo)     H(rot)  DE(clash)    DE(int)     intcor
     14.75     -15.74       1.57        0.00      92.16       2.25       0.13       0.87       ----

> <Gold.Chemscore.Fitness>
14.7461

> <Gold.Chemscore.DG>
-15.7448

> <Gold.Chemscore.ZeroCoef>
-5.4800

> <Gold.Chemscore.Hbond>
1.5715

> <Gold.Chemscore.Metal>
0.0000

> <Gold.Chemscore.Lipo>
92.1630

> <Gold.Chemscore.Internal_Hbond>
0.0000

> <Gold.Chemscore.DEClash>
0.1252

> <Gold.Chemscore.DEInternal>
0.8734

> <Gold.Chemscore.Rot>
2.2528

> <Gold.Chemscore.Internal.Correction>
   9.000000E+99

> <Gold.Chemscore.Hbonds>
donor molecule, donor type, donor heavy atom, donor atom, acceptor molecule, acceptor atom, score
      L1  H     9    22       P1  8028  0.94
      P1  H  7989  7998       L1     1  0.31

> <Gold.Chemscore.Hbond.Weighted>
-5.2489

> <Gold.Chemscore.Metal.Weighted>
-0.0000

> <Gold.Chemscore.Lipo.Weighted>
-10.7831

> <Gold.Chemscore.Internal_Hbond.Weighted>
0.0000

> <Gold.Chemscore.DEClash.Weighted>
0.1252

> <Gold.Chemscore.DEInternal.Weighted>
0.8734

> <Gold.Chemscore.Rot.Weighted>
5.7672

> <Gold.Chemscore.Internal.Correction.Weighted>
   9.000000E+99

> <Gold.Protein.RotatedTorsions>
[ 6907 6896 6895 6894 ] final -147.30 input  -60.11 | X-H torsion
[ 7974 7965 7964 7962 ] final -102.06 input  175.53 | X-H torsion
[ 8008 7997 7996 7995 ] final   22.20 input   59.86 | X-H torsion
[ 10167 10162 10161 10158 ] final  -46.09 input  -65.29 | X-H torsion
[ 10718 10713 10712 10709 ] final   13.31 input   66.30 | X-H torsion
[ 10763 10752 10751 10750 ] final   69.67 input  -60.55 | X-H torsion
[ 11005 11000 10999 10996 ] final  -99.03 input  -57.11 | X-H torsion

> <Gold.Protein.ActiveResidues>
 VAL166  LYS551  ARG553  GLY616  TRP617  ASP618  TYR619  PRO620  LYS621  CYS622 
 ASP623  PHE694  ASN695  SER759  ASP760  ASP761  ALA762  ILE779  LEU786  VAL792 
 PHE793  MET794  SER795  GLU796  ALA797  LYS798  CYS799  TRP800  GLU811  SER814 

> <Gold.Protein.RotatedAtoms>
  151.1538  133.4890  159.2594 H   0  0  0  0  0  0  0  0  0  0  0  0  # atno 6907 bound_to 6896
  151.1526  135.0234  159.8685 H   0  0  0  0  0  0  0  0  0  0  0  0  # atno 6908 bound_to 6896
  152.5463  134.1420  159.8536 H   0  0  0  0  0  0  0  0  0  0  0  0  # atno 6909 bound_to 6896
  145.2735  140.9306  143.2972 H   0  0  0  0  0  0  0  0  0  0  0  0  # atno 7974 bound_to 7965
  154.9621  140.3079  155.5026 H   0  0  0  0  0  0  0  0  0  0  0  0  # atno 8008 bound_to 7997
  156.2976  140.2299  156.4645 H   0  0  0  0  0  0  0  0  0  0  0  0  # atno 8009 bound_to 7997
  154.7956  140.0437  157.1222 H   0  0  0  0  0  0  0  0  0  0  0  0  # atno 8010 bound_to 7997
  140.6832  143.2847  151.3733 H   0  0  0  0  0  0  0  0  0  0  0  0  # atno 10167 bound_to 10162
  157.0228  130.6161  149.5723 H   0  0  0  0  0  0  0  0  0  0  0  0  # atno 10718 bound_to 10713
  153.0300  135.5202  154.7324 H   0  0  0  0  0  0  0  0  0  0  0  0  # atno 10763 bound_to 10752
  154.6348  135.2905  155.0176 H   0  0  0  0  0  0  0  0  0  0  0  0  # atno 10764 bound_to 10752
  154.1115  135.6621  153.4938 H   0  0  0  0  0  0  0  0  0  0  0  0  # atno 10765 bound_to 10752
  141.1323  133.8291  157.0918 H   0  0  0  0  0  0  0  0  0  0  0  0  # atno 11005 bound_to 11000
  144.9314  139.4294  143.6493 LP  0  0  0  0  0  0  0  0  0  0  0  0  # atno 17320 bound_to 7965
  146.3239  139.8227  142.8923 LP  0  0  0  0  0  0  0  0  0  0  0  0  # atno 17321 bound_to 7965
  139.6169  144.0985  152.2354 LP  0  0  0  0  0  0  0  0  0  0  0  0  # atno 17342 bound_to 10162
  140.0417  144.6002  150.7406 LP  0  0  0  0  0  0  0  0  0  0  0  0  # atno 17343 bound_to 10162
  156.0096  130.5187  150.7946 LP  0  0  0  0  0  0  0  0  0  0  0  0  # atno 17370 bound_to 10713
  157.5237  131.0933  151.0046 LP  0  0  0  0  0  0  0  0  0  0  0  0  # atno 17371 bound_to 10713
  140.0387  134.9865  157.0921 LP  0  0  0  0  0  0  0  0  0  0  0  0  # atno 17394 bound_to 11000
  140.4169  134.1922  155.7163 LP  0  0  0  0  0  0  0  0  0  0  0  0  # atno 17395 bound_to 11000

$$$$
