AV-unprocessed.smi:2467|AV-procd|sdf|9726|dock6
  -GOLD-   2272013363D 1   1.00000     0.00000
 Structure written by MMmdl.
 46 47  0  0  0  0  0  0  0  0  1 V2000
  151.6545  138.5915  154.6797 C   0  0  0  0  0  0  0  0  0  0  0  0
  152.4896  137.8978  155.7668 C   0  0  0  0  0  0  0  0  0  0  0  0
  151.6692  137.4058  156.9861 C   0  0  0  0  0  0  0  0  0  0  0  0
  152.5621  137.2866  158.2467 C   0  0  0  0  0  0  0  0  0  0  0  0
  153.2683  138.5873  158.6589 C   0  0  0  0  0  0  0  0  0  0  0  0
  150.9212  136.0779  156.6940 C   0  0  1  0  0  0  0  0  0  0  0  0
  150.0415  136.1052  155.4240 C   0  0  0  0  0  0  0  0  0  0  0  0
  149.3378  134.7540  155.2298 C   0  0  1  0  0  0  0  0  0  0  0  0
  148.6058  134.7510  153.9670 N   0  0  0  0  0  0  0  0  0  0  0  0
  147.5977  133.9219  153.6497 C   0  0  0  0  0  0  0  0  0  0  0  0
  147.1727  133.0661  154.4245 O   0  0  0  0  0  0  0  0  0  0  0  0
  147.0609  134.0728  152.4196 N   0  0  0  0  0  0  0  0  0  0  0  0
  146.0015  133.3855  151.7566 C   0  0  0  0  0  0  0  0  0  0  0  0
  145.9691  131.9928  151.9964 C   0  0  0  0  0  0  0  0  0  0  0  0
  144.9721  131.2039  151.3908 C   0  0  0  0  0  0  0  0  0  0  0  0
  144.0287  131.8283  150.5563 C   0  0  0  0  0  0  0  0  0  0  0  0
  144.1292  133.2186  150.3674 C   0  0  0  0  0  0  0  0  0  0  0  0
  145.0845  133.9756  150.9476 N   0  0  0  0  0  0  0  0  0  0  0  0
  150.3863  133.6296  155.2546 C   0  0  0  0  0  0  0  0  0  0  0  0
  151.2565  133.7264  156.5177 C   0  0  0  0  0  0  0  0  0  0  0  0
  151.8639  135.0117  156.6010 O   0  0  0  0  0  0  0  0  0  0  0  0
  152.2768  138.8370  153.8188 H   0  0  0  0  0  0  0  0  0  0  0  0
  151.2116  139.5225  155.0309 H   0  0  0  0  0  0  0  0  0  0  0  0
  150.8492  137.9453  154.3291 H   0  0  0  0  0  0  0  0  0  0  0  0
  152.9937  137.0612  155.2879 H   0  0  0  0  0  0  0  0  0  0  0  0
  153.2836  138.5670  156.1002 H   0  0  0  0  0  0  0  0  0  0  0  0
  150.9110  138.1622  157.1938 H   0  0  0  0  0  0  0  0  0  0  0  0
  151.9747  136.9085  159.0844 H   0  0  0  0  0  0  0  0  0  0  0  0
  153.3416  136.5456  158.0777 H   0  0  0  0  0  0  0  0  0  0  0  0
  153.9635  138.4008  159.4778 H   0  0  0  0  0  0  0  0  0  0  0  0
  152.5668  139.3464  159.0026 H   0  0  0  0  0  0  0  0  0  0  0  0
  153.8411  139.0053  157.8306 H   0  0  0  0  0  0  0  0  0  0  0  0
  150.2546  135.8693  157.5302 H   0  0  0  0  0  0  0  0  0  0  0  0
  149.3018  136.9032  155.4986 H   0  0  0  0  0  0  0  0  0  0  0  0
  150.6428  136.3193  154.5412 H   0  0  0  0  0  0  0  0  0  0  0  0
  148.6380  134.6094  156.0551 H   0  0  0  0  0  0  0  0  0  0  0  0
  148.8934  135.4253  153.2714 H   0  0  0  0  0  0  0  0  0  0  0  0
  147.4668  134.8239  151.8812 H   0  0  0  0  0  0  0  0  0  0  0  0
  146.7016  131.5267  152.6399 H   0  0  0  0  0  0  0  0  0  0  0  0
  144.9335  130.1385  151.5636 H   0  0  0  0  0  0  0  0  0  0  0  0
  143.2493  131.2571  150.0740 H   0  0  0  0  0  0  0  0  0  0  0  0
  143.4248  133.7375  149.7343 H   0  0  0  0  0  0  0  0  0  0  0  0
  149.9007  132.6540  155.2123 H   0  0  0  0  0  0  0  0  0  0  0  0
  151.0253  133.6994  154.3731 H   0  0  0  0  0  0  0  0  0  0  0  0
  150.6632  133.5348  157.4132 H   0  0  0  0  0  0  0  0  0  0  0  0
  152.0404  132.9693  156.4899 H   0  0  0  0  0  0  0  0  0  0  0  0
  1  2  1  0  0  0  0
  1 22  1  0  0  0  0
  1 23  1  0  0  0  0
  1 24  1  0  0  0  0
  2  3  1  0  0  0  0
  2 25  1  0  0  0  0
  2 26  1  0  0  0  0
  3  4  1  0  0  0  0
  3  6  1  0  0  0  0
  3 27  1  0  0  0  0
  4  5  1  0  0  0  0
  4 28  1  0  0  0  0
  4 29  1  0  0  0  0
  5 30  1  0  0  0  0
  5 31  1  0  0  0  0
  5 32  1  0  0  0  0
  6 21  1  0  0  0  0
  6  7  1  0  0  0  0
  6 33  1  0  0  0  0
  7  8  1  0  0  0  0
  7 34  1  0  0  0  0
  7 35  1  0  0  0  0
  8  9  1  0  0  0  0
  8 19  1  0  0  0  0
  8 36  1  0  0  0  0
  9 10  1  0  0  0  0
  9 37  1  0  0  0  0
 10 11  2  0  0  0  0
 10 12  1  0  0  0  0
 12 13  1  0  0  0  0
 12 38  1  0  0  0  0
 13 18  1  0  0  0  0
 13 14  2  0  0  0  0
 14 15  1  0  0  0  0
 14 39  1  0  0  0  0
 15 16  2  0  0  0  0
 15 40  1  0  0  0  0
 16 17  1  0  0  0  0
 16 41  1  0  0  0  0
 17 18  2  0  0  0  0
 17 42  1  0  0  0  0
 19 20  1  0  0  0  0
 19 43  1  0  0  0  0
 19 44  1  0  0  0  0
 20 21  1  0  0  0  0
 20 45  1  0  0  0  0
 20 46  1  0  0  0  0
M  END
> <s_m_source_file>
AV-unprocessed.smi

> <i_m_source_file_index>
2467

> <i_lp_mmshare_version>
43012

> <i_f3d_flags>
0

> <s_epik_input>
W0NIM11bQ0gyXVtDSF0oW0NIMl1bQ0gzXSlbQ0BASF0xW0NIMl1bQ0BIXShbQ0gyXVtDSDJdTzEpW05IXUMoPU8pW05IXWMyW2NIXVtjSF1bY0hdW2NIXW4y

> <s_epik_cmdline>
J2VwaWtfcHl0aG9uJywgJy1waCcsICc3LjAnLCAnLXRuJywgJzgnLCAnLW1hJywgJzIwMCcsICctbWV0YWxfYmluZGluZycsICctaW1hZScsICc8aW5maWxlLm1hZT4nLCAnLW9tYWUnLCAnPG91dGZpbGUubWFlPic=

> <r_lp_tautomer_probability>
1

> <r_epik_Ionization_Penalty>
4.80427e-05

> <r_epik_Ionization_Penalty_Charging>
0

> <r_epik_Ionization_Penalty_Neutral>
4.80427e-05

> <r_epik_State_Penalty>
-0

> <r_epik_Charging_Adjusted_Penalty>
0

> <i_epik_Tot_Q>
0

> <i_epik_Tot_abs_Q>
0

> <r_epik_Metal_State_Penalty>
-0

> <b_epik_Metal_Only>
0

> <s_lp_Force_Field>
OPLS_2005

> <r_lp_Energy>
20.6132

> <b_lp_Chiralities_Consistent>
1

> <s_lp_Variant>
AV-unprocessed.smi:2467-2

> <Gold.Version>
5.8.1

> <Gold.Id.Protein>
6NUR|6NUR_protein|mol2

> <Gold.PLP.Fitness>
42.5983

> <Gold.PLP.PLP>
-32.4979

> <Gold.PLP.part.hbond>
-3.0000

> <Gold.PLP.part.metal>
0.0000

> <Gold.PLP.part.buried>
-5.4834

> <Gold.PLP.part.nonpolar>
-23.9954

> <Gold.PLP.part.repulsive>
0.1884

> <Gold.PLP.ligand.clash>
0.0000

> <Gold.PLP.ligand.torsion>
0.8369

> <Gold.PLP.Chemscore.Hbond>
2.8960

> <Gold.PLP.Chemscore.CHOScore>
1.0000

> <Gold.PLP.Chemscore.Metal>
0.0000

> <Gold.Chemscore.Hbonds>
donor molecule, donor type, donor heavy atom, donor atom, acceptor molecule, acceptor atom, score
      L1  H     9    37       P1  7948  1.00
      L1  H    12    38       P1  7948  0.90
      P1  H 10752 10765       L1    21  0.99
      L1  C    17    42       P1 10186  1.00

> <Gold.PLP.Chemscore.Internal.Correction>
0.0863

> <Gold.Rescore>
     Score         DG    S(hbond)    S(metal)    S(lipo)     H(rot)  DE(clash)    DE(int)     intcor
     17.27     -19.35       2.34        0.00      84.19       1.49       0.00       2.08       ----

> <Gold.Chemscore.Fitness>
17.2665

> <Gold.Chemscore.DG>
-19.3465

> <Gold.Chemscore.ZeroCoef>
-5.4800

> <Gold.Chemscore.Hbond>
2.3412

> <Gold.Chemscore.Metal>
0.0000

> <Gold.Chemscore.Lipo>
84.1885

> <Gold.Chemscore.Internal_Hbond>
0.0000

> <Gold.Chemscore.DEClash>
0.0009

> <Gold.Chemscore.DEInternal>
2.0791

> <Gold.Chemscore.Rot>
1.4856

> <Gold.Chemscore.Internal.Correction>
   9.000000E+99

> <Gold.Chemscore.Hbonds>
donor molecule, donor type, donor heavy atom, donor atom, acceptor molecule, acceptor atom, score
      L1  H     9    37       P1  7948  0.68
      L1  H    12    38       P1  7948  0.63
      P1  H 10752 10765       L1    21  0.60

> <Gold.Chemscore.Hbond.Weighted>
-7.8195

> <Gold.Chemscore.Metal.Weighted>
-0.0000

> <Gold.Chemscore.Lipo.Weighted>
-9.8501

> <Gold.Chemscore.Internal_Hbond.Weighted>
0.0000

> <Gold.Chemscore.DEClash.Weighted>
0.0009

> <Gold.Chemscore.DEInternal.Weighted>
2.0791

> <Gold.Chemscore.Rot.Weighted>
3.8031

> <Gold.Chemscore.Internal.Correction.Weighted>
   9.000000E+99

> <Gold.Protein.RotatedTorsions>
[ 6907 6896 6895 6894 ] final   -6.28 input  -60.11 | X-H torsion
[ 7974 7965 7964 7962 ] final -149.68 input  175.53 | X-H torsion
[ 8008 7997 7996 7995 ] final   -9.78 input   59.86 | X-H torsion
[ 10167 10162 10161 10158 ] final  -80.29 input  -65.29 | X-H torsion
[ 10718 10713 10712 10709 ] final -133.02 input   66.30 | X-H torsion
[ 10763 10752 10751 10750 ] final -141.51 input  -60.55 | X-H torsion
[ 11005 11000 10999 10996 ] final   62.07 input  -57.11 | X-H torsion

> <Gold.Protein.ActiveResidues>
 VAL166  LYS551  ARG553  GLY616  TRP617  ASP618  TYR619  PRO620  LYS621  CYS622 
 ASP623  PHE694  ASN695  SER759  ASP760  ASP761  ALA762  ILE779  LEU786  VAL792 
 PHE793  MET794  SER795  GLU796  ALA797  LYS798  CYS799  TRP800  GLU811  SER814 

> <Gold.Protein.RotatedAtoms>
  151.4680  135.1043  159.9743 H   0  0  0  0  0  0  0  0  0  0  0  0  # atno 6907 bound_to 6896
  152.4827  133.8291  159.7104 H   0  0  0  0  0  0  0  0  0  0  0  0  # atno 6908 bound_to 6896
  150.8912  133.7180  159.2931 H   0  0  0  0  0  0  0  0  0  0  0  0  # atno 6909 bound_to 6896
  144.7953  140.5033  143.5744 H   0  0  0  0  0  0  0  0  0  0  0  0  # atno 7974 bound_to 7965
  154.5615  140.2346  155.8328 H   0  0  0  0  0  0  0  0  0  0  0  0  # atno 8008 bound_to 7997
  156.2033  140.3046  155.9533 H   0  0  0  0  0  0  0  0  0  0  0  0  # atno 8009 bound_to 7997
  155.2879  140.0425  157.3011 H   0  0  0  0  0  0  0  0  0  0  0  0  # atno 8010 bound_to 7997
  140.4517  143.2481  151.8479 H   0  0  0  0  0  0  0  0  0  0  0  0  # atno 10167 bound_to 10162
  156.2406  130.7093  151.0953 H   0  0  0  0  0  0  0  0  0  0  0  0  # atno 10718 bound_to 10713
  154.8542  135.3522  154.5880 H   0  0  0  0  0  0  0  0  0  0  0  0  # atno 10763 bound_to 10752
  153.6490  135.6995  153.5220 H   0  0  0  0  0  0  0  0  0  0  0  0  # atno 10764 bound_to 10752
  153.2909  135.4235  155.1124 H   0  0  0  0  0  0  0  0  0  0  0  0  # atno 10765 bound_to 10752
  140.0118  134.6285  155.9770 H   0  0  0  0  0  0  0  0  0  0  0  0  # atno 11005 bound_to 11000
  145.5690  139.1482  143.3299 LP  0  0  0  0  0  0  0  0  0  0  0  0  # atno 17320 bound_to 7965
  146.2219  140.5823  142.9013 LP  0  0  0  0  0  0  0  0  0  0  0  0  # atno 17321 bound_to 7965
  139.4797  144.5112  151.8929 LP  0  0  0  0  0  0  0  0  0  0  0  0  # atno 17342 bound_to 10162
  140.4200  144.2256  150.5887 LP  0  0  0  0  0  0  0  0  0  0  0  0  # atno 17343 bound_to 10162
  157.7173  131.0702  150.6275 LP  0  0  0  0  0  0  0  0  0  0  0  0  # atno 17370 bound_to 10713
  156.6348  130.4442  149.5773 LP  0  0  0  0  0  0  0  0  0  0  0  0  # atno 17371 bound_to 10713
  141.1716  133.6537  156.4672 LP  0  0  0  0  0  0  0  0  0  0  0  0  # atno 17394 bound_to 11000
  140.4542  134.6901  157.5054 LP  0  0  0  0  0  0  0  0  0  0  0  0  # atno 17395 bound_to 11000

$$$$
