AV-unprocessed.smi:67|AV-procd|sdf|630|dock4
  -GOLD-   2262016523D 1   1.00000     0.00000
 Structure written by MMmdl.
 49 51  0  0  0  0  0  0  0  0  3 V2000
  143.4337  133.5626  152.3391 O   0  0  0  0  0  0  0  0  0  0  0  0
  144.7069  133.5691  151.7162 C   0  0  2  0  0  0  0  0  0  0  0  0
  145.6583  132.6669  152.5334 C   0  0  0  0  0  0  0  0  0  0  0  0
  145.3277  132.6789  153.9836 N   0  3  2  0  0  0  0  0  0  0  0  0
  145.3993  134.0345  154.5880 C   0  0  0  0  0  0  0  0  0  0  0  0
  144.8266  134.0344  156.0150 C   0  0  0  0  0  0  0  0  0  0  0  0
  145.5146  132.9593  156.8832 C   0  0  1  0  0  0  0  0  0  0  0  0
  145.0996  132.9410  158.2515 O   0  0  0  0  0  0  0  0  0  0  0  0
  143.8509  132.5117  158.6611 C   0  0  0  0  0  0  0  0  0  0  0  0
  143.0139  133.5019  159.2153 C   0  0  0  0  0  0  0  0  0  0  0  0
  141.7192  133.1881  159.6687 C   0  0  0  0  0  0  0  0  0  0  0  0
  141.2399  131.8695  159.5733 C   0  0  0  0  0  0  0  0  0  0  0  0
  142.0584  130.8610  159.0231 C   0  0  0  0  0  0  0  0  0  0  0  0
  141.5718  129.4243  158.9071 C   0  0  0  0  0  0  0  0  0  0  0  0
  142.3280  128.6372  159.6721 F   0  0  0  0  0  0  0  0  0  0  0  0
  140.3010  129.2922  159.2884 F   0  0  0  0  0  0  0  0  0  0  0  0
  141.6792  129.0207  157.6414 F   0  0  0  0  0  0  0  0  0  0  0  0
  143.3550  131.1866  158.5715 C   0  0  0  0  0  0  0  0  0  0  0  0
  145.5610  131.5730  156.2054 C   0  0  0  0  0  0  0  0  0  0  0  0
  146.1031  131.6855  154.7716 C   0  0  0  0  0  0  0  0  0  0  0  0
  145.1898  135.0191  151.6163 C   0  0  0  0  0  0  0  0  0  0  0  0
  144.4705  135.5711  150.3827 C   0  0  0  0  0  0  0  0  0  0  0  0
  144.1999  134.4136  149.5082 N   0  3  0  0  0  0  0  0  0  0  0  0
  144.5514  133.1783  150.2375 C   0  0  0  0  0  0  0  0  0  0  0  0
  143.3388  132.7624  152.8345 H   0  0  0  0  0  0  0  0  0  0  0  0
  145.6312  131.6455  152.1498 H   0  0  0  0  0  0  0  0  0  0  0  0
  146.6848  133.0031  152.3762 H   0  0  0  0  0  0  0  0  0  0  0  0
  146.4350  134.3784  154.5941 H   0  0  0  0  0  0  0  0  0  0  0  0
  144.8331  134.7405  153.9789 H   0  0  0  0  0  0  0  0  0  0  0  0
  144.9715  135.0164  156.4664 H   0  0  0  0  0  0  0  0  0  0  0  0
  143.7507  133.8937  155.9556 H   0  0  0  0  0  0  0  0  0  0  0  0
  146.5561  133.2757  156.9539 H   0  0  0  0  0  0  0  0  0  0  0  0
  143.3698  134.5188  159.2943 H   0  0  0  0  0  0  0  0  0  0  0  0
  141.0933  133.9609  160.0903 H   0  0  0  0  0  0  0  0  0  0  0  0
  140.2444  131.6426  159.9250 H   0  0  0  0  0  0  0  0  0  0  0  0
  143.9404  130.3839  158.1599 H   0  0  0  0  0  0  0  0  0  0  0  0
  146.1983  130.9045  156.7850 H   0  0  0  0  0  0  0  0  0  0  0  0
  144.5861  131.0944  156.1705 H   0  0  0  0  0  0  0  0  0  0  0  0
  146.0530  130.7072  154.2935 H   0  0  0  0  0  0  0  0  0  0  0  0
  147.1552  131.9752  154.7877 H   0  0  0  0  0  0  0  0  0  0  0  0
  144.9977  135.6048  152.5163 H   0  0  0  0  0  0  0  0  0  0  0  0
  146.2661  135.0395  151.4380 H   0  0  0  0  0  0  0  0  0  0  0  0
  143.5167  136.0159  150.6684 H   0  0  0  0  0  0  0  0  0  0  0  0
  145.0551  136.3327  149.8664 H   0  0  0  0  0  0  0  0  0  0  0  0
  143.2161  134.4041  149.2781 H   0  0  0  0  0  0  0  0  0  0  0  0
  145.5049  132.8312  149.8386 H   0  0  0  0  0  0  0  0  0  0  0  0
  143.8170  132.3885  150.0737 H   0  0  0  0  0  0  0  0  0  0  0  0
  144.7447  134.4774  148.6598 H   0  0  0  0  0  0  0  0  0  0  0  0
  144.3576  132.4030  154.0440 H   0  0  0  0  0  0  0  0  0  0  0  0
  1  2  1  0  0  0  0
  1 25  1  0  0  0  0
  2 24  1  0  0  0  0
  2  3  1  0  0  0  0
  2 21  1  0  0  0  0
  3  4  1  0  0  0  0
  3 26  1  0  0  0  0
  3 27  1  0  0  0  0
  4 20  1  0  0  0  0
  4  5  1  0  0  0  0
  4 49  1  0  0  0  0
  5  6  1  0  0  0  0
  5 28  1  0  0  0  0
  5 29  1  0  0  0  0
  6  7  1  0  0  0  0
  6 30  1  0  0  0  0
  6 31  1  0  0  0  0
  7  8  1  0  0  0  0
  7 19  1  0  0  0  0
  7 32  1  0  0  0  0
  8  9  1  0  0  0  0
  9 18  1  0  0  0  0
  9 10  2  0  0  0  0
 10 11  1  0  0  0  0
 10 33  1  0  0  0  0
 11 12  2  0  0  0  0
 11 34  1  0  0  0  0
 12 13  1  0  0  0  0
 12 35  1  0  0  0  0
 13 14  1  0  0  0  0
 13 18  2  0  0  0  0
 14 15  1  0  0  0  0
 14 16  1  0  0  0  0
 14 17  1  0  0  0  0
 18 36  1  0  0  0  0
 19 20  1  0  0  0  0
 19 37  1  0  0  0  0
 19 38  1  0  0  0  0
 20 39  1  0  0  0  0
 20 40  1  0  0  0  0
 21 22  1  0  0  0  0
 21 41  1  0  0  0  0
 21 42  1  0  0  0  0
 22 23  1  0  0  0  0
 22 43  1  0  0  0  0
 22 44  1  0  0  0  0
 23 24  1  0  0  0  0
 23 45  1  0  0  0  0
 23 48  1  0  0  0  0
 24 46  1  0  0  0  0
 24 47  1  0  0  0  0
M  CHG  1   4   1
M  CHG  1  23   1
M  END
> <s_m_source_file>
AV-unprocessed.smi

> <i_m_source_file_index>
67

> <i_lp_mmshare_version>
43012

> <i_f3d_flags>
0

> <s_epik_input>
W0NIMl0xW05IXVtDSDJdW0NIMl1bQ0BAXTEoW09IXSlbQ0gyXU4yW0NIMl1bQ0gyXVtDSF0oW0NIMl1bQ0gyXTIpT2MzW2NIXVtjSF1bY0hdYyhDKEYpKEYpRilbY0hdMw==

> <s_epik_cmdline>
J2VwaWtfcHl0aG9uJywgJy1waCcsICc3LjAnLCAnLXRuJywgJzgnLCAnLW1hJywgJzIwMCcsICctbWV0YWxfYmluZGluZycsICctaW1hZScsICc8aW5maWxlLm1hZT4nLCAnLW9tYWUnLCAnPG91dGZpbGUubWFlPic=

> <r_lp_tautomer_probability>
1

> <r_epik_Ionization_Penalty>
0.0989853

> <r_epik_Ionization_Penalty_Charging>
0.0989662

> <r_epik_Ionization_Penalty_Neutral>
1.91014e-05

> <r_epik_State_Penalty>
0.0852826

> <r_epik_Charging_Adjusted_Penalty>
0.184249

> <i_epik_Tot_Q>
2

> <i_epik_Tot_abs_Q>
2

> <r_epik_Metal_State_Penalty>
0.0849414

> <b_epik_Metal_Only>
0

> <s_lp_Force_Field>
OPLS_2005

> <r_lp_Energy>
59.8113

> <b_lp_Chiralities_Consistent>
1

> <s_lp_Variant>
AV-unprocessed.smi:67-2

> <Gold.Version>
5.8.1

> <Gold.Id.Protein>
6NUR|6NUR_protein|mol2

> <Gold.PLP.Fitness>
51.5746

> <Gold.PLP.PLP>
-35.4495

> <Gold.PLP.part.hbond>
-3.9986

> <Gold.PLP.part.metal>
0.0000

> <Gold.PLP.part.buried>
-6.8094

> <Gold.PLP.part.nonpolar>
-25.3019

> <Gold.PLP.part.repulsive>
0.1053

> <Gold.PLP.ligand.clash>
0.0000

> <Gold.PLP.ligand.torsion>
0.6309

> <Gold.PLP.Chemscore.Hbond>
5.6103

> <Gold.PLP.Chemscore.CHOScore>
0.0000

> <Gold.PLP.Chemscore.Metal>
0.0000

> <Gold.Chemscore.Hbonds>
donor molecule, donor type, donor heavy atom, donor atom, acceptor molecule, acceptor atom, score
      L1  H     1    25       P1 10957  0.36
      L1  H     4    49       P1 10957  2.00
      L1  H    23    45       P1 10186  1.07
      L1  H    23    48       P1  7921  1.00

> <Gold.PLP.Chemscore.Internal.Correction>
0.5561

> <Gold.Rescore>
     Score         DG    S(hbond)    S(metal)    S(lipo)     H(rot)  DE(clash)    DE(int)     intcor
     15.01     -16.37       2.82        0.00      61.58       2.24       0.19       1.17       ----

> <Gold.Chemscore.Fitness>
15.0128

> <Gold.Chemscore.DG>
-16.3705

> <Gold.Chemscore.ZeroCoef>
-5.4800

> <Gold.Chemscore.Hbond>
2.8167

> <Gold.Chemscore.Metal>
0.0000

> <Gold.Chemscore.Lipo>
61.5787

> <Gold.Chemscore.Internal_Hbond>
0.0000

> <Gold.Chemscore.DEClash>
0.1926

> <Gold.Chemscore.DEInternal>
1.1650

> <Gold.Chemscore.Rot>
2.2352

> <Gold.Chemscore.Internal.Correction>
   9.000000E+99

> <Gold.Chemscore.Hbonds>
donor molecule, donor type, donor heavy atom, donor atom, acceptor molecule, acceptor atom, score
      L1  H     1    25       P1 10957  0.08
      L1  H     4    49       P1 10957  0.49
      L1  H    23    45       P1 10186  0.54
      L1  H    23    48       P1  7921  0.99

> <Gold.Chemscore.Hbond.Weighted>
-9.4079

> <Gold.Chemscore.Metal.Weighted>
-0.0000

> <Gold.Chemscore.Lipo.Weighted>
-7.2047

> <Gold.Chemscore.Internal_Hbond.Weighted>
0.0000

> <Gold.Chemscore.DEClash.Weighted>
0.1926

> <Gold.Chemscore.DEInternal.Weighted>
1.1650

> <Gold.Chemscore.Rot.Weighted>
5.7221

> <Gold.Chemscore.Internal.Correction.Weighted>
   9.000000E+99

> <Gold.Protein.RotatedTorsions>
[ 6907 6896 6895 6894 ] final -162.54 input  -60.11 | X-H torsion
[ 7974 7965 7964 7962 ] final -137.61 input  175.53 | X-H torsion
[ 8008 7997 7996 7995 ] final   89.93 input   59.86 | X-H torsion
[ 10167 10162 10161 10158 ] final  -15.80 input  -65.29 | X-H torsion
[ 10718 10713 10712 10709 ] final  126.75 input   66.30 | X-H torsion
[ 10763 10752 10751 10750 ] final   -1.83 input  -60.55 | X-H torsion
[ 11005 11000 10999 10996 ] final  104.01 input  -57.11 | X-H torsion

> <Gold.Protein.ActiveResidues>
 VAL166  LYS551  ARG553  GLY616  TRP617  ASP618  TYR619  PRO620  LYS621  CYS622 
 ASP623  PHE694  ASN695  SER759  ASP760  ASP761  ALA762  ILE779  LEU786  VAL792 
 PHE793  MET794  SER795  GLU796  ALA797  LYS798  CYS799  TRP800  GLU811  SER814 

> <Gold.Protein.RotatedAtoms>
  151.3818  133.3818  159.2710 H   0  0  0  0  0  0  0  0  0  0  0  0  # atno 6907 bound_to 6896
  150.9571  134.8965  159.7718 H   0  0  0  0  0  0  0  0  0  0  0  0  # atno 6908 bound_to 6896
  152.5135  134.3776  159.9392 H   0  0  0  0  0  0  0  0  0  0  0  0  # atno 6909 bound_to 6896
  144.8827  140.6531  143.5195 H   0  0  0  0  0  0  0  0  0  0  0  0  # atno 7974 bound_to 7965
  156.0059  140.3355  155.6891 H   0  0  0  0  0  0  0  0  0  0  0  0  # atno 8008 bound_to 7997
  155.6226  140.0676  157.2691 H   0  0  0  0  0  0  0  0  0  0  0  0  # atno 8009 bound_to 7997
  154.4264  140.1774  156.1375 H   0  0  0  0  0  0  0  0  0  0  0  0  # atno 8010 bound_to 7997
  140.7224  143.5181  150.9667 H   0  0  0  0  0  0  0  0  0  0  0  0  # atno 10167 bound_to 10162
  157.5392  131.1097  150.8885 H   0  0  0  0  0  0  0  0  0  0  0  0  # atno 10718 bound_to 10713
  153.3500  135.6985  153.6796 H   0  0  0  0  0  0  0  0  0  0  0  0  # atno 10763 bound_to 10752
  153.5527  135.3550  155.2767 H   0  0  0  0  0  0  0  0  0  0  0  0  # atno 10764 bound_to 10752
  154.8651  135.4230  154.2733 H   0  0  0  0  0  0  0  0  0  0  0  0  # atno 10765 bound_to 10752
  139.8788  134.9285  156.5297 H   0  0  0  0  0  0  0  0  0  0  0  0  # atno 11005 bound_to 11000
  145.3924  139.1614  143.4221 LP  0  0  0  0  0  0  0  0  0  0  0  0  # atno 17320 bound_to 7965
  146.3005  140.4015  142.8706 LP  0  0  0  0  0  0  0  0  0  0  0  0  # atno 17321 bound_to 7965
  139.8897  143.6968  152.3147 LP  0  0  0  0  0  0  0  0  0  0  0  0  # atno 17342 bound_to 10162
  139.7279  144.7589  151.0848 LP  0  0  0  0  0  0  0  0  0  0  0  0  # atno 17343 bound_to 10162
  156.9443  130.5396  149.5281 LP  0  0  0  0  0  0  0  0  0  0  0  0  # atno 17370 bound_to 10713
  156.0483  130.5556  150.8932 LP  0  0  0  0  0  0  0  0  0  0  0  0  # atno 17371 bound_to 10713
  140.8390  133.8220  155.9056 LP  0  0  0  0  0  0  0  0  0  0  0  0  # atno 17394 bound_to 11000
  140.9256  134.2087  157.4898 LP  0  0  0  0  0  0  0  0  0  0  0  0  # atno 17395 bound_to 11000

$$$$
