AV-unprocessed.smi:1209|AV-procd|sdf|5072|dock10
  -GOLD-   22720 4123D 1   1.00000     0.00000
 Structure written by MMmdl.
 49 51  0  0  0  0  0  0  0  0  2 V2000
  147.6949  133.8516  160.5101 C   0  0  0  0  0  0  0  0  0  0  0  0
  147.9973  135.2061  159.9669 C   0  0  0  0  0  0  0  0  0  0  0  0
  148.5474  135.6374  158.7938 C   0  0  0  0  0  0  0  0  0  0  0  0
  148.5418  137.0541  158.9208 C   0  0  0  0  0  0  0  0  0  0  0  0
  149.0239  138.0857  157.9356 C   0  0  0  0  0  0  0  0  0  0  0  0
  148.4534  137.9213  156.5932 N   0  0  0  0  0  0  0  0  0  0  0  0
  146.9953  137.9927  156.6409 C   0  0  0  0  0  0  0  0  0  0  0  0
  148.9688  138.9207  155.6561 C   0  0  0  0  0  0  0  0  0  0  0  0
  150.4725  138.7976  155.3193 C   0  0  1  0  0  0  0  0  0  0  0  0
  150.7078  139.4616  154.0964 O   0  0  0  0  0  0  0  0  0  0  0  0
  151.3893  139.4367  156.3816 C   0  0  0  0  0  0  0  0  0  0  0  0
  151.0081  140.8165  156.7093 N   0  0  0  0  0  0  0  0  0  0  0  0
  150.1905  141.6816  156.0495 C   0  0  0  0  0  0  0  0  0  0  0  0
  150.1520  142.8381  156.7677 N   0  3  0  0  0  0  0  0  0  0  0  0
  150.9635  142.7123  157.8976 C   0  0  0  0  0  0  0  0  0  0  0  0
  151.2454  143.6084  158.9220 C   0  0  0  0  0  0  0  0  0  0  0  0
  152.1254  143.1705  159.9377 C   0  0  0  0  0  0  0  0  0  0  0  0
  152.4551  144.1249  161.0726 C   0  0  0  0  0  0  0  0  0  0  0  0
  152.6918  141.8698  159.9029 C   0  0  0  0  0  0  0  0  0  0  0  0
  153.6366  141.4095  161.0002 C   0  0  0  0  0  0  0  0  0  0  0  0
  152.3925  140.9734  158.8521 C   0  0  0  0  0  0  0  0  0  0  0  0
  151.5212  141.4197  157.8620 C   0  0  0  0  0  0  0  0  0  0  0  0
  148.0334  137.4405  160.0791 N   0  0  0  0  0  0  0  0  0  0  0  0
  147.6808  136.2664  160.7540 O   0  0  0  0  0  0  0  0  0  0  0  0
  148.2737  133.0868  159.9916 H   0  0  0  0  0  0  0  0  0  0  0  0
  146.6374  133.6158  160.3901 H   0  0  0  0  0  0  0  0  0  0  0  0
  147.9367  133.7954  161.5715 H   0  0  0  0  0  0  0  0  0  0  0  0
  148.8959  135.0345  157.9689 H   0  0  0  0  0  0  0  0  0  0  0  0
  148.8064  139.0897  158.3040 H   0  0  0  0  0  0  0  0  0  0  0  0
  150.1094  138.0222  157.8965 H   0  0  0  0  0  0  0  0  0  0  0  0
  146.5676  137.8501  155.6480 H   0  0  0  0  0  0  0  0  0  0  0  0
  146.6600  138.9598  157.0180 H   0  0  0  0  0  0  0  0  0  0  0  0
  146.5798  137.2155  157.2826 H   0  0  0  0  0  0  0  0  0  0  0  0
  148.4118  138.8733  154.7187 H   0  0  0  0  0  0  0  0  0  0  0  0
  148.7566  139.9093  156.0634 H   0  0  0  0  0  0  0  0  0  0  0  0
  150.7665  137.7585  155.1861 H   0  0  0  0  0  0  0  0  0  0  0  0
  150.1988  139.0355  153.4231 H   0  0  0  0  0  0  0  0  0  0  0  0
  151.3858  138.8552  157.3048 H   0  0  0  0  0  0  0  0  0  0  0  0
  152.4219  139.4568  156.0297 H   0  0  0  0  0  0  0  0  0  0  0  0
  149.6607  141.4831  155.1288 H   0  0  0  0  0  0  0  0  0  0  0  0
  150.8115  144.5973  158.9420 H   0  0  0  0  0  0  0  0  0  0  0  0
  152.1322  143.7098  162.0275 H   0  0  0  0  0  0  0  0  0  0  0  0
  151.9585  145.0870  160.9424 H   0  0  0  0  0  0  0  0  0  0  0  0
  153.5287  144.3087  161.1188 H   0  0  0  0  0  0  0  0  0  0  0  0
  153.9708  140.3846  160.8360 H   0  0  0  0  0  0  0  0  0  0  0  0
  153.1427  141.4462  161.9713 H   0  0  0  0  0  0  0  0  0  0  0  0
  154.5209  142.0461  161.0361 H   0  0  0  0  0  0  0  0  0  0  0  0
  152.8242  139.9836  158.8237 H   0  0  0  0  0  0  0  0  0  0  0  0
  149.6115  143.6519  156.5035 H   0  0  0  0  0  0  0  0  0  0  0  0
  1  2  1  0  0  0  0
  1 25  1  0  0  0  0
  1 26  1  0  0  0  0
  1 27  1  0  0  0  0
  2 24  1  0  0  0  0
  2  3  2  0  0  0  0
  3  4  1  0  0  0  0
  3 28  1  0  0  0  0
  4  5  1  0  0  0  0
  4 23  2  0  0  0  0
  5  6  1  0  0  0  0
  5 29  1  0  0  0  0
  5 30  1  0  0  0  0
  6  7  1  0  0  0  0
  6  8  1  0  0  0  0
  7 31  1  0  0  0  0
  7 32  1  0  0  0  0
  7 33  1  0  0  0  0
  8  9  1  0  0  0  0
  8 34  1  0  0  0  0
  8 35  1  0  0  0  0
  9 10  1  0  0  0  0
  9 11  1  0  0  0  0
  9 36  1  0  0  0  0
 10 37  1  0  0  0  0
 11 12  1  0  0  0  0
 11 38  1  0  0  0  0
 11 39  1  0  0  0  0
 12 22  1  0  0  0  0
 12 13  1  0  0  0  0
 13 14  2  0  0  0  0
 13 40  1  0  0  0  0
 14 15  1  0  0  0  0
 14 49  1  0  0  0  0
 15 22  2  0  0  0  0
 15 16  1  0  0  0  0
 16 17  2  0  0  0  0
 16 41  1  0  0  0  0
 17 18  1  0  0  0  0
 17 19  1  0  0  0  0
 18 42  1  0  0  0  0
 18 43  1  0  0  0  0
 18 44  1  0  0  0  0
 19 20  1  0  0  0  0
 19 21  2  0  0  0  0
 20 45  1  0  0  0  0
 20 46  1  0  0  0  0
 20 47  1  0  0  0  0
 21 22  1  0  0  0  0
 21 48  1  0  0  0  0
 23 24  1  0  0  0  0
M  CHG  1  14   1
M  END
> <s_m_source_file>
AV-unprocessed.smi

> <i_m_source_file_index>
1209

> <i_lp_mmshare_version>
43012

> <i_f3d_flags>
0

> <s_epik_input>
W0NIM11jMVtjSF1jKG5vMSlbQ0gyXU4oW0NIM10pW0NIMl1bQ0BIXShbT0hdKVtDSDJdbihbY0hdbjIpYyhjMjMpW2NIXWMoW0NIM10pYyhbY0hdMylbQ0gzXQ==

> <s_epik_cmdline>
J2VwaWtfcHl0aG9uJywgJy1waCcsICc3LjAnLCAnLXRuJywgJzgnLCAnLW1hJywgJzIwMCcsICctbWV0YWxfYmluZGluZycsICctaW1hZScsICc8aW5maWxlLm1hZT4nLCAnLW9tYWUnLCAnPG91dGZpbGUubWFlPic=

> <r_epik_Ionization_Penalty>
1.23608

> <r_epik_Ionization_Penalty_Charging>
1.21624

> <r_epik_Ionization_Penalty_Neutral>
0.0198409

> <r_epik_State_Penalty>
1.27749

> <r_epik_Charging_Adjusted_Penalty>
2.49372

> <i_epik_Tot_Q>
1

> <i_epik_Tot_abs_Q>
1

> <r_epik_Metal_State_Penalty>
1.34809

> <b_epik_Metal_Only>
0

> <s_lp_Force_Field>
OPLS_2005

> <r_lp_Energy>
23.0789

> <b_lp_Chiralities_Consistent>
1

> <s_lp_Variant>
AV-unprocessed.smi:1209-4

> <Gold.Version>
5.8.1

> <Gold.Id.Protein>
6NUR|6NUR_protein|mol2

> <Gold.PLP.Fitness>
51.6006

> <Gold.PLP.PLP>
-41.0708

> <Gold.PLP.part.hbond>
-4.4977

> <Gold.PLP.part.metal>
0.0000

> <Gold.PLP.part.buried>
-5.4211

> <Gold.PLP.part.nonpolar>
-31.3217

> <Gold.PLP.part.repulsive>
0.0371

> <Gold.PLP.ligand.clash>
0.0000

> <Gold.PLP.ligand.torsion>
0.5417

> <Gold.PLP.Chemscore.Hbond>
3.8408

> <Gold.PLP.Chemscore.CHOScore>
0.0000

> <Gold.PLP.Chemscore.Metal>
0.0000

> <Gold.Chemscore.Hbonds>
donor molecule, donor type, donor heavy atom, donor atom, acceptor molecule, acceptor atom, score
      L1  H    14    49       P1  8028  2.00
      P1  H  6931  6943       L1    23  0.16
      P1  H  6934  6947       L1    23  0.66
      P1  H  7989  7998       L1    10  1.00

> <Gold.PLP.Chemscore.Internal.Correction>
0.0910

> <Gold.Rescore>
     Score         DG    S(hbond)    S(metal)    S(lipo)     H(rot)  DE(clash)    DE(int)     intcor
     18.59     -20.47       2.56        0.00     110.23       2.53       0.02       1.85       ----

> <Gold.Chemscore.Fitness>
18.5913

> <Gold.Chemscore.DG>
-20.4687

> <Gold.Chemscore.ZeroCoef>
-5.4800

> <Gold.Chemscore.Hbond>
2.5626

> <Gold.Chemscore.Metal>
0.0000

> <Gold.Chemscore.Lipo>
110.2326

> <Gold.Chemscore.Internal_Hbond>
0.0000

> <Gold.Chemscore.DEClash>
0.0234

> <Gold.Chemscore.DEInternal>
1.8539

> <Gold.Chemscore.Rot>
2.5265

> <Gold.Chemscore.Internal.Correction>
   9.000000E+99

> <Gold.Chemscore.Hbonds>
donor molecule, donor type, donor heavy atom, donor atom, acceptor molecule, acceptor atom, score
      L1  H    14    49       P1  8028  0.93
      P1  H  6931  6943       L1    23  0.01
      P1  H  6934  6947       L1    23  0.53
      P1  H  7989  7998       L1    10  0.82

> <Gold.Chemscore.Hbond.Weighted>
-8.5592

> <Gold.Chemscore.Metal.Weighted>
-0.0000

> <Gold.Chemscore.Lipo.Weighted>
-12.8972

> <Gold.Chemscore.Internal_Hbond.Weighted>
0.0000

> <Gold.Chemscore.DEClash.Weighted>
0.0234

> <Gold.Chemscore.DEInternal.Weighted>
1.8539

> <Gold.Chemscore.Rot.Weighted>
6.4677

> <Gold.Chemscore.Internal.Correction.Weighted>
   9.000000E+99

> <Gold.Protein.RotatedTorsions>
[ 6907 6896 6895 6894 ] final  -93.60 input  -60.11 | X-H torsion
[ 7974 7965 7964 7962 ] final   28.65 input  175.53 | X-H torsion
[ 8008 7997 7996 7995 ] final  -64.69 input   59.86 | X-H torsion
[ 10167 10162 10161 10158 ] final   37.73 input  -65.29 | X-H torsion
[ 10718 10713 10712 10709 ] final  -47.65 input   66.30 | X-H torsion
[ 10763 10752 10751 10750 ] final -110.23 input  -60.55 | X-H torsion
[ 11005 11000 10999 10996 ] final  165.33 input  -57.11 | X-H torsion

> <Gold.Protein.ActiveResidues>
 VAL166  LYS551  ARG553  GLY616  TRP617  ASP618  TYR619  PRO620  LYS621  CYS622 
 ASP623  PHE694  ASN695  SER759  ASP760  ASP761  ALA762  ILE779  LEU786  VAL792 
 PHE793  MET794  SER795  GLU796  ALA797  LYS798  CYS799  TRP800  GLU811  SER814 

> <Gold.Protein.RotatedAtoms>
  150.6925  134.1942  159.4296 H   0  0  0  0  0  0  0  0  0  0  0  0  # atno 6907 bound_to 6896
  151.9911  134.9976  160.0571 H   0  0  0  0  0  0  0  0  0  0  0  0  # atno 6908 bound_to 6896
  152.1666  133.4581  159.4925 H   0  0  0  0  0  0  0  0  0  0  0  0  # atno 6909 bound_to 6896
  146.1717  139.7027  142.8963 H   0  0  0  0  0  0  0  0  0  0  0  0  # atno 7974 bound_to 7965
  154.4626  140.0948  156.6935 H   0  0  0  0  0  0  0  0  0  0  0  0  # atno 8008 bound_to 7997
  155.4949  140.3472  155.4343 H   0  0  0  0  0  0  0  0  0  0  0  0  # atno 8009 bound_to 7997
  156.0899  140.1394  156.9594 H   0  0  0  0  0  0  0  0  0  0  0  0  # atno 8010 bound_to 7997
  140.4004  144.1731  150.6133 H   0  0  0  0  0  0  0  0  0  0  0  0  # atno 10167 bound_to 10162
  156.2064  130.4158  149.9172 H   0  0  0  0  0  0  0  0  0  0  0  0  # atno 10718 bound_to 10713
  154.8237  135.4572  154.0853 H   0  0  0  0  0  0  0  0  0  0  0  0  # atno 10763 bound_to 10752
  153.2186  135.6891  153.8034 H   0  0  0  0  0  0  0  0  0  0  0  0  # atno 10764 bound_to 10752
  153.7459  135.3305  155.3289 H   0  0  0  0  0  0  0  0  0  0  0  0  # atno 10765 bound_to 10752
  140.2551  134.7947  157.3538 H   0  0  0  0  0  0  0  0  0  0  0  0  # atno 11005 bound_to 11000
  145.4323  141.0416  143.2904 LP  0  0  0  0  0  0  0  0  0  0  0  0  # atno 17320 bound_to 7965
  144.8173  139.5855  143.7003 LP  0  0  0  0  0  0  0  0  0  0  0  0  # atno 17321 bound_to 7965
  140.4746  143.2401  151.9042 LP  0  0  0  0  0  0  0  0  0  0  0  0  # atno 17342 bound_to 10162
  139.4785  144.5334  151.8633 LP  0  0  0  0  0  0  0  0  0  0  0  0  # atno 17343 bound_to 10162
  156.6865  130.8879  151.3582 LP  0  0  0  0  0  0  0  0  0  0  0  0  # atno 17370 bound_to 10713
  157.7014  130.9338  150.0798 LP  0  0  0  0  0  0  0  0  0  0  0  0  # atno 17371 bound_to 10713
  140.1520  134.4838  155.7954 LP  0  0  0  0  0  0  0  0  0  0  0  0  # atno 17394 bound_to 11000
  141.2197  133.6866  156.7395 LP  0  0  0  0  0  0  0  0  0  0  0  0  # atno 17395 bound_to 11000

$$$$
