AV-unprocessed.smi:2335|AV-procd|sdf|9324|dock3
  -GOLD-   2272012543D 1   1.00000     0.00000
 Structure written by MMmdl.
 42 43  0  0  0  0  0  0  0  0  1 V2000
  146.7851  129.5366  152.4921 C   0  0  0  0  0  0  0  0  0  0  0  0
  147.8438  129.4614  153.5973 C   0  0  0  0  0  0  0  0  0  0  0  0
  148.3991  130.8006  153.9507 C   0  0  0  0  0  0  0  0  0  0  0  0
  149.3342  130.9706  154.8936 N   0  0  0  0  0  0  0  0  0  0  0  0
  149.7150  132.2990  155.0239 N   0  0  0  0  0  0  0  0  0  0  0  0
  149.0648  133.0918  154.1612 C   0  0  0  0  0  0  0  0  0  0  0  0
  149.2619  134.4952  154.0752 N   0  0  0  0  0  0  0  0  0  0  0  0
  149.7649  135.3255  155.0053 C   0  0  0  0  0  0  0  0  0  0  0  0
  150.1615  134.9895  156.1213 O   0  0  0  0  0  0  0  0  0  0  0  0
  149.7801  136.5909  154.5642 N   0  0  0  0  0  0  0  0  0  0  0  0
  150.2358  137.7467  155.3345 C   0  0  1  0  0  0  0  0  0  0  0  0
  150.3933  138.9736  154.4584 C   0  0  0  0  0  0  0  0  0  0  0  0
  150.2693  140.1318  155.4559 C   0  0  0  0  0  0  0  0  0  0  0  0
  151.6317  140.5296  156.0493 C   0  0  0  0  0  0  0  0  0  0  0  0
  149.5572  141.3496  154.8478 C   0  0  0  0  0  0  0  0  0  0  0  0
  149.4715  139.6277  156.5259 O   0  0  0  0  0  0  0  0  0  0  0  0
  149.2272  138.2270  156.4014 C   0  0  0  0  0  0  0  0  0  0  0  0
  147.7472  138.0769  155.9909 C   0  0  0  0  0  0  0  0  0  0  0  0
  149.4788  137.5807  157.7728 C   0  0  0  0  0  0  0  0  0  0  0  0
  147.9222  132.2717  153.1112 S   0  0  0  0  0  0  0  0  0  0  0  0
  146.3987  128.5450  152.2560 H   0  0  0  0  0  0  0  0  0  0  0  0
  147.2014  129.9589  151.5771 H   0  0  0  0  0  0  0  0  0  0  0  0
  145.9432  130.1593  152.7959 H   0  0  0  0  0  0  0  0  0  0  0  0
  147.4133  129.0144  154.4939 H   0  0  0  0  0  0  0  0  0  0  0  0
  148.6613  128.8100  153.2862 H   0  0  0  0  0  0  0  0  0  0  0  0
  148.9813  134.9182  153.2032 H   0  0  0  0  0  0  0  0  0  0  0  0
  149.4353  136.7749  153.6337 H   0  0  0  0  0  0  0  0  0  0  0  0
  151.2020  137.5371  155.7978 H   0  0  0  0  0  0  0  0  0  0  0  0
  151.3333  138.9820  153.9052 H   0  0  0  0  0  0  0  0  0  0  0  0
  149.5842  139.0159  153.7270 H   0  0  0  0  0  0  0  0  0  0  0  0
  152.3028  140.9079  155.2776 H   0  0  0  0  0  0  0  0  0  0  0  0
  152.1226  139.6824  156.5291 H   0  0  0  0  0  0  0  0  0  0  0  0
  151.5191  141.3102  156.8023 H   0  0  0  0  0  0  0  0  0  0  0  0
  150.1185  141.7545  154.0052 H   0  0  0  0  0  0  0  0  0  0  0  0
  149.4411  142.1459  155.5837 H   0  0  0  0  0  0  0  0  0  0  0  0
  148.5609  141.0879  154.4899 H   0  0  0  0  0  0  0  0  0  0  0  0
  147.4553  137.0292  155.9142 H   0  0  0  0  0  0  0  0  0  0  0  0
  147.5464  138.5508  155.0299 H   0  0  0  0  0  0  0  0  0  0  0  0
  147.0902  138.5422  156.7259 H   0  0  0  0  0  0  0  0  0  0  0  0
  149.2975  136.5063  157.7434 H   0  0  0  0  0  0  0  0  0  0  0  0
  148.8248  138.0050  158.5351 H   0  0  0  0  0  0  0  0  0  0  0  0
  150.5072  137.7358  158.1003 H   0  0  0  0  0  0  0  0  0  0  0  0
  1  2  1  0  0  0  0
  1 21  1  0  0  0  0
  1 22  1  0  0  0  0
  1 23  1  0  0  0  0
  2  3  1  0  0  0  0
  2 24  1  0  0  0  0
  2 25  1  0  0  0  0
  3 20  1  0  0  0  0
  3  4  2  0  0  0  0
  4  5  1  0  0  0  0
  5  6  2  0  0  0  0
  6  7  1  0  0  0  0
  6 20  1  0  0  0  0
  7  8  1  0  0  0  0
  7 26  1  0  0  0  0
  8  9  2  0  0  0  0
  8 10  1  0  0  0  0
 10 11  1  0  0  0  0
 10 27  1  0  0  0  0
 11 17  1  0  0  0  0
 11 12  1  0  0  0  0
 11 28  1  0  0  0  0
 12 13  1  0  0  0  0
 12 29  1  0  0  0  0
 12 30  1  0  0  0  0
 13 14  1  0  0  0  0
 13 15  1  0  0  0  0
 13 16  1  0  0  0  0
 14 31  1  0  0  0  0
 14 32  1  0  0  0  0
 14 33  1  0  0  0  0
 15 34  1  0  0  0  0
 15 35  1  0  0  0  0
 15 36  1  0  0  0  0
 16 17  1  0  0  0  0
 17 18  1  0  0  0  0
 17 19  1  0  0  0  0
 18 37  1  0  0  0  0
 18 38  1  0  0  0  0
 18 39  1  0  0  0  0
 19 40  1  0  0  0  0
 19 41  1  0  0  0  0
 19 42  1  0  0  0  0
M  END
> <s_m_source_file>
AV-unprocessed.smi

> <i_m_source_file_index>
2335

> <i_lp_mmshare_version>
43012

> <i_f3d_flags>
0

> <s_epik_input>
W0NIM11bQ0gyXWMxbm5jKHMxKVtOSF1DKD1PKVtOSF1bQ0BASF0oQyhPMikoW0NIM10pW0NIM10pW0NIMl1DMihbQ0gzXSlbQ0gzXQ==

> <s_epik_cmdline>
J2VwaWtfcHl0aG9uJywgJy1waCcsICc3LjAnLCAnLXRuJywgJzgnLCAnLW1hJywgJzIwMCcsICctbWV0YWxfYmluZGluZycsICctaW1hZScsICc8aW5maWxlLm1hZT4nLCAnLW9tYWUnLCAnPG91dGZpbGUubWFlPic=

> <r_lp_tautomer_probability>
1

> <r_epik_Ionization_Penalty>
0.000542824

> <r_epik_Ionization_Penalty_Charging>
0

> <r_epik_Ionization_Penalty_Neutral>
0.000542824

> <r_epik_State_Penalty>
-0

> <r_epik_Charging_Adjusted_Penalty>
0

> <i_epik_Tot_Q>
0

> <i_epik_Tot_abs_Q>
0

> <r_epik_Metal_State_Penalty>
0.227439

> <b_epik_Metal_Only>
0

> <s_lp_Force_Field>
OPLS_2005

> <r_lp_Energy>
12.5908

> <b_lp_Chiralities_Consistent>
1

> <s_lp_Variant>
AV-unprocessed.smi:2335-2

> <Gold.Version>
5.8.1

> <Gold.Id.Protein>
6NUR|6NUR_protein|mol2

> <Gold.PLP.Fitness>
34.3339

> <Gold.PLP.PLP>
-28.8643

> <Gold.PLP.part.hbond>
-2.0000

> <Gold.PLP.part.metal>
0.0000

> <Gold.PLP.part.buried>
-4.0817

> <Gold.PLP.part.nonpolar>
-22.5987

> <Gold.PLP.part.repulsive>
0.1026

> <Gold.PLP.ligand.clash>
0.0000

> <Gold.PLP.ligand.torsion>
0.2733

> <Gold.PLP.Chemscore.Hbond>
2.0000

> <Gold.PLP.Chemscore.CHOScore>
0.0000

> <Gold.PLP.Chemscore.Metal>
0.0000

> <Gold.Chemscore.Hbonds>
donor molecule, donor type, donor heavy atom, donor atom, acceptor molecule, acceptor atom, score
      L1  H     7    26       P1  7948  0.90
      L1  H    10    27       P1  7948  1.00

> <Gold.PLP.Chemscore.Internal.Correction>
0.0162

> <Gold.Rescore>
     Score         DG    S(hbond)    S(metal)    S(lipo)     H(rot)  DE(clash)    DE(int)     intcor
     11.70     -14.04       1.44        0.00      58.58       1.21       0.10       2.23       ----

> <Gold.Chemscore.Fitness>
11.7034

> <Gold.Chemscore.DG>
-14.0398

> <Gold.Chemscore.ZeroCoef>
-5.4800

> <Gold.Chemscore.Hbond>
1.4358

> <Gold.Chemscore.Metal>
0.0000

> <Gold.Chemscore.Lipo>
58.5789

> <Gold.Chemscore.Internal_Hbond>
0.0000

> <Gold.Chemscore.DEClash>
0.1027

> <Gold.Chemscore.DEInternal>
2.2337

> <Gold.Chemscore.Rot>
1.2068

> <Gold.Chemscore.Internal.Correction>
   9.000000E+99

> <Gold.Chemscore.Hbonds>
donor molecule, donor type, donor heavy atom, donor atom, acceptor molecule, acceptor atom, score
      L1  H     7    26       P1  7948  0.18
      L1  H    10    27       P1  7948  0.85

> <Gold.Chemscore.Hbond.Weighted>
-4.7956

> <Gold.Chemscore.Metal.Weighted>
-0.0000

> <Gold.Chemscore.Lipo.Weighted>
-6.8537

> <Gold.Chemscore.Internal_Hbond.Weighted>
0.0000

> <Gold.Chemscore.DEClash.Weighted>
0.1027

> <Gold.Chemscore.DEInternal.Weighted>
2.2337

> <Gold.Chemscore.Rot.Weighted>
3.0895

> <Gold.Chemscore.Internal.Correction.Weighted>
   9.000000E+99

> <Gold.Protein.RotatedTorsions>
[ 6907 6896 6895 6894 ] final -177.77 input  -60.11 | X-H torsion
[ 7974 7965 7964 7962 ] final  100.15 input  175.53 | X-H torsion
[ 8008 7997 7996 7995 ] final  -97.45 input   59.86 | X-H torsion
[ 10167 10162 10161 10158 ] final  167.43 input  -65.29 | X-H torsion
[ 10718 10713 10712 10709 ] final    1.08 input   66.30 | X-H torsion
[ 10763 10752 10751 10750 ] final -125.96 input  -60.55 | X-H torsion
[ 11005 11000 10999 10996 ] final  -28.12 input  -57.11 | X-H torsion

> <Gold.Protein.ActiveResidues>
 VAL166  LYS551  ARG553  GLY616  TRP617  ASP618  TYR619  PRO620  LYS621  CYS622 
 ASP623  PHE694  ASN695  SER759  ASP760  ASP761  ALA762  ILE779  LEU786  VAL792 
 PHE793  MET794  SER795  GLU796  ALA797  LYS798  CYS799  TRP800  GLU811  SER814 

> <Gold.Protein.RotatedAtoms>
  151.6264  133.3335  159.3098 H   0  0  0  0  0  0  0  0  0  0  0  0  # atno 6907 bound_to 6896
  150.8079  134.7219  159.6673 H   0  0  0  0  0  0  0  0  0  0  0  0  # atno 6908 bound_to 6896
  152.4175  134.6020  160.0054 H   0  0  0  0  0  0  0  0  0  0  0  0  # atno 6909 bound_to 6896
  145.3894  139.2365  143.3360 H   0  0  0  0  0  0  0  0  0  0  0  0  # atno 7974 bound_to 7965
  154.7880  140.0463  157.1179 H   0  0  0  0  0  0  0  0  0  0  0  0  # atno 8008 bound_to 7997
  154.9625  140.3079  155.5004 H   0  0  0  0  0  0  0  0  0  0  0  0  # atno 8009 bound_to 7997
  156.2946  140.2268  156.4712 H   0  0  0  0  0  0  0  0  0  0  0  0  # atno 8010 bound_to 7997
  139.4945  144.3923  151.9504 H   0  0  0  0  0  0  0  0  0  0  0  0  # atno 10167 bound_to 10162
  156.8428  130.5527  149.5676 H   0  0  0  0  0  0  0  0  0  0  0  0  # atno 10718 bound_to 10713
  154.8741  135.4012  154.3353 H   0  0  0  0  0  0  0  0  0  0  0  0  # atno 10763 bound_to 10752
  153.4161  135.7022  153.6331 H   0  0  0  0  0  0  0  0  0  0  0  0  # atno 10764 bound_to 10752
  153.5013  135.3727  155.2512 H   0  0  0  0  0  0  0  0  0  0  0  0  # atno 10765 bound_to 10752
  140.9180  133.7417  156.0761 H   0  0  0  0  0  0  0  0  0  0  0  0  # atno 11005 bound_to 11000
  146.2805  140.4574  142.8778 LP  0  0  0  0  0  0  0  0  0  0  0  0  # atno 17320 bound_to 7965
  144.8451  140.6917  143.6204 LP  0  0  0  0  0  0  0  0  0  0  0  0  # atno 17321 bound_to 7965
  140.3360  144.3260  150.5977 LP  0  0  0  0  0  0  0  0  0  0  0  0  # atno 17342 bound_to 10162
  140.5605  143.2193  151.7773 LP  0  0  0  0  0  0  0  0  0  0  0  0  # atno 17343 bound_to 10162
  156.0871  130.5866  150.9667 LP  0  0  0  0  0  0  0  0  0  0  0  0  # atno 17370 bound_to 10713
  157.6346  131.0917  150.8374 LP  0  0  0  0  0  0  0  0  0  0  0  0  # atno 17371 bound_to 10713
  140.8025  134.3492  157.5435 LP  0  0  0  0  0  0  0  0  0  0  0  0  # atno 17394 bound_to 11000
  139.8770  134.9206  156.3255 LP  0  0  0  0  0  0  0  0  0  0  0  0  # atno 17395 bound_to 11000

$$$$
