AV-unprocessed.smi:2433|AV-procd|sdf|9589|dock5
  -GOLD-   2272013223D 1   1.00000     0.00000
 Structure written by MMmdl.
 38 40  0  0  0  0  0  0  0  0  1 V2000
  151.4202  140.3172  155.2086 O   0  0  0  0  0  0  0  0  0  0  0  0
  150.7983  140.6627  156.2137 C   0  0  0  0  0  0  0  0  0  0  0  0
  151.1933  141.8108  157.0295 C   0  0  0  0  0  0  0  0  0  0  0  0
  150.4769  142.1700  158.1208 C   0  0  0  0  0  0  0  0  0  0  0  0
  150.9060  143.3670  158.9680 C   0  0  0  0  0  0  0  0  0  0  0  0
  151.3799  144.6342  158.2272 C   0  0  0  0  0  0  0  0  0  0  0  0
  152.8203  144.1348  158.3796 C   0  0  0  0  0  0  0  0  0  0  0  0
  152.3334  143.2418  159.5263 C   0  0  0  0  0  0  0  0  0  0  0  0
  149.3443  141.4363  158.4964 N   0  0  0  0  0  0  0  0  0  0  0  0
  148.9729  140.4148  157.7927 C   0  0  0  0  0  0  0  0  0  0  0  0
  149.6851  140.0047  156.6499 N   0  0  0  0  0  0  0  0  0  0  0  0
  149.1628  138.8251  155.9411 C   0  0  0  0  0  0  0  0  0  0  0  0
  148.5666  139.1834  154.5620 C   0  0  2  0  0  0  0  0  0  0  0  0
  149.6252  139.4838  153.6738 O   0  0  0  0  0  0  0  0  0  0  0  0
  147.5932  140.3464  154.6789 C   0  0  0  0  0  0  0  0  0  0  0  0
  146.4544  140.2288  155.5046 C   0  0  0  0  0  0  0  0  0  0  0  0
  145.5546  141.3049  155.6309 C   0  0  0  0  0  0  0  0  0  0  0  0
  145.7901  142.5064  154.9354 C   0  0  0  0  0  0  0  0  0  0  0  0
  144.9260  143.5415  155.0593 F   0  0  0  0  0  0  0  0  0  0  0  0
  146.9260  142.6312  154.1128 C   0  0  0  0  0  0  0  0  0  0  0  0
  147.8259  141.5551  153.9854 C   0  0  0  0  0  0  0  0  0  0  0  0
  152.0688  142.3794  156.7510 H   0  0  0  0  0  0  0  0  0  0  0  0
  150.1672  143.5850  159.7401 H   0  0  0  0  0  0  0  0  0  0  0  0
  151.0442  144.7619  157.1984 H   0  0  0  0  0  0  0  0  0  0  0  0
  151.1978  145.5407  158.8065 H   0  0  0  0  0  0  0  0  0  0  0  0
  153.1618  143.5621  157.5158 H   0  0  0  0  0  0  0  0  0  0  0  0
  153.5410  144.8997  158.6696 H   0  0  0  0  0  0  0  0  0  0  0  0
  152.4444  143.7170  160.5023 H   0  0  0  0  0  0  0  0  0  0  0  0
  152.7518  142.2344  159.5235 H   0  0  0  0  0  0  0  0  0  0  0  0
  148.0934  139.8168  158.0377 H   0  0  0  0  0  0  0  0  0  0  0  0
  149.9913  138.1274  155.8016 H   0  0  0  0  0  0  0  0  0  0  0  0
  148.4387  138.2668  156.5386 H   0  0  0  0  0  0  0  0  0  0  0  0
  148.0266  138.3297  154.1501 H   0  0  0  0  0  0  0  0  0  0  0  0
  149.2715  139.5520  152.8000 H   0  0  0  0  0  0  0  0  0  0  0  0
  146.2680  139.3132  156.0469 H   0  0  0  0  0  0  0  0  0  0  0  0
  144.6847  141.2091  156.2639 H   0  0  0  0  0  0  0  0  0  0  0  0
  147.1091  143.5535  153.5814 H   0  0  0  0  0  0  0  0  0  0  0  0
  148.6975  141.6626  153.3566 H   0  0  0  0  0  0  0  0  0  0  0  0
  1  2  2  0  0  0  0
  2 11  1  0  0  0  0
  2  3  1  0  0  0  0
  3  4  2  0  0  0  0
  3 22  1  0  0  0  0
  4  5  1  0  0  0  0
  4  9  1  0  0  0  0
  5  8  1  0  0  0  0
  5  6  1  0  0  0  0
  5 23  1  0  0  0  0
  6  7  1  0  0  0  0
  6 24  1  0  0  0  0
  6 25  1  0  0  0  0
  7  8  1  0  0  0  0
  7 26  1  0  0  0  0
  7 27  1  0  0  0  0
  8 28  1  0  0  0  0
  8 29  1  0  0  0  0
  9 10  2  0  0  0  0
 10 11  1  0  0  0  0
 10 30  1  0  0  0  0
 11 12  1  0  0  0  0
 12 13  1  0  0  0  0
 12 31  1  0  0  0  0
 12 32  1  0  0  0  0
 13 14  1  0  0  0  0
 13 15  1  0  0  0  0
 13 33  1  0  0  0  0
 14 34  1  0  0  0  0
 15 21  1  0  0  0  0
 15 16  2  0  0  0  0
 16 17  1  0  0  0  0
 16 35  1  0  0  0  0
 17 18  2  0  0  0  0
 17 36  1  0  0  0  0
 18 19  1  0  0  0  0
 18 20  1  0  0  0  0
 20 21  2  0  0  0  0
 20 37  1  0  0  0  0
 21 38  1  0  0  0  0
M  END
> <s_m_source_file>
AV-unprocessed.smi

> <i_m_source_file_index>
2433

> <i_lp_mmshare_version>
43012

> <i_f3d_flags>
0

> <s_epik_input>
W0NIMl0xW0NIMl1bQ0gyXVtDSF0xYyhbY0hdYzI9TyluW2NIXW4yW0NIMl1bQ0BIXShbT0hdKWMzW2NIXVtjSF1jKEYpW2NIXVtjSF0z

> <s_epik_cmdline>
J2VwaWtfcHl0aG9uJywgJy1waCcsICc3LjAnLCAnLXRuJywgJzgnLCAnLW1hJywgJzIwMCcsICctbWV0YWxfYmluZGluZycsICctaW1hZScsICc8aW5maWxlLm1hZT4nLCAnLW9tYWUnLCAnPG91dGZpbGUubWFlPic=

> <r_lp_tautomer_probability>
1

> <r_epik_Ionization_Penalty>
2.57762e-05

> <r_epik_Ionization_Penalty_Charging>
5.39435e-08

> <r_epik_Ionization_Penalty_Neutral>
2.57223e-05

> <r_epik_State_Penalty>
-0

> <r_epik_Charging_Adjusted_Penalty>
5.39435e-08

> <i_epik_Tot_Q>
0

> <i_epik_Tot_abs_Q>
0

> <r_epik_Metal_State_Penalty>
-0

> <b_epik_Metal_Only>
0

> <s_lp_Force_Field>
OPLS_2005

> <r_lp_Energy>
28.7145

> <b_lp_Chiralities_Consistent>
1

> <s_lp_Variant>
AV-unprocessed.smi:2433-1

> <Gold.Version>
5.8.1

> <Gold.Id.Protein>
6NUR|6NUR_protein|mol2

> <Gold.PLP.Fitness>
46.0941

> <Gold.PLP.PLP>
-40.7331

> <Gold.PLP.part.hbond>
-2.5802

> <Gold.PLP.part.metal>
0.0000

> <Gold.PLP.part.buried>
-6.8739

> <Gold.PLP.part.nonpolar>
-31.2853

> <Gold.PLP.part.repulsive>
0.0784

> <Gold.PLP.ligand.clash>
0.0000

> <Gold.PLP.ligand.torsion>
0.4067

> <Gold.PLP.Chemscore.Hbond>
1.9280

> <Gold.PLP.Chemscore.CHOScore>
0.0000

> <Gold.PLP.Chemscore.Metal>
0.0000

> <Gold.Chemscore.Hbonds>
donor molecule, donor type, donor heavy atom, donor atom, acceptor molecule, acceptor atom, score
      L1  H    14    34       P1  7957  0.90
      P1  H  7989  7998       L1     1  0.98

> <Gold.PLP.Chemscore.Internal.Correction>
0.3904

> <Gold.Rescore>
     Score         DG    S(hbond)    S(metal)    S(lipo)     H(rot)  DE(clash)    DE(int)     intcor
     16.55     -17.22       1.83        0.00      94.83       2.14       0.00       0.67       ----

> <Gold.Chemscore.Fitness>
16.5536

> <Gold.Chemscore.DG>
-17.2238

> <Gold.Chemscore.ZeroCoef>
-5.4800

> <Gold.Chemscore.Hbond>
1.8323

> <Gold.Chemscore.Metal>
0.0000

> <Gold.Chemscore.Lipo>
94.8256

> <Gold.Chemscore.Internal_Hbond>
0.0000

> <Gold.Chemscore.DEClash>
0.0009

> <Gold.Chemscore.DEInternal>
0.6692

> <Gold.Chemscore.Rot>
2.1370

> <Gold.Chemscore.Internal.Correction>
   9.000000E+99

> <Gold.Chemscore.Hbonds>
donor molecule, donor type, donor heavy atom, donor atom, acceptor molecule, acceptor atom, score
      L1  H    14    34       P1  7957  0.88
      P1  H  7989  7998       L1     1  0.93

> <Gold.Chemscore.Hbond.Weighted>
-6.1199

> <Gold.Chemscore.Metal.Weighted>
-0.0000

> <Gold.Chemscore.Lipo.Weighted>
-11.0946

> <Gold.Chemscore.Internal_Hbond.Weighted>
0.0000

> <Gold.Chemscore.DEClash.Weighted>
0.0009

> <Gold.Chemscore.DEInternal.Weighted>
0.6692

> <Gold.Chemscore.Rot.Weighted>
5.4707

> <Gold.Chemscore.Internal.Correction.Weighted>
   9.000000E+99

> <Gold.Protein.RotatedTorsions>
[ 6907 6896 6895 6894 ] final -142.13 input  -60.11 | X-H torsion
[ 7974 7965 7964 7962 ] final  -16.67 input  175.53 | X-H torsion
[ 8008 7997 7996 7995 ] final   37.88 input   59.86 | X-H torsion
[ 10167 10162 10161 10158 ] final   35.95 input  -65.29 | X-H torsion
[ 10718 10713 10712 10709 ] final   56.83 input   66.30 | X-H torsion
[ 10763 10752 10751 10750 ] final   33.76 input  -60.55 | X-H torsion
[ 11005 11000 10999 10996 ] final  -96.84 input  -57.11 | X-H torsion

> <Gold.Protein.ActiveResidues>
 VAL166  LYS551  ARG553  GLY616  TRP617  ASP618  TYR619  PRO620  LYS621  CYS622 
 ASP623  PHE694  ASN695  SER759  ASP760  ASP761  ALA762  ILE779  LEU786  VAL792 
 PHE793  MET794  SER795  GLU796  ALA797  LYS798  CYS799  TRP800  GLU811  SER814 

> <Gold.Protein.RotatedAtoms>
  151.0829  133.5376  159.2619 H   0  0  0  0  0  0  0  0  0  0  0  0  # atno 6907 bound_to 6896
  151.2272  135.0540  159.8983 H   0  0  0  0  0  0  0  0  0  0  0  0  # atno 6908 bound_to 6896
  152.5426  134.0623  159.8211 H   0  0  0  0  0  0  0  0  0  0  0  0  # atno 6909 bound_to 6896
  146.1977  140.3669  142.8434 H   0  0  0  0  0  0  0  0  0  0  0  0  # atno 7974 bound_to 7965
  155.2111  140.3323  155.4329 H   0  0  0  0  0  0  0  0  0  0  0  0  # atno 8008 bound_to 7997
  156.2370  140.1877  156.7141 H   0  0  0  0  0  0  0  0  0  0  0  0  # atno 8009 bound_to 7997
  154.6077  140.0613  156.9439 H   0  0  0  0  0  0  0  0  0  0  0  0  # atno 8010 bound_to 7997
  140.4174  144.1508  150.6144 H   0  0  0  0  0  0  0  0  0  0  0  0  # atno 10167 bound_to 10162
  157.5464  130.8734  149.8897 H   0  0  0  0  0  0  0  0  0  0  0  0  # atno 10718 bound_to 10713
  153.0196  135.6378  154.1562 H   0  0  0  0  0  0  0  0  0  0  0  0  # atno 10763 bound_to 10752
  154.1298  135.2841  155.3189 H   0  0  0  0  0  0  0  0  0  0  0  0  # atno 10764 bound_to 10752
  154.6202  135.5527  153.7629 H   0  0  0  0  0  0  0  0  0  0  0  0  # atno 10765 bound_to 10752
  141.1398  133.8127  157.0625 H   0  0  0  0  0  0  0  0  0  0  0  0  # atno 11005 bound_to 11000
  144.8615  140.7146  143.6104 LP  0  0  0  0  0  0  0  0  0  0  0  0  # atno 17320 bound_to 7965
  145.3589  139.1687  143.4394 LP  0  0  0  0  0  0  0  0  0  0  0  0  # atno 17321 bound_to 7965
  140.4571  143.2463  151.9269 LP  0  0  0  0  0  0  0  0  0  0  0  0  # atno 17342 bound_to 10162
  139.4782  144.5504  151.8394 LP  0  0  0  0  0  0  0  0  0  0  0  0  # atno 17343 bound_to 10162
  156.0539  130.3712  150.1137 LP  0  0  0  0  0  0  0  0  0  0  0  0  # atno 17370 bound_to 10713
  156.9313  130.9714  151.3532 LP  0  0  0  0  0  0  0  0  0  0  0  0  # atno 17371 bound_to 10713
  140.0562  134.9779  157.1224 LP  0  0  0  0  0  0  0  0  0  0  0  0  # atno 17394 bound_to 11000
  140.3916  134.2178  155.7166 LP  0  0  0  0  0  0  0  0  0  0  0  0  # atno 17395 bound_to 11000

$$$$
