AV-unprocessed.smi:990|AV-procd|sdf|4327|dock6
  -GOLD-   22720 2233D 1   1.00000     0.00000
 Structure written by MMmdl.
 45 46  0  0  0  0  0  0  0  0  2 V2000
  145.3674  132.1297  149.5952 C   0  0  0  0  0  0  0  0  0  0  0  0
  145.7097  131.5665  150.7634 C   0  0  0  0  0  0  0  0  0  0  0  0
  145.9853  132.3372  152.0400 C   0  0  0  0  0  0  0  0  0  0  0  0
  144.7561  132.8529  152.6314 N   0  0  0  0  0  0  0  0  0  0  0  0
  144.2763  134.0923  152.4537 C   0  0  0  0  0  0  0  0  0  0  0  0
  144.8393  134.9458  151.7684 O   0  0  0  0  0  0  0  0  0  0  0  0
  143.1272  134.2733  153.1282 N   0  0  0  0  0  0  0  0  0  0  0  0
  142.3072  135.4331  153.1798 C   0  0  0  0  0  0  0  0  0  0  0  0
  140.9206  135.4106  153.4737 C   0  0  0  0  0  0  0  0  0  0  0  0
  140.1988  136.6211  153.5113 C   0  0  0  0  0  0  0  0  0  0  0  0
  140.8709  137.8400  153.2638 C   0  0  0  0  0  0  0  0  0  0  0  0
  140.2350  139.0888  153.2709 N   0  0  0  0  0  0  0  0  0  0  0  0
  140.7656  139.9958  154.2805 C   0  0  0  0  0  0  0  0  0  0  0  0
  140.1466  141.3972  154.1365 C   0  0  0  0  0  0  0  0  0  0  0  0
  138.6716  141.3300  154.1584 N   0  0  0  0  0  0  0  0  0  0  0  0
  137.8039  142.8135  154.3878 S   0  0  0  0  0  0  0  0  0  0  0  0
  136.4698  142.7205  153.1234 C   0  0  0  0  0  0  0  0  0  0  0  0
  137.1679  142.7602  155.7130 O   0  0  0  0  0  0  0  0  0  0  0  0
  138.7126  143.9202  154.0523 O   0  0  0  0  0  0  0  0  0  0  0  0
  138.1231  140.3598  153.1900 C   0  0  0  0  0  0  0  0  0  0  0  0
  138.7843  138.9803  153.3534 C   0  0  0  0  0  0  0  0  0  0  0  0
  142.1964  137.8194  153.0039 N   0  3  0  0  0  0  0  0  0  0  0  0
  142.9246  136.6824  152.9598 C   0  0  0  0  0  0  0  0  0  0  0  0
  145.2698  133.2007  149.4947 H   0  0  0  0  0  0  0  0  0  0  0  0
  145.1797  131.5231  148.7215 H   0  0  0  0  0  0  0  0  0  0  0  0
  145.7920  130.4907  150.8236 H   0  0  0  0  0  0  0  0  0  0  0  0
  146.4797  131.6919  152.7667 H   0  0  0  0  0  0  0  0  0  0  0  0
  146.6751  133.1546  151.8235 H   0  0  0  0  0  0  0  0  0  0  0  0
  144.2330  132.2166  153.2154 H   0  0  0  0  0  0  0  0  0  0  0  0
  142.8330  133.5068  153.7157 H   0  0  0  0  0  0  0  0  0  0  0  0
  140.3964  134.4912  153.6830 H   0  0  0  0  0  0  0  0  0  0  0  0
  139.1412  136.6067  153.7301 H   0  0  0  0  0  0  0  0  0  0  0  0
  140.5562  139.6041  155.2770 H   0  0  0  0  0  0  0  0  0  0  0  0
  141.8502  140.0592  154.1844 H   0  0  0  0  0  0  0  0  0  0  0  0
  140.5025  142.0316  154.9479 H   0  0  0  0  0  0  0  0  0  0  0  0
  140.4667  141.8632  153.2035 H   0  0  0  0  0  0  0  0  0  0  0  0
  135.8075  143.5785  153.2375 H   0  0  0  0  0  0  0  0  0  0  0  0
  135.8973  141.8039  153.2638 H   0  0  0  0  0  0  0  0  0  0  0  0
  136.8981  142.7354  152.1223 H   0  0  0  0  0  0  0  0  0  0  0  0
  137.0467  140.2654  153.3262 H   0  0  0  0  0  0  0  0  0  0  0  0
  138.2820  140.7390  152.1794 H   0  0  0  0  0  0  0  0  0  0  0  0
  138.4221  138.3033  152.5785 H   0  0  0  0  0  0  0  0  0  0  0  0
  138.4999  138.5476  154.3138 H   0  0  0  0  0  0  0  0  0  0  0  0
  143.9756  136.8078  152.7418 H   0  0  0  0  0  0  0  0  0  0  0  0
  142.6713  138.7061  152.8318 H   0  0  0  0  0  0  0  0  0  0  0  0
  1  2  2  0  0  0  0
  1 24  1  0  0  0  0
  1 25  1  0  0  0  0
  2  3  1  0  0  0  0
  2 26  1  0  0  0  0
  3  4  1  0  0  0  0
  3 27  1  0  0  0  0
  3 28  1  0  0  0  0
  4  5  1  0  0  0  0
  4 29  1  0  0  0  0
  5  6  2  0  0  0  0
  5  7  1  0  0  0  0
  7  8  1  0  0  0  0
  7 30  1  0  0  0  0
  8 23  1  0  0  0  0
  8  9  2  0  0  0  0
  9 10  1  0  0  0  0
  9 31  1  0  0  0  0
 10 11  2  0  0  0  0
 10 32  1  0  0  0  0
 11 12  1  0  0  0  0
 11 22  1  0  0  0  0
 12 21  1  0  0  0  0
 12 13  1  0  0  0  0
 13 14  1  0  0  0  0
 13 33  1  0  0  0  0
 13 34  1  0  0  0  0
 14 15  1  0  0  0  0
 14 35  1  0  0  0  0
 14 36  1  0  0  0  0
 15 16  1  0  0  0  0
 15 20  1  0  0  0  0
 16 17  1  0  0  0  0
 16 18  2  0  0  0  0
 16 19  2  0  0  0  0
 17 37  1  0  0  0  0
 17 38  1  0  0  0  0
 17 39  1  0  0  0  0
 20 21  1  0  0  0  0
 20 40  1  0  0  0  0
 20 41  1  0  0  0  0
 21 42  1  0  0  0  0
 21 43  1  0  0  0  0
 22 23  2  0  0  0  0
 22 45  1  0  0  0  0
 23 44  1  0  0  0  0
M  CHG  1  22   1
M  END
> <s_m_source_file>
AV-unprocessed.smi

> <i_m_source_file_index>
990

> <i_lp_mmshare_version>
43012

> <i_f3d_flags>
0

> <s_epik_input>
W0NIMl09W0NIXVtDSDJdW05IXUMoPU8pW05IXWMxW2NIXVtjSF1jKG5bY0hdMSlOMltDSDJdW0NIMl1OKFMoPU8pKD1PKVtDSDNdKVtDSDJdW0NIMl0y

> <s_epik_cmdline>
J2VwaWtfcHl0aG9uJywgJy1waCcsICc3LjAnLCAnLXRuJywgJzgnLCAnLW1hJywgJzIwMCcsICctbWV0YWxfYmluZGluZycsICctaW1hZScsICc8aW5maWxlLm1hZT4nLCAnLW9tYWUnLCAnPG91dGZpbGUubWFlPic=

> <r_lp_tautomer_probability>
0.999994

> <r_epik_Ionization_Penalty>
0.881759

> <r_epik_Ionization_Penalty_Charging>
0.881739

> <r_epik_Ionization_Penalty_Neutral>
2.00436e-05

> <r_epik_State_Penalty>
0.920006

> <r_epik_Charging_Adjusted_Penalty>
1.80175

> <i_epik_Tot_Q>
1

> <i_epik_Tot_abs_Q>
1

> <r_epik_Metal_State_Penalty>
1.04263

> <b_epik_Metal_Only>
0

> <s_lp_Force_Field>
OPLS_2005

> <r_lp_Energy>
28.5026

> <b_lp_Chiralities_Consistent>
1

> <s_lp_Variant>
AV-unprocessed.smi:990-2

> <Gold.Version>
5.8.1

> <Gold.Id.Protein>
6NUR|6NUR_protein|mol2

> <Gold.PLP.Fitness>
49.2141

> <Gold.PLP.PLP>
-37.2284

> <Gold.PLP.part.hbond>
-3.5932

> <Gold.PLP.part.metal>
0.0000

> <Gold.PLP.part.buried>
-8.1705

> <Gold.PLP.part.nonpolar>
-29.0759

> <Gold.PLP.part.repulsive>
2.3086

> <Gold.PLP.ligand.clash>
0.0000

> <Gold.PLP.ligand.torsion>
0.8078

> <Gold.PLP.Chemscore.Hbond>
4.2949

> <Gold.PLP.Chemscore.CHOScore>
0.0000

> <Gold.PLP.Chemscore.Metal>
0.0000

> <Gold.Chemscore.Hbonds>
donor molecule, donor type, donor heavy atom, donor atom, acceptor molecule, acceptor atom, score
      L1  H     4    29       P1 10957  0.26
      L1  H     7    30       P1 10957  0.96
      L1  H    22    45       P1 10175  2.00
      P1  H 10162 10167       L1    19  1.00

> <Gold.PLP.Chemscore.Internal.Correction>
0.7165

> <Gold.Rescore>
     Score         DG    S(hbond)    S(metal)    S(lipo)     H(rot)  DE(clash)    DE(int)     intcor
     17.38     -20.34       2.87        0.00      83.86       1.77       0.92       2.04       ----

> <Gold.Chemscore.Fitness>
17.3792

> <Gold.Chemscore.DG>
-20.3368

> <Gold.Chemscore.ZeroCoef>
-5.4800

> <Gold.Chemscore.Hbond>
2.8689

> <Gold.Chemscore.Metal>
0.0000

> <Gold.Chemscore.Lipo>
83.8615

> <Gold.Chemscore.Internal_Hbond>
0.0000

> <Gold.Chemscore.DEClash>
0.9154

> <Gold.Chemscore.DEInternal>
2.0421

> <Gold.Chemscore.Rot>
1.7723

> <Gold.Chemscore.Internal.Correction>
   9.000000E+99

> <Gold.Chemscore.Hbonds>
donor molecule, donor type, donor heavy atom, donor atom, acceptor molecule, acceptor atom, score
      L1  H     4    29       P1 10957  0.01
      L1  H     7    30       P1 10957  0.91
      L1  H    22    45       P1 10175  0.96
      P1  H 10162 10167       L1    19  0.94

> <Gold.Chemscore.Hbond.Weighted>
-9.5821

> <Gold.Chemscore.Metal.Weighted>
-0.0000

> <Gold.Chemscore.Lipo.Weighted>
-9.8118

> <Gold.Chemscore.Internal_Hbond.Weighted>
0.0000

> <Gold.Chemscore.DEClash.Weighted>
0.9154

> <Gold.Chemscore.DEInternal.Weighted>
2.0421

> <Gold.Chemscore.Rot.Weighted>
4.5371

> <Gold.Chemscore.Internal.Correction.Weighted>
   9.000000E+99

> <Gold.Protein.RotatedTorsions>
[ 6907 6896 6895 6894 ] final -150.27 input  -60.11 | X-H torsion
[ 7974 7965 7964 7962 ] final  130.13 input  175.53 | X-H torsion
[ 8008 7997 7996 7995 ] final -118.06 input   59.86 | X-H torsion
[ 10167 10162 10161 10158 ] final -156.08 input  -65.29 | X-H torsion
[ 10718 10713 10712 10709 ] final   44.80 input   66.30 | X-H torsion
[ 10763 10752 10751 10750 ] final -148.36 input  -60.55 | X-H torsion
[ 11005 11000 10999 10996 ] final   44.89 input  -57.11 | X-H torsion

> <Gold.Protein.ActiveResidues>
 VAL166  LYS551  ARG553  GLY616  TRP617  ASP618  TYR619  PRO620  LYS621  CYS622 
 ASP623  PHE694  ASN695  SER759  ASP760  ASP761  ALA762  ILE779  LEU786  VAL792 
 PHE793  MET794  SER795  GLU796  ALA797  LYS798  CYS799  TRP800  GLU811  SER814 

> <Gold.Protein.RotatedAtoms>
  151.1961  133.4638  159.2595 H   0  0  0  0  0  0  0  0  0  0  0  0  # atno 6907 bound_to 6896
  151.1115  135.0029  159.8506 H   0  0  0  0  0  0  0  0  0  0  0  0  # atno 6908 bound_to 6896
  152.5450  134.1880  159.8715 H   0  0  0  0  0  0  0  0  0  0  0  0  # atno 6909 bound_to 6896
  145.0212  139.4130  143.5196 H   0  0  0  0  0  0  0  0  0  0  0  0  # atno 7974 bound_to 7965
  155.0937  140.0395  157.2676 H   0  0  0  0  0  0  0  0  0  0  0  0  # atno 8008 bound_to 7997
  154.6812  140.2633  155.6882 H   0  0  0  0  0  0  0  0  0  0  0  0  # atno 8009 bound_to 7997
  156.2695  140.2778  156.1357 H   0  0  0  0  0  0  0  0  0  0  0  0  # atno 8010 bound_to 7997
  139.6879  143.9471  152.2370 H   0  0  0  0  0  0  0  0  0  0  0  0  # atno 10167 bound_to 10162
  157.4308  130.8023  149.7601 H   0  0  0  0  0  0  0  0  0  0  0  0  # atno 10718 bound_to 10713
  154.8237  135.3336  154.6962 H   0  0  0  0  0  0  0  0  0  0  0  0  # atno 10763 bound_to 10752
  153.7591  135.6934  153.4934 H   0  0  0  0  0  0  0  0  0  0  0  0  # atno 10764 bound_to 10752
  153.2122  135.4478  155.0343 H   0  0  0  0  0  0  0  0  0  0  0  0  # atno 10765 bound_to 10752
  140.1510  134.4461  155.8381 H   0  0  0  0  0  0  0  0  0  0  0  0  # atno 11005 bound_to 11000
  146.3485  139.9711  142.8706 LP  0  0  0  0  0  0  0  0  0  0  0  0  # atno 17320 bound_to 7965
  145.1893  140.9804  143.4220 LP  0  0  0  0  0  0  0  0  0  0  0  0  # atno 17321 bound_to 7965
  139.9278  144.6760  150.8394 LP  0  0  0  0  0  0  0  0  0  0  0  0  # atno 17342 bound_to 10162
  140.7673  143.3329  151.2370 LP  0  0  0  0  0  0  0  0  0  0  0  0  # atno 17343 bound_to 10162
  155.9912  130.3939  150.2993 LP  0  0  0  0  0  0  0  0  0  0  0  0  # atno 17370 bound_to 10713
  157.1150  131.0231  151.3033 LP  0  0  0  0  0  0  0  0  0  0  0  0  # atno 17371 bound_to 10713
  141.2199  133.6872  156.7422 LP  0  0  0  0  0  0  0  0  0  0  0  0  # atno 17394 bound_to 11000
  140.2604  134.8471  157.3753 LP  0  0  0  0  0  0  0  0  0  0  0  0  # atno 17395 bound_to 11000

$$$$
