AV-unprocessed.smi:1935|AV-procd|sdf|7827|dock5
  -GOLD-   22720 9573D 1   1.00000     0.00000
 Structure written by MMmdl.
 52 54  0  0  0  0  0  0  0  0  1 V2000
  150.8956  134.6867  155.7481 O   0  0  0  0  0  0  0  0  0  0  0  0
  150.2626  135.1341  154.7916 C   0  0  0  0  0  0  0  0  0  0  0  0
  150.2601  136.4275  154.4408 N   0  0  0  0  0  0  0  0  0  0  0  0
  150.9666  137.4870  155.1497 C   0  0  0  0  0  0  0  0  0  0  0  0
  150.9938  138.7864  154.3246 C   0  0  0  0  0  0  0  0  0  0  0  0
  150.7660  139.9642  155.1692 N   0  0  0  0  0  0  0  0  0  0  0  0
  149.5744  140.7658  154.8500 C   0  0  0  0  0  0  0  0  0  0  0  0
  148.4464  140.6496  155.9005 C   0  0  0  0  0  0  0  0  0  0  0  0
  148.8937  140.3904  157.3529 C   0  0  0  0  0  0  0  0  0  0  0  0
  149.9642  141.3623  157.8929 C   0  0  0  0  0  0  0  0  0  0  0  0
  151.2559  141.5077  157.0525 C   0  0  0  0  0  0  0  0  0  0  0  0
  151.5977  140.2802  156.1918 C   0  0  0  0  0  0  0  0  0  0  0  0
  152.6073  139.6294  156.4613 O   0  0  0  0  0  0  0  0  0  0  0  0
  149.4702  134.4107  153.9838 N   0  0  0  0  0  0  0  0  0  0  0  0
  149.1610  133.0266  154.0886 C   0  0  0  0  0  0  0  0  0  0  0  0
  149.9586  132.1566  154.8707 C   0  0  0  0  0  0  0  0  0  0  0  0
  149.6657  130.7821  154.8882 C   0  0  0  0  0  0  0  0  0  0  0  0
  148.5914  130.3223  154.1082 C   0  0  0  0  0  0  0  0  0  0  0  0
  147.8301  131.1362  153.3497 N   0  0  0  0  0  0  0  0  0  0  0  0
  148.0904  132.4671  153.3336 C   0  0  0  0  0  0  0  0  0  0  0  0
  147.2449  133.2740  152.5371 N   0  0  0  0  0  0  0  0  0  0  0  0
  146.5016  134.3477  153.1911 C   0  0  0  0  0  0  0  0  0  0  0  0
  145.1401  134.4224  152.4919 C   0  0  0  0  0  0  0  0  0  0  0  0
  145.3891  133.7516  151.1448 C   0  0  0  0  0  0  0  0  0  0  0  0
  146.4087  132.6743  151.5028 C   0  0  0  0  0  0  0  0  0  0  0  0
  149.7119  136.7025  153.6390 H   0  0  0  0  0  0  0  0  0  0  0  0
  150.5136  137.6544  156.1284 H   0  0  0  0  0  0  0  0  0  0  0  0
  151.9851  137.1441  155.3345 H   0  0  0  0  0  0  0  0  0  0  0  0
  151.9494  138.8774  153.8063 H   0  0  0  0  0  0  0  0  0  0  0  0
  150.2440  138.7453  153.5323 H   0  0  0  0  0  0  0  0  0  0  0  0
  149.8662  141.8102  154.7380 H   0  0  0  0  0  0  0  0  0  0  0  0
  149.1785  140.4998  153.8689 H   0  0  0  0  0  0  0  0  0  0  0  0
  147.8352  141.5515  155.8612 H   0  0  0  0  0  0  0  0  0  0  0  0
  147.7848  139.8335  155.6079 H   0  0  0  0  0  0  0  0  0  0  0  0
  148.0188  140.4348  158.0021 H   0  0  0  0  0  0  0  0  0  0  0  0
  149.2567  139.3653  157.4409 H   0  0  0  0  0  0  0  0  0  0  0  0
  149.5169  142.3495  158.0136 H   0  0  0  0  0  0  0  0  0  0  0  0
  150.2363  141.0414  158.8989 H   0  0  0  0  0  0  0  0  0  0  0  0
  151.1860  142.3828  156.4067 H   0  0  0  0  0  0  0  0  0  0  0  0
  152.0931  141.7211  157.7184 H   0  0  0  0  0  0  0  0  0  0  0  0
  148.9312  134.9271  153.3041 H   0  0  0  0  0  0  0  0  0  0  0  0
  150.8022  132.5215  155.4371 H   0  0  0  0  0  0  0  0  0  0  0  0
  150.2588  130.0963  155.4748 H   0  0  0  0  0  0  0  0  0  0  0  0
  148.3390  129.2724  154.0885 H   0  0  0  0  0  0  0  0  0  0  0  0
  146.3898  134.1782  154.2631 H   0  0  0  0  0  0  0  0  0  0  0  0
  147.0414  135.2844  153.0510 H   0  0  0  0  0  0  0  0  0  0  0  0
  144.4059  133.8461  153.0564 H   0  0  0  0  0  0  0  0  0  0  0  0
  144.7673  135.4427  152.3989 H   0  0  0  0  0  0  0  0  0  0  0  0
  144.4831  133.3464  150.6935 H   0  0  0  0  0  0  0  0  0  0  0  0
  145.8282  134.4661  150.4471 H   0  0  0  0  0  0  0  0  0  0  0  0
  147.0001  132.3719  150.6383 H   0  0  0  0  0  0  0  0  0  0  0  0
  145.8875  131.7970  151.8876 H   0  0  0  0  0  0  0  0  0  0  0  0
  1  2  2  0  0  0  0
  2  3  1  0  0  0  0
  2 14  1  0  0  0  0
  3  4  1  0  0  0  0
  3 26  1  0  0  0  0
  4  5  1  0  0  0  0
  4 27  1  0  0  0  0
  4 28  1  0  0  0  0
  5  6  1  0  0  0  0
  5 29  1  0  0  0  0
  5 30  1  0  0  0  0
  6 12  1  0  0  0  0
  6  7  1  0  0  0  0
  7  8  1  0  0  0  0
  7 31  1  0  0  0  0
  7 32  1  0  0  0  0
  8  9  1  0  0  0  0
  8 33  1  0  0  0  0
  8 34  1  0  0  0  0
  9 10  1  0  0  0  0
  9 35  1  0  0  0  0
  9 36  1  0  0  0  0
 10 11  1  0  0  0  0
 10 37  1  0  0  0  0
 10 38  1  0  0  0  0
 11 12  1  0  0  0  0
 11 39  1  0  0  0  0
 11 40  1  0  0  0  0
 12 13  2  0  0  0  0
 14 15  1  0  0  0  0
 14 41  1  0  0  0  0
 15 20  1  0  0  0  0
 15 16  2  0  0  0  0
 16 17  1  0  0  0  0
 16 42  1  0  0  0  0
 17 18  2  0  0  0  0
 17 43  1  0  0  0  0
 18 19  1  0  0  0  0
 18 44  1  0  0  0  0
 19 20  2  0  0  0  0
 20 21  1  0  0  0  0
 21 25  1  0  0  0  0
 21 22  1  0  0  0  0
 22 23  1  0  0  0  0
 22 45  1  0  0  0  0
 22 46  1  0  0  0  0
 23 24  1  0  0  0  0
 23 47  1  0  0  0  0
 23 48  1  0  0  0  0
 24 25  1  0  0  0  0
 24 49  1  0  0  0  0
 24 50  1  0  0  0  0
 25 51  1  0  0  0  0
 25 52  1  0  0  0  0
M  END
> <s_m_source_file>
AV-unprocessed.smi

> <i_m_source_file_index>
1935

> <i_lp_mmshare_version>
43012

> <i_f3d_flags>
0

> <s_epik_input>
Tz1DMVtDSDJdW0NIMl1bQ0gyXVtDSDJdW0NIMl1OMVtDSDJdW0NIMl1bTkhdQyg9TylbTkhdYzJbY0hdW2NIXVtjSF1uYzJOM1tDSDJdW0NIMl1bQ0gyXVtDSDJdMw==

> <s_epik_cmdline>
J2VwaWtfcHl0aG9uJywgJy1waCcsICc3LjAnLCAnLXRuJywgJzgnLCAnLW1hJywgJzIwMCcsICctbWV0YWxfYmluZGluZycsICctaW1hZScsICc8aW5maWxlLm1hZT4nLCAnLW9tYWUnLCAnPG91dGZpbGUubWFlPic=

> <r_lp_tautomer_probability>
1

> <r_epik_Ionization_Penalty>
0.0963547

> <r_epik_Ionization_Penalty_Charging>
0

> <r_epik_Ionization_Penalty_Neutral>
0.0963547

> <r_epik_State_Penalty>
0.0859578

> <r_epik_Charging_Adjusted_Penalty>
0.0859578

> <i_epik_Tot_Q>
0

> <i_epik_Tot_abs_Q>
0

> <r_epik_Metal_State_Penalty>
0.0738802

> <b_epik_Metal_Only>
0

> <s_lp_Force_Field>
OPLS_2005

> <r_lp_Energy>
50.6255

> <b_lp_Chiralities_Consistent>
1

> <s_lp_Variant>
AV-unprocessed.smi:1935-1

> <Gold.Version>
5.8.1

> <Gold.Id.Protein>
6NUR|6NUR_protein|mol2

> <Gold.PLP.Fitness>
50.0745

> <Gold.PLP.PLP>
-42.1679

> <Gold.PLP.part.hbond>
-4.6124

> <Gold.PLP.part.metal>
0.0000

> <Gold.PLP.part.buried>
-2.8842

> <Gold.PLP.part.nonpolar>
-34.4048

> <Gold.PLP.part.repulsive>
0.5079

> <Gold.PLP.ligand.clash>
0.0000

> <Gold.PLP.ligand.torsion>
0.6397

> <Gold.PLP.Chemscore.Hbond>
2.9489

> <Gold.PLP.Chemscore.CHOScore>
0.0000

> <Gold.PLP.Chemscore.Metal>
0.0000

> <Gold.Chemscore.Hbonds>
donor molecule, donor type, donor heavy atom, donor atom, acceptor molecule, acceptor atom, score
      L1  H     3    26       P1  7948  0.96
      L1  H    14    41       P1  7948  0.91
      P1  H  7997  8008       L1    13  1.00

> <Gold.PLP.Chemscore.Internal.Correction>
0.3393

> <Gold.Rescore>
     Score         DG    S(hbond)    S(metal)    S(lipo)     H(rot)  DE(clash)    DE(int)     intcor
     15.29     -17.41       2.16        0.00      75.89       1.63       0.06       2.06       ----

> <Gold.Chemscore.Fitness>
15.2853

> <Gold.Chemscore.DG>
-17.4050

> <Gold.Chemscore.ZeroCoef>
-5.4800

> <Gold.Chemscore.Hbond>
2.1585

> <Gold.Chemscore.Metal>
0.0000

> <Gold.Chemscore.Lipo>
75.8861

> <Gold.Chemscore.Internal_Hbond>
0.0000

> <Gold.Chemscore.DEClash>
0.0634

> <Gold.Chemscore.DEInternal>
2.0563

> <Gold.Chemscore.Rot>
1.6262

> <Gold.Chemscore.Internal.Correction>
   9.000000E+99

> <Gold.Chemscore.Hbonds>
donor molecule, donor type, donor heavy atom, donor atom, acceptor molecule, acceptor atom, score
      L1  H     3    26       P1  7948  0.50
      L1  H    14    41       P1  7948  0.23
      P1  H  7997  8008       L1    13  0.99

> <Gold.Chemscore.Hbond.Weighted>
-7.2095

> <Gold.Chemscore.Metal.Weighted>
-0.0000

> <Gold.Chemscore.Lipo.Weighted>
-8.8787

> <Gold.Chemscore.Internal_Hbond.Weighted>
0.0000

> <Gold.Chemscore.DEClash.Weighted>
0.0634

> <Gold.Chemscore.DEInternal.Weighted>
2.0563

> <Gold.Chemscore.Rot.Weighted>
4.1632

> <Gold.Chemscore.Internal.Correction.Weighted>
   9.000000E+99

> <Gold.Protein.RotatedTorsions>
[ 6907 6896 6895 6894 ] final  -71.76 input  -60.11 | X-H torsion
[ 7974 7965 7964 7962 ] final   22.01 input  175.53 | X-H torsion
[ 8008 7997 7996 7995 ] final  -61.00 input   59.86 | X-H torsion
[ 10167 10162 10161 10158 ] final  -16.06 input  -65.29 | X-H torsion
[ 10718 10713 10712 10709 ] final   58.84 input   66.30 | X-H torsion
[ 10763 10752 10751 10750 ] final  -39.37 input  -60.55 | X-H torsion
[ 11005 11000 10999 10996 ] final  -76.38 input  -57.11 | X-H torsion

> <Gold.Protein.ActiveResidues>
 VAL166  LYS551  ARG553  GLY616  TRP617  ASP618  TYR619  PRO620  LYS621  CYS622 
 ASP623  PHE694  ASN695  SER759  ASP760  ASP761  ALA762  ILE779  LEU786  VAL792 
 PHE793  MET794  SER795  GLU796  ALA797  LYS798  CYS799  TRP800  GLU811  SER814 

> <Gold.Protein.RotatedAtoms>
  150.7198  134.5261  159.5677 H   0  0  0  0  0  0  0  0  0  0  0  0  # atno 6907 bound_to 6896
  152.2805  134.7831  160.0406 H   0  0  0  0  0  0  0  0  0  0  0  0  # atno 6908 bound_to 6896
  151.8479  133.3399  159.3700 H   0  0  0  0  0  0  0  0  0  0  0  0  # atno 6909 bound_to 6896
  146.2047  139.7946  142.8735 H   0  0  0  0  0  0  0  0  0  0  0  0  # atno 7974 bound_to 7965
  154.4426  140.1027  156.6362 H   0  0  0  0  0  0  0  0  0  0  0  0  # atno 8008 bound_to 7997
  155.5552  140.3486  155.4459 H   0  0  0  0  0  0  0  0  0  0  0  0  # atno 8009 bound_to 7997
  156.0500  140.1302  157.0050 H   0  0  0  0  0  0  0  0  0  0  0  0  # atno 8010 bound_to 7997
  140.7228  143.5154  150.9698 H   0  0  0  0  0  0  0  0  0  0  0  0  # atno 10167 bound_to 10162
  157.5629  130.8849  149.9140 H   0  0  0  0  0  0  0  0  0  0  0  0  # atno 10718 bound_to 10713
  153.9282  135.6775  153.4746 H   0  0  0  0  0  0  0  0  0  0  0  0  # atno 10763 bound_to 10752
  153.0993  135.4836  154.8835 H   0  0  0  0  0  0  0  0  0  0  0  0  # atno 10764 bound_to 10752
  154.7442  135.3168  154.8631 H   0  0  0  0  0  0  0  0  0  0  0  0  # atno 10765 bound_to 10752
  141.1653  133.6981  156.7659 H   0  0  0  0  0  0  0  0  0  0  0  0  # atno 11005 bound_to 11000
  145.3360  141.0277  143.3419 LP  0  0  0  0  0  0  0  0  0  0  0  0  # atno 17320 bound_to 7965
  144.8765  139.4964  143.6743 LP  0  0  0  0  0  0  0  0  0  0  0  0  # atno 17321 bound_to 7965
  139.8870  143.7001  152.3150 LP  0  0  0  0  0  0  0  0  0  0  0  0  # atno 17342 bound_to 10162
  139.7303  144.7584  151.0812 LP  0  0  0  0  0  0  0  0  0  0  0  0  # atno 17343 bound_to 10162
  156.0679  130.3689  150.0838 LP  0  0  0  0  0  0  0  0  0  0  0  0  # atno 17370 bound_to 10713
  156.9000  130.9617  151.3577 LP  0  0  0  0  0  0  0  0  0  0  0  0  # atno 17371 bound_to 10713
  140.2499  134.8548  157.3657 LP  0  0  0  0  0  0  0  0  0  0  0  0  # atno 17394 bound_to 11000
  140.1712  134.4606  155.7830 LP  0  0  0  0  0  0  0  0  0  0  0  0  # atno 17395 bound_to 11000

$$$$
