AV-unprocessed.smi:3249|AV-procd|sdf|12423|dock8
  -GOLD-   2272018313D 1   1.00000     0.00000
 Structure written by MMmdl.
 44 45  0  0  0  0  0  0  0  0  2 V2000
  152.0139  145.0147  158.5311 C   0  0  0  0  0  0  0  0  0  0  0  0
  151.7137  143.5591  158.3177 C   0  0  0  0  0  0  0  0  0  0  0  0
  151.9104  142.4826  159.2280 C   0  0  0  0  0  0  0  0  0  0  0  0
  151.5301  141.3161  158.7332 N   0  0  0  0  0  0  0  0  0  0  0  0
  151.0948  141.5993  157.4865 N   0  0  0  0  0  0  0  0  0  0  0  0
  150.5607  140.5306  156.6490 C   0  0  2  0  0  0  0  0  0  0  0  0
  151.6520  139.4737  156.3944 C   0  0  0  0  0  0  0  0  0  0  0  0
  149.9437  141.1109  155.3496 C   0  0  1  0  0  0  0  0  0  0  0  0
  149.7381  140.0412  154.2605 C   0  0  0  0  0  0  0  0  0  0  0  0
  148.6516  141.7677  155.6592 N   0  3  0  0  0  0  0  0  0  0  0  0
  147.7054  141.8740  154.5293 C   0  0  0  0  0  0  0  0  0  0  0  0
  146.5509  142.8246  154.8735 C   0  0  1  0  0  0  0  0  0  0  0  0
  145.8616  143.3741  153.6095 C   0  0  0  0  0  0  0  0  0  0  0  0
  144.6602  144.2479  153.9877 C   0  0  0  0  0  0  0  0  0  0  0  0
  143.7285  143.4690  154.9219 C   0  0  0  0  0  0  0  0  0  0  0  0
  144.5171  142.9028  156.1133 C   0  0  0  0  0  0  0  0  0  0  0  0
  145.5953  142.0984  155.6439 O   0  0  0  0  0  0  0  0  0  0  0  0
  151.1863  142.9500  157.2147 C   0  0  0  0  0  0  0  0  0  0  0  0
  152.5811  145.1818  159.4470 H   0  0  0  0  0  0  0  0  0  0  0  0
  151.1013  145.6062  158.6061 H   0  0  0  0  0  0  0  0  0  0  0  0
  152.6005  145.4291  157.7111 H   0  0  0  0  0  0  0  0  0  0  0  0
  152.3097  142.5152  160.2311 H   0  0  0  0  0  0  0  0  0  0  0  0
  149.7651  140.0386  157.2124 H   0  0  0  0  0  0  0  0  0  0  0  0
  151.2443  138.5784  155.9260 H   0  0  0  0  0  0  0  0  0  0  0  0
  152.1138  139.1577  157.3305 H   0  0  0  0  0  0  0  0  0  0  0  0
  152.4413  139.8589  155.7484 H   0  0  0  0  0  0  0  0  0  0  0  0
  150.6281  141.8693  154.9653 H   0  0  0  0  0  0  0  0  0  0  0  0
  150.6835  139.6018  153.9443 H   0  0  0  0  0  0  0  0  0  0  0  0
  149.2781  140.4609  153.3662 H   0  0  0  0  0  0  0  0  0  0  0  0
  149.0966  139.2336  154.6145 H   0  0  0  0  0  0  0  0  0  0  0  0
  148.2076  141.2807  156.4250 H   0  0  0  0  0  0  0  0  0  0  0  0
  148.2428  142.2554  153.6600 H   0  0  0  0  0  0  0  0  0  0  0  0
  147.3182  140.8903  154.2628 H   0  0  0  0  0  0  0  0  0  0  0  0
  146.9388  143.6566  155.4645 H   0  0  0  0  0  0  0  0  0  0  0  0
  146.5678  143.9520  153.0123 H   0  0  0  0  0  0  0  0  0  0  0  0
  145.5272  142.5460  152.9828 H   0  0  0  0  0  0  0  0  0  0  0  0
  145.0068  145.1543  154.4858 H   0  0  0  0  0  0  0  0  0  0  0  0
  144.1237  144.5666  153.0936 H   0  0  0  0  0  0  0  0  0  0  0  0
  142.9213  144.1123  155.2735 H   0  0  0  0  0  0  0  0  0  0  0  0
  143.2604  142.6503  154.3739 H   0  0  0  0  0  0  0  0  0  0  0  0
  144.8971  143.7062  156.7463 H   0  0  0  0  0  0  0  0  0  0  0  0
  143.8654  142.2893  156.7354 H   0  0  0  0  0  0  0  0  0  0  0  0
  150.8683  143.3643  156.2692 H   0  0  0  0  0  0  0  0  0  0  0  0
  148.8594  142.7092  155.9622 H   0  0  0  0  0  0  0  0  0  0  0  0
  1  2  1  0  0  0  0
  1 19  1  0  0  0  0
  1 20  1  0  0  0  0
  1 21  1  0  0  0  0
  2 18  2  0  0  0  0
  2  3  1  0  0  0  0
  3  4  2  0  0  0  0
  3 22  1  0  0  0  0
  4  5  1  0  0  0  0
  5  6  1  0  0  0  0
  5 18  1  0  0  0  0
  6  7  1  0  0  0  0
  6  8  1  0  0  0  0
  6 23  1  0  0  0  0
  7 24  1  0  0  0  0
  7 25  1  0  0  0  0
  7 26  1  0  0  0  0
  8  9  1  0  0  0  0
  8 10  1  0  0  0  0
  8 27  1  0  0  0  0
  9 28  1  0  0  0  0
  9 29  1  0  0  0  0
  9 30  1  0  0  0  0
 10 11  1  0  0  0  0
 10 31  1  0  0  0  0
 10 44  1  0  0  0  0
 11 12  1  0  0  0  0
 11 32  1  0  0  0  0
 11 33  1  0  0  0  0
 12 17  1  0  0  0  0
 12 13  1  0  0  0  0
 12 34  1  0  0  0  0
 13 14  1  0  0  0  0
 13 35  1  0  0  0  0
 13 36  1  0  0  0  0
 14 15  1  0  0  0  0
 14 37  1  0  0  0  0
 14 38  1  0  0  0  0
 15 16  1  0  0  0  0
 15 39  1  0  0  0  0
 15 40  1  0  0  0  0
 16 17  1  0  0  0  0
 16 41  1  0  0  0  0
 16 42  1  0  0  0  0
 18 43  1  0  0  0  0
M  CHG  1  10   1
M  END
> <s_m_source_file>
AV-unprocessed.smi

> <i_m_source_file_index>
3249

> <i_lp_mmshare_version>
43012

> <i_f3d_flags>
0

> <s_epik_input>
W0NIM11jMVtjSF1ubihbY0hdMSlbQ0BIXShbQ0gzXSlbQ0BIXShbQ0gzXSlbTkhdW0NIMl1bQ0BASF0yW0NIMl1bQ0gyXVtDSDJdW0NIMl1PMg==

> <s_epik_cmdline>
J2VwaWtfcHl0aG9uJywgJy1waCcsICc3LjAnLCAnLXRuJywgJzgnLCAnLW1hJywgJzIwMCcsICctbWV0YWxfYmluZGluZycsICctaW1hZScsICc8aW5maWxlLm1hZT4nLCAnLW9tYWUnLCAnPG91dGZpbGUubWFlPic=

> <r_lp_tautomer_probability>
1

> <r_epik_Ionization_Penalty>
0.00659207

> <r_epik_Ionization_Penalty_Charging>
0.00656881

> <r_epik_Ionization_Penalty_Neutral>
2.32662e-05

> <r_epik_State_Penalty>
0.0048654

> <r_epik_Charging_Adjusted_Penalty>
0.0114342

> <i_epik_Tot_Q>
1

> <i_epik_Tot_abs_Q>
1

> <r_epik_Metal_State_Penalty>
-0

> <b_epik_Metal_Only>
0

> <s_lp_Force_Field>
OPLS_2005

> <r_lp_Energy>
17.4327

> <b_lp_Chiralities_Consistent>
1

> <s_lp_Variant>
AV-unprocessed.smi:3249-7

> <Gold.Version>
5.8.1

> <Gold.Id.Protein>
6NUR|6NUR_protein|mol2

> <Gold.PLP.Fitness>
44.4369

> <Gold.PLP.PLP>
-37.0943

> <Gold.PLP.part.hbond>
-1.0000

> <Gold.PLP.part.metal>
0.0000

> <Gold.PLP.part.buried>
-2.6633

> <Gold.PLP.part.nonpolar>
-33.4088

> <Gold.PLP.part.repulsive>
0.1972

> <Gold.PLP.ligand.clash>
0.0000

> <Gold.PLP.ligand.torsion>
0.8833

> <Gold.PLP.Chemscore.Hbond>
2.0000

> <Gold.PLP.Chemscore.CHOScore>
1.0000

> <Gold.PLP.Chemscore.Metal>
0.0000

> <Gold.Chemscore.Hbonds>
donor molecule, donor type, donor heavy atom, donor atom, acceptor molecule, acceptor atom, score
      L1  H    10    44       P1  8028  2.00
      L1  C    18    43       P1  8028  1.00

> <Gold.PLP.Chemscore.Internal.Correction>
0.1091

> <Gold.Rescore>
     Score         DG    S(hbond)    S(metal)    S(lipo)     H(rot)  DE(clash)    DE(int)     intcor
     16.01     -17.05       0.97        0.00     104.73       1.53       0.24       0.80       ----

> <Gold.Chemscore.Fitness>
16.0080

> <Gold.Chemscore.DG>
-17.0464

> <Gold.Chemscore.ZeroCoef>
-5.4800

> <Gold.Chemscore.Hbond>
0.9694

> <Gold.Chemscore.Metal>
0.0000

> <Gold.Chemscore.Lipo>
104.7336

> <Gold.Chemscore.Internal_Hbond>
0.0000

> <Gold.Chemscore.DEClash>
0.2424

> <Gold.Chemscore.DEInternal>
0.7959

> <Gold.Chemscore.Rot>
1.5333

> <Gold.Chemscore.Internal.Correction>
   9.000000E+99

> <Gold.Chemscore.Hbonds>
donor molecule, donor type, donor heavy atom, donor atom, acceptor molecule, acceptor atom, score
      L1  H    10    44       P1  8028  0.89

> <Gold.Chemscore.Hbond.Weighted>
-3.2377

> <Gold.Chemscore.Metal.Weighted>
-0.0000

> <Gold.Chemscore.Lipo.Weighted>
-12.2538

> <Gold.Chemscore.Internal_Hbond.Weighted>
0.0000

> <Gold.Chemscore.DEClash.Weighted>
0.2424

> <Gold.Chemscore.DEInternal.Weighted>
0.7959

> <Gold.Chemscore.Rot.Weighted>
3.9252

> <Gold.Chemscore.Internal.Correction.Weighted>
   9.000000E+99

> <Gold.Protein.RotatedTorsions>
[ 6907 6896 6895 6894 ] final    9.54 input  -60.11 | X-H torsion
[ 7974 7965 7964 7962 ] final  -73.06 input  175.53 | X-H torsion
[ 8008 7997 7996 7995 ] final  162.18 input   59.86 | X-H torsion
[ 10167 10162 10161 10158 ] final -135.59 input  -65.29 | X-H torsion
[ 10718 10713 10712 10709 ] final  -16.65 input   66.30 | X-H torsion
[ 10763 10752 10751 10750 ] final -139.20 input  -60.55 | X-H torsion
[ 11005 11000 10999 10996 ] final -159.15 input  -57.11 | X-H torsion

> <Gold.Protein.ActiveResidues>
 VAL166  LYS551  ARG553  GLY616  TRP617  ASP618  TYR619  PRO620  LYS621  CYS622 
 ASP623  PHE694  ASN695  SER759  ASP760  ASP761  ALA762  ILE779  LEU786  VAL792 
 PHE793  MET794  SER795  GLU796  ALA797  LYS798  CYS799  TRP800  GLU811  SER814 

> <Gold.Protein.RotatedAtoms>
  151.7238  135.0889  160.0288 H   0  0  0  0  0  0  0  0  0  0  0  0  # atno 6907 bound_to 6896
  152.3585  133.6263  159.6005 H   0  0  0  0  0  0  0  0  0  0  0  0  # atno 6908 bound_to 6896
  150.7588  133.9378  159.3488 H   0  0  0  0  0  0  0  0  0  0  0  0  # atno 6909 bound_to 6896
  145.6570  140.9264  143.0954 H   0  0  0  0  0  0  0  0  0  0  0  0  # atno 7974 bound_to 7965
  156.2050  140.1757  156.7820 H   0  0  0  0  0  0  0  0  0  0  0  0  # atno 8008 bound_to 7997
  154.5642  140.0694  156.8896 H   0  0  0  0  0  0  0  0  0  0  0  0  # atno 8009 bound_to 7997
  155.2791  140.3348  155.4262 H   0  0  0  0  0  0  0  0  0  0  0  0  # atno 8010 bound_to 7997
  139.8763  143.6894  152.2633 H   0  0  0  0  0  0  0  0  0  0  0  0  # atno 10167 bound_to 10162
  156.5846  130.4783  149.6305 H   0  0  0  0  0  0  0  0  0  0  0  0  # atno 10718 bound_to 10713
  154.8616  135.3589  154.5508 H   0  0  0  0  0  0  0  0  0  0  0  0  # atno 10763 bound_to 10752
  153.6126  135.7009  153.5346 H   0  0  0  0  0  0  0  0  0  0  0  0  # atno 10764 bound_to 10752
  153.3196  135.4155  155.1366 H   0  0  0  0  0  0  0  0  0  0  0  0  # atno 10765 bound_to 10752
  140.6457  134.4504  157.5234 H   0  0  0  0  0  0  0  0  0  0  0  0  # atno 11005 bound_to 11000
  144.7102  139.8400  143.7417 LP  0  0  0  0  0  0  0  0  0  0  0  0  # atno 17320 bound_to 7965
  146.1156  139.4167  143.0260 LP  0  0  0  0  0  0  0  0  0  0  0  0  # atno 17321 bound_to 7965
  139.7237  144.7597  151.0914 LP  0  0  0  0  0  0  0  0  0  0  0  0  # atno 17342 bound_to 10162
  140.7752  143.5175  150.9577 LP  0  0  0  0  0  0  0  0  0  0  0  0  # atno 17343 bound_to 10162
  156.2602  130.6958  151.1724 LP  0  0  0  0  0  0  0  0  0  0  0  0  # atno 17370 bound_to 10713
  157.7318  131.0605  150.5658 LP  0  0  0  0  0  0  0  0  0  0  0  0  # atno 17371 bound_to 10713
  139.9064  134.8440  156.1691 LP  0  0  0  0  0  0  0  0  0  0  0  0  # atno 17394 bound_to 11000
  141.0574  133.6858  156.1886 LP  0  0  0  0  0  0  0  0  0  0  0  0  # atno 17395 bound_to 11000

$$$$
