AV-unprocessed.smi:1046|AV-procd|sdf|4551|dock6
  -GOLD-   22720 2583D 1   1.00000     0.00000
 Structure written by MMmdl.
 53 55  0  0  0  0  0  0  0  0  2 V2000
  153.4039  142.8672  161.0798 C   0  0  0  0  0  0  0  0  0  0  0  0
  152.6836  142.5434  159.7827 C   0  0  0  0  0  0  0  0  0  0  0  0
  152.9175  141.2963  159.1601 C   0  0  0  0  0  0  0  0  0  0  0  0
  152.2676  140.9562  157.9534 C   0  0  0  0  0  0  0  0  0  0  0  0
  152.3453  139.8088  157.1824 N   0  0  0  0  0  0  0  0  0  0  0  0
  151.5090  140.0965  156.1889 C   0  0  0  0  0  0  0  0  0  0  0  0
  150.8981  141.2965  156.2254 N   0  0  0  0  0  0  0  0  0  0  0  0
  149.9500  141.8311  155.2647 C   0  0  0  0  0  0  0  0  0  0  0  0
  148.5035  141.8119  155.7938 C   0  0  1  0  0  0  0  0  0  0  0  0
  147.7513  142.8051  155.1243 O   0  0  0  0  0  0  0  0  0  0  0  0
  147.8377  140.4398  155.5659 C   0  0  0  0  0  0  0  0  0  0  0  0
  148.1531  139.7816  154.2915 N   0  0  0  0  0  0  0  0  0  0  0  0
  149.0927  138.6716  154.4481 C   0  0  0  0  0  0  0  0  0  0  0  0
  148.4674  137.4349  155.1266 C   0  0  0  0  0  0  0  0  0  0  0  0
  147.2739  136.9742  154.3709 N   0  3  0  0  0  0  0  0  0  0  0  0
  146.6775  135.7437  154.9496 C   0  0  0  0  0  0  0  0  0  0  0  0
  145.6172  135.1103  154.0326 C   0  0  0  0  0  0  0  0  0  0  0  0
  146.2314  134.5830  152.8757 O   0  0  0  0  0  0  0  0  0  0  0  0
  146.3008  138.0853  154.1949 C   0  0  0  0  0  0  0  0  0  0  0  0
  146.9905  139.2991  153.5409 C   0  0  0  0  0  0  0  0  0  0  0  0
  151.3702  141.9053  157.3828 C   0  0  0  0  0  0  0  0  0  0  0  0
  151.1295  143.1494  157.9921 C   0  0  0  0  0  0  0  0  0  0  0  0
  151.7877  143.4736  159.1969 C   0  0  0  0  0  0  0  0  0  0  0  0
  151.5228  144.8199  159.8468 C   0  0  0  0  0  0  0  0  0  0  0  0
  154.0439  142.0434  161.3962 H   0  0  0  0  0  0  0  0  0  0  0  0
  152.6868  143.0585  161.8783 H   0  0  0  0  0  0  0  0  0  0  0  0
  154.0314  143.7501  160.9580 H   0  0  0  0  0  0  0  0  0  0  0  0
  153.6003  140.5879  159.6056 H   0  0  0  0  0  0  0  0  0  0  0  0
  151.3312  139.3949  155.3871 H   0  0  0  0  0  0  0  0  0  0  0  0
  150.2507  142.8462  155.0002 H   0  0  0  0  0  0  0  0  0  0  0  0
  150.0248  141.2366  154.3533 H   0  0  0  0  0  0  0  0  0  0  0  0
  148.5266  142.0560  156.8549 H   0  0  0  0  0  0  0  0  0  0  0  0
  148.2882  143.5764  155.0268 H   0  0  0  0  0  0  0  0  0  0  0  0
  148.1331  139.7837  156.3860 H   0  0  0  0  0  0  0  0  0  0  0  0
  146.7590  140.5563  155.6637 H   0  0  0  0  0  0  0  0  0  0  0  0
  149.4680  138.3827  153.4652 H   0  0  0  0  0  0  0  0  0  0  0  0
  149.9661  139.0019  155.0117 H   0  0  0  0  0  0  0  0  0  0  0  0
  149.2076  136.6346  155.1615 H   0  0  0  0  0  0  0  0  0  0  0  0
  148.1931  137.6529  156.1596 H   0  0  0  0  0  0  0  0  0  0  0  0
  147.4608  135.0058  155.1302 H   0  0  0  0  0  0  0  0  0  0  0  0
  146.2459  135.9740  155.9249 H   0  0  0  0  0  0  0  0  0  0  0  0
  145.1199  134.2932  154.5557 H   0  0  0  0  0  0  0  0  0  0  0  0
  144.8400  135.8188  153.7483 H   0  0  0  0  0  0  0  0  0  0  0  0
  146.7230  135.2720  152.4535 H   0  0  0  0  0  0  0  0  0  0  0  0
  145.4775  137.7662  153.5570 H   0  0  0  0  0  0  0  0  0  0  0  0
  145.8621  138.3574  155.1556 H   0  0  0  0  0  0  0  0  0  0  0  0
  146.2696  140.1001  153.3858 H   0  0  0  0  0  0  0  0  0  0  0  0
  147.3158  139.0135  152.5393 H   0  0  0  0  0  0  0  0  0  0  0  0
  150.4445  143.8477  157.5348 H   0  0  0  0  0  0  0  0  0  0  0  0
  150.8236  145.4149  159.2587 H   0  0  0  0  0  0  0  0  0  0  0  0
  152.4486  145.3879  159.9407 H   0  0  0  0  0  0  0  0  0  0  0  0
  151.0955  144.6867  160.8409 H   0  0  0  0  0  0  0  0  0  0  0  0
  147.6052  136.7239  153.4498 H   0  0  0  0  0  0  0  0  0  0  0  0
  1  2  1  0  0  0  0
  1 25  1  0  0  0  0
  1 26  1  0  0  0  0
  1 27  1  0  0  0  0
  2 23  1  0  0  0  0
  2  3  2  0  0  0  0
  3  4  1  0  0  0  0
  3 28  1  0  0  0  0
  4 21  2  0  0  0  0
  4  5  1  0  0  0  0
  5  6  2  0  0  0  0
  6  7  1  0  0  0  0
  6 29  1  0  0  0  0
  7  8  1  0  0  0  0
  7 21  1  0  0  0  0
  8  9  1  0  0  0  0
  8 30  1  0  0  0  0
  8 31  1  0  0  0  0
  9 10  1  0  0  0  0
  9 11  1  0  0  0  0
  9 32  1  0  0  0  0
 10 33  1  0  0  0  0
 11 12  1  0  0  0  0
 11 34  1  0  0  0  0
 11 35  1  0  0  0  0
 12 20  1  0  0  0  0
 12 13  1  0  0  0  0
 13 14  1  0  0  0  0
 13 36  1  0  0  0  0
 13 37  1  0  0  0  0
 14 15  1  0  0  0  0
 14 38  1  0  0  0  0
 14 39  1  0  0  0  0
 15 16  1  0  0  0  0
 15 19  1  0  0  0  0
 15 53  1  0  0  0  0
 16 17  1  0  0  0  0
 16 40  1  0  0  0  0
 16 41  1  0  0  0  0
 17 18  1  0  0  0  0
 17 42  1  0  0  0  0
 17 43  1  0  0  0  0
 18 44  1  0  0  0  0
 19 20  1  0  0  0  0
 19 45  1  0  0  0  0
 19 46  1  0  0  0  0
 20 47  1  0  0  0  0
 20 48  1  0  0  0  0
 21 22  1  0  0  0  0
 22 23  2  0  0  0  0
 22 49  1  0  0  0  0
 23 24  1  0  0  0  0
 24 50  1  0  0  0  0
 24 51  1  0  0  0  0
 24 52  1  0  0  0  0
M  CHG  1  15   1
M  END
> <s_m_source_file>
AV-unprocessed.smi

> <i_m_source_file_index>
1046

> <i_lp_mmshare_version>
43012

> <i_f3d_flags>
0

> <s_epik_input>
W0NIM11jKFtjSF0xKWMoW0NIM10pW2NIXWMoYzEyKW4oW2NIXW4yKVtDSDJdW0NASF0oW09IXSlbQ0gyXU4zW0NIMl1bQ0gyXU4oW0NIMl1bQ0gyXTMpW0NIMl1bQ0gyXVtPSF0=

> <s_epik_cmdline>
J2VwaWtfcHl0aG9uJywgJy1waCcsICc3LjAnLCAnLXRuJywgJzgnLCAnLW1hJywgJzIwMCcsICctbWV0YWxfYmluZGluZycsICctaW1hZScsICc8aW5maWxlLm1hZT4nLCAnLW9tYWUnLCAnPG91dGZpbGUubWFlPic=

> <r_epik_Ionization_Penalty>
0.218081

> <r_epik_Ionization_Penalty_Charging>
0.0909554

> <r_epik_Ionization_Penalty_Neutral>
0.127126

> <r_epik_State_Penalty>
0.825642

> <r_epik_Charging_Adjusted_Penalty>
0.916597

> <i_epik_Tot_Q>
1

> <i_epik_Tot_abs_Q>
1

> <r_epik_Metal_State_Penalty>
0.740189

> <b_epik_Metal_Only>
0

> <s_lp_Force_Field>
OPLS_2005

> <r_lp_Energy>
34.993

> <b_lp_Chiralities_Consistent>
1

> <s_lp_Variant>
AV-unprocessed.smi:1046-4

> <Gold.Version>
5.8.1

> <Gold.Id.Protein>
6NUR|6NUR_protein|mol2

> <Gold.PLP.Fitness>
53.3273

> <Gold.PLP.PLP>
-40.9229

> <Gold.PLP.part.hbond>
-4.0000

> <Gold.PLP.part.metal>
0.0000

> <Gold.PLP.part.buried>
-4.3228

> <Gold.PLP.part.nonpolar>
-31.8122

> <Gold.PLP.part.repulsive>
0.1417

> <Gold.PLP.ligand.clash>
0.0000

> <Gold.PLP.ligand.torsion>
1.3774

> <Gold.PLP.Chemscore.Hbond>
5.0000

> <Gold.PLP.Chemscore.CHOScore>
0.0000

> <Gold.PLP.Chemscore.Metal>
0.0000

> <Gold.Chemscore.Hbonds>
donor molecule, donor type, donor heavy atom, donor atom, acceptor molecule, acceptor atom, score
      L1  H    10    33       P1  8028  0.66
      L1  H    15    53       P1  7948  1.46
      P1  H  7997  8009       L1     5  0.38

> <Gold.PLP.Chemscore.Internal.Correction>
0.1592

> <Gold.Rescore>
     Score         DG    S(hbond)    S(metal)    S(lipo)     H(rot)  DE(clash)    DE(int)     intcor
     18.96     -20.68       3.02        0.00     113.98       3.21       0.17       1.56       ----

> <Gold.Chemscore.Fitness>
18.9577

> <Gold.Chemscore.DG>
-20.6847

> <Gold.Chemscore.ZeroCoef>
-5.4800

> <Gold.Chemscore.Hbond>
3.0165

> <Gold.Chemscore.Metal>
0.0000

> <Gold.Chemscore.Lipo>
113.9845

> <Gold.Chemscore.Internal_Hbond>
0.0000

> <Gold.Chemscore.DEClash>
0.1708

> <Gold.Chemscore.DEInternal>
1.5562

> <Gold.Chemscore.Rot>
3.2058

> <Gold.Chemscore.Internal.Correction>
   9.000000E+99

> <Gold.Chemscore.Hbonds>
donor molecule, donor type, donor heavy atom, donor atom, acceptor molecule, acceptor atom, score
      L1  H    10    33       P1  8028  0.60
      L1  H    15    53       P1  7948  0.72
      L1  H    18    44       P1  7948  0.02
      P1  H  7997  8009       L1     5  0.03

> <Gold.Chemscore.Hbond.Weighted>
-10.0752

> <Gold.Chemscore.Metal.Weighted>
-0.0000

> <Gold.Chemscore.Lipo.Weighted>
-13.3362

> <Gold.Chemscore.Internal_Hbond.Weighted>
0.0000

> <Gold.Chemscore.DEClash.Weighted>
0.1708

> <Gold.Chemscore.DEInternal.Weighted>
1.5562

> <Gold.Chemscore.Rot.Weighted>
8.2067

> <Gold.Chemscore.Internal.Correction.Weighted>
   9.000000E+99

> <Gold.Protein.RotatedTorsions>
[ 6907 6896 6895 6894 ] final  169.67 input  -60.11 | X-H torsion
[ 7974 7965 7964 7962 ] final -170.68 input  175.53 | X-H torsion
[ 8008 7997 7996 7995 ] final  163.33 input   59.86 | X-H torsion
[ 10167 10162 10161 10158 ] final   90.45 input  -65.29 | X-H torsion
[ 10718 10713 10712 10709 ] final   70.66 input   66.30 | X-H torsion
[ 10763 10752 10751 10750 ] final -170.17 input  -60.55 | X-H torsion
[ 11005 11000 10999 10996 ] final    1.53 input  -57.11 | X-H torsion

> <Gold.Protein.ActiveResidues>
 VAL166  LYS551  ARG553  GLY616  TRP617  ASP618  TYR619  PRO620  LYS621  CYS622 
 ASP623  PHE694  ASN695  SER759  ASP760  ASP761  ALA762  ILE779  LEU786  VAL792 
 PHE793  MET794  SER795  GLU796  ALA797  LYS798  CYS799  TRP800  GLU811  SER814 

> <Gold.Protein.RotatedAtoms>
  151.8283  133.3404  159.3605 H   0  0  0  0  0  0  0  0  0  0  0  0  # atno 6907 bound_to 6896
  150.7272  134.5507  159.5803 H   0  0  0  0  0  0  0  0  0  0  0  0  # atno 6908 bound_to 6896
  152.2955  134.7673  160.0420 H   0  0  0  0  0  0  0  0  0  0  0  0  # atno 6909 bound_to 6896
  144.7167  140.2035  143.6335 H   0  0  0  0  0  0  0  0  0  0  0  0  # atno 7974 bound_to 7965
  156.1965  140.1726  156.7987 H   0  0  0  0  0  0  0  0  0  0  0  0  # atno 8008 bound_to 7997
  154.5536  140.0713  156.8739 H   0  0  0  0  0  0  0  0  0  0  0  0  # atno 8009 bound_to 7997
  155.2980  140.3359  155.4251 H   0  0  0  0  0  0  0  0  0  0  0  0  # atno 8010 bound_to 7997
  139.8472  144.6612  150.9213 H   0  0  0  0  0  0  0  0  0  0  0  0  # atno 10167 bound_to 10162
  157.6412  130.9489  150.0682 H   0  0  0  0  0  0  0  0  0  0  0  0  # atno 10718 bound_to 10713
  154.6445  135.2903  155.0063 H   0  0  0  0  0  0  0  0  0  0  0  0  # atno 10763 bound_to 10752
  154.1178  135.6552  153.4901 H   0  0  0  0  0  0  0  0  0  0  0  0  # atno 10764 bound_to 10752
  153.0343  135.5280  154.7325 H   0  0  0  0  0  0  0  0  0  0  0  0  # atno 10765 bound_to 10752
  140.6144  133.9719  155.8193 H   0  0  0  0  0  0  0  0  0  0  0  0  # atno 11005 bound_to 11000
  145.8657  139.2246  143.1690 LP  0  0  0  0  0  0  0  0  0  0  0  0  # atno 17320 bound_to 7965
  146.0131  140.8417  142.9961 LP  0  0  0  0  0  0  0  0  0  0  0  0  # atno 17321 bound_to 7965
  140.7792  143.3860  151.1393 LP  0  0  0  0  0  0  0  0  0  0  0  0  # atno 17342 bound_to 10162
  139.7501  143.8792  152.3074 LP  0  0  0  0  0  0  0  0  0  0  0  0  # atno 17343 bound_to 10162
  156.1694  130.3646  149.9186 LP  0  0  0  0  0  0  0  0  0  0  0  0  # atno 17370 bound_to 10713
  156.7165  130.8990  151.3614 LP  0  0  0  0  0  0  0  0  0  0  0  0  # atno 17371 bound_to 10713
  141.0786  134.0097  157.3420 LP  0  0  0  0  0  0  0  0  0  0  0  0  # atno 17394 bound_to 11000
  139.9179  135.0198  156.7952 LP  0  0  0  0  0  0  0  0  0  0  0  0  # atno 17395 bound_to 11000

$$$$
