AV-unprocessed.smi:3195|AV-procd|sdf|12215|dock2
  -GOLD-   2272018 53D 1   1.00000     0.00000
 Structure written by MMmdl.
 30 31  0  0  0  0  0  0  0  0  3 V2000
  149.3062  140.3464  154.5629 C   0  0  0  0  0  0  0  0  0  0  0  0
  150.4230  139.5766  155.2888 C   0  0  1  0  0  0  0  0  0  0  0  0
  150.7906  140.2836  156.6108 C   0  0  0  0  0  0  0  0  0  0  0  0
  150.7618  139.6411  157.6621 O   0  0  0  0  0  0  0  0  0  0  0  0
  151.1189  141.5880  156.5315 N   0  0  0  0  0  0  0  0  0  0  0  0
  151.5051  142.4779  157.5720 C   0  0  0  0  0  0  0  0  0  0  0  0
  150.9765  143.7216  157.6917 N   0  3  0  0  0  0  0  0  0  0  0  0
  151.3203  144.5893  158.6677 C   0  0  0  0  0  0  0  0  0  0  0  0
  152.2768  144.2164  159.6309 C   0  0  0  0  0  0  0  0  0  0  0  0
  152.8590  142.9357  159.5538 C   0  0  0  0  0  0  0  0  0  0  0  0
  152.4720  142.0587  158.5181 C   0  0  0  0  0  0  0  0  0  0  0  0
  153.0367  140.8161  158.4448 O   0  5  0  0  0  0  0  0  0  0  0  0
  150.0514  138.0920  155.5153 C   0  0  0  0  0  0  0  0  0  0  0  0
  151.0141  137.3199  154.6309 C   0  0  0  0  0  0  0  0  0  0  0  0
  152.1927  138.2723  154.5149 C   0  0  0  0  0  0  0  0  0  0  0  0
  151.5591  139.5394  154.4183 O   0  0  0  0  0  0  0  0  0  0  0  0
  148.3880  140.3691  155.1511 H   0  0  0  0  0  0  0  0  0  0  0  0
  149.0717  139.8824  153.6044 H   0  0  0  0  0  0  0  0  0  0  0  0
  149.5997  141.3778  154.3635 H   0  0  0  0  0  0  0  0  0  0  0  0
  151.0987  141.9966  155.6075 H   0  0  0  0  0  0  0  0  0  0  0  0
  150.8221  145.5475  158.6480 H   0  0  0  0  0  0  0  0  0  0  0  0
  152.5600  144.9003  160.4171 H   0  0  0  0  0  0  0  0  0  0  0  0
  153.5948  142.6301  160.2832 H   0  0  0  0  0  0  0  0  0  0  0  0
  150.2804  144.0152  157.0055 H   0  0  0  0  0  0  0  0  0  0  0  0
  150.1959  137.7902  156.5543 H   0  0  0  0  0  0  0  0  0  0  0  0
  149.0139  137.8703  155.2618 H   0  0  0  0  0  0  0  0  0  0  0  0
  151.2896  136.3484  155.0420 H   0  0  0  0  0  0  0  0  0  0  0  0
  150.5700  137.1613  153.6473 H   0  0  0  0  0  0  0  0  0  0  0  0
  152.8159  138.2354  155.4099 H   0  0  0  0  0  0  0  0  0  0  0  0
  152.8195  138.0674  153.6469 H   0  0  0  0  0  0  0  0  0  0  0  0
  1  2  1  0  0  0  0
  1 17  1  0  0  0  0
  1 18  1  0  0  0  0
  1 19  1  0  0  0  0
  2 16  1  0  0  0  0
  2  3  1  0  0  0  0
  2 13  1  0  0  0  0
  3  4  2  0  0  0  0
  3  5  1  0  0  0  0
  5 20  1  0  0  0  0
  5  6  1  0  0  0  0
  6 11  2  0  0  0  0
  6  7  1  0  0  0  0
  7 24  1  0  0  0  0
  7  8  2  0  0  0  0
  8 21  1  0  0  0  0
  8  9  1  0  0  0  0
  9 22  1  0  0  0  0
  9 10  2  0  0  0  0
 10 11  1  0  0  0  0
 10 23  1  0  0  0  0
 11 12  1  0  0  0  0
 13 14  1  0  0  0  0
 13 25  1  0  0  0  0
 13 26  1  0  0  0  0
 14 15  1  0  0  0  0
 14 27  1  0  0  0  0
 14 28  1  0  0  0  0
 15 16  1  0  0  0  0
 15 29  1  0  0  0  0
 15 30  1  0  0  0  0
M  CHG  1   7   1
M  CHG  1  12  -1
M  END
> <s_m_source_file>
AV-unprocessed.smi

> <i_m_source_file_index>
3195

> <i_lp_mmshare_version>
43012

> <i_f3d_flags>
0

> <s_epik_input>
TzFbQ0gyXVtDSDJdW0NIMl1bQ0BAXTEoW0NIM10pQyg9TylbTkhdYzJuW2NIXVtjSF1bY0hdYzJbT0hd

> <s_epik_cmdline>
J2VwaWtfcHl0aG9uJywgJy1waCcsICc3LjAnLCAnLXRuJywgJzgnLCAnLW1hJywgJzIwMCcsICctbWV0YWxfYmluZGluZycsICctaW1hZScsICc8aW5maWxlLm1hZT4nLCAnLW9tYWUnLCAnPG91dGZpbGUubWFlPic=

> <r_lp_tautomer_probability>
0.56342

> <r_epik_Ionization_Penalty>
0.213843

> <r_epik_Ionization_Penalty_Charging>
0.0241245

> <r_epik_Ionization_Penalty_Neutral>
0.189718

> <r_epik_State_Penalty>
0.53074

> <r_epik_Charging_Adjusted_Penalty>
0.554865

> <i_epik_Tot_Q>
0

> <i_epik_Tot_abs_Q>
2

> <r_epik_Metal_State_Penalty>
2.53391

> <b_epik_Metal_Only>
0

> <s_lp_Force_Field>
OPLS_2005

> <r_lp_Energy>
20.8305

> <b_lp_Chiralities_Consistent>
1

> <s_lp_Variant>
AV-unprocessed.smi:3195-3

> <Gold.Version>
5.8.1

> <Gold.Id.Protein>
6NUR|6NUR_protein|mol2

> <Gold.PLP.Fitness>
41.4026

> <Gold.PLP.PLP>
-30.8186

> <Gold.PLP.part.hbond>
-2.9479

> <Gold.PLP.part.metal>
0.0000

> <Gold.PLP.part.buried>
-2.2930

> <Gold.PLP.part.nonpolar>
-25.2013

> <Gold.PLP.part.repulsive>
0.2190

> <Gold.PLP.ligand.clash>
0.0000

> <Gold.PLP.ligand.torsion>
0.4477

> <Gold.PLP.Chemscore.Hbond>
3.6552

> <Gold.PLP.Chemscore.CHOScore>
0.0000

> <Gold.PLP.Chemscore.Metal>
0.0000

> <Gold.Chemscore.Hbonds>
donor molecule, donor type, donor heavy atom, donor atom, acceptor molecule, acceptor atom, score
      L1  H     7    24       P1  8028  1.95
      P1  H  7989  7998       L1    16  1.00
      P1  H  7997  8008       L1    12  0.66

> <Gold.PLP.Chemscore.Internal.Correction>
0.5140

> <Gold.Rescore>
     Score         DG    S(hbond)    S(metal)    S(lipo)     H(rot)  DE(clash)    DE(int)     intcor
     16.22     -20.04       2.37        0.00      78.73       1.00       0.83       2.99       ----

> <Gold.Chemscore.Fitness>
16.2160

> <Gold.Chemscore.DG>
-20.0356

> <Gold.Chemscore.ZeroCoef>
-5.4800

> <Gold.Chemscore.Hbond>
2.3666

> <Gold.Chemscore.Metal>
0.0000

> <Gold.Chemscore.Lipo>
78.7280

> <Gold.Chemscore.Internal_Hbond>
0.0000

> <Gold.Chemscore.DEClash>
0.8279

> <Gold.Chemscore.DEInternal>
2.9917

> <Gold.Chemscore.Rot>
1.0000

> <Gold.Chemscore.Internal.Correction>
   9.000000E+99

> <Gold.Chemscore.Hbonds>
donor molecule, donor type, donor heavy atom, donor atom, acceptor molecule, acceptor atom, score
      L1  H     7    24       P1  8028  0.88
      P1  H  7989  7998       L1    16  0.81
      P1  H  7997  8008       L1    12  0.33

> <Gold.Chemscore.Hbond.Weighted>
-7.9044

> <Gold.Chemscore.Metal.Weighted>
-0.0000

> <Gold.Chemscore.Lipo.Weighted>
-9.2112

> <Gold.Chemscore.Internal_Hbond.Weighted>
0.0000

> <Gold.Chemscore.DEClash.Weighted>
0.8279

> <Gold.Chemscore.DEInternal.Weighted>
2.9917

> <Gold.Chemscore.Rot.Weighted>
2.5600

> <Gold.Chemscore.Internal.Correction.Weighted>
   9.000000E+99

> <Gold.Protein.RotatedTorsions>
[ 6907 6896 6895 6894 ] final  169.03 input  -60.11 | X-H torsion
[ 7974 7965 7964 7962 ] final  -51.56 input  175.53 | X-H torsion
[ 8008 7997 7996 7995 ] final  -82.48 input   59.86 | X-H torsion
[ 10167 10162 10161 10158 ] final  -89.95 input  -65.29 | X-H torsion
[ 10718 10713 10712 10709 ] final -108.27 input   66.30 | X-H torsion
[ 10763 10752 10751 10750 ] final  -89.04 input  -60.55 | X-H torsion
[ 11005 11000 10999 10996 ] final  130.17 input  -57.11 | X-H torsion

> <Gold.Protein.ActiveResidues>
 VAL166  LYS551  ARG553  GLY616  TRP617  ASP618  TYR619  PRO620  LYS621  CYS622 
 ASP623  PHE694  ASN695  SER759  ASP760  ASP761  ALA762  ILE779  LEU786  VAL792 
 PHE793  MET794  SER795  GLU796  ALA797  LYS798  CYS799  TRP800  GLU811  SER814 

> <Gold.Protein.RotatedAtoms>
  151.8383  133.3419  159.3634 H   0  0  0  0  0  0  0  0  0  0  0  0  # atno 6907 bound_to 6896
  150.7243  134.5416  159.5759 H   0  0  0  0  0  0  0  0  0  0  0  0  # atno 6908 bound_to 6896
  152.2884  134.7750  160.0434 H   0  0  0  0  0  0  0  0  0  0  0  0  # atno 6909 bound_to 6896
  145.9176  140.7862  142.9664 H   0  0  0  0  0  0  0  0  0  0  0  0  # atno 7974 bound_to 7965
  154.6090  140.0632  156.9469 H   0  0  0  0  0  0  0  0  0  0  0  0  # atno 8008 bound_to 7997
  155.2004  140.3314  155.4326 H   0  0  0  0  0  0  0  0  0  0  0  0  # atno 8009 bound_to 7997
  156.2365  140.1865  156.7088 H   0  0  0  0  0  0  0  0  0  0  0  0  # atno 8010 bound_to 7997
  140.3597  143.2848  151.9629 H   0  0  0  0  0  0  0  0  0  0  0  0  # atno 10167 bound_to 10162
  156.0477  130.5704  150.7938 H   0  0  0  0  0  0  0  0  0  0  0  0  # atno 10718 bound_to 10713
  154.6510  135.5355  153.7902 H   0  0  0  0  0  0  0  0  0  0  0  0  # atno 10763 bound_to 10752
  153.0386  135.6482  154.1017 H   0  0  0  0  0  0  0  0  0  0  0  0  # atno 10764 bound_to 10752
  154.0934  135.2938  155.3247 H   0  0  0  0  0  0  0  0  0  0  0  0  # atno 10765 bound_to 10752
  139.9657  134.9591  156.9255 H   0  0  0  0  0  0  0  0  0  0  0  0  # atno 11005 bound_to 11000
  144.6749  140.1924  143.7395 LP  0  0  0  0  0  0  0  0  0  0  0  0  # atno 17320 bound_to 7965
  145.8592  139.2214  143.1727 LP  0  0  0  0  0  0  0  0  0  0  0  0  # atno 17321 bound_to 7965
  139.4815  144.6003  151.7617 LP  0  0  0  0  0  0  0  0  0  0  0  0  # atno 17342 bound_to 10162
  140.5139  144.0983  150.6003 LP  0  0  0  0  0  0  0  0  0  0  0  0  # atno 17343 bound_to 10162
  157.5371  131.0939  150.9878 LP  0  0  0  0  0  0  0  0  0  0  0  0  # atno 17370 bound_to 10713
  157.0170  130.5659  149.5327 LP  0  0  0  0  0  0  0  0  0  0  0  0  # atno 17371 bound_to 10713
  140.5402  134.0727  155.7339 LP  0  0  0  0  0  0  0  0  0  0  0  0  # atno 17394 bound_to 11000
  141.1336  133.9259  157.2482 LP  0  0  0  0  0  0  0  0  0  0  0  0  # atno 17395 bound_to 11000

$$$$
