AV-unprocessed.smi:104|AV-procd|sdf|1000|dock6
  -GOLD-   2262017583D 1   1.00000     0.00000
 Structure written by MMmdl.
 47 49  0  0  0  0  0  0  0  0  1 V2000
  157.2171  139.5566  160.7519 C   0  0  0  0  0  0  0  0  0  0  0  0
  156.1956  138.9290  159.8121 C   0  0  0  0  0  0  0  0  0  0  0  0
  156.4705  138.6842  158.6374 O   0  0  0  0  0  0  0  0  0  0  0  0
  155.0212  138.6901  160.4140 O   0  0  0  0  0  0  0  0  0  0  0  0
  154.1216  137.7450  159.8569 C   0  0  0  0  0  0  0  0  0  0  0  0
  153.6980  138.1917  158.4442 C   0  0  1  0  0  0  0  0  0  0  0  0
  153.0364  137.1010  157.8197 O   0  0  0  0  0  0  0  0  0  0  0  0
  151.6780  137.1346  158.1349 C   0  0  2  0  0  0  0  0  0  0  0  0
  150.9152  136.7276  156.9111 N   0  0  0  0  0  0  0  0  0  0  0  0
  150.9205  137.2938  155.6569 C   0  0  0  0  0  0  0  0  0  0  0  0
  151.9908  138.8092  155.2272 Br  0  0  0  0  0  0  0  0  0  0  0  0
  150.1689  136.7371  154.7486 N   0  0  0  0  0  0  0  0  0  0  0  0
  149.5923  135.6768  155.4371 C   0  0  0  0  0  0  0  0  0  0  0  0
  148.6837  134.6490  155.0807 C   0  0  0  0  0  0  0  0  0  0  0  0
  148.1634  134.5270  153.8518 N   0  0  0  0  0  0  0  0  0  0  0  0
  148.3264  133.7452  156.0227 N   0  0  0  0  0  0  0  0  0  0  0  0
  148.8343  133.8421  157.2556 C   0  0  0  0  0  0  0  0  0  0  0  0
  149.6915  134.7459  157.7378 N   0  0  0  0  0  0  0  0  0  0  0  0
  150.0492  135.6590  156.7873 C   0  0  0  0  0  0  0  0  0  0  0  0
  151.3335  138.5655  158.6050 C   0  0  2  0  0  0  0  0  0  0  0  0
  150.2829  139.1500  157.8403 O   0  0  0  0  0  0  0  0  0  0  0  0
  149.0196  138.7199  157.9774 C   0  0  0  0  0  0  0  0  0  0  0  0
  148.0806  139.3575  156.9624 C   0  0  0  0  0  0  0  0  0  0  0  0
  148.6145  137.9094  158.8104 O   0  0  0  0  0  0  0  0  0  0  0  0
  152.6454  139.3079  158.3944 C   0  0  1  0  0  0  0  0  0  0  0  0
  152.8212  140.3000  159.3983 O   0  0  0  0  0  0  0  0  0  0  0  0
  151.9305  141.2979  159.5253 C   0  0  0  0  0  0  0  0  0  0  0  0
  152.4083  142.3823  160.4813 C   0  0  0  0  0  0  0  0  0  0  0  0
  150.8455  141.3795  158.9500 O   0  0  0  0  0  0  0  0  0  0  0  0
  156.8805  139.4985  161.7876 H   0  0  0  0  0  0  0  0  0  0  0  0
  157.3707  140.6047  160.4958 H   0  0  0  0  0  0  0  0  0  0  0  0
  158.1718  139.0368  160.6716 H   0  0  0  0  0  0  0  0  0  0  0  0
  154.6328  136.7831  159.8023 H   0  0  0  0  0  0  0  0  0  0  0  0
  153.2458  137.6100  160.4934 H   0  0  0  0  0  0  0  0  0  0  0  0
  154.5814  138.4547  157.8613 H   0  0  0  0  0  0  0  0  0  0  0  0
  151.4495  136.3782  158.8851 H   0  0  0  0  0  0  0  0  0  0  0  0
  148.4167  135.1870  153.1307 H   0  0  0  0  0  0  0  0  0  0  0  0
  147.5190  133.7766  153.6492 H   0  0  0  0  0  0  0  0  0  0  0  0
  148.5079  133.0874  157.9558 H   0  0  0  0  0  0  0  0  0  0  0  0
  151.0825  138.5058  159.6655 H   0  0  0  0  0  0  0  0  0  0  0  0
  148.4712  139.2312  155.9526 H   0  0  0  0  0  0  0  0  0  0  0  0
  147.9763  140.4240  157.1627 H   0  0  0  0  0  0  0  0  0  0  0  0
  147.0933  138.8979  157.0111 H   0  0  0  0  0  0  0  0  0  0  0  0
  152.6392  139.7494  157.3961 H   0  0  0  0  0  0  0  0  0  0  0  0
  152.4888  141.9849  161.4931 H   0  0  0  0  0  0  0  0  0  0  0  0
  151.7089  143.2185  160.4922 H   0  0  0  0  0  0  0  0  0  0  0  0
  153.3858  142.7546  160.1747 H   0  0  0  0  0  0  0  0  0  0  0  0
  1  2  1  0  0  0  0
  1 30  1  0  0  0  0
  1 31  1  0  0  0  0
  1 32  1  0  0  0  0
  2  3  2  0  0  0  0
  2  4  1  0  0  0  0
  4  5  1  0  0  0  0
  5  6  1  0  0  0  0
  5 33  1  0  0  0  0
  5 34  1  0  0  0  0
  6 25  1  0  0  0  0
  6  7  1  0  0  0  0
  6 35  1  0  0  0  0
  7  8  1  0  0  0  0
  8  9  1  0  0  0  0
  8 20  1  0  0  0  0
  8 36  1  0  0  0  0
  9 19  1  0  0  0  0
  9 10  1  0  0  0  0
 10 11  1  0  0  0  0
 10 12  2  0  0  0  0
 12 13  1  0  0  0  0
 13 19  2  0  0  0  0
 13 14  1  0  0  0  0
 14 15  1  0  0  0  0
 14 16  2  0  0  0  0
 15 37  1  0  0  0  0
 15 38  1  0  0  0  0
 16 17  1  0  0  0  0
 17 18  2  0  0  0  0
 17 39  1  0  0  0  0
 18 19  1  0  0  0  0
 20 21  1  0  0  0  0
 20 25  1  0  0  0  0
 20 40  1  0  0  0  0
 21 22  1  0  0  0  0
 22 23  1  0  0  0  0
 22 24  2  0  0  0  0
 23 41  1  0  0  0  0
 23 42  1  0  0  0  0
 23 43  1  0  0  0  0
 25 26  1  0  0  0  0
 25 44  1  0  0  0  0
 26 27  1  0  0  0  0
 27 28  1  0  0  0  0
 27 29  2  0  0  0  0
 28 45  1  0  0  0  0
 28 46  1  0  0  0  0
 28 47  1  0  0  0  0
M  END
> <s_m_source_file>
AV-unprocessed.smi

> <i_m_source_file_index>
104

> <i_lp_mmshare_version>
43012

> <i_f3d_flags>
0

> <s_epik_input>
W0NIM11DKD1PKU9bQ0gyXVtDQEBIXTFPW0NASF0oW0NAQEhdKE9DKD1PKVtDSDNdKVtDQEhdMU9DKD1PKVtDSDNdKW4oYyhCciluMiljKGMyMyluW2NIXW5jM1tOSDJd

> <s_epik_cmdline>
J2VwaWtfcHl0aG9uJywgJy1waCcsICc3LjAnLCAnLXRuJywgJzgnLCAnLW1hJywgJzIwMCcsICctbWV0YWxfYmluZGluZycsICctaW1hZScsICc8aW5maWxlLm1hZT4nLCAnLW9tYWUnLCAnPG91dGZpbGUubWFlPic=

> <r_lp_tautomer_probability>
1

> <r_epik_Ionization_Penalty>
7.36622e-05

> <r_epik_Ionization_Penalty_Charging>
0

> <r_epik_Ionization_Penalty_Neutral>
7.36622e-05

> <r_epik_State_Penalty>
-0

> <r_epik_Charging_Adjusted_Penalty>
0

> <i_epik_Tot_Q>
0

> <i_epik_Tot_abs_Q>
0

> <r_epik_Metal_State_Penalty>
-0

> <b_epik_Metal_Only>
0

> <s_epik_Chemistry_Notes>
This compound has an ester and may undergo hydrolysis at high or low pH. This compound contains an acetal/aminal-like group ( X-CH(R)-Y where X, Y are N, S, or O) that may be acid/base labile, releasing an aldehyde.

> <s_lp_Force_Field>
OPLS_2005

> <r_lp_Energy>
18.9649

> <b_lp_Chiralities_Consistent>
1

> <s_lp_Variant>
AV-unprocessed.smi:104-8

> <Gold.Version>
5.8.1

> <Gold.Id.Protein>
6NUR|6NUR_protein|mol2

> <Gold.PLP.Fitness>
37.0889

> <Gold.PLP.PLP>
-29.1165

> <Gold.PLP.part.hbond>
-3.9237

> <Gold.PLP.part.metal>
0.0000

> <Gold.PLP.part.buried>
-6.3264

> <Gold.PLP.part.nonpolar>
-18.9280

> <Gold.PLP.part.repulsive>
0.2450

> <Gold.PLP.ligand.clash>
0.0000

> <Gold.PLP.ligand.torsion>
0.5755

> <Gold.PLP.Chemscore.Hbond>
2.9920

> <Gold.PLP.Chemscore.CHOScore>
0.0000

> <Gold.PLP.Chemscore.Metal>
0.0000

> <Gold.Chemscore.Hbonds>
donor molecule, donor type, donor heavy atom, donor atom, acceptor molecule, acceptor atom, score
      L1  H    15    37       P1  7948  1.00
      P1  H  6896  6908       L1    18  1.00
      P1  H  7997  8009       L1     3  0.80

> <Gold.PLP.Chemscore.Internal.Correction>
0.1475

> <Gold.Rescore>
     Score         DG    S(hbond)    S(metal)    S(lipo)     H(rot)  DE(clash)    DE(int)     intcor
      1.73      -9.49       2.90        0.00      45.62       4.31       0.06       7.70       ----

> <Gold.Chemscore.Fitness>
1.7322

> <Gold.Chemscore.DG>
-9.4920

> <Gold.Chemscore.ZeroCoef>
-5.4800

> <Gold.Chemscore.Hbond>
2.9043

> <Gold.Chemscore.Metal>
0.0000

> <Gold.Chemscore.Lipo>
45.6209

> <Gold.Chemscore.Internal_Hbond>
0.0000

> <Gold.Chemscore.DEClash>
0.0580

> <Gold.Chemscore.DEInternal>
7.7018

> <Gold.Chemscore.Rot>
4.3070

> <Gold.Chemscore.Internal.Correction>
   9.000000E+99

> <Gold.Chemscore.Hbonds>
donor molecule, donor type, donor heavy atom, donor atom, acceptor molecule, acceptor atom, score
      L1  H    15    37       P1  7948  0.91
      P1  H  6896  6908       L1    18  0.88
      P1  H  7997  8009       L1     3  0.73

> <Gold.Chemscore.Hbond.Weighted>
-9.7003

> <Gold.Chemscore.Metal.Weighted>
-0.0000

> <Gold.Chemscore.Lipo.Weighted>
-5.3376

> <Gold.Chemscore.Internal_Hbond.Weighted>
0.0000

> <Gold.Chemscore.DEClash.Weighted>
0.0580

> <Gold.Chemscore.DEInternal.Weighted>
7.7018

> <Gold.Chemscore.Rot.Weighted>
11.0259

> <Gold.Chemscore.Internal.Correction.Weighted>
   9.000000E+99

> <Gold.Protein.RotatedTorsions>
[ 6907 6896 6895 6894 ] final  150.28 input  -60.11 | X-H torsion
[ 7974 7965 7964 7962 ] final   64.64 input  175.53 | X-H torsion
[ 8008 7997 7996 7995 ] final   64.68 input   59.86 | X-H torsion
[ 10167 10162 10161 10158 ] final   55.90 input  -65.29 | X-H torsion
[ 10718 10713 10712 10709 ] final -162.61 input   66.30 | X-H torsion
[ 10763 10752 10751 10750 ] final   89.58 input  -60.55 | X-H torsion
[ 11005 11000 10999 10996 ] final -178.01 input  -57.11 | X-H torsion

> <Gold.Protein.ActiveResidues>
 VAL166  LYS551  ARG553  GLY616  TRP617  ASP618  TYR619  PRO620  LYS621  CYS622 
 ASP623  PHE694  ASN695  SER759  ASP760  ASP761  ALA762  ILE779  LEU786  VAL792 
 PHE793  MET794  SER795  GLU796  ALA797  LYS798  CYS799  TRP800  GLU811  SER814 

> <Gold.Protein.RotatedAtoms>
  152.1166  133.4330  159.4655 H   0  0  0  0  0  0  0  0  0  0  0  0  # atno 6907 bound_to 6896
  150.6870  134.2585  159.4548 H   0  0  0  0  0  0  0  0  0  0  0  0  # atno 6908 bound_to 6896
  152.0458  134.9683  160.0625 H   0  0  0  0  0  0  0  0  0  0  0  0  # atno 6909 bound_to 6896
  145.8478  139.3235  143.0893 H   0  0  0  0  0  0  0  0  0  0  0  0  # atno 7974 bound_to 7965
  155.6499  140.3497  155.4744 H   0  0  0  0  0  0  0  0  0  0  0  0  # atno 8008 bound_to 7997
  155.9856  140.1183  157.0709 H   0  0  0  0  0  0  0  0  0  0  0  0  # atno 8009 bound_to 7997
  154.4204  140.1129  156.5481 H   0  0  0  0  0  0  0  0  0  0  0  0  # atno 8010 bound_to 7997
  140.2145  144.3853  150.6475 H   0  0  0  0  0  0  0  0  0  0  0  0  # atno 10167 bound_to 10162
  156.6129  130.8858  151.2940 H   0  0  0  0  0  0  0  0  0  0  0  0  # atno 10718 bound_to 10713
  153.1886  135.4465  155.0120 H   0  0  0  0  0  0  0  0  0  0  0  0  # atno 10763 bound_to 10752
  154.8076  135.3281  154.7393 H   0  0  0  0  0  0  0  0  0  0  0  0  # atno 10764 bound_to 10752
  153.7849  135.6974  153.4937 H   0  0  0  0  0  0  0  0  0  0  0  0  # atno 10765 bound_to 10752
  140.4346  134.6488  157.4728 H   0  0  0  0  0  0  0  0  0  0  0  0  # atno 11005 bound_to 11000
  145.9392  140.8992  143.0316 LP  0  0  0  0  0  0  0  0  0  0  0  0  # atno 17320 bound_to 7965
  144.6730  140.1525  143.7429 LP  0  0  0  0  0  0  0  0  0  0  0  0  # atno 17321 bound_to 7965
  140.6299  143.2186  151.6517 LP  0  0  0  0  0  0  0  0  0  0  0  0  # atno 17342 bound_to 10162
  139.5167  144.3338  152.0802 LP  0  0  0  0  0  0  0  0  0  0  0  0  # atno 17343 bound_to 10162
  157.7249  130.9609  150.1593 LP  0  0  0  0  0  0  0  0  0  0  0  0  # atno 17370 bound_to 10713
  156.2375  130.3688  149.8375 LP  0  0  0  0  0  0  0  0  0  0  0  0  # atno 17371 bound_to 10713
  140.0111  134.6689  155.9379 LP  0  0  0  0  0  0  0  0  0  0  0  0  # atno 17394 bound_to 11000
  141.1731  133.6538  156.4727 LP  0  0  0  0  0  0  0  0  0  0  0  0  # atno 17395 bound_to 11000

$$$$
