AV-unprocessed.smi:922|AV-procd|sdf|4173|dock2
  -GOLD-   22720 2 83D 1   1.00000     0.00000
 Structure written by MMmdl.
 32 33  0  0  0  0  0  0  0  0  2 V2000
  146.8491  142.6009  154.4009 C   0  0  0  0  0  0  0  0  0  0  0  0
  147.3586  141.1874  154.6994 C   0  0  2  0  0  0  0  0  0  0  0  0
  148.7462  140.9352  154.0808 C   0  0  0  0  0  0  0  0  0  0  0  0
  149.1477  139.5496  154.2834 N   0  0  0  0  0  0  0  0  0  0  0  0
  150.3560  139.1360  154.8466 C   0  0  0  0  0  0  0  0  0  0  0  0
  151.0333  137.9297  154.3092 C   0  0  0  0  0  0  0  0  0  0  0  0
  152.1372  137.4939  154.7710 N   0  0  0  0  0  0  0  0  0  0  0  0
  152.8039  138.1687  155.8605 N   0  5  0  0  0  0  0  0  0  0  0  0
  152.2442  139.2819  156.4228 C   0  0  0  0  0  0  0  0  0  0  0  0
  152.7780  139.8761  157.3582 O   0  0  0  0  0  0  0  0  0  0  0  0
  150.9684  139.7731  155.8847 C   0  0  0  0  0  0  0  0  0  0  0  0
  150.2614  141.1515  156.6640 Cl  0  0  0  0  0  0  0  0  0  0  0  0
  148.1706  138.6342  153.7063 C   0  0  0  0  0  0  0  0  0  0  0  0
  146.7653  138.8724  154.3043 C   0  0  0  0  0  0  0  0  0  0  0  0
  145.7177  138.1008  153.4874 C   0  0  0  0  0  0  0  0  0  0  0  0
  146.6827  138.4324  155.7820 C   0  0  0  0  0  0  0  0  0  0  0  0
  146.4214  140.2557  154.1573 O   0  0  0  0  0  0  0  0  0  0  0  0
  147.5229  143.3543  154.8096 H   0  0  0  0  0  0  0  0  0  0  0  0
  145.8649  142.7608  154.8420 H   0  0  0  0  0  0  0  0  0  0  0  0
  146.7654  142.7723  153.3274 H   0  0  0  0  0  0  0  0  0  0  0  0
  147.4031  141.0706  155.7814 H   0  0  0  0  0  0  0  0  0  0  0  0
  148.7180  141.1334  153.0086 H   0  0  0  0  0  0  0  0  0  0  0  0
  149.4868  141.6179  154.4972 H   0  0  0  0  0  0  0  0  0  0  0  0
  150.5276  137.4292  153.4794 H   0  0  0  0  0  0  0  0  0  0  0  0
  148.1550  138.7857  152.6262 H   0  0  0  0  0  0  0  0  0  0  0  0
  148.4684  137.5982  153.8726 H   0  0  0  0  0  0  0  0  0  0  0  0
  145.9026  137.0265  153.5194 H   0  0  0  0  0  0  0  0  0  0  0  0
  145.7289  138.4074  152.4410 H   0  0  0  0  0  0  0  0  0  0  0  0
  144.7115  138.2760  153.8693 H   0  0  0  0  0  0  0  0  0  0  0  0
  146.8362  137.3571  155.8767 H   0  0  0  0  0  0  0  0  0  0  0  0
  145.7062  138.6649  156.2071 H   0  0  0  0  0  0  0  0  0  0  0  0
  147.4367  138.9134  156.4041 H   0  0  0  0  0  0  0  0  0  0  0  0
  1  2  1  0  0  0  0
  1 18  1  0  0  0  0
  1 19  1  0  0  0  0
  1 20  1  0  0  0  0
  2 17  1  0  0  0  0
  2  3  1  0  0  0  0
  2 21  1  0  0  0  0
  3  4  1  0  0  0  0
  3 22  1  0  0  0  0
  3 23  1  0  0  0  0
  4  5  1  0  0  0  0
  4 13  1  0  0  0  0
  5 11  2  0  0  0  0
  5  6  1  0  0  0  0
  6  7  2  0  0  0  0
  6 24  1  0  0  0  0
  7  8  1  0  0  0  0
  8  9  1  0  0  0  0
  9 10  2  0  0  0  0
  9 11  1  0  0  0  0
 11 12  1  0  0  0  0
 13 14  1  0  0  0  0
 13 25  1  0  0  0  0
 13 26  1  0  0  0  0
 14 15  1  0  0  0  0
 14 16  1  0  0  0  0
 14 17  1  0  0  0  0
 15 27  1  0  0  0  0
 15 28  1  0  0  0  0
 15 29  1  0  0  0  0
 16 30  1  0  0  0  0
 16 31  1  0  0  0  0
 16 32  1  0  0  0  0
M  CHG  1   8  -1
M  END
> <s_m_source_file>
AV-unprocessed.smi

> <i_m_source_file_index>
922

> <i_lp_mmshare_version>
43012

> <i_f3d_flags>
0

> <s_epik_input>
W0NIM11bQ0BASF0oTzEpW0NIMl1OKFtDSDJdQzEoW0NIM10pW0NIM10pYzJbY0hdbltuSF1jKD1PKWMyQ2w=

> <s_epik_cmdline>
J2VwaWtfcHl0aG9uJywgJy1waCcsICc3LjAnLCAnLXRuJywgJzgnLCAnLW1hJywgJzIwMCcsICctbWV0YWxfYmluZGluZycsICctaW1hZScsICc8aW5maWxlLm1hZT4nLCAnLW9tYWUnLCAnPG91dGZpbGUubWFlPic=

> <r_lp_tautomer_probability>
1

> <r_epik_Ionization_Penalty>
2.48086

> <r_epik_Ionization_Penalty_Charging>
0.00187014

> <r_epik_Ionization_Penalty_Neutral>
2.47899

> <r_epik_State_Penalty>
0.0455822

> <r_epik_Charging_Adjusted_Penalty>
0.0474524

> <i_epik_Tot_Q>
-1

> <i_epik_Tot_abs_Q>
1

> <r_epik_Metal_State_Penalty>
0.000768086

> <b_epik_Metal_Only>
0

> <s_lp_Force_Field>
OPLS_2005

> <r_lp_Energy>
41.3096

> <b_lp_Chiralities_Consistent>
1

> <s_lp_Variant>
AV-unprocessed.smi:922-1

> <Gold.Version>
5.8.1

> <Gold.Id.Protein>
6NUR|6NUR_protein|mol2

> <Gold.PLP.Fitness>
34.1794

> <Gold.PLP.PLP>
-25.3350

> <Gold.PLP.part.hbond>
-2.0000

> <Gold.PLP.part.metal>
0.0000

> <Gold.PLP.part.buried>
0.2316

> <Gold.PLP.part.nonpolar>
-24.0057

> <Gold.PLP.part.repulsive>
0.2281

> <Gold.PLP.ligand.clash>
0.0000

> <Gold.PLP.ligand.torsion>
0.4852

> <Gold.PLP.Chemscore.Hbond>
1.7644

> <Gold.PLP.Chemscore.CHOScore>
1.1886

> <Gold.PLP.Chemscore.Metal>
0.0000

> <Gold.Chemscore.Hbonds>
donor molecule, donor type, donor heavy atom, donor atom, acceptor molecule, acceptor atom, score
      P1  H  7997  8008       L1    10  1.00
      P1  H 10752 10765       L1     7  0.76
      L1  C     6    24       P1  7948  0.64
      L1  C     6    24       P1  7949  0.55

> <Gold.PLP.Chemscore.Internal.Correction>
0.9558

> <Gold.Rescore>
     Score         DG    S(hbond)    S(metal)    S(lipo)     H(rot)  DE(clash)    DE(int)     intcor
     15.54     -17.63       1.56        0.00      59.35       0.00       0.55       1.54       ----

> <Gold.Chemscore.Fitness>
15.5395

> <Gold.Chemscore.DG>
-17.6271

> <Gold.Chemscore.ZeroCoef>
-5.4800

> <Gold.Chemscore.Hbond>
1.5577

> <Gold.Chemscore.Metal>
0.0000

> <Gold.Chemscore.Lipo>
59.3532

> <Gold.Chemscore.Internal_Hbond>
0.0000

> <Gold.Chemscore.DEClash>
0.5496

> <Gold.Chemscore.DEInternal>
1.5380

> <Gold.Chemscore.Rot>
0.0000

> <Gold.Chemscore.Internal.Correction>
   9.000000E+99

> <Gold.Chemscore.Hbonds>
donor molecule, donor type, donor heavy atom, donor atom, acceptor molecule, acceptor atom, score
      P1  H  7997  8008       L1    10  0.35
      P1  H 10752 10765       L1     7  0.61

> <Gold.Chemscore.Hbond.Weighted>
-5.2028

> <Gold.Chemscore.Metal.Weighted>
-0.0000

> <Gold.Chemscore.Lipo.Weighted>
-6.9443

> <Gold.Chemscore.Internal_Hbond.Weighted>
0.0000

> <Gold.Chemscore.DEClash.Weighted>
0.5496

> <Gold.Chemscore.DEInternal.Weighted>
1.5380

> <Gold.Chemscore.Rot.Weighted>
0.0000

> <Gold.Chemscore.Internal.Correction.Weighted>
   9.000000E+99

> <Gold.Protein.RotatedTorsions>
[ 6907 6896 6895 6894 ] final  136.13 input  -60.11 | X-H torsion
[ 7974 7965 7964 7962 ] final  178.01 input  175.53 | X-H torsion
[ 8008 7997 7996 7995 ] final  -68.21 input   59.86 | X-H torsion
[ 10167 10162 10161 10158 ] final   87.79 input  -65.29 | X-H torsion
[ 10718 10713 10712 10709 ] final -144.63 input   66.30 | X-H torsion
[ 10763 10752 10751 10750 ] final  165.26 input  -60.55 | X-H torsion
[ 11005 11000 10999 10996 ] final   47.12 input  -57.11 | X-H torsion

> <Gold.Protein.ActiveResidues>
 VAL166  LYS551  ARG553  GLY616  TRP617  ASP618  TYR619  PRO620  LYS621  CYS622 
 ASP623  PHE694  ASN695  SER759  ASP760  ASP761  ALA762  ILE779  LEU786  VAL792 
 PHE793  MET794  SER795  GLU796  ALA797  LYS798  CYS799  TRP800  GLU811  SER814 

> <Gold.Protein.RotatedAtoms>
  152.2928  133.5577  159.5567 H   0  0  0  0  0  0  0  0  0  0  0  0  # atno 6907 bound_to 6896
  150.7242  134.0405  159.3773 H   0  0  0  0  0  0  0  0  0  0  0  0  # atno 6908 bound_to 6896
  151.8309  135.0622  160.0487 H   0  0  0  0  0  0  0  0  0  0  0  0  # atno 6909 bound_to 6896
  144.7161  140.0334  143.6438 H   0  0  0  0  0  0  0  0  0  0  0  0  # atno 7974 bound_to 7965
  154.4852  140.0877  156.7470 H   0  0  0  0  0  0  0  0  0  0  0  0  # atno 8008 bound_to 7997
  155.4368  140.3452  155.4267 H   0  0  0  0  0  0  0  0  0  0  0  0  # atno 8009 bound_to 7997
  156.1251  140.1485  156.9136 H   0  0  0  0  0  0  0  0  0  0  0  0  # atno 8010 bound_to 7997
  139.8738  144.6478  150.8920 H   0  0  0  0  0  0  0  0  0  0  0  0  # atno 10167 bound_to 10162
  156.3725  130.7795  151.1978 H   0  0  0  0  0  0  0  0  0  0  0  0  # atno 10718 bound_to 10713
  154.3213  135.2756  155.2518 H   0  0  0  0  0  0  0  0  0  0  0  0  # atno 10763 bound_to 10752
  154.4870  135.5843  153.6435 H   0  0  0  0  0  0  0  0  0  0  0  0  # atno 10764 bound_to 10752
  152.9876  135.6125  154.3398 H   0  0  0  0  0  0  0  0  0  0  0  0  # atno 10765 bound_to 10752
  140.1307  134.4709  155.8524 H   0  0  0  0  0  0  0  0  0  0  0  0  # atno 11005 bound_to 11000
  146.0084  139.3149  143.0885 LP  0  0  0  0  0  0  0  0  0  0  0  0  # atno 17320 bound_to 7965
  145.8711  140.9419  143.0650 LP  0  0  0  0  0  0  0  0  0  0  0  0  # atno 17321 bound_to 7965
  140.7756  143.3642  151.1771 LP  0  0  0  0  0  0  0  0  0  0  0  0  # atno 17342 bound_to 10162
  139.7259  143.9149  152.3002 LP  0  0  0  0  0  0  0  0  0  0  0  0  # atno 17343 bound_to 10162
  157.7485  131.0368  150.4426 LP  0  0  0  0  0  0  0  0  0  0  0  0  # atno 17370 bound_to 10713
  156.4655  130.4041  149.6550 LP  0  0  0  0  0  0  0  0  0  0  0  0  # atno 17371 bound_to 10713
  141.2169  133.6795  156.7064 LP  0  0  0  0  0  0  0  0  0  0  0  0  # atno 17394 bound_to 11000
  140.2846  134.8290  157.3963 LP  0  0  0  0  0  0  0  0  0  0  0  0  # atno 17395 bound_to 11000

$$$$
