AV-unprocessed.smi:3262|AV-procd|sdf|12485|dock8
  -GOLD-   2272018383D 1   1.00000     0.00000
 Structure written by MMmdl.
 40 41  0  0  0  0  0  0  0  0  2 V2000
  152.5219  140.4139  158.7085 O   0  0  0  0  0  0  0  0  0  0  0  0
  152.1312  141.5278  158.3540 C   0  0  0  0  0  0  0  0  0  0  0  0
  151.2151  141.6798  157.3808 N   0  0  0  0  0  0  0  0  0  0  0  0
  150.5614  140.5919  156.6621 C   0  0  0  0  0  0  0  0  0  0  0  0
  150.4621  140.8923  155.1538 C   0  0  0  0  0  0  0  0  0  0  0  0
  149.0496  140.9281  154.5851 C   0  0  0  0  0  0  0  0  0  0  0  0
  148.4311  139.8425  153.9197 C   0  0  0  0  0  0  0  0  0  0  0  0
  147.1139  139.9872  153.4359 C   0  0  0  0  0  0  0  0  0  0  0  0
  146.4378  141.2096  153.6245 C   0  0  0  0  0  0  0  0  0  0  0  0
  147.0981  142.2592  154.2938 C   0  0  0  0  0  0  0  0  0  0  0  0
  148.3601  142.0819  154.7423 N   0  3  0  0  0  0  0  0  0  0  0  0
  152.6229  142.6876  158.8663 N   0  0  0  0  0  0  0  0  0  0  0  0
  152.1952  144.0340  158.4272 C   0  0  0  0  0  0  0  0  0  0  0  0
  152.1403  145.1026  159.5402 C   0  0  0  0  0  0  0  0  0  0  0  0
  151.4688  144.6383  160.8460 C   0  0  0  0  0  0  0  0  0  0  0  0
  152.4428  143.9432  161.8121 C   0  0  0  0  0  0  0  0  0  0  0  0
  152.9713  142.5846  161.3261 C   0  0  0  0  0  0  0  0  0  0  0  0
  153.6313  142.6404  159.9365 C   0  0  0  0  0  0  0  0  0  0  0  0
  150.9564  142.6207  157.1206 H   0  0  0  0  0  0  0  0  0  0  0  0
  151.1464  139.6866  156.8269 H   0  0  0  0  0  0  0  0  0  0  0  0
  149.5730  140.4129  157.0891 H   0  0  0  0  0  0  0  0  0  0  0  0
  150.9291  141.8545  154.9400 H   0  0  0  0  0  0  0  0  0  0  0  0
  151.0314  140.1445  154.5996 H   0  0  0  0  0  0  0  0  0  0  0  0
  148.9439  138.9037  153.7742 H   0  0  0  0  0  0  0  0  0  0  0  0
  146.6271  139.1685  152.9263 H   0  0  0  0  0  0  0  0  0  0  0  0
  145.4285  141.3397  153.2621 H   0  0  0  0  0  0  0  0  0  0  0  0
  146.6586  143.2276  154.4831 H   0  0  0  0  0  0  0  0  0  0  0  0
  152.8554  144.3691  157.6264 H   0  0  0  0  0  0  0  0  0  0  0  0
  151.1918  144.0019  158.0005 H   0  0  0  0  0  0  0  0  0  0  0  0
  153.1389  145.4863  159.7520 H   0  0  0  0  0  0  0  0  0  0  0  0
  151.5879  145.9584  159.1500 H   0  0  0  0  0  0  0  0  0  0  0  0
  151.0695  145.5167  161.3543 H   0  0  0  0  0  0  0  0  0  0  0  0
  150.6101  144.0001  160.6336 H   0  0  0  0  0  0  0  0  0  0  0  0
  153.2844  144.6070  162.0133 H   0  0  0  0  0  0  0  0  0  0  0  0
  151.9455  143.7985  162.7718 H   0  0  0  0  0  0  0  0  0  0  0  0
  153.7051  142.2268  162.0489 H   0  0  0  0  0  0  0  0  0  0  0  0
  152.1664  141.8484  161.3331 H   0  0  0  0  0  0  0  0  0  0  0  0
  154.2729  141.7666  159.8091 H   0  0  0  0  0  0  0  0  0  0  0  0
  154.3141  143.4876  159.8653 H   0  0  0  0  0  0  0  0  0  0  0  0
  148.8160  142.8565  155.2253 H   0  0  0  0  0  0  0  0  0  0  0  0
  1  2  2  0  0  0  0
  2  3  1  0  0  0  0
  2 12  1  0  0  0  0
  3  4  1  0  0  0  0
  3 19  1  0  0  0  0
  4  5  1  0  0  0  0
  4 20  1  0  0  0  0
  4 21  1  0  0  0  0
  5  6  1  0  0  0  0
  5 22  1  0  0  0  0
  5 23  1  0  0  0  0
  6 11  1  0  0  0  0
  6  7  2  0  0  0  0
  7  8  1  0  0  0  0
  7 24  1  0  0  0  0
  8  9  2  0  0  0  0
  8 25  1  0  0  0  0
  9 10  1  0  0  0  0
  9 26  1  0  0  0  0
 10 11  2  0  0  0  0
 10 27  1  0  0  0  0
 11 40  1  0  0  0  0
 12 18  1  0  0  0  0
 12 13  1  0  0  0  0
 13 14  1  0  0  0  0
 13 28  1  0  0  0  0
 13 29  1  0  0  0  0
 14 15  1  0  0  0  0
 14 30  1  0  0  0  0
 14 31  1  0  0  0  0
 15 16  1  0  0  0  0
 15 32  1  0  0  0  0
 15 33  1  0  0  0  0
 16 17  1  0  0  0  0
 16 34  1  0  0  0  0
 16 35  1  0  0  0  0
 17 18  1  0  0  0  0
 17 36  1  0  0  0  0
 17 37  1  0  0  0  0
 18 38  1  0  0  0  0
 18 39  1  0  0  0  0
M  CHG  1  11   1
M  END
> <s_m_source_file>
AV-unprocessed.smi

> <i_m_source_file_index>
3262

> <i_lp_mmshare_version>
43012

> <i_f3d_flags>
0

> <s_epik_input>
W0NIMl0xW0NIMl1bQ0gyXVtDSDJdW0NIMl1bQ0gyXU4xQyg9TylbTkhdW0NIMl1bQ0gyXWMyW2NIXVtjSF1bY0hdW2NIXW4y

> <s_epik_cmdline>
J2VwaWtfcHl0aG9uJywgJy1waCcsICc3LjAnLCAnLXRuJywgJzgnLCAnLW1hJywgJzIwMCcsICctbWV0YWxfYmluZGluZycsICctaW1hZScsICc8aW5maWxlLm1hZT4nLCAnLW9tYWUnLCAnPG91dGZpbGUubWFlPic=

> <r_epik_Ionization_Penalty>
1.55113

> <r_epik_Ionization_Penalty_Charging>
1.55107

> <r_epik_Ionization_Penalty_Neutral>
5.98909e-05

> <r_epik_State_Penalty>
1.64529

> <r_epik_Charging_Adjusted_Penalty>
3.19637

> <i_epik_Tot_Q>
1

> <i_epik_Tot_abs_Q>
1

> <r_epik_Metal_State_Penalty>
1.68744

> <b_epik_Metal_Only>
0

> <s_lp_Force_Field>
OPLS_2005

> <r_lp_Energy>
39.791

> <b_lp_Chiralities_Consistent>
1

> <s_lp_Variant>
AV-unprocessed.smi:3262-2

> <Gold.Version>
5.8.1

> <Gold.Id.Protein>
6NUR|6NUR_protein|mol2

> <Gold.PLP.Fitness>
48.7459

> <Gold.PLP.PLP>
-44.7064

> <Gold.PLP.part.hbond>
-1.0000

> <Gold.PLP.part.metal>
0.0000

> <Gold.PLP.part.buried>
-1.4690

> <Gold.PLP.part.nonpolar>
-42.9004

> <Gold.PLP.part.repulsive>
0.2610

> <Gold.PLP.ligand.clash>
0.0000

> <Gold.PLP.ligand.torsion>
0.8158

> <Gold.PLP.Chemscore.Hbond>
1.8880

> <Gold.PLP.Chemscore.CHOScore>
0.0000

> <Gold.PLP.Chemscore.Metal>
0.0000

> <Gold.Chemscore.Hbonds>
donor molecule, donor type, donor heavy atom, donor atom, acceptor molecule, acceptor atom, score
      L1  H    11    40       P1  8028  1.95

> <Gold.PLP.Chemscore.Internal.Correction>
0.0071

> <Gold.Rescore>
     Score         DG    S(hbond)    S(metal)    S(lipo)     H(rot)  DE(clash)    DE(int)     intcor
     17.39     -19.57       0.92        0.00     123.60       1.34       1.33       0.85       ----

> <Gold.Chemscore.Fitness>
17.3890

> <Gold.Chemscore.DG>
-19.5670

> <Gold.Chemscore.ZeroCoef>
-5.4800

> <Gold.Chemscore.Hbond>
0.9163

> <Gold.Chemscore.Metal>
0.0000

> <Gold.Chemscore.Lipo>
123.5965

> <Gold.Chemscore.Internal_Hbond>
0.0000

> <Gold.Chemscore.DEClash>
1.3311

> <Gold.Chemscore.DEInternal>
0.8469

> <Gold.Chemscore.Rot>
1.3415

> <Gold.Chemscore.Internal.Correction>
   9.000000E+99

> <Gold.Chemscore.Hbonds>
donor molecule, donor type, donor heavy atom, donor atom, acceptor molecule, acceptor atom, score
      L1  H    11    40       P1  8028  0.92

> <Gold.Chemscore.Hbond.Weighted>
-3.0604

> <Gold.Chemscore.Metal.Weighted>
-0.0000

> <Gold.Chemscore.Lipo.Weighted>
-14.4608

> <Gold.Chemscore.Internal_Hbond.Weighted>
0.0000

> <Gold.Chemscore.DEClash.Weighted>
1.3311

> <Gold.Chemscore.DEInternal.Weighted>
0.8469

> <Gold.Chemscore.Rot.Weighted>
3.4342

> <Gold.Chemscore.Internal.Correction.Weighted>
   9.000000E+99

> <Gold.Protein.RotatedTorsions>
[ 6907 6896 6895 6894 ] final  -99.95 input  -60.11 | X-H torsion
[ 7974 7965 7964 7962 ] final  -66.52 input  175.53 | X-H torsion
[ 8008 7997 7996 7995 ] final  151.81 input   59.86 | X-H torsion
[ 10167 10162 10161 10158 ] final   56.61 input  -65.29 | X-H torsion
[ 10718 10713 10712 10709 ] final  -90.72 input   66.30 | X-H torsion
[ 10763 10752 10751 10750 ] final  108.70 input  -60.55 | X-H torsion
[ 11005 11000 10999 10996 ] final   29.76 input  -57.11 | X-H torsion

> <Gold.Protein.ActiveResidues>
 VAL166  LYS551  ARG553  GLY616  TRP617  ASP618  TYR619  PRO620  LYS621  CYS622 
 ASP623  PHE694  ASN695  SER759  ASP760  ASP761  ALA762  ILE779  LEU786  VAL792 
 PHE793  MET794  SER795  GLU796  ALA797  LYS798  CYS799  TRP800  GLU811  SER814 

> <Gold.Protein.RotatedAtoms>
  150.7098  134.0962  159.3949 H   0  0  0  0  0  0  0  0  0  0  0  0  # atno 6907 bound_to 6896
  151.8948  135.0400  160.0510 H   0  0  0  0  0  0  0  0  0  0  0  0  # atno 6908 bound_to 6896
  152.2462  133.5141  159.5335 H   0  0  0  0  0  0  0  0  0  0  0  0  # atno 6909 bound_to 6896
  145.7408  140.8954  143.0531 H   0  0  0  0  0  0  0  0  0  0  0  0  # atno 7974 bound_to 7965
  156.2657  140.2037  156.6235 H   0  0  0  0  0  0  0  0  0  0  0  0  # atno 8008 bound_to 7997
  154.6738  140.0547  157.0218 H   0  0  0  0  0  0  0  0  0  0  0  0  # atno 8009 bound_to 7997
  155.1098  140.3214  155.4527 H   0  0  0  0  0  0  0  0  0  0  0  0  # atno 8010 bound_to 7997
  140.2069  144.3929  150.6505 H   0  0  0  0  0  0  0  0  0  0  0  0  # atno 10167 bound_to 10162
  155.9989  130.4920  150.5365 H   0  0  0  0  0  0  0  0  0  0  0  0  # atno 10718 bound_to 10713
  153.4244  135.3803  155.2131 H   0  0  0  0  0  0  0  0  0  0  0  0  # atno 10763 bound_to 10752
  154.8746  135.3825  154.4345 H   0  0  0  0  0  0  0  0  0  0  0  0  # atno 10764 bound_to 10752
  153.4869  135.7088  153.5969 H   0  0  0  0  0  0  0  0  0  0  0  0  # atno 10765 bound_to 10752
  140.3016  134.2751  155.7753 H   0  0  0  0  0  0  0  0  0  0  0  0  # atno 11005 bound_to 11000
  144.6871  139.9457  143.7476 LP  0  0  0  0  0  0  0  0  0  0  0  0  # atno 17320 bound_to 7965
  146.0450  139.3457  143.0674 LP  0  0  0  0  0  0  0  0  0  0  0  0  # atno 17321 bound_to 7965
  140.6351  143.2193  151.6413 LP  0  0  0  0  0  0  0  0  0  0  0  0  # atno 17342 bound_to 10162
  139.5195  144.3252  152.0875 LP  0  0  0  0  0  0  0  0  0  0  0  0  # atno 17343 bound_to 10162
  157.3307  131.0699  151.1863 LP  0  0  0  0  0  0  0  0  0  0  0  0  # atno 17370 bound_to 10713
  157.2744  130.6720  149.6035 LP  0  0  0  0  0  0  0  0  0  0  0  0  # atno 17371 bound_to 10713
  141.2127  133.7649  156.9775 LP  0  0  0  0  0  0  0  0  0  0  0  0  # atno 17394 bound_to 11000
  140.1104  134.9480  157.2057 LP  0  0  0  0  0  0  0  0  0  0  0  0  # atno 17395 bound_to 11000

$$$$
