#       Name:                AV-unprocessed.smi:988
#       Creating user name   scv26
#       Creation time:       Fri Mar 27 02:22:55 2020


#       File generated by GOLD software.
#

@<TRIPOS>MOLECULE
AV-unprocessed.smi:988
    33    33     1
SMALL
NO_CHARGES


@<TRIPOS>ATOM
      1 ****        -2.6384   1.5752   0.8595 C.3            1 S1                 0.0000
      2 ****        -2.3250   0.2071   0.6700 O.3            1 S1                 0.0000
      3 ****        -2.6390  -0.2494  -0.6358 C.3            1 S1                 0.0000
      4 ****        -2.1958  -1.7114  -0.7926 C.3            1 S1                 0.0000
      5 ****        -0.7417  -1.8178  -0.7958 N.am           1 S1                 0.0000
      6 ****         0.0205  -2.0453   0.2851 C.2            1 S1                 0.0000
      7 ****        -0.4349  -2.2755   1.4051 O.2            1 S1                 0.0000
      8 ****         1.5330  -1.9806   0.0743 C.3            1 S1                 0.0000
      9 ****         1.9710  -0.6050  -0.0860 N.pl3          1 S1                 0.0000
     10 ****         2.1327   0.3606   0.8864 C.2            1 S1                 0.0000
     11 ****         2.5443   1.5018   0.2600 C.2            1 S1                 0.0000
     12 ****         2.8273   2.7396   0.8676 N.pl3          1 S1                 0.0000
     13 ****         2.6091   1.1312  -1.1127 C.2            1 S1                 0.0000
     14 ****         2.2653  -0.1304  -1.3170 N.2            1 S1                 0.0000
     15 ****        -2.3872   1.8702   1.8782 H              1 S1                 0.0000
     16 ****        -3.7020   1.7621   0.7062 H              1 S1                 0.0000
     17 ****        -2.0687   2.2070   0.1769 H              1 S1                 0.0000
     18 ****        -3.7150  -0.1714  -0.7982 H              1 S1                 0.0000
     19 ****        -2.1505   0.3736  -1.3873 H              1 S1                 0.0000
     20 ****        -2.6411  -2.3360  -0.0164 H              1 S1                 0.0000
     21 ****        -2.5570  -2.0994  -1.7453 H              1 S1                 0.0000
     22 ****        -0.2742  -1.6397  -1.6730 H              1 S1                 0.0000
     23 ****         2.0498  -2.4143   0.9314 H              1 S1                 0.0000
     24 ****         1.8160  -2.5641  -0.8034 H              1 S1                 0.0000
     25 ****         1.9379   0.1557   1.9292 H              1 S1                 0.0000
     26 ****         2.7406   2.8768   1.8646 H              1 S1                 0.0000
     27 ****         3.1278   3.5416   0.3320 H              1 S1                 0.0000
     28 ****         2.8929   1.7365  -1.9610 H              1 S1                 0.0000
     29 ****        -2.8432  -0.3346   1.3317 LP             1 S1                 0.0000
     30 ****        -1.3459   0.0782   0.8274 LP             1 S1                 0.0000
     31 ****        -1.4244  -2.3005   1.5470 LP             1 S1                 0.0000
     32 ****         0.1847  -2.4375   2.1731 LP             1 S1                 0.0000
     33 ****         2.2310  -0.6222  -2.1870 LP             1 S1                 0.0000
@<TRIPOS>BOND
    1    1    2 1     
    2    1   15 1     
    3    1   16 1     
    4    1   17 1     
    5    2    3 1     
    6    3    4 1     
    7    3   18 1     
    8    3   19 1     
    9    4    5 1     
   10    4   20 1     
   11    4   21 1     
   12    5    6 am    
   13    5   22 1     
   14    6    7 2     
   15    6    8 1     
   16    8    9 1     
   17    8   23 1     
   18    8   24 1     
   19    9   14 1     
   20    9   10 1     
   21   10   11 2     
   22   10   25 1     
   23   11   12 1     
   24   11   13 1     
   25   12   26 1     
   26   12   27 1     
   27   13   14 2     
   28   13   28 1     
   29    2   29 1     
   30    2   30 1     
   31    7   31 1     
   32    7   32 1     
   33   14   33 1     
@<TRIPOS>SUBSTRUCTURE
      1 S1             1
@<TRIPOS>SET
LONE_PAIRS      STATIC     ATOMS    <user>   **** ""
5 29 30 31 32 33
DONOR_HYDROGENS      STATIC     ATOMS    <user>   **** ""
3 22 26 27
ATOM$BLUE        STATIC     ATOMS    COLORGROUP SYSTEM
5 29 30 31 32 33
ATOM$RED        STATIC     ATOMS    COLORGROUP SYSTEM
3 22 26 27
