AV-unprocessed.smi:3301|AV-procd|sdf|12654|dock4
  -GOLD-   2272018593D 1   1.00000     0.00000
 Structure written by MMmdl.
 36 37  0  0  0  0  0  0  0  0  1 V2000
  150.9888  138.1579  156.3718 C   0  0  0  0  0  0  0  0  0  0  0  0
  150.2561  139.4735  156.0764 C   0  0  2  0  0  0  0  0  0  0  0  0
  150.1006  139.7008  154.5572 C   0  0  0  0  0  0  0  0  0  0  0  0
  148.8697  140.3905  154.2148 N   0  0  0  0  0  0  0  0  0  0  0  0
  147.8249  139.9053  153.4394 C   0  0  0  0  0  0  0  0  0  0  0  0
  146.8854  140.9088  153.3727 C   0  0  0  0  0  0  0  0  0  0  0  0
  147.3224  142.0096  154.1056 N   0  0  0  0  0  0  0  0  0  0  0  0
  148.5023  141.6273  154.5769 C   0  0  0  0  0  0  0  0  0  0  0  0
  150.9908  140.5766  156.6954 N   0  0  0  0  0  0  0  0  0  0  0  0
  151.4470  140.6011  157.9577 C   0  0  0  0  0  0  0  0  0  0  0  0
  151.3313  139.6558  158.7386 O   0  0  0  0  0  0  0  0  0  0  0  0
  152.1498  141.8892  158.4002 C   0  0  0  0  0  0  0  0  0  0  0  0
  152.8037  141.7420  159.7003 N   0  0  0  0  0  0  0  0  0  0  0  0
  152.4387  142.5953  160.8190 C   0  0  0  0  0  0  0  0  0  0  0  0
  153.5063  142.3255  161.8889 C   0  0  0  0  0  0  0  0  0  0  0  0
  154.2257  141.0465  161.4466 C   0  0  0  0  0  0  0  0  0  0  0  0
  153.7706  140.8684  160.0084 C   0  0  0  0  0  0  0  0  0  0  0  0
  154.2511  140.0225  159.2555 O   0  0  0  0  0  0  0  0  0  0  0  0
  150.4496  137.3072  155.9542 H   0  0  0  0  0  0  0  0  0  0  0  0
  151.0814  137.9921  157.4456 H   0  0  0  0  0  0  0  0  0  0  0  0
  151.9927  138.1567  155.9458 H   0  0  0  0  0  0  0  0  0  0  0  0
  149.2627  139.3935  156.5217 H   0  0  0  0  0  0  0  0  0  0  0  0
  150.9436  140.2730  154.1671 H   0  0  0  0  0  0  0  0  0  0  0  0
  150.1035  138.7448  154.0324 H   0  0  0  0  0  0  0  0  0  0  0  0
  147.8406  138.9186  153.0003 H   0  0  0  0  0  0  0  0  0  0  0  0
  145.9361  140.9226  152.8578 H   0  0  0  0  0  0  0  0  0  0  0  0
  149.1184  142.2653  155.1933 H   0  0  0  0  0  0  0  0  0  0  0  0
  151.1391  141.3973  156.1261 H   0  0  0  0  0  0  0  0  0  0  0  0
  152.8895  142.1601  157.6458 H   0  0  0  0  0  0  0  0  0  0  0  0
  151.4348  142.7129  158.4441 H   0  0  0  0  0  0  0  0  0  0  0  0
  152.4141  143.6464  160.5283 H   0  0  0  0  0  0  0  0  0  0  0  0
  151.4467  142.3152  161.1759 H   0  0  0  0  0  0  0  0  0  0  0  0
  154.2153  143.1538  161.9261 H   0  0  0  0  0  0  0  0  0  0  0  0
  153.0667  142.2255  162.8818 H   0  0  0  0  0  0  0  0  0  0  0  0
  155.3102  141.1391  161.5127 H   0  0  0  0  0  0  0  0  0  0  0  0
  153.9089  140.1861  162.0367 H   0  0  0  0  0  0  0  0  0  0  0  0
  1  2  1  0  0  0  0
  1 19  1  0  0  0  0
  1 20  1  0  0  0  0
  1 21  1  0  0  0  0
  2  3  1  0  0  0  0
  2  9  1  0  0  0  0
  2 22  1  0  0  0  0
  3  4  1  0  0  0  0
  3 23  1  0  0  0  0
  3 24  1  0  0  0  0
  4  8  1  0  0  0  0
  4  5  1  0  0  0  0
  5  6  2  0  0  0  0
  5 25  1  0  0  0  0
  6  7  1  0  0  0  0
  6 26  1  0  0  0  0
  7  8  2  0  0  0  0
  8 27  1  0  0  0  0
  9 10  1  0  0  0  0
  9 28  1  0  0  0  0
 10 11  2  0  0  0  0
 10 12  1  0  0  0  0
 12 13  1  0  0  0  0
 12 29  1  0  0  0  0
 12 30  1  0  0  0  0
 13 17  1  0  0  0  0
 13 14  1  0  0  0  0
 14 15  1  0  0  0  0
 14 31  1  0  0  0  0
 14 32  1  0  0  0  0
 15 16  1  0  0  0  0
 15 33  1  0  0  0  0
 15 34  1  0  0  0  0
 16 17  1  0  0  0  0
 16 35  1  0  0  0  0
 16 36  1  0  0  0  0
 17 18  2  0  0  0  0
M  END
> <s_m_source_file>
AV-unprocessed.smi

> <i_m_source_file_index>
3301

> <i_lp_mmshare_version>
43012

> <i_f3d_flags>
0

> <s_epik_input>
W2NIXTFuW2NIXVtjSF1uMVtDSDJdW0NAQEhdKFtDSDNdKVtOSF1DKD1PKVtDSDJdTjJbQ0gyXVtDSDJdW0NIMl1DMj1P

> <s_epik_cmdline>
J2VwaWtfcHl0aG9uJywgJy1waCcsICc3LjAnLCAnLXRuJywgJzgnLCAnLW1hJywgJzIwMCcsICctbWV0YWxfYmluZGluZycsICctaW1hZScsICc8aW5maWxlLm1hZT4nLCAnLW9tYWUnLCAnPG91dGZpbGUubWFlPic=

> <r_lp_tautomer_probability>
1

> <r_epik_Ionization_Penalty>
0.623868

> <r_epik_Ionization_Penalty_Charging>
0.623868

> <r_epik_Ionization_Penalty_Neutral>
4.45089e-08

> <r_epik_State_Penalty>
0.640129

> <r_epik_Charging_Adjusted_Penalty>
1.264

> <i_epik_Tot_Q>
0

> <i_epik_Tot_abs_Q>
0

> <r_epik_Metal_State_Penalty>
0.307431

> <b_epik_Metal_Only>
0

> <s_lp_Force_Field>
OPLS_2005

> <r_lp_Energy>
13.1823

> <b_lp_Chiralities_Consistent>
1

> <s_lp_Variant>
AV-unprocessed.smi:3301-3

> <Gold.Version>
5.8.1

> <Gold.Id.Protein>
6NUR|6NUR_protein|mol2

> <Gold.PLP.Fitness>
42.3197

> <Gold.PLP.PLP>
-34.3977

> <Gold.PLP.part.hbond>
-1.0000

> <Gold.PLP.part.metal>
0.0000

> <Gold.PLP.part.buried>
-0.3271

> <Gold.PLP.part.nonpolar>
-32.2793

> <Gold.PLP.part.repulsive>
0.2400

> <Gold.PLP.ligand.clash>
0.0000

> <Gold.PLP.ligand.torsion>
0.6263

> <Gold.PLP.Chemscore.Hbond>
0.9920

> <Gold.PLP.Chemscore.CHOScore>
2.0538

> <Gold.PLP.Chemscore.Metal>
0.0000

> <Gold.Chemscore.Hbonds>
donor molecule, donor type, donor heavy atom, donor atom, acceptor molecule, acceptor atom, score
      P1  H  7997  8009       L1    18  0.86
      L1  C     5    25       P1  7957  0.04
      L1  C     6    26       P1 10175  1.00
      L1  C     8    27       P1  8028  0.97

> <Gold.PLP.Chemscore.Internal.Correction>
0.0372

> <Gold.Rescore>
     Score         DG    S(hbond)    S(metal)    S(lipo)     H(rot)  DE(clash)    DE(int)     intcor
      8.11     -10.76       0.98        0.00      66.73       2.26       0.15       2.49       ----

> <Gold.Chemscore.Fitness>
8.1137

> <Gold.Chemscore.DG>
-10.7592

> <Gold.Chemscore.ZeroCoef>
-5.4800

> <Gold.Chemscore.Hbond>
0.9790

> <Gold.Chemscore.Metal>
0.0000

> <Gold.Chemscore.Lipo>
66.7254

> <Gold.Chemscore.Internal_Hbond>
0.0000

> <Gold.Chemscore.DEClash>
0.1509

> <Gold.Chemscore.DEInternal>
2.4946

> <Gold.Chemscore.Rot>
2.2647

> <Gold.Chemscore.Internal.Correction>
   9.000000E+99

> <Gold.Chemscore.Hbonds>
donor molecule, donor type, donor heavy atom, donor atom, acceptor molecule, acceptor atom, score
      P1  H  7997  8009       L1    18  0.81

> <Gold.Chemscore.Hbond.Weighted>
-3.2698

> <Gold.Chemscore.Metal.Weighted>
-0.0000

> <Gold.Chemscore.Lipo.Weighted>
-7.8069

> <Gold.Chemscore.Internal_Hbond.Weighted>
0.0000

> <Gold.Chemscore.DEClash.Weighted>
0.1509

> <Gold.Chemscore.DEInternal.Weighted>
2.4946

> <Gold.Chemscore.Rot.Weighted>
5.7975

> <Gold.Chemscore.Internal.Correction.Weighted>
   9.000000E+99

> <Gold.Protein.RotatedTorsions>
[ 6907 6896 6895 6894 ] final  118.48 input  -60.11 | X-H torsion
[ 7974 7965 7964 7962 ] final   -0.97 input  175.53 | X-H torsion
[ 8008 7997 7996 7995 ] final  125.69 input   59.86 | X-H torsion
[ 10167 10162 10161 10158 ] final -168.39 input  -65.29 | X-H torsion
[ 10718 10713 10712 10709 ] final -149.65 input   66.30 | X-H torsion
[ 10763 10752 10751 10750 ] final -152.15 input  -60.55 | X-H torsion
[ 11005 11000 10999 10996 ] final -132.42 input  -57.11 | X-H torsion

> <Gold.Protein.ActiveResidues>
 VAL166  LYS551  ARG553  GLY616  TRP617  ASP618  TYR619  PRO620  LYS621  CYS622 
 ASP623  PHE694  ASN695  SER759  ASP760  ASP761  ALA762  ILE779  LEU786  VAL792 
 PHE793  MET794  SER795  GLU796  ALA797  LYS798  CYS799  TRP800  GLU811  SER814 

> <Gold.Protein.RotatedAtoms>
  152.4540  133.7686  159.6785 H   0  0  0  0  0  0  0  0  0  0  0  0  # atno 6907 bound_to 6896
  150.8460  133.7850  159.3049 H   0  0  0  0  0  0  0  0  0  0  0  0  # atno 6908 bound_to 6896
  151.5460  135.1071  159.9990 H   0  0  0  0  0  0  0  0  0  0  0  0  # atno 6909 bound_to 6896
  146.2422  140.1350  142.8337 H   0  0  0  0  0  0  0  0  0  0  0  0  # atno 7974 bound_to 7965
  156.2842  140.2710  156.1990 H   0  0  0  0  0  0  0  0  0  0  0  0  # atno 8008 bound_to 7997
  155.0381  140.0386  157.2517 H   0  0  0  0  0  0  0  0  0  0  0  0  # atno 8009 bound_to 7997
  154.7298  140.2704  155.6472 H   0  0  0  0  0  0  0  0  0  0  0  0  # atno 8010 bound_to 7997
  139.5988  144.1054  152.1720 H   0  0  0  0  0  0  0  0  0  0  0  0  # atno 10167 bound_to 10162
  156.4359  130.8098  151.2326 H   0  0  0  0  0  0  0  0  0  0  0  0  # atno 10718 bound_to 10713
  154.8012  135.3243  154.7544 H   0  0  0  0  0  0  0  0  0  0  0  0  # atno 10763 bound_to 10752
  153.8212  135.6887  153.4831 H   0  0  0  0  0  0  0  0  0  0  0  0  # atno 10764 bound_to 10752
  153.1731  135.4615  154.9872 H   0  0  0  0  0  0  0  0  0  0  0  0  # atno 10765 bound_to 10752
  140.9172  134.1491  157.4343 H   0  0  0  0  0  0  0  0  0  0  0  0  # atno 11005 bound_to 11000
  145.0294  140.8859  143.5118 LP  0  0  0  0  0  0  0  0  0  0  0  0  # atno 17320 bound_to 7965
  145.1412  139.2571  143.5489 LP  0  0  0  0  0  0  0  0  0  0  0  0  # atno 17321 bound_to 7965
  140.0646  144.5829  150.7237 LP  0  0  0  0  0  0  0  0  0  0  0  0  # atno 17342 bound_to 10162
  140.7233  143.2611  151.4204 LP  0  0  0  0  0  0  0  0  0  0  0  0  # atno 17343 bound_to 10162
  157.7507  131.0184  150.3623 LP  0  0  0  0  0  0  0  0  0  0  0  0  # atno 17370 bound_to 10713
  156.3970  130.3908  149.6987 LP  0  0  0  0  0  0  0  0  0  0  0  0  # atno 17371 bound_to 10713
  139.8768  134.9958  156.5761 LP  0  0  0  0  0  0  0  0  0  0  0  0  # atno 17394 bound_to 11000
  140.8035  133.8486  155.8747 LP  0  0  0  0  0  0  0  0  0  0  0  0  # atno 17395 bound_to 11000

$$$$
