AV-unprocessed.smi:1309|AV-procd|sdf|5444|dock10
  -GOLD-   22720 5 13D 1   1.00000     0.00000
 Structure written by MMmdl.
 41 42  0  0  0  0  0  0  0  0  1 V2000
  144.7626  145.0163  152.6860 C   0  0  0  0  0  0  0  0  0  0  0  0
  144.2742  144.3707  153.9909 C   0  0  0  0  0  0  0  0  0  0  0  0
  143.8397  145.3993  155.0454 C   0  0  0  0  0  0  0  0  0  0  0  0
  145.2623  143.3888  154.5375 C   0  0  0  0  0  0  0  0  0  0  0  0
  146.2833  142.8936  153.8317 N   0  0  0  0  0  0  0  0  0  0  0  0
  147.0714  142.0035  154.5686 C   0  0  0  0  0  0  0  0  0  0  0  0
  148.2716  141.3631  153.9343 C   0  0  0  0  0  0  0  0  0  0  0  0
  149.4727  141.4472  154.8777 C   0  0  0  0  0  0  0  0  0  0  0  0
  150.3127  140.5477  154.8885 O   0  0  0  0  0  0  0  0  0  0  0  0
  149.5426  142.5325  155.6656 N   0  0  0  0  0  0  0  0  0  0  0  0
  150.6076  142.8089  156.6273 C   0  0  0  0  0  0  0  0  0  0  0  0
  150.7709  141.7150  157.6988 C   0  0  0  0  0  0  0  0  0  0  0  0
  150.2990  140.5922  157.5100 O   0  0  0  0  0  0  0  0  0  0  0  0
  151.4269  142.0326  158.8338 N   0  0  0  0  0  0  0  0  0  0  0  0
  151.9902  143.3432  159.1567 C   0  0  0  0  0  0  0  0  0  0  0  0
  152.3888  143.2690  160.6310 C   0  0  0  0  0  0  0  0  0  0  0  0
  152.6303  141.7863  160.8773 C   0  0  0  0  0  0  0  0  0  0  0  0
  151.6628  141.0864  159.9224 C   0  0  0  0  0  0  0  0  0  0  0  0
  146.6182  141.8174  155.8514 C   0  0  0  0  0  0  0  0  0  0  0  0
  145.1962  142.7672  156.1831 S   0  0  0  0  0  0  0  0  0  0  0  0
  144.9883  144.2593  151.9340 H   0  0  0  0  0  0  0  0  0  0  0  0
  145.6666  145.6042  152.8490 H   0  0  0  0  0  0  0  0  0  0  0  0
  144.0053  145.6808  152.2689 H   0  0  0  0  0  0  0  0  0  0  0  0
  143.3819  143.7977  153.7353 H   0  0  0  0  0  0  0  0  0  0  0  0
  143.4236  144.9074  155.9252 H   0  0  0  0  0  0  0  0  0  0  0  0
  143.0766  146.0698  154.6494 H   0  0  0  0  0  0  0  0  0  0  0  0
  144.6810  146.0114  155.3725 H   0  0  0  0  0  0  0  0  0  0  0  0
  148.0716  140.3179  153.6941 H   0  0  0  0  0  0  0  0  0  0  0  0
  148.5185  141.8529  152.9915 H   0  0  0  0  0  0  0  0  0  0  0  0
  148.8039  143.2171  155.5961 H   0  0  0  0  0  0  0  0  0  0  0  0
  151.5490  142.9558  156.0954 H   0  0  0  0  0  0  0  0  0  0  0  0
  150.3742  143.7513  157.1227 H   0  0  0  0  0  0  0  0  0  0  0  0
  152.8687  143.5168  158.5337 H   0  0  0  0  0  0  0  0  0  0  0  0
  151.2822  144.1549  158.9839 H   0  0  0  0  0  0  0  0  0  0  0  0
  153.2576  143.8848  160.8657 H   0  0  0  0  0  0  0  0  0  0  0  0
  151.5595  143.6107  161.2517 H   0  0  0  0  0  0  0  0  0  0  0  0
  153.6567  141.5349  160.6069 H   0  0  0  0  0  0  0  0  0  0  0  0
  152.4791  141.4992  161.9182 H   0  0  0  0  0  0  0  0  0  0  0  0
  150.7161  140.8757  160.4221 H   0  0  0  0  0  0  0  0  0  0  0  0
  152.0744  140.1419  159.5633 H   0  0  0  0  0  0  0  0  0  0  0  0
  147.0366  141.1859  156.6209 H   0  0  0  0  0  0  0  0  0  0  0  0
  1  2  1  0  0  0  0
  1 21  1  0  0  0  0
  1 22  1  0  0  0  0
  1 23  1  0  0  0  0
  2  3  1  0  0  0  0
  2  4  1  0  0  0  0
  2 24  1  0  0  0  0
  3 25  1  0  0  0  0
  3 26  1  0  0  0  0
  3 27  1  0  0  0  0
  4 20  1  0  0  0  0
  4  5  2  0  0  0  0
  5  6  1  0  0  0  0
  6  7  1  0  0  0  0
  6 19  2  0  0  0  0
  7  8  1  0  0  0  0
  7 28  1  0  0  0  0
  7 29  1  0  0  0  0
  8  9  2  0  0  0  0
  8 10  1  0  0  0  0
 10 11  1  0  0  0  0
 10 30  1  0  0  0  0
 11 12  1  0  0  0  0
 11 31  1  0  0  0  0
 11 32  1  0  0  0  0
 12 13  2  0  0  0  0
 12 14  1  0  0  0  0
 14 18  1  0  0  0  0
 14 15  1  0  0  0  0
 15 16  1  0  0  0  0
 15 33  1  0  0  0  0
 15 34  1  0  0  0  0
 16 17  1  0  0  0  0
 16 35  1  0  0  0  0
 16 36  1  0  0  0  0
 17 18  1  0  0  0  0
 17 37  1  0  0  0  0
 17 38  1  0  0  0  0
 18 39  1  0  0  0  0
 18 40  1  0  0  0  0
 19 20  1  0  0  0  0
 19 41  1  0  0  0  0
M  END
> <s_m_source_file>
AV-unprocessed.smi

> <i_m_source_file_index>
1309

> <i_lp_mmshare_version>
43012

> <i_f3d_flags>
0

> <s_epik_input>
W0NIM11bQ0hdKFtDSDNdKWMxbmMoW2NIXXMxKVtDSDJdQyg9TylbTkhdW0NIMl1DKD1PKU4yW0NIMl1bQ0gyXVtDSDJdW0NIMl0y

> <s_epik_cmdline>
J2VwaWtfcHl0aG9uJywgJy1waCcsICc3LjAnLCAnLXRuJywgJzgnLCAnLW1hJywgJzIwMCcsICctbWV0YWxfYmluZGluZycsICctaW1hZScsICc8aW5maWxlLm1hZT4nLCAnLW9tYWUnLCAnPG91dGZpbGUubWFlPic=

> <r_lp_tautomer_probability>
1

> <r_epik_Ionization_Penalty>
2.87584e-05

> <r_epik_Ionization_Penalty_Charging>
0

> <r_epik_Ionization_Penalty_Neutral>
2.87584e-05

> <r_epik_State_Penalty>
-0

> <r_epik_Charging_Adjusted_Penalty>
0

> <i_epik_Tot_Q>
0

> <i_epik_Tot_abs_Q>
0

> <r_epik_Metal_State_Penalty>
-0

> <b_epik_Metal_Only>
0

> <s_lp_Force_Field>
OPLS_2005

> <r_lp_Energy>
16.8696

> <b_lp_Chiralities_Consistent>
1

> <s_lp_Variant>
AV-unprocessed.smi:1309-1

> <Gold.Version>
5.8.1

> <Gold.Id.Protein>
6NUR|6NUR_protein|mol2

> <Gold.PLP.Fitness>
46.4714

> <Gold.PLP.PLP>
-43.6667

> <Gold.PLP.part.hbond>
-1.7518

> <Gold.PLP.part.metal>
0.0000

> <Gold.PLP.part.buried>
-5.2080

> <Gold.PLP.part.nonpolar>
-37.0042

> <Gold.PLP.part.repulsive>
0.4824

> <Gold.PLP.ligand.clash>
0.0000

> <Gold.PLP.ligand.torsion>
1.3027

> <Gold.PLP.Chemscore.Hbond>
1.7680

> <Gold.PLP.Chemscore.CHOScore>
0.0000

> <Gold.PLP.Chemscore.Metal>
0.0000

> <Gold.Chemscore.Hbonds>
donor molecule, donor type, donor heavy atom, donor atom, acceptor molecule, acceptor atom, score
      L1  H    10    30       P1  8028  0.56
      P1  H  7989  7998       L1     9  0.96

> <Gold.PLP.Chemscore.Internal.Correction>
0.1060

> <Gold.Rescore>
     Score         DG    S(hbond)    S(metal)    S(lipo)     H(rot)  DE(clash)    DE(int)     intcor
     15.73     -16.72       1.63        0.00      86.68       1.70       0.09       0.89       ----

> <Gold.Chemscore.Fitness>
15.7339

> <Gold.Chemscore.DG>
-16.7162

> <Gold.Chemscore.ZeroCoef>
-5.4800

> <Gold.Chemscore.Hbond>
1.6299

> <Gold.Chemscore.Metal>
0.0000

> <Gold.Chemscore.Lipo>
86.6842

> <Gold.Chemscore.Internal_Hbond>
0.0000

> <Gold.Chemscore.DEClash>
0.0882

> <Gold.Chemscore.DEInternal>
0.8942

> <Gold.Chemscore.Rot>
1.6991

> <Gold.Chemscore.Internal.Correction>
   9.000000E+99

> <Gold.Chemscore.Hbonds>
donor molecule, donor type, donor heavy atom, donor atom, acceptor molecule, acceptor atom, score
      L1  H    10    30       P1  8028  0.53
      P1  H  7989  7998       L1     9  0.64

> <Gold.Chemscore.Hbond.Weighted>
-5.4438

> <Gold.Chemscore.Metal.Weighted>
-0.0000

> <Gold.Chemscore.Lipo.Weighted>
-10.1420

> <Gold.Chemscore.Internal_Hbond.Weighted>
0.0000

> <Gold.Chemscore.DEClash.Weighted>
0.0882

> <Gold.Chemscore.DEInternal.Weighted>
0.8942

> <Gold.Chemscore.Rot.Weighted>
4.3497

> <Gold.Chemscore.Internal.Correction.Weighted>
   9.000000E+99

> <Gold.Protein.RotatedTorsions>
[ 6907 6896 6895 6894 ] final -141.21 input  -60.11 | X-H torsion
[ 7974 7965 7964 7962 ] final -157.82 input  175.53 | X-H torsion
[ 8008 7997 7996 7995 ] final   73.15 input   59.86 | X-H torsion
[ 10167 10162 10161 10158 ] final   36.08 input  -65.29 | X-H torsion
[ 10718 10713 10712 10709 ] final -161.99 input   66.30 | X-H torsion
[ 10763 10752 10751 10750 ] final  111.61 input  -60.55 | X-H torsion
[ 11005 11000 10999 10996 ] final  -66.45 input  -57.11 | X-H torsion

> <Gold.Protein.ActiveResidues>
 VAL166  LYS551  ARG553  GLY616  TRP617  ASP618  TYR619  PRO620  LYS621  CYS622 
 ASP623  PHE694  ASN695  SER759  ASP760  ASP761  ALA762  ILE779  LEU786  VAL792 
 PHE793  MET794  SER795  GLU796  ALA797  LYS798  CYS799  TRP800  GLU811  SER814 

> <Gold.Protein.RotatedAtoms>
  151.0708  133.5467  159.2627 H   0  0  0  0  0  0  0  0  0  0  0  0  # atno 6907 bound_to 6896
  151.2407  135.0587  159.9034 H   0  0  0  0  0  0  0  0  0  0  0  0  # atno 6908 bound_to 6896
  152.5411  134.0483  159.8152 H   0  0  0  0  0  0  0  0  0  0  0  0  # atno 6909 bound_to 6896
  144.7531  140.3914  143.6032 H   0  0  0  0  0  0  0  0  0  0  0  0  # atno 7974 bound_to 7965
  155.7794  140.3482  155.5289 H   0  0  0  0  0  0  0  0  0  0  0  0  # atno 8008 bound_to 7997
  155.8744  140.0992  157.1549 H   0  0  0  0  0  0  0  0  0  0  0  0  # atno 8009 bound_to 7997
  154.4020  140.1334  156.4105 H   0  0  0  0  0  0  0  0  0  0  0  0  # atno 8010 bound_to 7997
  140.4161  144.1524  150.6143 H   0  0  0  0  0  0  0  0  0  0  0  0  # atno 10167 bound_to 10162
  156.6041  130.8823  151.2921 H   0  0  0  0  0  0  0  0  0  0  0  0  # atno 10718 bound_to 10713
  153.4659  135.3711  155.2364 H   0  0  0  0  0  0  0  0  0  0  0  0  # atno 10763 bound_to 10752
  154.8757  135.3919  154.3870 H   0  0  0  0  0  0  0  0  0  0  0  0  # atno 10764 bound_to 10752
  153.4450  135.7085  153.6209 H   0  0  0  0  0  0  0  0  0  0  0  0  # atno 10765 bound_to 10752
  141.1482  133.6700  156.6142 H   0  0  0  0  0  0  0  0  0  0  0  0  # atno 11005 bound_to 11000
  145.6872  139.1631  143.2667 LP  0  0  0  0  0  0  0  0  0  0  0  0  # atno 17320 bound_to 7965
  146.1508  140.6927  142.9323 LP  0  0  0  0  0  0  0  0  0  0  0  0  # atno 17321 bound_to 7965
  140.4584  143.2458  151.9253 LP  0  0  0  0  0  0  0  0  0  0  0  0  # atno 17342 bound_to 10162
  139.4782  144.5492  151.8412 LP  0  0  0  0  0  0  0  0  0  0  0  0  # atno 17343 bound_to 10162
  157.7272  130.9639  150.1688 LP  0  0  0  0  0  0  0  0  0  0  0  0  # atno 17370 bound_to 10713
  156.2444  130.3694  149.8301 LP  0  0  0  0  0  0  0  0  0  0  0  0  # atno 17371 bound_to 10713
  140.3591  134.7703  157.4521 LP  0  0  0  0  0  0  0  0  0  0  0  0  # atno 17394 bound_to 11000
  140.0799  134.5745  155.8551 LP  0  0  0  0  0  0  0  0  0  0  0  0  # atno 17395 bound_to 11000

$$$$
