AV-unprocessed.smi:1920|AV-procd|sdf|7781|dock4
  -GOLD-   22720 9523D 1   1.00000     0.00000
 Structure written by MMmdl.
 36 37  0  0  0  0  0  0  0  0  1 V2000
  151.1009  137.9135  156.0549 C   0  0  0  0  0  0  0  0  0  0  0  0
  150.1345  139.1066  156.1386 C   0  0  2  0  0  0  0  0  0  0  0  0
  150.1734  140.0043  154.8820 C   0  0  0  0  0  0  0  0  0  0  0  0
  148.8583  140.2235  154.3096 N   0  0  0  0  0  0  0  0  0  0  0  0
  148.0635  139.2878  153.6602 C   0  0  0  0  0  0  0  0  0  0  0  0
  146.9077  139.9400  153.2945 C   0  0  0  0  0  0  0  0  0  0  0  0
  146.9662  141.2675  153.7126 N   0  0  0  0  0  0  0  0  0  0  0  0
  148.1480  141.3600  154.3087 C   0  0  0  0  0  0  0  0  0  0  0  0
  150.4441  139.8890  157.3320 N   0  0  0  0  0  0  0  0  0  0  0  0
  151.6774  140.2152  157.7494 C   0  0  0  0  0  0  0  0  0  0  0  0
  152.7031  139.8788  157.1574 O   0  0  0  0  0  0  0  0  0  0  0  0
  151.7666  141.0503  159.0315 C   0  0  0  0  0  0  0  0  0  0  0  0
  152.4636  142.4142  158.8340 C   0  0  2  0  0  0  0  0  0  0  0  0
  152.5870  143.2201  160.1049 C   0  0  0  0  0  0  0  0  0  0  0  0
  152.0762  144.4437  159.9900 C   0  0  0  0  0  0  0  0  0  0  0  0
  151.5080  144.7048  158.6228 C   0  0  0  0  0  0  0  0  0  0  0  0
  151.6897  143.3614  157.8811 C   0  0  0  0  0  0  0  0  0  0  0  0
  150.8472  137.2497  155.2281 H   0  0  0  0  0  0  0  0  0  0  0  0
  151.0683  137.3178  156.9677 H   0  0  0  0  0  0  0  0  0  0  0  0
  152.1292  138.2465  155.9108 H   0  0  0  0  0  0  0  0  0  0  0  0
  149.1263  138.7021  156.2474 H   0  0  0  0  0  0  0  0  0  0  0  0
  150.6002  140.9796  155.1190 H   0  0  0  0  0  0  0  0  0  0  0  0
  150.8157  139.5602  154.1199 H   0  0  0  0  0  0  0  0  0  0  0  0
  148.3793  138.2652  153.5145 H   0  0  0  0  0  0  0  0  0  0  0  0
  146.0445  139.5585  152.7691 H   0  0  0  0  0  0  0  0  0  0  0  0
  148.5061  142.2775  154.7522 H   0  0  0  0  0  0  0  0  0  0  0  0
  149.6599  140.2098  157.8813 H   0  0  0  0  0  0  0  0  0  0  0  0
  150.7522  141.2086  159.3987 H   0  0  0  0  0  0  0  0  0  0  0  0
  152.2869  140.4803  159.8031 H   0  0  0  0  0  0  0  0  0  0  0  0
  153.4713  142.2600  158.4448 H   0  0  0  0  0  0  0  0  0  0  0  0
  153.0582  142.8282  160.9947 H   0  0  0  0  0  0  0  0  0  0  0  0
  152.0669  145.1908  160.7698 H   0  0  0  0  0  0  0  0  0  0  0  0
  150.4582  144.9912  158.6923 H   0  0  0  0  0  0  0  0  0  0  0  0
  152.0592  145.5113  158.1387 H   0  0  0  0  0  0  0  0  0  0  0  0
  152.2304  143.5007  156.9444 H   0  0  0  0  0  0  0  0  0  0  0  0
  150.7134  142.9477  157.6245 H   0  0  0  0  0  0  0  0  0  0  0  0
  1  2  1  0  0  0  0
  1 18  1  0  0  0  0
  1 19  1  0  0  0  0
  1 20  1  0  0  0  0
  2  3  1  0  0  0  0
  2  9  1  0  0  0  0
  2 21  1  0  0  0  0
  3  4  1  0  0  0  0
  3 22  1  0  0  0  0
  3 23  1  0  0  0  0
  4  8  1  0  0  0  0
  4  5  1  0  0  0  0
  5  6  2  0  0  0  0
  5 24  1  0  0  0  0
  6  7  1  0  0  0  0
  6 25  1  0  0  0  0
  7  8  2  0  0  0  0
  8 26  1  0  0  0  0
  9 10  1  0  0  0  0
  9 27  1  0  0  0  0
 10 11  2  0  0  0  0
 10 12  1  0  0  0  0
 12 13  1  0  0  0  0
 12 28  1  0  0  0  0
 12 29  1  0  0  0  0
 13 17  1  0  0  0  0
 13 14  1  0  0  0  0
 13 30  1  0  0  0  0
 14 15  2  0  0  0  0
 14 31  1  0  0  0  0
 15 16  1  0  0  0  0
 15 32  1  0  0  0  0
 16 17  1  0  0  0  0
 16 33  1  0  0  0  0
 16 34  1  0  0  0  0
 17 35  1  0  0  0  0
 17 36  1  0  0  0  0
M  END
> <s_m_source_file>
AV-unprocessed.smi

> <i_m_source_file_index>
1920

> <i_lp_mmshare_version>
43012

> <i_f3d_flags>
0

> <s_epik_input>
W2NIXTFuW2NIXVtjSF1uMVtDSDJdW0NAQEhdKFtDSDNdKVtOSF1DKD1PKVtDSDJdW0NAQEhdMltDSF09W0NIXVtDSDJdW0NIMl0y

> <s_epik_cmdline>
J2VwaWtfcHl0aG9uJywgJy1waCcsICc3LjAnLCAnLXRuJywgJzgnLCAnLW1hJywgJzIwMCcsICctbWV0YWxfYmluZGluZycsICctaW1hZScsICc8aW5maWxlLm1hZT4nLCAnLW9tYWUnLCAnPG91dGZpbGUubWFlPic=

> <r_lp_tautomer_probability>
1

> <r_epik_Ionization_Penalty>
0.635367

> <r_epik_Ionization_Penalty_Charging>
0.635367

> <r_epik_Ionization_Penalty_Neutral>
2.1249e-08

> <r_epik_State_Penalty>
0.65258

> <r_epik_Charging_Adjusted_Penalty>
1.28795

> <i_epik_Tot_Q>
0

> <i_epik_Tot_abs_Q>
0

> <r_epik_Metal_State_Penalty>
0.310403

> <b_epik_Metal_Only>
0

> <s_lp_Force_Field>
OPLS_2005

> <r_lp_Energy>
18.8766

> <b_lp_Chiralities_Consistent>
1

> <s_lp_Variant>
AV-unprocessed.smi:1920-5

> <Gold.Version>
5.8.1

> <Gold.Id.Protein>
6NUR|6NUR_protein|mol2

> <Gold.PLP.Fitness>
43.2885

> <Gold.PLP.PLP>
-34.9791

> <Gold.PLP.part.hbond>
-1.0000

> <Gold.PLP.part.metal>
0.0000

> <Gold.PLP.part.buried>
-1.8117

> <Gold.PLP.part.nonpolar>
-32.5981

> <Gold.PLP.part.repulsive>
0.2055

> <Gold.PLP.ligand.clash>
0.0000

> <Gold.PLP.ligand.torsion>
1.0748

> <Gold.PLP.Chemscore.Hbond>
1.0000

> <Gold.PLP.Chemscore.CHOScore>
2.4683

> <Gold.PLP.Chemscore.Metal>
0.0000

> <Gold.Chemscore.Hbonds>
donor molecule, donor type, donor heavy atom, donor atom, acceptor molecule, acceptor atom, score
      P1  H  7997  8008       L1    11  1.00
      L1  C     5    24       P1  7948  0.66
      L1  C     6    25       P1 10175  0.96
      L1  C     8    26       P1  8028  0.79

> <Gold.PLP.Chemscore.Internal.Correction>
0.0541

> <Gold.Rescore>
     Score         DG    S(hbond)    S(metal)    S(lipo)     H(rot)  DE(clash)    DE(int)     intcor
     12.60     -15.06       1.00        0.00      95.58       1.93       0.03       2.43       ----

> <Gold.Chemscore.Fitness>
12.5964

> <Gold.Chemscore.DG>
-15.0577

> <Gold.Chemscore.ZeroCoef>
-5.4800

> <Gold.Chemscore.Hbond>
0.9991

> <Gold.Chemscore.Metal>
0.0000

> <Gold.Chemscore.Lipo>
95.5826

> <Gold.Chemscore.Internal_Hbond>
0.0000

> <Gold.Chemscore.DEClash>
0.0283

> <Gold.Chemscore.DEInternal>
2.4330

> <Gold.Chemscore.Rot>
1.9306

> <Gold.Chemscore.Internal.Correction>
   9.000000E+99

> <Gold.Chemscore.Hbonds>
donor molecule, donor type, donor heavy atom, donor atom, acceptor molecule, acceptor atom, score
      P1  H  7997  8008       L1    11  0.99

> <Gold.Chemscore.Hbond.Weighted>
-3.3369

> <Gold.Chemscore.Metal.Weighted>
-0.0000

> <Gold.Chemscore.Lipo.Weighted>
-11.1832

> <Gold.Chemscore.Internal_Hbond.Weighted>
0.0000

> <Gold.Chemscore.DEClash.Weighted>
0.0283

> <Gold.Chemscore.DEInternal.Weighted>
2.4330

> <Gold.Chemscore.Rot.Weighted>
4.9424

> <Gold.Chemscore.Internal.Correction.Weighted>
   9.000000E+99

> <Gold.Protein.RotatedTorsions>
[ 6907 6896 6895 6894 ] final  125.75 input  -60.11 | X-H torsion
[ 7974 7965 7964 7962 ] final  -83.36 input  175.53 | X-H torsion
[ 8008 7997 7996 7995 ] final  -51.97 input   59.86 | X-H torsion
[ 10167 10162 10161 10158 ] final    7.17 input  -65.29 | X-H torsion
[ 10718 10713 10712 10709 ] final   57.24 input   66.30 | X-H torsion
[ 10763 10752 10751 10750 ] final  -13.90 input  -60.55 | X-H torsion
[ 11005 11000 10999 10996 ] final  111.51 input  -57.11 | X-H torsion

> <Gold.Protein.ActiveResidues>
 VAL166  LYS551  ARG553  GLY616  TRP617  ASP618  TYR619  PRO620  LYS621  CYS622 
 ASP623  PHE694  ASN695  SER759  ASP760  ASP761  ALA762  ILE779  LEU786  VAL792 
 PHE793  MET794  SER795  GLU796  ALA797  LYS798  CYS799  TRP800  GLU811  SER814 

> <Gold.Protein.RotatedAtoms>
  152.3964  133.6753  159.6279 H   0  0  0  0  0  0  0  0  0  0  0  0  # atno 6907 bound_to 6896
  150.7863  133.8866  159.3310 H   0  0  0  0  0  0  0  0  0  0  0  0  # atno 6908 bound_to 6896
  151.6642  135.0987  160.0237 H   0  0  0  0  0  0  0  0  0  0  0  0  # atno 6909 bound_to 6896
  145.5210  140.9531  143.1655 H   0  0  0  0  0  0  0  0  0  0  0  0  # atno 7974 bound_to 7965
  154.4095  140.1235  156.4915 H   0  0  0  0  0  0  0  0  0  0  0  0  # atno 8008 bound_to 7997
  155.6985  140.3495  155.4903 H   0  0  0  0  0  0  0  0  0  0  0  0  # atno 8009 bound_to 7997
  155.9406  140.1086  157.1049 H   0  0  0  0  0  0  0  0  0  0  0  0  # atno 8010 bound_to 7997
  140.6387  143.7826  150.7396 H   0  0  0  0  0  0  0  0  0  0  0  0  # atno 10167 bound_to 10162
  157.5498  130.8757  149.8946 H   0  0  0  0  0  0  0  0  0  0  0  0  # atno 10718 bound_to 10713
  153.5202  135.7016  153.5735 H   0  0  0  0  0  0  0  0  0  0  0  0  # atno 10763 bound_to 10752
  153.3787  135.3925  155.1841 H   0  0  0  0  0  0  0  0  0  0  0  0  # atno 10764 bound_to 10752
  154.8695  135.3830  154.4690 H   0  0  0  0  0  0  0  0  0  0  0  0  # atno 10765 bound_to 10752
  139.8905  134.9509  156.6444 H   0  0  0  0  0  0  0  0  0  0  0  0  # atno 11005 bound_to 11000
  144.7676  139.6809  143.7208 LP  0  0  0  0  0  0  0  0  0  0  0  0  # atno 17320 bound_to 7965
  146.2106  139.5460  142.9683 LP  0  0  0  0  0  0  0  0  0  0  0  0  # atno 17321 bound_to 7965
  140.1453  143.4405  152.2167 LP  0  0  0  0  0  0  0  0  0  0  0  0  # atno 17342 bound_to 10162
  139.5596  144.7397  151.4193 LP  0  0  0  0  0  0  0  0  0  0  0  0  # atno 17343 bound_to 10162
  156.0567  130.3707  150.1075 LP  0  0  0  0  0  0  0  0  0  0  0  0  # atno 17370 bound_to 10713
  156.9248  130.9695  151.3542 LP  0  0  0  0  0  0  0  0  0  0  0  0  # atno 17371 bound_to 10713
  140.7569  133.8850  155.8389 LP  0  0  0  0  0  0  0  0  0  0  0  0  # atno 17394 bound_to 11000
  140.9954  134.1222  157.4368 LP  0  0  0  0  0  0  0  0  0  0  0  0  # atno 17395 bound_to 11000

$$$$
