AV-unprocessed.smi:261|AV-procd|sdf|1995|dock3
  -GOLD-   2262021183D 1   1.00000     0.00000
 Structure written by MMmdl.
 51 54  0  0  0  0  0  0  0  0  1 V2000
  153.4803  142.4930  162.4074 C   0  0  0  0  0  0  0  0  0  0  0  0
  153.9569  141.9092  161.2060 O   0  0  0  0  0  0  0  0  0  0  0  0
  152.9248  141.3735  160.3912 C   0  0  1  0  0  0  0  0  0  0  0  0
  152.0166  142.4801  159.8687 C   0  0  0  0  0  0  0  0  0  0  0  0
  151.3590  141.8307  158.6444 C   0  0  1  0  0  0  0  0  0  0  0  0
  150.8611  142.8740  157.6342 C   0  0  0  0  0  0  0  0  0  0  0  0
  149.5986  142.7519  157.2172 N   0  0  0  0  0  0  0  0  0  0  0  0
  151.5932  143.7823  157.2449 O   0  0  0  0  0  0  0  0  0  0  0  0
  152.4120  140.9779  158.0866 N   0  0  0  0  0  0  0  0  0  0  0  0
  151.9817  139.8865  157.4165 C   0  0  0  0  0  0  0  0  0  0  0  0
  152.3651  139.7605  156.1229 N   0  0  0  0  0  0  0  0  0  0  0  0
  151.9601  138.7069  155.4070 C   0  0  0  0  0  0  0  0  0  0  0  0
  151.1825  137.6891  155.7844 N   0  0  0  0  0  0  0  0  0  0  0  0
  150.7970  137.8162  157.0866 C   0  0  0  0  0  0  0  0  0  0  0  0
  151.1505  138.8731  157.9704 C   0  0  0  0  0  0  0  0  0  0  0  0
  150.5723  138.6653  159.2171 N   0  0  0  0  0  0  0  0  0  0  0  0
  149.9071  137.5513  159.0757 C   0  0  0  0  0  0  0  0  0  0  0  0
  149.9809  136.9792  157.8256 N   0  0  0  0  0  0  0  0  0  0  0  0
  149.3314  135.7566  157.3888 C   0  0  0  0  0  0  0  0  0  0  0  0
  150.2727  134.8350  156.5854 C   0  0  1  0  0  0  0  0  0  0  0  0
  151.2452  134.2951  157.4574 O   0  0  0  0  0  0  0  0  0  0  0  0
  149.5567  133.7112  155.8018 C   0  0  1  0  0  0  0  0  0  0  0  0
  148.7326  134.1439  154.5775 C   0  0  0  0  0  0  0  0  0  0  0  0
  149.1439  133.1585  153.4936 C   0  0  0  0  0  0  0  0  0  0  0  0
  149.8463  132.0467  154.2658 C   0  0  0  0  0  0  0  0  0  0  0  0
  150.4826  132.7436  155.3233 O   0  0  0  0  0  0  0  0  0  0  0  0
  153.4371  140.7329  159.0971 C   0  0  0  0  0  0  0  0  0  0  0  0
  152.3190  140.6583  160.9510 H   0  0  0  0  0  0  0  0  0  0  0  0
  150.5164  141.2211  158.9774 H   0  0  0  0  0  0  0  0  0  0  0  0
  154.3192  142.9006  162.9714 H   0  0  0  0  0  0  0  0  0  0  0  0
  152.9794  141.7591  163.0394 H   0  0  0  0  0  0  0  0  0  0  0  0
  152.7868  143.3090  162.2009 H   0  0  0  0  0  0  0  0  0  0  0  0
  151.2913  142.8100  160.6131 H   0  0  0  0  0  0  0  0  0  0  0  0
  152.6163  143.3447  159.5766 H   0  0  0  0  0  0  0  0  0  0  0  0
  149.2201  143.4113  156.5530 H   0  0  0  0  0  0  0  0  0  0  0  0
  149.0265  141.9980  157.5694 H   0  0  0  0  0  0  0  0  0  0  0  0
  152.3071  138.6765  154.3846 H   0  0  0  0  0  0  0  0  0  0  0  0
  149.3316  137.1194  159.8817 H   0  0  0  0  0  0  0  0  0  0  0  0
  148.9482  135.2366  158.2677 H   0  0  0  0  0  0  0  0  0  0  0  0
  148.4650  136.0281  156.7841 H   0  0  0  0  0  0  0  0  0  0  0  0
  150.8156  135.4455  155.8632 H   0  0  0  0  0  0  0  0  0  0  0  0
  152.0936  134.6179  157.1939 H   0  0  0  0  0  0  0  0  0  0  0  0
  148.8820  133.1844  156.4794 H   0  0  0  0  0  0  0  0  0  0  0  0
  147.6666  134.0687  154.7950 H   0  0  0  0  0  0  0  0  0  0  0  0
  148.9282  135.1686  154.2617 H   0  0  0  0  0  0  0  0  0  0  0  0
  148.3015  132.7962  152.9037 H   0  0  0  0  0  0  0  0  0  0  0  0
  149.8512  133.6355  152.8141 H   0  0  0  0  0  0  0  0  0  0  0  0
  149.1242  131.3385  154.6758 H   0  0  0  0  0  0  0  0  0  0  0  0
  150.5628  131.4959  153.6561 H   0  0  0  0  0  0  0  0  0  0  0  0
  154.3490  141.2296  158.7629 H   0  0  0  0  0  0  0  0  0  0  0  0
  153.6755  139.6770  159.2379 H   0  0  0  0  0  0  0  0  0  0  0  0
  1  2  1  0  0  0  0
  1 30  1  0  0  0  0
  1 31  1  0  0  0  0
  1 32  1  0  0  0  0
  2  3  1  0  0  0  0
  3 28  1  0  0  0  0
  3 27  1  0  0  0  0
  3  4  1  0  0  0  0
  4  5  1  0  0  0  0
  4 33  1  0  0  0  0
  4 34  1  0  0  0  0
  5 29  1  0  0  0  0
  5  6  1  0  0  0  0
  5  9  1  0  0  0  0
  6  7  1  0  0  0  0
  6  8  2  0  0  0  0
  7 35  1  0  0  0  0
  7 36  1  0  0  0  0
  9 10  1  0  0  0  0
  9 27  1  0  0  0  0
 10 15  1  0  0  0  0
 10 11  2  0  0  0  0
 11 12  1  0  0  0  0
 12 13  2  0  0  0  0
 12 37  1  0  0  0  0
 13 14  1  0  0  0  0
 14 18  1  0  0  0  0
 14 15  2  0  0  0  0
 15 16  1  0  0  0  0
 16 17  2  0  0  0  0
 17 18  1  0  0  0  0
 17 38  1  0  0  0  0
 18 19  1  0  0  0  0
 19 20  1  0  0  0  0
 19 39  1  0  0  0  0
 19 40  1  0  0  0  0
 20 21  1  0  0  0  0
 20 22  1  0  0  0  0
 20 41  1  0  0  0  0
 21 42  1  0  0  0  0
 22 26  1  0  0  0  0
 22 23  1  0  0  0  0
 22 43  1  0  0  0  0
 23 24  1  0  0  0  0
 23 44  1  0  0  0  0
 23 45  1  0  0  0  0
 24 25  1  0  0  0  0
 24 46  1  0  0  0  0
 24 47  1  0  0  0  0
 25 26  1  0  0  0  0
 25 48  1  0  0  0  0
 25 49  1  0  0  0  0
 27 50  1  0  0  0  0
 27 51  1  0  0  0  0
M  END
> <s_m_source_file>
AV-unprocessed.smi

> <i_m_source_file_index>
261

> <i_lp_mmshare_version>
43012

> <i_f3d_flags>
0

> <s_epik_input>
W0NIM11PW0NASF0xW0NIMl1bQ0BASF0oQyg9TylbTkgyXSlOKFtDSDJdMSljKG5bY0hdbjIpYyhjMjMpbltjSF1uM1tDSDJdW0NASF0oW09IXSlbQ0BASF00W0NIMl1bQ0gyXVtDSDJdTzQ=

> <s_epik_cmdline>
J2VwaWtfcHl0aG9uJywgJy1waCcsICc3LjAnLCAnLXRuJywgJzgnLCAnLW1hJywgJzIwMCcsICctbWV0YWxfYmluZGluZycsICctaW1hZScsICc8aW5maWxlLm1hZT4nLCAnLW9tYWUnLCAnPG91dGZpbGUubWFlPic=

> <r_lp_tautomer_probability>
1

> <r_epik_Ionization_Penalty>
0.000713824

> <r_epik_Ionization_Penalty_Charging>
0

> <r_epik_Ionization_Penalty_Neutral>
0.000713824

> <r_epik_State_Penalty>
0.000402132

> <r_epik_Charging_Adjusted_Penalty>
0.000402132

> <i_epik_Tot_Q>
0

> <i_epik_Tot_abs_Q>
0

> <r_epik_Metal_State_Penalty>
-0

> <b_epik_Metal_Only>
0

> <s_lp_Force_Field>
OPLS_2005

> <r_lp_Energy>
47.7975

> <b_lp_Chiralities_Consistent>
1

> <s_lp_Variant>
AV-unprocessed.smi:261-13

> <Gold.Version>
5.8.1

> <Gold.Id.Protein>
6NUR|6NUR_protein|mol2

> <Gold.PLP.Fitness>
44.2863

> <Gold.PLP.PLP>
-38.5689

> <Gold.PLP.part.hbond>
-4.0003

> <Gold.PLP.part.metal>
0.0000

> <Gold.PLP.part.buried>
-5.5370

> <Gold.PLP.part.nonpolar>
-29.7466

> <Gold.PLP.part.repulsive>
0.1630

> <Gold.PLP.ligand.clash>
0.0000

> <Gold.PLP.ligand.torsion>
0.7247

> <Gold.PLP.Chemscore.Hbond>
2.3040

> <Gold.PLP.Chemscore.CHOScore>
0.0000

> <Gold.PLP.Chemscore.Metal>
0.0000

> <Gold.Chemscore.Hbonds>
donor molecule, donor type, donor heavy atom, donor atom, acceptor molecule, acceptor atom, score
      L1  H     7    35       P1  8028  1.00
      P1  H  6896  6909       L1    21  0.27
      P1  H  7997  8010       L1    11  0.98

> <Gold.PLP.Chemscore.Internal.Correction>
0.2547

> <Gold.Rescore>
     Score         DG    S(hbond)    S(metal)    S(lipo)     H(rot)  DE(clash)    DE(int)     intcor
     11.26     -11.81       1.94        0.00      77.04       3.57       0.07       0.48       ----

> <Gold.Chemscore.Fitness>
11.2633

> <Gold.Chemscore.DG>
-11.8107

> <Gold.Chemscore.ZeroCoef>
-5.4800

> <Gold.Chemscore.Hbond>
1.9360

> <Gold.Chemscore.Metal>
0.0000

> <Gold.Chemscore.Lipo>
77.0406

> <Gold.Chemscore.Internal_Hbond>
0.0000

> <Gold.Chemscore.DEClash>
0.0712

> <Gold.Chemscore.DEInternal>
0.4762

> <Gold.Chemscore.Rot>
3.5740

> <Gold.Chemscore.Internal.Correction>
   9.000000E+99

> <Gold.Chemscore.Hbonds>
donor molecule, donor type, donor heavy atom, donor atom, acceptor molecule, acceptor atom, score
      L1  H     7    35       P1  8028  0.98
      P1  H  6896  6909       L1    21  0.26
      P1  H  7997  8010       L1    11  0.43

> <Gold.Chemscore.Hbond.Weighted>
-6.4664

> <Gold.Chemscore.Metal.Weighted>
-0.0000

> <Gold.Chemscore.Lipo.Weighted>
-9.0137

> <Gold.Chemscore.Internal_Hbond.Weighted>
0.0000

> <Gold.Chemscore.DEClash.Weighted>
0.0712

> <Gold.Chemscore.DEInternal.Weighted>
0.4762

> <Gold.Chemscore.Rot.Weighted>
9.1495

> <Gold.Chemscore.Internal.Correction.Weighted>
   9.000000E+99

> <Gold.Protein.RotatedTorsions>
[ 6907 6896 6895 6894 ] final  -11.41 input  -60.11 | X-H torsion
[ 7974 7965 7964 7962 ] final   87.75 input  175.53 | X-H torsion
[ 8008 7997 7996 7995 ] final   91.42 input   59.86 | X-H torsion
[ 10167 10162 10161 10158 ] final -103.82 input  -65.29 | X-H torsion
[ 10718 10713 10712 10709 ] final  176.91 input   66.30 | X-H torsion
[ 10763 10752 10751 10750 ] final   49.73 input  -60.55 | X-H torsion
[ 11005 11000 10999 10996 ] final -118.45 input  -57.11 | X-H torsion

> <Gold.Protein.ActiveResidues>
 VAL166  LYS551  ARG553  GLY616  TRP617  ASP618  TYR619  PRO620  LYS621  CYS622 
 ASP623  PHE694  ASN695  SER759  ASP760  ASP761  ALA762  ILE779  LEU786  VAL792 
 PHE793  MET794  SER795  GLU796  ALA797  LYS798  CYS799  TRP800  GLU811  SER814 

> <Gold.Protein.RotatedAtoms>
  151.3867  135.0949  159.9512 H   0  0  0  0  0  0  0  0  0  0  0  0  # atno 6907 bound_to 6896
  152.5092  133.9019  159.7456 H   0  0  0  0  0  0  0  0  0  0  0  0  # atno 6908 bound_to 6896
  150.9464  133.6542  159.2809 H   0  0  0  0  0  0  0  0  0  0  0  0  # atno 6909 bound_to 6896
  145.5548  139.2298  143.2492 H   0  0  0  0  0  0  0  0  0  0  0  0  # atno 7974 bound_to 7965
  156.0236  140.3338  155.7065 H   0  0  0  0  0  0  0  0  0  0  0  0  # atno 8008 bound_to 7997
  155.5987  140.0653  157.2756 H   0  0  0  0  0  0  0  0  0  0  0  0  # atno 8009 bound_to 7997
  154.4325  140.1814  156.1138 H   0  0  0  0  0  0  0  0  0  0  0  0  # atno 8010 bound_to 7997
  140.2159  143.3712  152.1011 H   0  0  0  0  0  0  0  0  0  0  0  0  # atno 10167 bound_to 10162
  156.9132  130.9916  151.3017 H   0  0  0  0  0  0  0  0  0  0  0  0  # atno 10718 bound_to 10713
  152.9786  135.5902  154.4137 H   0  0  0  0  0  0  0  0  0  0  0  0  # atno 10763 bound_to 10752
  154.3769  135.2767  155.2236 H   0  0  0  0  0  0  0  0  0  0  0  0  # atno 10764 bound_to 10752
  154.4166  135.6069  153.6039 H   0  0  0  0  0  0  0  0  0  0  0  0  # atno 10765 bound_to 10752
  141.0285  134.0017  157.3178 H   0  0  0  0  0  0  0  0  0  0  0  0  # atno 11005 bound_to 11000
  146.1892  140.6372  142.9153 LP  0  0  0  0  0  0  0  0  0  0  0  0  # atno 17320 bound_to 7965
  144.7511  140.5194  143.6801 LP  0  0  0  0  0  0  0  0  0  0  0  0  # atno 17321 bound_to 7965
  139.5162  144.6974  151.5590 LP  0  0  0  0  0  0  0  0  0  0  0  0  # atno 17342 bound_to 10162
  140.6290  143.9112  150.6589 LP  0  0  0  0  0  0  0  0  0  0  0  0  # atno 17343 bound_to 10162
  157.5954  130.8474  149.8722 LP  0  0  0  0  0  0  0  0  0  0  0  0  # atno 17370 bound_to 10713
  156.0526  130.3714  150.1166 LP  0  0  0  0  0  0  0  0  0  0  0  0  # atno 17371 bound_to 10713
  139.9192  135.0199  156.7999 LP  0  0  0  0  0  0  0  0  0  0  0  0  # atno 17394 bound_to 11000
  140.6448  133.9785  155.7725 LP  0  0  0  0  0  0  0  0  0  0  0  0  # atno 17395 bound_to 11000

$$$$
