AV-unprocessed.smi:2981|AV-procd|sdf|11375|dock4
  -GOLD-   2272016293D 1   1.00000     0.00000
 Structure written by MMmdl.
 31 32  0  0  0  0  0  0  0  0  1 V2000
  150.5930  140.7394  157.8670 O   0  0  0  0  0  0  0  0  0  0  0  0
  150.6321  141.9101  157.4855 C   0  0  0  0  0  0  0  0  0  0  0  0
  151.8621  142.7857  157.7653 C   0  0  0  0  0  0  0  0  0  0  0  0
  152.3248  142.7052  159.1589 N   0  0  0  0  0  0  0  0  0  0  0  0
  151.9331  143.7733  159.9469 N   0  0  0  0  0  0  0  0  0  0  0  0
  152.2666  143.7993  161.1912 C   0  0  0  0  0  0  0  0  0  0  0  0
  153.0472  142.7461  161.8019 C   0  0  0  0  0  0  0  0  0  0  0  0
  153.4642  142.8357  163.4769 Cl  0  0  0  0  0  0  0  0  0  0  0  0
  153.4317  141.7068  161.0190 C   0  0  0  0  0  0  0  0  0  0  0  0
  154.3685  140.4094  161.6777 Cl  0  0  0  0  0  0  0  0  0  0  0  0
  153.0702  141.6436  159.5960 C   0  0  0  0  0  0  0  0  0  0  0  0
  153.4017  140.7200  158.8515 O   0  0  0  0  0  0  0  0  0  0  0  0
  149.6238  142.5018  156.8277 N   0  0  0  0  0  0  0  0  0  0  0  0
  148.3721  141.8511  156.4548 C   0  0  1  0  0  0  0  0  0  0  0  0
  147.1677  142.5299  157.1330 C   0  0  0  0  0  0  0  0  0  0  0  0
  145.8831  142.0527  156.4444 C   0  0  0  0  0  0  0  0  0  0  0  0
  146.3351  141.7191  154.6993 S   0  0  0  0  0  0  0  0  0  0  0  0
  146.0124  140.3194  154.3834 O   0  0  0  0  0  0  0  0  0  0  0  0
  145.8560  142.8178  153.8469 O   0  0  0  0  0  0  0  0  0  0  0  0
  148.1434  141.8906  154.9354 C   0  0  0  0  0  0  0  0  0  0  0  0
  152.6734  142.5087  157.0891 H   0  0  0  0  0  0  0  0  0  0  0  0
  151.6071  143.8158  157.5092 H   0  0  0  0  0  0  0  0  0  0  0  0
  151.9780  144.6178  161.8507 H   0  0  0  0  0  0  0  0  0  0  0  0
  149.7351  143.4683  156.5575 H   0  0  0  0  0  0  0  0  0  0  0  0
  148.3918  140.8085  156.7780 H   0  0  0  0  0  0  0  0  0  0  0  0
  147.1422  142.3349  158.2056 H   0  0  0  0  0  0  0  0  0  0  0  0
  147.2477  143.6109  157.0082 H   0  0  0  0  0  0  0  0  0  0  0  0
  145.5334  141.1185  156.8845 H   0  0  0  0  0  0  0  0  0  0  0  0
  145.0762  142.7842  156.4929 H   0  0  0  0  0  0  0  0  0  0  0  0
  148.4440  142.8507  154.5142 H   0  0  0  0  0  0  0  0  0  0  0  0
  148.6694  141.0977  154.4030 H   0  0  0  0  0  0  0  0  0  0  0  0
  1  2  2  0  0  0  0
  2  3  1  0  0  0  0
  2 13  1  0  0  0  0
  3  4  1  0  0  0  0
  3 21  1  0  0  0  0
  3 22  1  0  0  0  0
  4 11  1  0  0  0  0
  4  5  1  0  0  0  0
  5  6  2  0  0  0  0
  6  7  1  0  0  0  0
  6 23  1  0  0  0  0
  7  8  1  0  0  0  0
  7  9  2  0  0  0  0
  9 10  1  0  0  0  0
  9 11  1  0  0  0  0
 11 12  2  0  0  0  0
 13 14  1  0  0  0  0
 13 24  1  0  0  0  0
 14 20  1  0  0  0  0
 14 15  1  0  0  0  0
 14 25  1  0  0  0  0
 15 16  1  0  0  0  0
 15 26  1  0  0  0  0
 15 27  1  0  0  0  0
 16 17  1  0  0  0  0
 16 28  1  0  0  0  0
 16 29  1  0  0  0  0
 17 18  2  0  0  0  0
 17 19  2  0  0  0  0
 17 20  1  0  0  0  0
 20 30  1  0  0  0  0
 20 31  1  0  0  0  0
M  END
> <s_m_source_file>
AV-unprocessed.smi

> <i_m_source_file_index>
2981

> <i_lp_mmshare_version>
43012

> <i_f3d_flags>
0

> <s_epik_input>
Tz1TMSg9TylbQ0gyXVtDSDJdW0NASF0oW0NIMl0xKVtOSF1DKD1PKVtDSDJdbjJuW2NIXWMoQ2wpYyhDbCljMj1P

> <s_epik_cmdline>
J2VwaWtfcHl0aG9uJywgJy1waCcsICc3LjAnLCAnLXRuJywgJzgnLCAnLW1hJywgJzIwMCcsICctbWV0YWxfYmluZGluZycsICctaW1hZScsICc8aW5maWxlLm1hZT4nLCAnLW9tYWUnLCAnPG91dGZpbGUubWFlPic=

> <r_lp_tautomer_probability>
1

> <r_epik_Ionization_Penalty>
1.07216e-07

> <r_epik_Ionization_Penalty_Charging>
2.33395e-11

> <r_epik_Ionization_Penalty_Neutral>
1.07193e-07

> <r_epik_State_Penalty>
-0

> <r_epik_Charging_Adjusted_Penalty>
2.33395e-11

> <i_epik_Tot_Q>
0

> <i_epik_Tot_abs_Q>
0

> <r_epik_Metal_State_Penalty>
-0

> <b_epik_Metal_Only>
0

> <s_lp_Force_Field>
OPLS_2005

> <r_lp_Energy>
17.277

> <b_lp_Chiralities_Consistent>
1

> <s_lp_Variant>
AV-unprocessed.smi:2981-2

> <Gold.Version>
5.8.1

> <Gold.Id.Protein>
6NUR|6NUR_protein|mol2

> <Gold.PLP.Fitness>
40.6330

> <Gold.PLP.PLP>
-37.8848

> <Gold.PLP.part.hbond>
-2.0000

> <Gold.PLP.part.metal>
0.0000

> <Gold.PLP.part.buried>
-3.4621

> <Gold.PLP.part.nonpolar>
-31.1017

> <Gold.PLP.part.repulsive>
0.3723

> <Gold.PLP.ligand.clash>
0.0000

> <Gold.PLP.ligand.torsion>
0.4027

> <Gold.PLP.Chemscore.Hbond>
1.1842

> <Gold.PLP.Chemscore.CHOScore>
0.0000

> <Gold.PLP.Chemscore.Metal>
0.0000

> <Gold.Chemscore.Hbonds>
donor molecule, donor type, donor heavy atom, donor atom, acceptor molecule, acceptor atom, score
      L1  H    13    24       P1  8028  0.82
      P1  H  7997  8010       L1    12  0.22

> <Gold.PLP.Chemscore.Internal.Correction>
0.0010

> <Gold.Rescore>
     Score         DG    S(hbond)    S(metal)    S(lipo)     H(rot)  DE(clash)    DE(int)     intcor
     13.56     -15.11       1.46        0.00      77.84       1.70       1.05       0.49       ----

> <Gold.Chemscore.Fitness>
13.5630

> <Gold.Chemscore.DG>
-15.1061

> <Gold.Chemscore.ZeroCoef>
-5.4800

> <Gold.Chemscore.Hbond>
1.4622

> <Gold.Chemscore.Metal>
0.0000

> <Gold.Chemscore.Lipo>
77.8373

> <Gold.Chemscore.Internal_Hbond>
0.0000

> <Gold.Chemscore.DEClash>
1.0500

> <Gold.Chemscore.DEInternal>
0.4931

> <Gold.Chemscore.Rot>
1.7049

> <Gold.Chemscore.Internal.Correction>
   9.000000E+99

> <Gold.Chemscore.Hbonds>
donor molecule, donor type, donor heavy atom, donor atom, acceptor molecule, acceptor atom, score
      L1  H    13    24       P1  8028  0.81
      P1  H  7997  8010       L1    12  0.23

> <Gold.Chemscore.Hbond.Weighted>
-4.8838

> <Gold.Chemscore.Metal.Weighted>
-0.0000

> <Gold.Chemscore.Lipo.Weighted>
-9.1070

> <Gold.Chemscore.Internal_Hbond.Weighted>
0.0000

> <Gold.Chemscore.DEClash.Weighted>
1.0500

> <Gold.Chemscore.DEInternal.Weighted>
0.4931

> <Gold.Chemscore.Rot.Weighted>
4.3646

> <Gold.Chemscore.Internal.Correction.Weighted>
   9.000000E+99

> <Gold.Protein.RotatedTorsions>
[ 6907 6896 6895 6894 ] final    6.81 input  -60.11 | X-H torsion
[ 7974 7965 7964 7962 ] final -165.16 input  175.53 | X-H torsion
[ 8008 7997 7996 7995 ] final   11.43 input   59.86 | X-H torsion
[ 10167 10162 10161 10158 ] final -123.05 input  -65.29 | X-H torsion
[ 10718 10713 10712 10709 ] final  169.19 input   66.30 | X-H torsion
[ 10763 10752 10751 10750 ] final  -79.76 input  -60.55 | X-H torsion
[ 11005 11000 10999 10996 ] final -179.28 input  -57.11 | X-H torsion

> <Gold.Protein.ActiveResidues>
 VAL166  LYS551  ARG553  GLY616  TRP617  ASP618  TYR619  PRO620  LYS621  CYS622 
 ASP623  PHE694  ASN695  SER759  ASP760  ASP761  ALA762  ILE779  LEU786  VAL792 
 PHE793  MET794  SER795  GLU796  ALA797  LYS798  CYS799  TRP800  GLU811  SER814 

> <Gold.Protein.RotatedAtoms>
  151.6798  135.0963  160.0213 H   0  0  0  0  0  0  0  0  0  0  0  0  # atno 6907 bound_to 6896
  152.3842  133.6584  159.6194 H   0  0  0  0  0  0  0  0  0  0  0  0  # atno 6908 bound_to 6896
  150.7772  133.8979  159.3374 H   0  0  0  0  0  0  0  0  0  0  0  0  # atno 6909 bound_to 6896
  144.7277  140.2854  143.6229 H   0  0  0  0  0  0  0  0  0  0  0  0  # atno 7974 bound_to 7965
  154.8068  140.2861  155.5881 H   0  0  0  0  0  0  0  0  0  0  0  0  # atno 8008 bound_to 7997
  156.2984  140.2576  156.2878 H   0  0  0  0  0  0  0  0  0  0  0  0  # atno 8009 bound_to 7997
  154.9493  140.0379  157.2125 H   0  0  0  0  0  0  0  0  0  0  0  0  # atno 8010 bound_to 7997
  140.0076  143.5475  152.2277 H   0  0  0  0  0  0  0  0  0  0  0  0  # atno 10167 bound_to 10162
  157.0262  131.0246  151.2759 H   0  0  0  0  0  0  0  0  0  0  0  0  # atno 10718 bound_to 10713
  154.5427  135.5684  153.6853 H   0  0  0  0  0  0  0  0  0  0  0  0  # atno 10763 bound_to 10752
  152.9968  135.6231  154.2481 H   0  0  0  0  0  0  0  0  0  0  0  0  # atno 10764 bound_to 10752
  154.2412  135.2862  155.2832 H   0  0  0  0  0  0  0  0  0  0  0  0  # atno 10765 bound_to 10752
  140.4204  134.6611  157.4661 H   0  0  0  0  0  0  0  0  0  0  0  0  # atno 11005 bound_to 11000
  145.7907  139.1926  143.2104 LP  0  0  0  0  0  0  0  0  0  0  0  0  # atno 17320 bound_to 7965
  146.0758  140.7819  142.9666 LP  0  0  0  0  0  0  0  0  0  0  0  0  # atno 17321 bound_to 7965
  139.6227  144.7632  151.2705 LP  0  0  0  0  0  0  0  0  0  0  0  0  # atno 17342 bound_to 10162
  140.7394  143.6619  150.8157 LP  0  0  0  0  0  0  0  0  0  0  0  0  # atno 17343 bound_to 10162
  157.5212  130.7999  149.7811 LP  0  0  0  0  0  0  0  0  0  0  0  0  # atno 17370 bound_to 10713
  156.0085  130.3844  150.2346 LP  0  0  0  0  0  0  0  0  0  0  0  0  # atno 17371 bound_to 10713
  140.0204  134.6556  155.9248 LP  0  0  0  0  0  0  0  0  0  0  0  0  # atno 17394 bound_to 11000
  141.1786  133.6543  156.4928 LP  0  0  0  0  0  0  0  0  0  0  0  0  # atno 17395 bound_to 11000

$$$$
