AV-unprocessed.smi:910|AV-procd|sdf|4126|dock6
  -GOLD-   22720 2 23D 1   1.00000     0.00000
 Structure written by MMmdl.
 46 47  0  0  0  0  0  0  0  0  1 V2000
  156.4922  143.2329  164.8925 C   0  0  0  0  0  0  0  0  0  0  0  0
  156.3703  141.8522  164.2866 C   0  0  0  0  0  0  0  0  0  0  0  0
  155.8946  141.6563  163.0202 N   0  0  0  0  0  0  0  0  0  0  0  0
  155.8979  140.2876  162.7610 C   0  0  0  0  0  0  0  0  0  0  0  0
  155.5339  139.5923  161.7278 N   0  0  0  0  0  0  0  0  0  0  0  0
  155.0447  140.2934  160.6414 C   0  0  0  0  0  0  0  0  0  0  0  0
  155.3316  141.4534  160.3315 O   0  0  0  0  0  0  0  0  0  0  0  0
  154.1240  139.5773  159.9763 N   0  0  0  0  0  0  0  0  0  0  0  0
  153.3436  140.0573  158.8400 C   0  0  0  0  0  0  0  0  0  0  0  0
  151.8664  140.2439  159.2132 C   0  0  0  0  0  0  0  0  0  0  0  0
  151.6815  141.5388  159.7623 O   0  0  0  0  0  0  0  0  0  0  0  0
  152.2671  142.5915  159.0075 C   0  0  2  0  0  0  0  0  0  0  0  0
  152.9359  143.5878  159.9752 C   0  0  0  0  0  0  0  0  0  0  0  0
  151.9025  144.2730  160.8863 C   0  0  0  0  0  0  0  0  0  0  0  0
  150.7917  144.9476  160.0663 C   0  0  0  0  0  0  0  0  0  0  0  0
  150.1224  143.9536  159.1035 C   0  0  0  0  0  0  0  0  0  0  0  0
  151.1592  143.2810  158.1820 C   0  0  2  0  0  0  0  0  0  0  0  0
  150.5074  142.3169  157.1788 C   0  0  0  0  0  0  0  0  0  0  0  0
  156.3917  139.6839  163.8896 O   0  0  0  0  0  0  0  0  0  0  0  0
  156.6673  140.6607  164.7990 C   0  0  0  0  0  0  0  0  0  0  0  0
  157.2272  140.2635  166.1461 C   0  0  0  0  0  0  0  0  0  0  0  0
  157.5271  143.4310  165.1722 H   0  0  0  0  0  0  0  0  0  0  0  0
  155.8717  143.3091  165.7855 H   0  0  0  0  0  0  0  0  0  0  0  0
  156.1740  143.9996  164.1861 H   0  0  0  0  0  0  0  0  0  0  0  0
  155.5907  142.4053  162.4146 H   0  0  0  0  0  0  0  0  0  0  0  0
  153.9287  138.6415  160.3013 H   0  0  0  0  0  0  0  0  0  0  0  0
  153.7559  140.9874  158.4452 H   0  0  0  0  0  0  0  0  0  0  0  0
  153.4266  139.3223  158.0391 H   0  0  0  0  0  0  0  0  0  0  0  0
  151.2480  140.1168  158.3239 H   0  0  0  0  0  0  0  0  0  0  0  0
  151.5582  139.4882  159.9373 H   0  0  0  0  0  0  0  0  0  0  0  0
  153.0145  142.1951  158.3173 H   0  0  0  0  0  0  0  0  0  0  0  0
  153.6883  143.0834  160.5818 H   0  0  0  0  0  0  0  0  0  0  0  0
  153.4680  144.3465  159.4002 H   0  0  0  0  0  0  0  0  0  0  0  0
  151.4619  143.5363  161.5594 H   0  0  0  0  0  0  0  0  0  0  0  0
  152.3967  145.0105  161.5191 H   0  0  0  0  0  0  0  0  0  0  0  0
  150.0449  145.3770  160.7349 H   0  0  0  0  0  0  0  0  0  0  0  0
  151.2116  145.7784  159.4981 H   0  0  0  0  0  0  0  0  0  0  0  0
  149.5844  143.1967  159.6756 H   0  0  0  0  0  0  0  0  0  0  0  0
  149.3758  144.4760  158.5050 H   0  0  0  0  0  0  0  0  0  0  0  0
  151.6317  144.0710  157.5960 H   0  0  0  0  0  0  0  0  0  0  0  0
  150.0505  141.4649  157.6809 H   0  0  0  0  0  0  0  0  0  0  0  0
  151.2449  141.9267  156.4773 H   0  0  0  0  0  0  0  0  0  0  0  0
  149.7320  142.8170  156.5981 H   0  0  0  0  0  0  0  0  0  0  0  0
  158.3023  140.4411  166.1740 H   0  0  0  0  0  0  0  0  0  0  0  0
  157.0456  139.2060  166.3387 H   0  0  0  0  0  0  0  0  0  0  0  0
  156.7586  140.8447  166.9403 H   0  0  0  0  0  0  0  0  0  0  0  0
  1 22  1  0  0  0  0
  1 23  1  0  0  0  0
  1 24  1  0  0  0  0
  1  2  1  0  0  0  0
  2  3  1  0  0  0  0
  2 20  2  0  0  0  0
  3 25  1  0  0  0  0
  3  4  1  0  0  0  0
  4 19  1  0  0  0  0
  4  5  2  0  0  0  0
  5  6  1  0  0  0  0
  6  8  1  0  0  0  0
  6  7  2  0  0  0  0
  8  9  1  0  0  0  0
  8 26  1  0  0  0  0
  9 10  1  0  0  0  0
  9 27  1  0  0  0  0
  9 28  1  0  0  0  0
 10 11  1  0  0  0  0
 10 29  1  0  0  0  0
 10 30  1  0  0  0  0
 11 12  1  0  0  0  0
 12 17  1  0  0  0  0
 12 13  1  0  0  0  0
 12 31  1  0  0  0  0
 13 14  1  0  0  0  0
 13 32  1  0  0  0  0
 13 33  1  0  0  0  0
 14 15  1  0  0  0  0
 14 34  1  0  0  0  0
 14 35  1  0  0  0  0
 15 16  1  0  0  0  0
 15 36  1  0  0  0  0
 15 37  1  0  0  0  0
 16 17  1  0  0  0  0
 16 38  1  0  0  0  0
 16 39  1  0  0  0  0
 17 18  1  0  0  0  0
 17 40  1  0  0  0  0
 18 41  1  0  0  0  0
 18 42  1  0  0  0  0
 18 43  1  0  0  0  0
 19 20  1  0  0  0  0
 20 21  1  0  0  0  0
 21 44  1  0  0  0  0
 21 45  1  0  0  0  0
 21 46  1  0  0  0  0
M  END
> <s_m_source_file>
AV-unprocessed.smi

> <i_m_source_file_index>
910

> <i_lp_mmshare_version>
43012

> <i_f3d_flags>
0

> <s_epik_input>
W0NIM11jMW5jKG9jMVtDSDNdKVtOSF1DKD1PKVtOSF1bQ0gyXVtDSDJdT1tDQEBIXTJbQ0gyXVtDSDJdW0NIMl1bQ0gyXVtDQEhdMltDSDNd

> <s_epik_cmdline>
J2VwaWtfcHl0aG9uJywgJy1waCcsICc3LjAnLCAnLXRuJywgJzgnLCAnLW1hJywgJzIwMCcsICctbWV0YWxfYmluZGluZycsICctaW1hZScsICc8aW5maWxlLm1hZT4nLCAnLW9tYWUnLCAnPG91dGZpbGUubWFlPic=

> <r_lp_tautomer_probability>
0.107061

> <r_epik_Ionization_Penalty>
0.727192

> <r_epik_Ionization_Penalty_Charging>
0.726719

> <r_epik_Ionization_Penalty_Neutral>
0.000473387

> <r_epik_State_Penalty>
2.53712

> <r_epik_Charging_Adjusted_Penalty>
3.26383

> <i_epik_Tot_Q>
0

> <i_epik_Tot_abs_Q>
0

> <r_epik_Metal_State_Penalty>
3.71015

> <b_epik_Metal_Only>
0

> <s_lp_Force_Field>
OPLS_2005

> <r_lp_Energy>
29.7751

> <b_lp_Chiralities_Consistent>
1

> <s_lp_Variant>
AV-unprocessed.smi:910-11

> <Gold.Version>
5.8.1

> <Gold.Id.Protein>
6NUR|6NUR_protein|mol2

> <Gold.PLP.Fitness>
39.2306

> <Gold.PLP.PLP>
-41.1969

> <Gold.PLP.part.hbond>
-2.2165

> <Gold.PLP.part.metal>
0.0000

> <Gold.PLP.part.buried>
-5.8970

> <Gold.PLP.part.nonpolar>
-32.7209

> <Gold.PLP.part.repulsive>
0.0596

> <Gold.PLP.ligand.clash>
0.0000

> <Gold.PLP.ligand.torsion>
1.0006

> <Gold.PLP.Chemscore.Hbond>
0.0000

> <Gold.PLP.Chemscore.CHOScore>
0.0000

> <Gold.PLP.Chemscore.Metal>
0.0000

> <Gold.PLP.Chemscore.Internal.Correction>
0.0348

> <Gold.Rescore>
     Score         DG    S(hbond)    S(metal)    S(lipo)     H(rot)  DE(clash)    DE(int)     intcor
     11.10     -13.97       0.00        0.00     108.82       1.66       0.53       2.34       ----

> <Gold.Chemscore.Fitness>
11.1036

> <Gold.Chemscore.DG>
-13.9687

> <Gold.Chemscore.ZeroCoef>
-5.4800

> <Gold.Chemscore.Hbond>
0.0000

> <Gold.Chemscore.Metal>
0.0000

> <Gold.Chemscore.Lipo>
108.8228

> <Gold.Chemscore.Internal_Hbond>
0.0000

> <Gold.Chemscore.DEClash>
0.5293

> <Gold.Chemscore.DEInternal>
2.3358

> <Gold.Chemscore.Rot>
1.6576

> <Gold.Chemscore.Internal.Correction>
   9.000000E+99

> <Gold.Chemscore.Hbond.Weighted>
-0.0000

> <Gold.Chemscore.Metal.Weighted>
-0.0000

> <Gold.Chemscore.Lipo.Weighted>
-12.7323

> <Gold.Chemscore.Internal_Hbond.Weighted>
0.0000

> <Gold.Chemscore.DEClash.Weighted>
0.5293

> <Gold.Chemscore.DEInternal.Weighted>
2.3358

> <Gold.Chemscore.Rot.Weighted>
4.2436

> <Gold.Chemscore.Internal.Correction.Weighted>
   9.000000E+99

> <Gold.Protein.RotatedTorsions>
[ 6907 6896 6895 6894 ] final   21.59 input  -60.11 | X-H torsion
[ 7974 7965 7964 7962 ] final -111.46 input  175.53 | X-H torsion
[ 8008 7997 7996 7995 ] final  144.46 input   59.86 | X-H torsion
[ 10167 10162 10161 10158 ] final   41.01 input  -65.29 | X-H torsion
[ 10718 10713 10712 10709 ] final   -7.47 input   66.30 | X-H torsion
[ 10763 10752 10751 10750 ] final   44.34 input  -60.55 | X-H torsion
[ 11005 11000 10999 10996 ] final -114.32 input  -57.11 | X-H torsion

> <Gold.Protein.ActiveResidues>
 VAL166  LYS551  ARG553  GLY616  TRP617  ASP618  TYR619  PRO620  LYS621  CYS622 
 ASP623  PHE694  ASN695  SER759  ASP760  ASP761  ALA762  ILE779  LEU786  VAL792 
 PHE793  MET794  SER795  GLU796  ALA797  LYS798  CYS799  TRP800  GLU811  SER814 

> <Gold.Protein.RotatedAtoms>
  151.9141  135.0326  160.0516 H   0  0  0  0  0  0  0  0  0  0  0  0  # atno 6907 bound_to 6896
  152.2255  133.5012  159.5194 H   0  0  0  0  0  0  0  0  0  0  0  0  # atno 6908 bound_to 6896
  150.7011  134.1203  159.4075 H   0  0  0  0  0  0  0  0  0  0  0  0  # atno 6909 bound_to 6896
  145.1558  140.8853  143.3619 H   0  0  0  0  0  0  0  0  0  0  0  0  # atno 7974 bound_to 7965
  156.2907  140.2235  156.5057 H   0  0  0  0  0  0  0  0  0  0  0  0  # atno 8008 bound_to 7997
  154.7652  140.0470  157.1028 H   0  0  0  0  0  0  0  0  0  0  0  0  # atno 8009 bound_to 7997
  154.9942  140.3094  155.4897 H   0  0  0  0  0  0  0  0  0  0  0  0  # atno 8010 bound_to 7997
  140.3685  144.2136  150.6134 H   0  0  0  0  0  0  0  0  0  0  0  0  # atno 10167 bound_to 10162
  156.7167  130.5138  149.5878 H   0  0  0  0  0  0  0  0  0  0  0  0  # atno 10718 bound_to 10713
  152.9843  135.6073  154.3258 H   0  0  0  0  0  0  0  0  0  0  0  0  # atno 10763 bound_to 10752
  154.2965  135.2773  155.2632 H   0  0  0  0  0  0  0  0  0  0  0  0  # atno 10764 bound_to 10752
  154.4904  135.5893  153.6511 H   0  0  0  0  0  0  0  0  0  0  0  0  # atno 10765 bound_to 10752
  141.0559  133.9613  157.2754 H   0  0  0  0  0  0  0  0  0  0  0  0  # atno 11005 bound_to 11000
  145.0382  139.3282  143.5990 LP  0  0  0  0  0  0  0  0  0  0  0  0  # atno 17320 bound_to 7965
  146.3489  139.9746  142.8702 LP  0  0  0  0  0  0  0  0  0  0  0  0  # atno 17321 bound_to 7965
  140.5057  143.2305  151.8612 LP  0  0  0  0  0  0  0  0  0  0  0  0  # atno 17342 bound_to 10162
  139.4806  144.5009  151.9062 LP  0  0  0  0  0  0  0  0  0  0  0  0  # atno 17343 bound_to 10162
  156.1623  130.6382  151.0734 LP  0  0  0  0  0  0  0  0  0  0  0  0  # atno 17370 bound_to 10713
  157.6914  131.0808  150.7095 LP  0  0  0  0  0  0  0  0  0  0  0  0  # atno 17371 bound_to 10713
  139.9390  135.0193  156.8647 LP  0  0  0  0  0  0  0  0  0  0  0  0  # atno 17394 bound_to 11000
  140.5964  134.0213  155.7520 LP  0  0  0  0  0  0  0  0  0  0  0  0  # atno 17395 bound_to 11000

$$$$
