AV-unprocessed.smi:882|AV-procd|sdf|4037|dock6
  -GOLD-   22720 1533D 1   1.00000     0.00000
 Structure written by MMmdl.
 33 34  0  0  0  0  0  0  0  0  1 V2000
  154.6456  142.0620  168.3180 C   0  0  0  0  0  0  0  0  0  0  0  0
  155.1772  141.5346  167.3534 C   0  0  0  0  0  0  0  0  0  0  0  0
  155.8049  140.9021  166.1809 C   0  0  0  0  0  0  0  0  0  0  0  0
  155.1258  141.2311  164.9329 N   0  0  0  0  0  0  0  0  0  0  0  0
  155.3065  140.6021  163.7592 C   0  0  0  0  0  0  0  0  0  0  0  0
  156.1022  139.6764  163.5983 O   0  0  0  0  0  0  0  0  0  0  0  0
  154.5114  141.1414  162.6054 C   0  0  0  0  0  0  0  0  0  0  0  0
  154.6917  140.6626  161.2893 C   0  0  0  0  0  0  0  0  0  0  0  0
  153.9333  141.2251  160.2448 C   0  0  0  0  0  0  0  0  0  0  0  0
  153.0172  142.2634  160.5365 C   0  0  0  0  0  0  0  0  0  0  0  0
  152.2480  142.8441  159.5046 N   0  0  0  0  0  0  0  0  0  0  0  0
  152.1416  142.0603  158.2763 C   0  0  0  0  0  0  0  0  0  0  0  0
  151.0488  142.6409  157.3622 C   0  0  0  0  0  0  0  0  0  0  0  0
  151.3062  144.0196  157.1179 O   0  0  0  0  0  0  0  0  0  0  0  0
  151.2913  144.7815  158.3201 C   0  0  0  0  0  0  0  0  0  0  0  0
  152.3956  144.2786  159.2649 C   0  0  0  0  0  0  0  0  0  0  0  0
  152.8496  142.7244  161.8006 N   0  0  0  0  0  0  0  0  0  0  0  0
  153.5798  142.1836  162.7986 C   0  0  0  0  0  0  0  0  0  0  0  0
  154.1806  142.5252  169.1590 H   0  0  0  0  0  0  0  0  0  0  0  0
  156.8357  141.2510  166.1233 H   0  0  0  0  0  0  0  0  0  0  0  0
  155.8397  139.8235  166.3415 H   0  0  0  0  0  0  0  0  0  0  0  0
  154.4682  141.9967  164.9627 H   0  0  0  0  0  0  0  0  0  0  0  0
  155.3986  139.8754  161.0705 H   0  0  0  0  0  0  0  0  0  0  0  0
  154.0549  140.8473  159.2407 H   0  0  0  0  0  0  0  0  0  0  0  0
  153.1044  142.0790  157.7640 H   0  0  0  0  0  0  0  0  0  0  0  0
  151.9124  141.0156  158.4805 H   0  0  0  0  0  0  0  0  0  0  0  0
  151.0345  142.1094  156.4107 H   0  0  0  0  0  0  0  0  0  0  0  0
  150.0614  142.5178  157.8103 H   0  0  0  0  0  0  0  0  0  0  0  0
  151.4551  145.8314  158.0771 H   0  0  0  0  0  0  0  0  0  0  0  0
  150.3115  144.7135  158.7953 H   0  0  0  0  0  0  0  0  0  0  0  0
  152.3418  144.8269  160.2063 H   0  0  0  0  0  0  0  0  0  0  0  0
  153.3765  144.4732  158.8288 H   0  0  0  0  0  0  0  0  0  0  0  0
  153.4052  142.5974  163.7813 H   0  0  0  0  0  0  0  0  0  0  0  0
  1  2  3  0  0  0  0
  1 19  1  0  0  0  0
  2  3  1  0  0  0  0
  3  4  1  0  0  0  0
  3 20  1  0  0  0  0
  3 21  1  0  0  0  0
  4  5  1  0  0  0  0
  4 22  1  0  0  0  0
  5  6  2  0  0  0  0
  5  7  1  0  0  0  0
  7 18  1  0  0  0  0
  7  8  2  0  0  0  0
  8  9  1  0  0  0  0
  8 23  1  0  0  0  0
  9 10  2  0  0  0  0
  9 24  1  0  0  0  0
 10 11  1  0  0  0  0
 10 17  1  0  0  0  0
 11 16  1  0  0  0  0
 11 12  1  0  0  0  0
 12 13  1  0  0  0  0
 12 25  1  0  0  0  0
 12 26  1  0  0  0  0
 13 14  1  0  0  0  0
 13 27  1  0  0  0  0
 13 28  1  0  0  0  0
 14 15  1  0  0  0  0
 15 16  1  0  0  0  0
 15 29  1  0  0  0  0
 15 30  1  0  0  0  0
 16 31  1  0  0  0  0
 16 32  1  0  0  0  0
 17 18  2  0  0  0  0
 18 33  1  0  0  0  0
M  END
> <s_m_source_file>
AV-unprocessed.smi

> <i_m_source_file_index>
882

> <i_lp_mmshare_version>
43012

> <i_f3d_flags>
0

> <s_epik_input>
W0NIXSNDW0NIMl1bTkhdQyg9TyljMVtjSF1bY0hdYyhuW2NIXTEpTjJbQ0gyXVtDSDJdT1tDSDJdW0NIMl0y

> <s_epik_cmdline>
J2VwaWtfcHl0aG9uJywgJy1waCcsICc3LjAnLCAnLXRuJywgJzgnLCAnLW1hJywgJzIwMCcsICctbWV0YWxfYmluZGluZycsICctaW1hZScsICc8aW5maWxlLm1hZT4nLCAnLW9tYWUnLCAnPG91dGZpbGUubWFlPic=

> <r_lp_tautomer_probability>
1

> <r_epik_Ionization_Penalty>
1.53095e-05

> <r_epik_Ionization_Penalty_Charging>
0

> <r_epik_Ionization_Penalty_Neutral>
1.53095e-05

> <r_epik_State_Penalty>
-0

> <r_epik_Charging_Adjusted_Penalty>
0

> <i_epik_Tot_Q>
0

> <i_epik_Tot_abs_Q>
0

> <r_epik_Metal_State_Penalty>
-0

> <b_epik_Metal_Only>
0

> <s_lp_Force_Field>
OPLS_2005

> <r_lp_Energy>
17.8132

> <b_lp_Chiralities_Consistent>
1

> <s_lp_Variant>
AV-unprocessed.smi:882-1

> <Gold.Version>
5.8.1

> <Gold.Id.Protein>
6NUR|6NUR_protein|mol2

> <Gold.PLP.Fitness>
36.9799

> <Gold.PLP.PLP>
-37.3340

> <Gold.PLP.part.hbond>
0.0000

> <Gold.PLP.part.metal>
0.0000

> <Gold.PLP.part.buried>
-3.0940

> <Gold.PLP.part.nonpolar>
-34.7440

> <Gold.PLP.part.repulsive>
1.7269

> <Gold.PLP.ligand.clash>
0.0000

> <Gold.PLP.ligand.torsion>
0.3458

> <Gold.PLP.Chemscore.Hbond>
0.0000

> <Gold.PLP.Chemscore.CHOScore>
0.0000

> <Gold.PLP.Chemscore.Metal>
0.0000

> <Gold.PLP.Chemscore.Internal.Correction>
0.3375

> <Gold.Rescore>
     Score         DG    S(hbond)    S(metal)    S(lipo)     H(rot)  DE(clash)    DE(int)     intcor
     14.02     -14.32       0.00        0.00     101.54       1.19       0.10       0.19       ----

> <Gold.Chemscore.Fitness>
14.0207

> <Gold.Chemscore.DG>
-14.3168

> <Gold.Chemscore.ZeroCoef>
-5.4800

> <Gold.Chemscore.Hbond>
0.0000

> <Gold.Chemscore.Metal>
0.0000

> <Gold.Chemscore.Lipo>
101.5380

> <Gold.Chemscore.Internal_Hbond>
0.0000

> <Gold.Chemscore.DEClash>
0.1036

> <Gold.Chemscore.DEInternal>
0.1925

> <Gold.Chemscore.Rot>
1.1887

> <Gold.Chemscore.Internal.Correction>
   9.000000E+99

> <Gold.Chemscore.Hbond.Weighted>
-0.0000

> <Gold.Chemscore.Metal.Weighted>
-0.0000

> <Gold.Chemscore.Lipo.Weighted>
-11.8800

> <Gold.Chemscore.Internal_Hbond.Weighted>
0.0000

> <Gold.Chemscore.DEClash.Weighted>
0.1036

> <Gold.Chemscore.DEInternal.Weighted>
0.1925

> <Gold.Chemscore.Rot.Weighted>
3.0432

> <Gold.Chemscore.Internal.Correction.Weighted>
   9.000000E+99

> <Gold.Protein.RotatedTorsions>
[ 6907 6896 6895 6894 ] final    3.00 input  -60.11 | X-H torsion
[ 7974 7965 7964 7962 ] final  -61.63 input  175.53 | X-H torsion
[ 8008 7997 7996 7995 ] final  -98.03 input   59.86 | X-H torsion
[ 10167 10162 10161 10158 ] final  169.28 input  -65.29 | X-H torsion
[ 10718 10713 10712 10709 ] final  -27.41 input   66.30 | X-H torsion
[ 10763 10752 10751 10750 ] final   84.92 input  -60.55 | X-H torsion
[ 11005 11000 10999 10996 ] final -141.78 input  -57.11 | X-H torsion

> <Gold.Protein.ActiveResidues>
 VAL166  LYS551  ARG553  GLY616  TRP617  ASP618  TYR619  PRO620  LYS621  CYS622 
 ASP623  PHE694  ASN695  SER759  ASP760  ASP761  ALA762  ILE779  LEU786  VAL792 
 PHE793  MET794  SER795  GLU796  ALA797  LYS798  CYS799  TRP800  GLU811  SER814 

> <Gold.Protein.RotatedAtoms>
  151.6180  135.1034  160.0095 H   0  0  0  0  0  0  0  0  0  0  0  0  # atno 6907 bound_to 6896
  152.4173  133.7054  159.6459 H   0  0  0  0  0  0  0  0  0  0  0  0  # atno 6908 bound_to 6896
  150.8061  133.8434  159.3226 H   0  0  0  0  0  0  0  0  0  0  0  0  # atno 6909 bound_to 6896
  145.8011  140.8654  143.0231 H   0  0  0  0  0  0  0  0  0  0  0  0  # atno 7974 bound_to 7965
  154.7957  140.0458  157.1235 H   0  0  0  0  0  0  0  0  0  0  0  0  # atno 8008 bound_to 7997
  154.9538  140.3068  155.5043 H   0  0  0  0  0  0  0  0  0  0  0  0  # atno 8009 bound_to 7997
  156.2955  140.2283  156.4618 H   0  0  0  0  0  0  0  0  0  0  0  0  # atno 8010 bound_to 7997
  139.4988  144.3723  151.9711 H   0  0  0  0  0  0  0  0  0  0  0  0  # atno 10167 bound_to 10162
  156.4385  130.4459  149.7069 H   0  0  0  0  0  0  0  0  0  0  0  0  # atno 10718 bound_to 10713
  153.1426  135.4636  154.9518 H   0  0  0  0  0  0  0  0  0  0  0  0  # atno 10763 bound_to 10752
  154.7760  135.3173  154.8094 H   0  0  0  0  0  0  0  0  0  0  0  0  # atno 10764 bound_to 10752
  153.8614  135.6912  153.4836 H   0  0  0  0  0  0  0  0  0  0  0  0  # atno 10765 bound_to 10752
  140.8291  134.2539  157.4865 H   0  0  0  0  0  0  0  0  0  0  0  0  # atno 11005 bound_to 11000
  144.6768  140.0260  143.7483 LP  0  0  0  0  0  0  0  0  0  0  0  0  # atno 17320 bound_to 7965
  145.9877  139.2990  143.1004 LP  0  0  0  0  0  0  0  0  0  0  0  0  # atno 17321 bound_to 7965
  140.3159  144.3484  150.6022 LP  0  0  0  0  0  0  0  0  0  0  0  0  # atno 17342 bound_to 10162
  140.5761  143.2176  151.7512 LP  0  0  0  0  0  0  0  0  0  0  0  0  # atno 17343 bound_to 10162
  156.3943  130.7643  151.2646 LP  0  0  0  0  0  0  0  0  0  0  0  0  # atno 17370 bound_to 10713
  157.7507  131.0258  150.3937 LP  0  0  0  0  0  0  0  0  0  0  0  0  # atno 17371 bound_to 10713
  139.8705  134.9576  156.4275 LP  0  0  0  0  0  0  0  0  0  0  0  0  # atno 17394 bound_to 11000
  140.9018  133.7774  155.9688 LP  0  0  0  0  0  0  0  0  0  0  0  0  # atno 17395 bound_to 11000

$$$$
