AV-unprocessed.smi:1721|AV-procd|sdf|6937|dock1
  -GOLD-   22720 8143D 1   1.00000     0.00000
 Structure written by MMmdl.
 44 46  0  0  0  0  0  0  0  0  2 V2000
  151.9814  138.5386  154.6405 C   0  0  0  0  0  0  0  0  0  0  0  0
  150.6408  138.3018  154.2243 O   0  0  0  0  0  0  0  0  0  0  0  0
  149.7248  139.3314  154.3290 C   0  0  0  0  0  0  0  0  0  0  0  0
  150.1764  140.5603  154.6841 N   0  0  0  0  0  0  0  0  0  0  0  0
  149.2862  141.5678  154.7856 C   0  0  0  0  0  0  0  0  0  0  0  0
  147.9110  141.4061  154.5410 C   0  0  0  0  0  0  0  0  0  0  0  0
  147.4394  140.1325  154.1727 C   0  0  0  0  0  0  0  0  0  0  0  0
  148.3613  139.0615  154.0621 C   0  0  0  0  0  0  0  0  0  0  0  0
  148.0139  137.7292  153.6958 N   0  0  0  0  0  0  0  0  0  0  0  0
  146.9473  136.9888  154.0441 C   0  0  0  0  0  0  0  0  0  0  0  0
  146.0308  137.3479  154.7816 O   0  0  0  0  0  0  0  0  0  0  0  0
  146.9986  135.7758  153.4756 N   0  0  0  0  0  0  0  0  0  0  0  0
  146.0004  134.7241  153.6485 C   0  0  2  0  0  0  0  0  0  0  0  0
  146.4917  133.5712  154.5413 C   0  0  0  0  0  0  0  0  0  0  0  0
  145.8963  132.2918  153.9207 C   0  0  0  0  0  0  0  0  0  0  0  0
  145.0598  132.7542  152.7966 N   0  3  2  0  0  0  0  0  0  0  0  0
  144.8159  131.7950  151.6975 C   0  0  0  0  0  0  0  0  0  0  0  0
  143.8558  132.4308  150.6722 C   0  0  0  0  0  0  0  0  0  0  0  0
  144.3614  133.8061  150.1907 C   0  0  0  0  0  0  0  0  0  0  0  0
  144.6870  134.7278  151.3817 C   0  0  0  0  0  0  0  0  0  0  0  0
  145.6611  134.0148  152.3350 C   0  0  1  0  0  0  0  0  0  0  0  0
  152.5691  137.6326  154.4932 H   0  0  0  0  0  0  0  0  0  0  0  0
  152.0316  138.7963  155.6993 H   0  0  0  0  0  0  0  0  0  0  0  0
  152.4467  139.3333  154.0555 H   0  0  0  0  0  0  0  0  0  0  0  0
  149.6825  142.5319  155.0689 H   0  0  0  0  0  0  0  0  0  0  0  0
  147.2323  142.2411  154.6320 H   0  0  0  0  0  0  0  0  0  0  0  0
  146.3846  140.0173  153.9843 H   0  0  0  0  0  0  0  0  0  0  0  0
  148.6791  137.2761  153.0861 H   0  0  0  0  0  0  0  0  0  0  0  0
  147.7885  135.5629  152.8836 H   0  0  0  0  0  0  0  0  0  0  0  0
  145.0871  135.1311  154.0884 H   0  0  0  0  0  0  0  0  0  0  0  0
  147.5808  133.5056  154.5424 H   0  0  0  0  0  0  0  0  0  0  0  0
  146.1716  133.7097  155.5745 H   0  0  0  0  0  0  0  0  0  0  0  0
  146.6959  131.6454  153.5552 H   0  0  0  0  0  0  0  0  0  0  0  0
  145.3000  131.7232  154.6350 H   0  0  0  0  0  0  0  0  0  0  0  0
  145.7601  131.5257  151.2216 H   0  0  0  0  0  0  0  0  0  0  0  0
  144.3834  130.8786  152.1005 H   0  0  0  0  0  0  0  0  0  0  0  0
  143.7215  131.7628  149.8208 H   0  0  0  0  0  0  0  0  0  0  0  0
  142.8714  132.5504  151.1269 H   0  0  0  0  0  0  0  0  0  0  0  0
  145.2565  133.6700  149.5823 H   0  0  0  0  0  0  0  0  0  0  0  0
  143.6181  134.2753  149.5454 H   0  0  0  0  0  0  0  0  0  0  0  0
  145.1218  135.6597  151.0196 H   0  0  0  0  0  0  0  0  0  0  0  0
  143.7699  134.9931  151.9094 H   0  0  0  0  0  0  0  0  0  0  0  0
  146.5870  133.7846  151.8023 H   0  0  0  0  0  0  0  0  0  0  0  0
  144.1611  132.9959  153.1894 H   0  0  0  0  0  0  0  0  0  0  0  0
  1  2  1  0  0  0  0
  1 22  1  0  0  0  0
  1 23  1  0  0  0  0
  1 24  1  0  0  0  0
  2  3  1  0  0  0  0
  3  8  1  0  0  0  0
  3  4  2  0  0  0  0
  4  5  1  0  0  0  0
  5  6  2  0  0  0  0
  5 25  1  0  0  0  0
  6  7  1  0  0  0  0
  6 26  1  0  0  0  0
  7  8  2  0  0  0  0
  7 27  1  0  0  0  0
  8  9  1  0  0  0  0
  9 10  1  0  0  0  0
  9 28  1  0  0  0  0
 10 11  2  0  0  0  0
 10 12  1  0  0  0  0
 12 13  1  0  0  0  0
 12 29  1  0  0  0  0
 13 21  1  0  0  0  0
 13 14  1  0  0  0  0
 13 30  1  0  0  0  0
 14 15  1  0  0  0  0
 14 31  1  0  0  0  0
 14 32  1  0  0  0  0
 15 16  1  0  0  0  0
 15 33  1  0  0  0  0
 15 34  1  0  0  0  0
 16 21  1  0  0  0  0
 16 17  1  0  0  0  0
 16 44  1  0  0  0  0
 17 18  1  0  0  0  0
 17 35  1  0  0  0  0
 17 36  1  0  0  0  0
 18 19  1  0  0  0  0
 18 37  1  0  0  0  0
 18 38  1  0  0  0  0
 19 20  1  0  0  0  0
 19 39  1  0  0  0  0
 19 40  1  0  0  0  0
 20 21  1  0  0  0  0
 20 41  1  0  0  0  0
 20 42  1  0  0  0  0
 21 43  1  0  0  0  0
M  CHG  1  16   1
M  END
> <s_m_source_file>
AV-unprocessed.smi

> <i_m_source_file_index>
1721

> <i_lp_mmshare_version>
43012

> <i_f3d_flags>
0

> <s_epik_input>
W0NIM11PYzFuW2NIXVtjSF1bY0hdYzFbTkhdQyg9TylbTkhdW0NASF0oW0NIMl1bQ0gyXTIpW0NAQEhdKE4yMylbQ0gyXVtDSDJdW0NIMl1bQ0gyXTM=

> <s_epik_cmdline>
J2VwaWtfcHl0aG9uJywgJy1waCcsICc3LjAnLCAnLXRuJywgJzgnLCAnLW1hJywgJzIwMCcsICctbWV0YWxfYmluZGluZycsICctaW1hZScsICc8aW5maWxlLm1hZT4nLCAnLW9tYWUnLCAnPG91dGZpbGUubWFlPic=

> <r_lp_tautomer_probability>
1

> <r_epik_Ionization_Penalty>
0.00104793

> <r_epik_Ionization_Penalty_Charging>
0.000974069

> <r_epik_Ionization_Penalty_Neutral>
7.38649e-05

> <r_epik_State_Penalty>
0.000633842

> <r_epik_Charging_Adjusted_Penalty>
0.00160791

> <i_epik_Tot_Q>
1

> <i_epik_Tot_abs_Q>
1

> <r_epik_Metal_State_Penalty>
-0

> <b_epik_Metal_Only>
0

> <s_lp_Force_Field>
OPLS_2005

> <r_lp_Energy>
37.3571

> <b_lp_Chiralities_Consistent>
1

> <s_lp_Variant>
AV-unprocessed.smi:1721-3

> <Gold.Version>
5.8.1

> <Gold.Id.Protein>
6NUR|6NUR_protein|mol2

> <Gold.PLP.Fitness>
42.4535

> <Gold.PLP.PLP>
-32.0778

> <Gold.PLP.part.hbond>
-3.2649

> <Gold.PLP.part.metal>
0.0000

> <Gold.PLP.part.buried>
-5.0016

> <Gold.PLP.part.nonpolar>
-25.4801

> <Gold.PLP.part.repulsive>
0.3942

> <Gold.PLP.ligand.clash>
0.0000

> <Gold.PLP.ligand.torsion>
0.5446

> <Gold.PLP.Chemscore.Hbond>
2.8160

> <Gold.PLP.Chemscore.CHOScore>
1.0000

> <Gold.PLP.Chemscore.Metal>
0.0000

> <Gold.Chemscore.Hbonds>
donor molecule, donor type, donor heavy atom, donor atom, acceptor molecule, acceptor atom, score
      L1  H     9    28       P1  7948  0.99
      L1  H    12    29       P1  7948  0.91
      P1  H  7989  7998       L1     4  0.91
      L1  C     5    25       P1  8028  1.00

> <Gold.PLP.Chemscore.Internal.Correction>
0.0169

> <Gold.Rescore>
     Score         DG    S(hbond)    S(metal)    S(lipo)     H(rot)  DE(clash)    DE(int)     intcor
     19.15     -19.72       2.76        0.00      70.27       1.25       0.11       0.47       ----

> <Gold.Chemscore.Fitness>
19.1453

> <Gold.Chemscore.DG>
-19.7221

> <Gold.Chemscore.ZeroCoef>
-5.4800

> <Gold.Chemscore.Hbond>
2.7587

> <Gold.Chemscore.Metal>
0.0000

> <Gold.Chemscore.Lipo>
70.2683

> <Gold.Chemscore.Internal_Hbond>
0.0000

> <Gold.Chemscore.DEClash>
0.1061

> <Gold.Chemscore.DEInternal>
0.4707

> <Gold.Chemscore.Rot>
1.2474

> <Gold.Chemscore.Internal.Correction>
   9.000000E+99

> <Gold.Chemscore.Hbonds>
donor molecule, donor type, donor heavy atom, donor atom, acceptor molecule, acceptor atom, score
      L1  H     9    28       P1  7948  0.93
      L1  H    12    29       P1  7948  0.89
      P1  H  7989  7998       L1     4  0.36

> <Gold.Chemscore.Hbond.Weighted>
-9.2141

> <Gold.Chemscore.Metal.Weighted>
-0.0000

> <Gold.Chemscore.Lipo.Weighted>
-8.2214

> <Gold.Chemscore.Internal_Hbond.Weighted>
0.0000

> <Gold.Chemscore.DEClash.Weighted>
0.1061

> <Gold.Chemscore.DEInternal.Weighted>
0.4707

> <Gold.Chemscore.Rot.Weighted>
3.1934

> <Gold.Chemscore.Internal.Correction.Weighted>
   9.000000E+99

> <Gold.Protein.RotatedTorsions>
[ 6907 6896 6895 6894 ] final  117.36 input  -60.11 | X-H torsion
[ 7974 7965 7964 7962 ] final   58.21 input  175.53 | X-H torsion
[ 8008 7997 7996 7995 ] final  176.20 input   59.86 | X-H torsion
[ 10167 10162 10161 10158 ] final    7.42 input  -65.29 | X-H torsion
[ 10718 10713 10712 10709 ] final   59.38 input   66.30 | X-H torsion
[ 10763 10752 10751 10750 ] final   61.07 input  -60.55 | X-H torsion
[ 11005 11000 10999 10996 ] final  -43.23 input  -57.11 | X-H torsion

> <Gold.Protein.ActiveResidues>
 VAL166  LYS551  ARG553  GLY616  TRP617  ASP618  TYR619  PRO620  LYS621  CYS622 
 ASP623  PHE694  ASN695  SER759  ASP760  ASP761  ALA762  ILE779  LEU786  VAL792 
 PHE793  MET794  SER795  GLU796  ALA797  LYS798  CYS799  TRP800  GLU811  SER814 

> <Gold.Protein.RotatedAtoms>
  152.4617  133.7836  159.6863 H   0  0  0  0  0  0  0  0  0  0  0  0  # atno 6907 bound_to 6896
  150.8564  133.7700  159.3014 H   0  0  0  0  0  0  0  0  0  0  0  0  # atno 6908 bound_to 6896
  151.5279  135.1071  159.9947 H   0  0  0  0  0  0  0  0  0  0  0  0  # atno 6909 bound_to 6896
  145.9207  139.3727  143.0480 H   0  0  0  0  0  0  0  0  0  0  0  0  # atno 7974 bound_to 7965
  156.0790  140.1389  156.9736 H   0  0  0  0  0  0  0  0  0  0  0  0  # atno 8008 bound_to 7997
  154.4574  140.0956  156.6845 H   0  0  0  0  0  0  0  0  0  0  0  0  # atno 8009 bound_to 7997
  155.5107  140.3453  155.4390 H   0  0  0  0  0  0  0  0  0  0  0  0  # atno 8010 bound_to 7997
  140.6373  143.7857  150.7377 H   0  0  0  0  0  0  0  0  0  0  0  0  # atno 10167 bound_to 10162
  157.5671  130.8879  149.9205 H   0  0  0  0  0  0  0  0  0  0  0  0  # atno 10718 bound_to 10713
  152.9939  135.5513  154.5975 H   0  0  0  0  0  0  0  0  0  0  0  0  # atno 10763 bound_to 10752
  154.5324  135.2814  155.1171 H   0  0  0  0  0  0  0  0  0  0  0  0  # atno 10764 bound_to 10752
  154.2480  135.6404  153.5283 H   0  0  0  0  0  0  0  0  0  0  0  0  # atno 10765 bound_to 10752
  141.0370  133.6796  156.2704 H   0  0  0  0  0  0  0  0  0  0  0  0  # atno 11005 bound_to 11000
  145.8554  140.9505  143.0728 LP  0  0  0  0  0  0  0  0  0  0  0  0  # atno 17320 bound_to 7965
  144.6752  140.0461  143.7480 LP  0  0  0  0  0  0  0  0  0  0  0  0  # atno 17321 bound_to 7965
  140.1481  143.4382  152.2149 LP  0  0  0  0  0  0  0  0  0  0  0  0  # atno 17342 bound_to 10162
  139.5583  144.7388  151.4230 LP  0  0  0  0  0  0  0  0  0  0  0  0  # atno 17343 bound_to 10162
  156.0719  130.3684  150.0759 LP  0  0  0  0  0  0  0  0  0  0  0  0  # atno 17370 bound_to 10713
  156.8916  130.9590  151.3588 LP  0  0  0  0  0  0  0  0  0  0  0  0  # atno 17371 bound_to 10713
  140.6305  134.5269  157.5559 LP  0  0  0  0  0  0  0  0  0  0  0  0  # atno 17394 bound_to 11000
  139.9247  134.8078  156.1103 LP  0  0  0  0  0  0  0  0  0  0  0  0  # atno 17395 bound_to 11000

$$$$
