AV-unprocessed.smi:561|AV-procd|sdf|2942|dock8
  -GOLD-   2262023443D 1   1.00000     0.00000
 Structure written by MMmdl.
 35 36  0  0  0  0  0  0  0  0  2 V2000
  149.4725  140.5422  157.7595 C   0  0  0  0  0  0  0  0  0  0  0  0
  149.9906  141.6912  156.8834 C   0  0  2  0  0  0  0  0  0  0  0  0
  149.8998  141.3320  155.3778 C   0  0  0  0  0  0  0  0  0  0  0  0
  148.5555  141.4235  154.8175 N   0  0  0  0  0  0  0  0  0  0  0  0
  147.9596  140.5441  153.9191 C   0  0  0  0  0  0  0  0  0  0  0  0
  146.6904  141.0199  153.6812 C   0  0  0  0  0  0  0  0  0  0  0  0
  146.4745  142.1749  154.4285 N   0  0  0  0  0  0  0  0  0  0  0  0
  147.6194  142.3505  155.0761 C   0  0  0  0  0  0  0  0  0  0  0  0
  151.3835  141.9706  157.2532 N   0  5  0  0  0  0  0  0  0  0  0  0
  152.1644  141.1837  158.0551 C   0  0  0  0  0  0  0  0  0  0  0  0
  152.4904  140.0116  157.8311 O   0  0  0  0  0  0  0  0  0  0  0  0
  152.6738  141.7492  159.3395 C   0  0  0  0  0  0  0  0  0  0  0  0
  153.2401  140.9670  160.2050 N   0  0  0  0  0  0  0  0  0  0  0  0
  153.7579  141.4352  161.3946 N   0  0  0  0  0  0  0  0  0  0  0  0
  154.5893  140.4766  162.1196 C   0  0  0  0  0  0  0  0  0  0  0  0
  153.5240  142.6691  161.9051 C   0  0  0  0  0  0  0  0  0  0  0  0
  154.0154  143.0795  162.9569 O   0  0  0  0  0  0  0  0  0  0  0  0
  152.5637  143.5625  161.1165 C   0  0  0  0  0  0  0  0  0  0  0  0
  152.5683  143.2399  159.6093 C   0  0  0  0  0  0  0  0  0  0  0  0
  148.4306  140.3165  157.5306 H   0  0  0  0  0  0  0  0  0  0  0  0
  149.5266  140.7988  158.8180 H   0  0  0  0  0  0  0  0  0  0  0  0
  150.0510  139.6303  157.6067 H   0  0  0  0  0  0  0  0  0  0  0  0
  149.3391  142.5472  157.0654 H   0  0  0  0  0  0  0  0  0  0  0  0
  150.5623  141.9720  154.7930 H   0  0  0  0  0  0  0  0  0  0  0  0
  150.2504  140.3107  155.2241 H   0  0  0  0  0  0  0  0  0  0  0  0
  148.4820  139.6836  153.5278 H   0  0  0  0  0  0  0  0  0  0  0  0
  145.9208  140.6200  153.0378 H   0  0  0  0  0  0  0  0  0  0  0  0
  147.7838  143.1750  155.7544 H   0  0  0  0  0  0  0  0  0  0  0  0
  154.1782  140.2838  163.1114 H   0  0  0  0  0  0  0  0  0  0  0  0
  155.6032  140.8610  162.2380 H   0  0  0  0  0  0  0  0  0  0  0  0
  154.6577  139.5191  161.6003 H   0  0  0  0  0  0  0  0  0  0  0  0
  151.5635  143.4036  161.5214 H   0  0  0  0  0  0  0  0  0  0  0  0
  152.8062  144.6129  161.2805 H   0  0  0  0  0  0  0  0  0  0  0  0
  153.3978  143.7519  159.1205 H   0  0  0  0  0  0  0  0  0  0  0  0
  151.6552  143.6480  159.1751 H   0  0  0  0  0  0  0  0  0  0  0  0
  1  2  1  0  0  0  0
  1 20  1  0  0  0  0
  1 21  1  0  0  0  0
  1 22  1  0  0  0  0
  2  3  1  0  0  0  0
  2  9  1  0  0  0  0
  2 23  1  0  0  0  0
  3  4  1  0  0  0  0
  3 24  1  0  0  0  0
  3 25  1  0  0  0  0
  4  8  1  0  0  0  0
  4  5  1  0  0  0  0
  5  6  2  0  0  0  0
  5 26  1  0  0  0  0
  6  7  1  0  0  0  0
  6 27  1  0  0  0  0
  7  8  2  0  0  0  0
  8 28  1  0  0  0  0
  9 10  1  0  0  0  0
 10 11  2  0  0  0  0
 10 12  1  0  0  0  0
 12 19  1  0  0  0  0
 12 13  2  0  0  0  0
 13 14  1  0  0  0  0
 14 15  1  0  0  0  0
 14 16  1  0  0  0  0
 15 29  1  0  0  0  0
 15 30  1  0  0  0  0
 15 31  1  0  0  0  0
 16 17  2  0  0  0  0
 16 18  1  0  0  0  0
 18 19  1  0  0  0  0
 18 32  1  0  0  0  0
 18 33  1  0  0  0  0
 19 34  1  0  0  0  0
 19 35  1  0  0  0  0
M  CHG  1   9  -1
M  END
> <s_m_source_file>
AV-unprocessed.smi

> <i_m_source_file_index>
561

> <i_lp_mmshare_version>
43012

> <i_f3d_flags>
0

> <s_epik_input>
W2NIXTFuW2NIXVtjSF1uMVtDSDJdW0NAQEhdKFtDSDNdKVtOSF1DKD1PKUMyPU5OKFtDSDNdKUMoPU8pW0NIMl1bQ0gyXTI=

> <s_epik_cmdline>
J2VwaWtfcHl0aG9uJywgJy1waCcsICc3LjAnLCAnLXRuJywgJzgnLCAnLW1hJywgJzIwMCcsICctbWV0YWxfYmluZGluZycsICctaW1hZScsICc8aW5maWxlLm1hZT4nLCAnLW9tYWUnLCAnPG91dGZpbGUubWFlPic=

> <r_lp_tautomer_probability>
1

> <r_epik_Ionization_Penalty>
6.06239

> <r_epik_Ionization_Penalty_Charging>
6.06239

> <r_epik_Ionization_Penalty_Neutral>
3.91387e-09

> <r_epik_State_Penalty>
5.76729

> <r_epik_Charging_Adjusted_Penalty>
11.8297

> <i_epik_Tot_Q>
-1

> <i_epik_Tot_abs_Q>
1

> <r_epik_Metal_State_Penalty>
2.02369

> <b_epik_Metal_Only>
1

> <s_epik_Chemistry_Notes>
This compound has an imine and may undergo hydrolysis.

> <s_lp_Force_Field>
OPLS_2005

> <r_lp_Energy>
24.7282

> <b_lp_Chiralities_Consistent>
1

> <s_lp_Variant>
AV-unprocessed.smi:561-7

> <Gold.Version>
5.8.1

> <Gold.Id.Protein>
6NUR|6NUR_protein|mol2

> <Gold.PLP.Fitness>
46.5020

> <Gold.PLP.PLP>
-37.6928

> <Gold.PLP.part.hbond>
-1.0530

> <Gold.PLP.part.metal>
0.0000

> <Gold.PLP.part.buried>
0.0570

> <Gold.PLP.part.nonpolar>
-34.9964

> <Gold.PLP.part.repulsive>
0.2938

> <Gold.PLP.ligand.clash>
0.0000

> <Gold.PLP.ligand.torsion>
1.1584

> <Gold.PLP.Chemscore.Hbond>
0.9920

> <Gold.PLP.Chemscore.CHOScore>
2.7075

> <Gold.PLP.Chemscore.Metal>
0.0000

> <Gold.Chemscore.Hbonds>
donor molecule, donor type, donor heavy atom, donor atom, acceptor molecule, acceptor atom, score
      P1  H  7997  8008       L1    11  0.55
      L1  C     5    26       P1  7957  0.50
      L1  C     6    27       P1 10175  1.00
      L1  C     8    28       P1  8028  0.60

> <Gold.PLP.Chemscore.Internal.Correction>
0.0274

> <Gold.Rescore>
     Score         DG    S(hbond)    S(metal)    S(lipo)     H(rot)  DE(clash)    DE(int)     intcor
     11.23     -12.32       0.89        0.00      69.83       1.68       0.04       1.05       ----

> <Gold.Chemscore.Fitness>
11.2341

> <Gold.Chemscore.DG>
-12.3214

> <Gold.Chemscore.ZeroCoef>
-5.4800

> <Gold.Chemscore.Hbond>
0.8894

> <Gold.Chemscore.Metal>
0.0000

> <Gold.Chemscore.Lipo>
69.8341

> <Gold.Chemscore.Internal_Hbond>
0.0000

> <Gold.Chemscore.DEClash>
0.0419

> <Gold.Chemscore.DEInternal>
1.0454

> <Gold.Chemscore.Rot>
1.6796

> <Gold.Chemscore.Internal.Correction>
   9.000000E+99

> <Gold.Chemscore.Hbonds>
donor molecule, donor type, donor heavy atom, donor atom, acceptor molecule, acceptor atom, score
      P1  H  7997  8008       L1    11  0.33

> <Gold.Chemscore.Hbond.Weighted>
-2.9705

> <Gold.Chemscore.Metal.Weighted>
-0.0000

> <Gold.Chemscore.Lipo.Weighted>
-8.1706

> <Gold.Chemscore.Internal_Hbond.Weighted>
0.0000

> <Gold.Chemscore.DEClash.Weighted>
0.0419

> <Gold.Chemscore.DEInternal.Weighted>
1.0454

> <Gold.Chemscore.Rot.Weighted>
4.2997

> <Gold.Chemscore.Internal.Correction.Weighted>
   9.000000E+99

> <Gold.Protein.RotatedTorsions>
[ 6907 6896 6895 6894 ] final  -31.64 input  -60.11 | X-H torsion
[ 7974 7965 7964 7962 ] final  -78.49 input  175.53 | X-H torsion
[ 8008 7997 7996 7995 ] final  -65.07 input   59.86 | X-H torsion
[ 10167 10162 10161 10158 ] final -117.22 input  -65.29 | X-H torsion
[ 10718 10713 10712 10709 ] final -163.96 input   66.30 | X-H torsion
[ 10763 10752 10751 10750 ] final  -51.90 input  -60.55 | X-H torsion
[ 11005 11000 10999 10996 ] final -144.31 input  -57.11 | X-H torsion

> <Gold.Protein.ActiveResidues>
 VAL166  LYS551  ARG553  GLY616  TRP617  ASP618  TYR619  PRO620  LYS621  CYS622 
 ASP623  PHE694  ASN695  SER759  ASP760  ASP761  ALA762  ILE779  LEU786  VAL792 
 PHE793  MET794  SER795  GLU796  ALA797  LYS798  CYS799  TRP800  GLU811  SER814 

> <Gold.Protein.RotatedAtoms>
  151.0894  134.9907  159.8394 H   0  0  0  0  0  0  0  0  0  0  0  0  # atno 6907 bound_to 6896
  152.5427  134.2084  159.8750 H   0  0  0  0  0  0  0  0  0  0  0  0  # atno 6908 bound_to 6896
  151.2119  133.4507  159.2632 H   0  0  0  0  0  0  0  0  0  0  0  0  # atno 6909 bound_to 6896
  145.5857  140.9439  143.1319 H   0  0  0  0  0  0  0  0  0  0  0  0  # atno 7974 bound_to 7965
  154.4649  140.0941  156.6993 H   0  0  0  0  0  0  0  0  0  0  0  0  # atno 8008 bound_to 7997
  155.4887  140.3470  155.4333 H   0  0  0  0  0  0  0  0  0  0  0  0  # atno 8009 bound_to 7997
  156.0938  140.1404  156.9546 H   0  0  0  0  0  0  0  0  0  0  0  0  # atno 8010 bound_to 7997
  140.0707  143.4880  152.1981 H   0  0  0  0  0  0  0  0  0  0  0  0  # atno 10167 bound_to 10162
  156.6322  130.8934  151.2980 H   0  0  0  0  0  0  0  0  0  0  0  0  # atno 10718 bound_to 10713
  154.1340  135.6515  153.4928 H   0  0  0  0  0  0  0  0  0  0  0  0  # atno 10763 bound_to 10752
  153.0186  135.5299  154.6972 H   0  0  0  0  0  0  0  0  0  0  0  0  # atno 10764 bound_to 10752
  154.6215  135.2965  155.0291 H   0  0  0  0  0  0  0  0  0  0  0  0  # atno 10765 bound_to 10752
  140.8037  134.2827  157.4968 H   0  0  0  0  0  0  0  0  0  0  0  0  # atno 11005 bound_to 11000
  144.7373  139.7547  143.7324 LP  0  0  0  0  0  0  0  0  0  0  0  0  # atno 17320 bound_to 7965
  146.1683  139.4824  142.9944 LP  0  0  0  0  0  0  0  0  0  0  0  0  # atno 17321 bound_to 7965
  139.5838  144.7522  151.3573 LP  0  0  0  0  0  0  0  0  0  0  0  0  # atno 17342 bound_to 10162
  140.7127  143.7349  150.7596 LP  0  0  0  0  0  0  0  0  0  0  0  0  # atno 17343 bound_to 10162
  157.7196  130.9541  150.1388 LP  0  0  0  0  0  0  0  0  0  0  0  0  # atno 17370 bound_to 10713
  156.2225  130.3675  149.8539 LP  0  0  0  0  0  0  0  0  0  0  0  0  # atno 17371 bound_to 10713
  139.8719  134.9444  156.3880 LP  0  0  0  0  0  0  0  0  0  0  0  0  # atno 17394 bound_to 11000
  140.9269  133.7606  155.9975 LP  0  0  0  0  0  0  0  0  0  0  0  0  # atno 17395 bound_to 11000

$$$$
