AV-unprocessed.smi:2032|AV-procd|sdf|8250|dock6
  -GOLD-   2272010523D 1   1.00000     0.00000
 Structure written by MMmdl.
 41 42  0  0  0  0  0  0  0  0  2 V2000
  153.1637  141.2560  160.9973 C   0  0  0  0  0  0  0  0  0  0  0  0
  153.3807  141.6153  159.5171 C   0  0  1  0  0  0  0  0  0  0  0  0
  152.4163  140.8834  158.5625 C   0  0  0  0  0  0  0  0  0  0  0  0
  151.0424  141.3971  158.6051 N   0  0  0  0  0  0  0  0  0  0  0  0
  150.1410  140.6891  157.6645 C   0  0  1  0  0  0  0  0  0  0  0  0
  150.3878  141.0864  156.1861 C   0  0  0  0  0  0  0  0  0  0  0  0
  150.2161  139.1415  157.7858 C   0  0  0  0  0  0  0  0  0  0  0  0
  148.9668  138.5570  158.2625 N   0  0  0  0  0  0  0  0  0  0  0  0
  148.8234  137.3080  158.7250 C   0  0  0  0  0  0  0  0  0  0  0  0
  149.8007  136.5575  158.7783 O   0  0  0  0  0  0  0  0  0  0  0  0
  147.5584  137.0061  159.0973 N   0  5  0  0  0  0  0  0  0  0  0  0
  147.3259  136.4616  160.3028 C   0  0  0  0  0  0  0  0  0  0  0  0
  147.2896  137.1783  161.4323 N   0  0  0  0  0  0  0  0  0  0  0  0
  147.0353  136.4096  162.5696 C   0  0  0  0  0  0  0  0  0  0  0  0
  146.8858  135.0748  162.3014 C   0  0  0  0  0  0  0  0  0  0  0  0
  147.0596  134.7414  160.6020 S   0  0  0  0  0  0  0  0  0  0  0  0
  151.0952  142.8421  158.3640 C   0  0  0  0  0  0  0  0  0  0  0  0
  152.0160  143.5810  159.3521 C   0  0  2  0  0  0  0  0  0  0  0  0
  152.1255  145.0749  159.0293 C   0  0  0  0  0  0  0  0  0  0  0  0
  153.3241  143.0225  159.2969 O   0  0  0  0  0  0  0  0  0  0  0  0
  153.3354  140.1930  161.1670 H   0  0  0  0  0  0  0  0  0  0  0  0
  152.1498  141.4778  161.3298 H   0  0  0  0  0  0  0  0  0  0  0  0
  153.8540  141.8071  161.6363 H   0  0  0  0  0  0  0  0  0  0  0  0
  154.3963  141.3097  159.2636 H   0  0  0  0  0  0  0  0  0  0  0  0
  152.7992  140.9632  157.5439 H   0  0  0  0  0  0  0  0  0  0  0  0
  152.4446  139.8271  158.8234 H   0  0  0  0  0  0  0  0  0  0  0  0
  149.1155  140.9756  157.9033 H   0  0  0  0  0  0  0  0  0  0  0  0
  149.7695  140.5194  155.4911 H   0  0  0  0  0  0  0  0  0  0  0  0
  151.4283  140.9233  155.9035 H   0  0  0  0  0  0  0  0  0  0  0  0
  150.1443  142.1298  155.9922 H   0  0  0  0  0  0  0  0  0  0  0  0
  150.4789  138.7042  156.8212 H   0  0  0  0  0  0  0  0  0  0  0  0
  150.9776  138.8311  158.4994 H   0  0  0  0  0  0  0  0  0  0  0  0
  148.1447  139.1418  158.2329 H   0  0  0  0  0  0  0  0  0  0  0  0
  146.9789  136.8967  163.5319 H   0  0  0  0  0  0  0  0  0  0  0  0
  146.6855  134.2718  162.9945 H   0  0  0  0  0  0  0  0  0  0  0  0
  151.4231  143.0329  157.3409 H   0  0  0  0  0  0  0  0  0  0  0  0
  150.1081  143.2867  158.4683 H   0  0  0  0  0  0  0  0  0  0  0  0
  151.6196  143.4796  160.3628 H   0  0  0  0  0  0  0  0  0  0  0  0
  151.1489  145.5582  159.0711 H   0  0  0  0  0  0  0  0  0  0  0  0
  152.5355  145.2339  158.0316 H   0  0  0  0  0  0  0  0  0  0  0  0
  152.7773  145.5805  159.7421 H   0  0  0  0  0  0  0  0  0  0  0  0
  1  2  1  0  0  0  0
  1 21  1  0  0  0  0
  1 22  1  0  0  0  0
  1 23  1  0  0  0  0
  2 20  1  0  0  0  0
  2  3  1  0  0  0  0
  2 24  1  0  0  0  0
  3  4  1  0  0  0  0
  3 25  1  0  0  0  0
  3 26  1  0  0  0  0
  4  5  1  0  0  0  0
  4 17  1  0  0  0  0
  5  6  1  0  0  0  0
  5  7  1  0  0  0  0
  5 27  1  0  0  0  0
  6 28  1  0  0  0  0
  6 29  1  0  0  0  0
  6 30  1  0  0  0  0
  7  8  1  0  0  0  0
  7 31  1  0  0  0  0
  7 32  1  0  0  0  0
  8  9  1  0  0  0  0
  8 33  1  0  0  0  0
  9 10  2  0  0  0  0
  9 11  1  0  0  0  0
 11 12  1  0  0  0  0
 12 16  1  0  0  0  0
 12 13  2  0  0  0  0
 13 14  1  0  0  0  0
 14 15  2  0  0  0  0
 14 34  1  0  0  0  0
 15 16  1  0  0  0  0
 15 35  1  0  0  0  0
 17 18  1  0  0  0  0
 17 36  1  0  0  0  0
 17 37  1  0  0  0  0
 18 19  1  0  0  0  0
 18 20  1  0  0  0  0
 18 38  1  0  0  0  0
 19 39  1  0  0  0  0
 19 40  1  0  0  0  0
 19 41  1  0  0  0  0
M  CHG  1  11  -1
M  END
> <s_m_source_file>
AV-unprocessed.smi

> <i_m_source_file_index>
2032

> <i_lp_mmshare_version>
43012

> <i_f3d_flags>
0

> <s_epik_input>
W0NIM11bQ0BASF0xW0NIMl1OKFtDSDJdW0NASF0oTzEpW0NIM10pW0NASF0oW0NIM10pW0NIMl1bTkhdQyg9TylbTkhdYzJuW2NIXVtjSF1zMg==

> <s_epik_cmdline>
J2VwaWtfcHl0aG9uJywgJy1waCcsICc3LjAnLCAnLXRuJywgJzgnLCAnLW1hJywgJzIwMCcsICctbWV0YWxfYmluZGluZycsICctaW1hZScsICc8aW5maWxlLm1hZT4nLCAnLW9tYWUnLCAnPG91dGZpbGUubWFlPic=

> <r_lp_tautomer_probability>
0.999

> <r_epik_Ionization_Penalty>
7.22375

> <r_epik_Ionization_Penalty_Charging>
5.82415

> <r_epik_Ionization_Penalty_Neutral>
1.39959

> <r_epik_State_Penalty>
6.03347

> <r_epik_Charging_Adjusted_Penalty>
11.8576

> <i_epik_Tot_Q>
-1

> <i_epik_Tot_abs_Q>
1

> <r_epik_Metal_State_Penalty>
2.01024

> <b_epik_Metal_Only>
1

> <s_lp_Force_Field>
OPLS_2005

> <r_lp_Energy>
26.7829

> <b_lp_Chiralities_Consistent>
1

> <s_lp_Variant>
AV-unprocessed.smi:2032-20

> <Gold.Version>
5.8.1

> <Gold.Id.Protein>
6NUR|6NUR_protein|mol2

> <Gold.PLP.Fitness>
48.2179

> <Gold.PLP.PLP>
-44.1985

> <Gold.PLP.part.hbond>
-3.0000

> <Gold.PLP.part.metal>
0.0000

> <Gold.PLP.part.buried>
-6.7526

> <Gold.PLP.part.nonpolar>
-34.7078

> <Gold.PLP.part.repulsive>
0.1917

> <Gold.PLP.ligand.clash>
0.0000

> <Gold.PLP.ligand.torsion>
2.1237

> <Gold.PLP.Chemscore.Hbond>
2.7360

> <Gold.PLP.Chemscore.CHOScore>
0.0000

> <Gold.PLP.Chemscore.Metal>
0.0000

> <Gold.Chemscore.Hbonds>
donor molecule, donor type, donor heavy atom, donor atom, acceptor molecule, acceptor atom, score
      P1  H  6896  6908       L1    10  0.62
      P1  H  6931  6943       L1    13  0.73
      P1  H  6934  6947       L1    13  0.98

> <Gold.PLP.Chemscore.Internal.Correction>
0.0589

> <Gold.Rescore>
     Score         DG    S(hbond)    S(metal)    S(lipo)     H(rot)  DE(clash)    DE(int)     intcor
     18.50     -20.68       2.18        0.00     101.41       1.54       0.00       2.18       ----

> <Gold.Chemscore.Fitness>
18.4982

> <Gold.Chemscore.DG>
-20.6771

> <Gold.Chemscore.ZeroCoef>
-5.4800

> <Gold.Chemscore.Hbond>
2.1802

> <Gold.Chemscore.Metal>
0.0000

> <Gold.Chemscore.Lipo>
101.4142

> <Gold.Chemscore.Internal_Hbond>
0.0000

> <Gold.Chemscore.DEClash>
0.0000

> <Gold.Chemscore.DEInternal>
2.1788

> <Gold.Chemscore.Rot>
1.5431

> <Gold.Chemscore.Internal.Correction>
   9.000000E+99

> <Gold.Chemscore.Hbonds>
donor molecule, donor type, donor heavy atom, donor atom, acceptor molecule, acceptor atom, score
      P1  H  6896  6908       L1    10  0.63
      P1  H  6931  6943       L1    13  0.30
      P1  H  6934  6947       L1    13  0.61

> <Gold.Chemscore.Hbond.Weighted>
-7.2819

> <Gold.Chemscore.Metal.Weighted>
-0.0000

> <Gold.Chemscore.Lipo.Weighted>
-11.8655

> <Gold.Chemscore.Internal_Hbond.Weighted>
0.0000

> <Gold.Chemscore.DEClash.Weighted>
0.0000

> <Gold.Chemscore.DEInternal.Weighted>
2.1788

> <Gold.Chemscore.Rot.Weighted>
3.9503

> <Gold.Chemscore.Internal.Correction.Weighted>
   9.000000E+99

> <Gold.Protein.RotatedTorsions>
[ 6907 6896 6895 6894 ] final -163.79 input  -60.11 | X-H torsion
[ 7974 7965 7964 7962 ] final -124.17 input  175.53 | X-H torsion
[ 8008 7997 7996 7995 ] final  -33.18 input   59.86 | X-H torsion
[ 10167 10162 10161 10158 ] final -166.47 input  -65.29 | X-H torsion
[ 10718 10713 10712 10709 ] final  177.44 input   66.30 | X-H torsion
[ 10763 10752 10751 10750 ] final  105.99 input  -60.55 | X-H torsion
[ 11005 11000 10999 10996 ] final -127.87 input  -57.11 | X-H torsion

> <Gold.Protein.ActiveResidues>
 VAL166  LYS551  ARG553  GLY616  TRP617  ASP618  TYR619  PRO620  LYS621  CYS622 
 ASP623  PHE694  ASN695  SER759  ASP760  ASP761  ALA762  ILE779  LEU786  VAL792 
 PHE793  MET794  SER795  GLU796  ALA797  LYS798  CYS799  TRP800  GLU811  SER814 

> <Gold.Protein.RotatedAtoms>
  151.4016  133.3756  159.2732 H   0  0  0  0  0  0  0  0  0  0  0  0  # atno 6907 bound_to 6896
  150.9429  134.8838  159.7634 H   0  0  0  0  0  0  0  0  0  0  0  0  # atno 6908 bound_to 6896
  152.5079  134.3967  159.9455 H   0  0  0  0  0  0  0  0  0  0  0  0  # atno 6909 bound_to 6896
  145.0109  140.7905  143.4439 H   0  0  0  0  0  0  0  0  0  0  0  0  # atno 7974 bound_to 7965
  154.4157  140.1717  156.1847 H   0  0  0  0  0  0  0  0  0  0  0  0  # atno 8008 bound_to 7997
  155.9653  140.3390  155.6503 H   0  0  0  0  0  0  0  0  0  0  0  0  # atno 8009 bound_to 7997
  155.6695  140.0710  157.2516 H   0  0  0  0  0  0  0  0  0  0  0  0  # atno 8010 bound_to 7997
  139.6112  144.0810  152.1844 H   0  0  0  0  0  0  0  0  0  0  0  0  # atno 10167 bound_to 10162
  156.9054  130.9892  151.3029 H   0  0  0  0  0  0  0  0  0  0  0  0  # atno 10718 bound_to 10713
  153.3868  135.3892  155.1895 H   0  0  0  0  0  0  0  0  0  0  0  0  # atno 10763 bound_to 10752
  154.8714  135.3739  154.4787 H   0  0  0  0  0  0  0  0  0  0  0  0  # atno 10764 bound_to 10752
  153.5270  135.7086  153.5764 H   0  0  0  0  0  0  0  0  0  0  0  0  # atno 10765 bound_to 10752
  140.9563  134.0996  157.4012 H   0  0  0  0  0  0  0  0  0  0  0  0  # atno 11005 bound_to 11000
  145.2025  139.2245  143.5185 LP  0  0  0  0  0  0  0  0  0  0  0  0  # atno 17320 bound_to 7965
  146.3469  140.1845  142.8589 LP  0  0  0  0  0  0  0  0  0  0  0  0  # atno 17321 bound_to 7965
  140.0429  144.5993  150.7396 LP  0  0  0  0  0  0  0  0  0  0  0  0  # atno 17342 bound_to 10162
  140.7320  143.2701  151.3916 LP  0  0  0  0  0  0  0  0  0  0  0  0  # atno 17343 bound_to 10162
  157.6000  130.8506  149.8788 LP  0  0  0  0  0  0  0  0  0  0  0  0  # atno 17370 bound_to 10713
  156.0562  130.3708  150.1087 LP  0  0  0  0  0  0  0  0  0  0  0  0  # atno 17371 bound_to 10713
  139.8863  135.0080  156.6492 LP  0  0  0  0  0  0  0  0  0  0  0  0  # atno 17394 bound_to 11000
  140.7531  133.8881  155.8361 LP  0  0  0  0  0  0  0  0  0  0  0  0  # atno 17395 bound_to 11000

$$$$
