#       Name:                AV-unprocessed.smi:1065
#       Creating user name   scv26
#       Creation time:       Fri Mar 27 03:17:53 2020


#       File generated by GOLD software.
#

@<TRIPOS>MOLECULE
AV-unprocessed.smi:1065
    44    45     1
SMALL
NO_CHARGES


@<TRIPOS>ATOM
      1 ****        -4.5086  -1.9538  -2.4073 C.3            1 S1                 0.0000
      2 ****        -3.9862  -1.0955  -1.2467 C.3            1 S1                 0.0000
      3 ****        -2.4479  -1.0413  -1.1454 C.3            1 S1                 0.0000
      4 ****        -2.0085  -0.3799   0.1759 C.3            1 S1                 0.0000
      5 ****        -0.4780  -0.3205   0.3079 C.3            1 S1                 0.0000
      6 ****         0.1682   0.4157  -0.8852 C.3            1 S1                 0.0000
      7 ****         1.7046   0.4726  -0.7845 C.3            1 S1                 0.0000
      8 ****         2.1358   1.1758   0.4161 N.am           1 S1                 0.0000
      9 ****         3.4146   1.3435   0.7818 C.2            1 S1                 0.0000
     10 ****         4.3688   0.9362   0.1199 O.2            1 S1                 0.0000
     11 ****         3.6552   2.0780   2.1004 C.3            1 S1                 0.0000
     12 ****         3.4019   1.2050   3.2308 N.pl3          1 S1                 0.0000
     13 ****         4.1769   0.2976   3.8283 C.2            1 S1                 0.0000
     14 ****         3.5474  -0.2994   4.8290 N.2            1 S1                 0.0000
     15 ****         2.3002   0.3030   4.8210 N.2            1 S1                 0.0000
     16 ****         2.2077   1.1964   3.8746 N.2            1 S1                 0.0000
     17 ****        -0.2707  -0.2431  -2.2067 C.3            1 S1                 0.0000
     18 ****        -1.8012  -0.3037  -2.3368 C.3            1 S1                 0.0000
     19 ****        -5.5963  -2.0201  -2.3770 H              1 S1                 0.0000
     20 ****        -4.1141  -2.9689  -2.3566 H              1 S1                 0.0000
     21 ****        -4.2364  -1.5334  -3.3750 H              1 S1                 0.0000
     22 ****        -4.3896  -0.0856  -1.3294 H              1 S1                 0.0000
     23 ****        -4.3883  -1.5048  -0.3191 H              1 S1                 0.0000
     24 ****        -2.0772  -2.0675  -1.1389 H              1 S1                 0.0000
     25 ****        -2.4163   0.6302   0.2357 H              1 S1                 0.0000
     26 ****        -2.4218  -0.9279   1.0233 H              1 S1                 0.0000
     27 ****        -0.2225   0.1734   1.2458 H              1 S1                 0.0000
     28 ****        -0.0789  -1.3335   0.3763 H              1 S1                 0.0000
     29 ****        -0.2025   1.4421  -0.8877 H              1 S1                 0.0000
     30 ****         2.1181  -0.5375  -0.7807 H              1 S1                 0.0000
     31 ****         2.1160   0.9825  -1.6571 H              1 S1                 0.0000
     32 ****         1.4127   1.5395   1.0204 H              1 S1                 0.0000
     33 ****         4.6873   2.4275   2.1516 H              1 S1                 0.0000
     34 ****         3.0125   2.9573   2.1667 H              1 S1                 0.0000
     35 ****         5.1907   0.0744   3.5300 H              1 S1                 0.0000
     36 ****         0.1428   0.3074  -3.0525 H              1 S1                 0.0000
     37 ****         0.1378  -1.2527  -2.2687 H              1 S1                 0.0000
     38 ****        -2.0534  -0.7991  -3.2741 H              1 S1                 0.0000
     39 ****        -2.2009   0.7089  -2.4058 H              1 S1                 0.0000
     40 ****         4.2101   0.4514  -0.7402 LP             1 S1                 0.0000
     41 ****         5.3029   1.0901   0.4421 LP             1 S1                 0.0000
     42 ****         3.8895  -1.0120   5.4415 LP             1 S1                 0.0000
     43 ****         1.5636   0.0812   5.4599 LP             1 S1                 0.0000
     44 ****         1.4117   1.7642   3.6647 LP             1 S1                 0.0000
@<TRIPOS>BOND
    1    1    2 1     
    2    1   19 1     
    3    1   20 1     
    4    1   21 1     
    5    2    3 1     
    6    2   22 1     
    7    2   23 1     
    8    3   18 1     
    9    3    4 1     
   10    3   24 1     
   11    4    5 1     
   12    4   25 1     
   13    4   26 1     
   14    5    6 1     
   15    5   27 1     
   16    5   28 1     
   17    6    7 1     
   18    6   17 1     
   19    6   29 1     
   20    7    8 1     
   21    7   30 1     
   22    7   31 1     
   23    8    9 am    
   24    8   32 1     
   25    9   10 2     
   26    9   11 1     
   27   11   12 1     
   28   11   33 1     
   29   11   34 1     
   30   12   16 1     
   31   12   13 1     
   32   13   14 2     
   33   13   35 1     
   34   14   15 1     
   35   15   16 2     
   36   17   18 1     
   37   17   36 1     
   38   17   37 1     
   39   18   38 1     
   40   18   39 1     
   41   10   40 1     
   42   10   41 1     
   43   14   42 1     
   44   15   43 1     
   45   16   44 1     
@<TRIPOS>SUBSTRUCTURE
      1 S1             1
@<TRIPOS>SET
LONE_PAIRS      STATIC     ATOMS    <user>   **** ""
5 40 41 42 43 44
DONOR_HYDROGENS      STATIC     ATOMS    <user>   **** ""
1 32
ATOM$BLUE        STATIC     ATOMS    COLORGROUP SYSTEM
5 40 41 42 43 44
ATOM$RED        STATIC     ATOMS    COLORGROUP SYSTEM
1 32
