#       Name:                AV-unprocessed.smi:720
#       Creating user name   scv26
#       Creation time:       Fri Mar 27 00:49:44 2020


#       File generated by GOLD software.
#

@<TRIPOS>MOLECULE
AV-unprocessed.smi:720
    50    52     1
SMALL
NO_CHARGES


@<TRIPOS>ATOM
      1 ****        -3.1362  -1.7976  -2.2362 C.3            1 S1                 0.0000
      2 ****        -2.9852  -2.7550  -3.3254 N.3            1 S1                 0.0000
      3 ****        -4.2580  -3.4400  -3.5087 C.3            1 S1                 0.0000
      4 ****        -1.9485  -3.7494  -3.0434 C.3            1 S1                 0.0000
      5 ****        -0.5123  -3.1888  -3.1237 C.3            1 S1                 0.0000
      6 ****        -0.0386  -2.6324  -1.8678 N.pl3          1 S1                 0.0000
      7 ****         0.1087  -3.2673  -0.6500 C.2            1 S1                 0.0000
      8 ****         0.6092  -2.3539   0.2336 C.2            1 S1                 0.0000
      9 ****         0.7451  -1.1785  -0.5543 C.2            1 S1                 0.0000
     10 ****         1.2436   0.0192   0.0168 N.am           1 S1                 0.0000
     11 ****         1.3745   1.2235  -0.5729 C.2            1 S1                 0.0000
     12 ****         1.0712   1.4672  -1.7394 O.2            1 S1                 0.0000
     13 ****         1.8686   2.1803   0.2332 N.am           1 S1                 0.0000
     14 ****         2.1322   3.5847  -0.0921 C.3            1 S1                 0.0000
     15 ****         2.4400   4.4034   1.1811 C.3            1 S1                 0.0000
     16 ****         3.8359   4.9862   0.8934 C.3            1 S1                 0.0000
     17 ****         4.8880   3.8627   0.9597 C.3            1 S1                 0.0000
     18 ****         4.6245   3.0722  -0.3358 C.3            1 S1                 0.0000
     19 ****         3.4111   3.8109  -0.9405 C.3            1 S1                 0.0000
     20 ****         3.7551   5.2577  -0.6028 C.3            1 S1                 0.0000
     21 ****         0.3724  -1.3465  -1.8152 N.2            1 S1                 0.0000
     22 ****        -2.2530  -1.1692  -2.1409 H              1 S1                 0.0000
     23 ****        -3.3091  -2.2997  -1.2836 H              1 S1                 0.0000
     24 ****        -3.9772  -1.1300  -2.4276 H              1 S1                 0.0000
     25 ****        -4.1998  -4.1450  -4.3387 H              1 S1                 0.0000
     26 ****        -5.0493  -2.7265  -3.7412 H              1 S1                 0.0000
     27 ****        -4.5468  -3.9904  -2.6119 H              1 S1                 0.0000
     28 ****        -2.1321  -4.2445  -2.0887 H              1 S1                 0.0000
     29 ****        -2.0268  -4.5261  -3.8054 H              1 S1                 0.0000
     30 ****         0.1698  -3.9977  -3.3874 H              1 S1                 0.0000
     31 ****        -0.4261  -2.4460  -3.9187 H              1 S1                 0.0000
     32 ****        -0.1548  -4.3059  -0.5148 H              1 S1                 0.0000
     33 ****         0.8414  -2.5048   1.2774 H              1 S1                 0.0000
     34 ****         1.5188  -0.0389   0.9860 H              1 S1                 0.0000
     35 ****         2.0758   1.9041   1.1822 H              1 S1                 0.0000
     36 ****         1.2645   4.0201  -0.5918 H              1 S1                 0.0000
     37 ****         1.7078   5.2024   1.3042 H              1 S1                 0.0000
     38 ****         2.4291   3.8064   2.0943 H              1 S1                 0.0000
     39 ****         4.0821   5.8528   1.5077 H              1 S1                 0.0000
     40 ****         5.8988   4.2724   0.9598 H              1 S1                 0.0000
     41 ****         4.7759   3.2461   1.8521 H              1 S1                 0.0000
     42 ****         5.4841   3.1455  -1.0033 H              1 S1                 0.0000
     43 ****         4.4464   2.0123  -0.1549 H              1 S1                 0.0000
     44 ****         3.2719   3.6148  -2.0041 H              1 S1                 0.0000
     45 ****         2.9682   5.9642  -0.8729 H              1 S1                 0.0000
     46 ****         4.7002   5.5929  -1.0343 H              1 S1                 0.0000
     47 ****        -2.7132  -2.2567  -4.1485 LP             1 S1                 0.0000
     48 ****         0.6980   0.7439  -2.3205 LP             1 S1                 0.0000
     49 ****         1.1977   2.3885  -2.1068 LP             1 S1                 0.0000
     50 ****         0.3911  -0.6759  -2.5567 LP             1 S1                 0.0000
@<TRIPOS>BOND
    1    1    2 1     
    2    1   22 1     
    3    1   23 1     
    4    1   24 1     
    5    2    3 1     
    6    2    4 1     
    7    3   25 1     
    8    3   26 1     
    9    3   27 1     
   10    4    5 1     
   11    4   28 1     
   12    4   29 1     
   13    5    6 1     
   14    5   30 1     
   15    5   31 1     
   16    6   21 1     
   17    6    7 1     
   18    7    8 2     
   19    7   32 1     
   20    8    9 1     
   21    8   33 1     
   22    9   10 1     
   23    9   21 2     
   24   10   11 am    
   25   10   34 1     
   26   11   12 2     
   27   11   13 am    
   28   13   14 1     
   29   13   35 1     
   30   14   19 1     
   31   14   15 1     
   32   14   36 1     
   33   15   16 1     
   34   15   37 1     
   35   15   38 1     
   36   16   20 1     
   37   16   17 1     
   38   16   39 1     
   39   17   18 1     
   40   17   40 1     
   41   17   41 1     
   42   18   19 1     
   43   18   42 1     
   44   18   43 1     
   45   19   20 1     
   46   19   44 1     
   47   20   45 1     
   48   20   46 1     
   49    2   47 1     
   50   12   48 1     
   51   12   49 1     
   52   21   50 1     
@<TRIPOS>SUBSTRUCTURE
      1 S1             1
@<TRIPOS>SET
LONE_PAIRS      STATIC     ATOMS    <user>   **** ""
4 47 48 49 50
DONOR_HYDROGENS      STATIC     ATOMS    <user>   **** ""
2 34 35
ATOM$BLUE        STATIC     ATOMS    COLORGROUP SYSTEM
4 47 48 49 50
ATOM$RED        STATIC     ATOMS    COLORGROUP SYSTEM
2 34 35
