#       Name:                AV-unprocessed.smi:1763
#       Creating user name   scv26
#       Creation time:       Fri Mar 27 08:36:40 2020


#       File generated by GOLD software.
#

@<TRIPOS>MOLECULE
AV-unprocessed.smi:1763
    48    49     1
SMALL
NO_CHARGES


@<TRIPOS>ATOM
      1 ****        -5.1270   3.3819  -2.7545 C.3            1 S1                 0.0000
      2 ****        -4.4158   2.1693  -2.3790 N.am           1 S1                 0.0000
      3 ****        -3.1428   1.9101  -2.7084 C.2            1 S1                 0.0000
      4 ****        -2.4472   2.6793  -3.3726 O.2            1 S1                 0.0000
      5 ****        -2.5787   0.5692  -2.2276 C.3            1 S1                 0.0000
      6 ****        -1.0937   0.5403  -2.1952 N.4            1 S1                 1.0000
      7 ****        -0.5527  -0.8385  -2.3052 C.3            1 S1                 0.0000
      8 ****         0.9840  -0.8312  -2.4073 C.3            1 S1                 0.0000
      9 ****         1.6376  -0.0806  -1.2343 C.3            1 S1                 0.0000
     10 ****         1.5069  -0.8532   0.0011 N.am           1 S1                 0.0000
     11 ****         2.2376  -0.6711   1.1112 C.2            1 S1                 0.0000
     12 ****         3.1039   0.1972   1.2161 O.2            1 S1                 0.0000
     13 ****         1.8956  -1.5513   2.0686 N.am           1 S1                 0.0000
     14 ****         2.4313  -1.6750   3.3783 C.ar           1 S1                 0.0000
     15 ****         1.8832  -2.7226   4.1524 C.ar           1 S1                 0.0000
     16 ****         2.3481  -2.9300   5.4656 C.ar           1 S1                 0.0000
     17 ****         3.3493  -2.0825   5.9719 C.ar           1 S1                 0.0000
     18 ****         3.8400  -1.0627   5.1358 C.ar           1 S1                 0.0000
     19 ****         3.3962  -0.8623   3.8769 N.ar           1 S1                 0.0000
     20 ****         1.0119   1.3232  -1.1086 C.3            1 S1                 0.0000
     21 ****        -0.5231   1.2626  -1.0268 C.3            1 S1                 0.0000
     22 ****        -6.1531   3.3395  -2.3890 H              1 S1                 0.0000
     23 ****        -5.1565   3.4962  -3.8389 H              1 S1                 0.0000
     24 ****        -4.6481   4.2622  -2.3242 H              1 S1                 0.0000
     25 ****        -4.9252   1.4858  -1.8373 H              1 S1                 0.0000
     26 ****        -2.9798   0.3141  -1.2451 H              1 S1                 0.0000
     27 ****        -2.9459  -0.1880  -2.9217 H              1 S1                 0.0000
     28 ****        -0.8755  -1.4265  -1.4447 H              1 S1                 0.0000
     29 ****        -0.9642  -1.3245  -3.1906 H              1 S1                 0.0000
     30 ****         1.3615  -1.8532  -2.4608 H              1 S1                 0.0000
     31 ****         1.2748  -0.3524  -3.3434 H              1 S1                 0.0000
     32 ****         2.7023   0.0256  -1.4503 H              1 S1                 0.0000
     33 ****         0.8234  -1.5963   0.0039 H              1 S1                 0.0000
     34 ****         1.1704  -2.2126   1.8338 H              1 S1                 0.0000
     35 ****         1.1143  -3.3652   3.7483 H              1 S1                 0.0000
     36 ****         1.9430  -3.7261   6.0727 H              1 S1                 0.0000
     37 ****         3.7311  -2.2101   6.9741 H              1 S1                 0.0000
     38 ****         4.6085  -0.3899   5.4862 H              1 S1                 0.0000
     39 ****         1.4119   1.8497  -0.2414 H              1 S1                 0.0000
     40 ****         1.2971   1.9192  -1.9765 H              1 S1                 0.0000
     41 ****        -0.9161   2.2788  -0.9854 H              1 S1                 0.0000
     42 ****        -0.8330   0.7703  -0.1038 H              1 S1                 0.0000
     43 ****        -0.7867   1.0323  -3.0227 H              1 S1                 0.0000
     44 ****        -2.8277   3.5464  -3.6940 LP             1 S1                 0.0000
     45 ****        -1.5018   2.4367  -3.5906 LP             1 S1                 0.0000
     46 ****         3.2920   0.8110   0.4494 LP             1 S1                 0.0000
     47 ****         3.6195   0.2887   2.0680 LP             1 S1                 0.0000
     48 ****         3.7741  -0.1237   3.3186 LP             1 S1                 0.0000
@<TRIPOS>BOND
    1    1    2 1     
    2    1   22 1     
    3    1   23 1     
    4    1   24 1     
    5    2    3 am    
    6    2   25 1     
    7    3    4 2     
    8    3    5 1     
    9    5    6 1     
   10    5   26 1     
   11    5   27 1     
   12    6   21 1     
   13    6    7 1     
   14    6   43 1     
   15    7    8 1     
   16    7   28 1     
   17    7   29 1     
   18    8    9 1     
   19    8   30 1     
   20    8   31 1     
   21    9   10 1     
   22    9   20 1     
   23    9   32 1     
   24   10   11 am    
   25   10   33 1     
   26   11   12 2     
   27   11   13 am    
   28   13   14 1     
   29   13   34 1     
   30   14   19 ar    
   31   14   15 ar    
   32   15   16 ar    
   33   15   35 1     
   34   16   17 ar    
   35   16   36 1     
   36   17   18 ar    
   37   17   37 1     
   38   18   19 ar    
   39   18   38 1     
   40   20   21 1     
   41   20   39 1     
   42   20   40 1     
   43   21   41 1     
   44   21   42 1     
   45    4   44 1     
   46    4   45 1     
   47   12   46 1     
   48   12   47 1     
   49   19   48 1     
@<TRIPOS>SUBSTRUCTURE
      1 S1             1
@<TRIPOS>SET
LONE_PAIRS      STATIC     ATOMS    <user>   **** ""
5 44 45 46 47 48
DONOR_HYDROGENS      STATIC     ATOMS    <user>   **** ""
4 25 43 33 34
ATOM$BLUE        STATIC     ATOMS    COLORGROUP SYSTEM
5 44 45 46 47 48
ATOM$RED        STATIC     ATOMS    COLORGROUP SYSTEM
4 25 43 33 34
