#       Name:                AV-unprocessed.smi:66
#       Creating user name   scv26
#       Creation time:       Thu Mar 26 16:51:18 2020


#       File generated by GOLD software.
#

@<TRIPOS>MOLECULE
AV-unprocessed.smi:66
    38    40     1
SMALL
NO_CHARGES


@<TRIPOS>ATOM
      1 ****        -3.1372   1.0858   0.0797 O.co2          1 S1                 0.0000
      2 ****        -2.3775   0.6275  -0.8013 C.2            1 S1                 0.0000
      3 ****        -2.7169  -0.1545  -1.7175 O.co2          1 S1                -1.0000
      4 ****        -0.9082   1.0635  -0.7412 C.3            1 S1                 0.0000
      5 ****        -0.4924   1.9245  -1.9491 C.3            1 S1                 0.0000
      6 ****         0.9813   1.5828  -2.1279 C.3            1 S1                 0.0000
      7 ****         1.4530   1.8602  -3.4296 O.3            1 S1                 0.0000
      8 ****         0.9967   0.0922  -1.8052 C.3            1 S1                 0.0000
      9 ****         0.0067  -0.0848  -0.7448 N.3            1 S1                 0.0000
     10 ****         0.4517  -0.4238   0.4895 C.ar           1 S1                 0.0000
     11 ****         1.6057   0.1113   0.9730 N.ar           1 S1                 0.0000
     12 ****         2.0272  -0.2017   2.2027 C.ar           1 S1                 0.0000
     13 ****         1.4581  -1.0081   3.1025 N.ar           1 S1                 0.0000
     14 ****         0.2996  -1.5384   2.6196 C.ar           1 S1                 0.0000
     15 ****        -0.5690  -2.4055   3.2477 N.pl3          1 S1                 0.0000
     16 ****        -1.5816  -2.6435   2.3501 C.2            1 S1                 0.0000
     17 ****        -1.4555  -2.0244   1.2074 N.2            1 S1                 0.0000
     18 ****        -0.2728  -1.3038   1.3382 C.ar           1 S1                 0.0000
     19 ****        -0.4347  -2.7586   4.1839 H              1 S1                 0.0000
     20 ****        -0.7523   1.6467   0.1691 H              1 S1                 0.0000
     21 ****        -1.0496   1.6418  -2.8445 H              1 S1                 0.0000
     22 ****        -0.6561   2.9889  -1.7787 H              1 S1                 0.0000
     23 ****         1.5802   2.1285  -1.3972 H              1 S1                 0.0000
     24 ****         2.3522   1.5765  -3.4877 H              1 S1                 0.0000
     25 ****         0.6587  -0.4893  -2.6644 H              1 S1                 0.0000
     26 ****         1.9968  -0.2650  -1.5556 H              1 S1                 0.0000
     27 ****         2.9518   0.2633   2.5109 H              1 S1                 0.0000
     28 ****        -2.4167  -3.2925   2.5692 H              1 S1                 0.0000
     29 ****        -4.1041   0.8308   0.0883 LP             1 S1                 0.0000
     30 ****        -2.7779   1.7074   0.7758 LP             1 S1                 0.0000
     31 ****        -3.6657  -0.4626  -1.7859 LP             1 S1                 0.0000
     32 ****        -2.0392  -0.4712  -2.3811 LP             1 S1                 0.0000
     33 ****         1.3968   2.8427  -3.6069 LP             1 S1                 0.0000
     34 ****         0.8995   1.3680  -4.1014 LP             1 S1                 0.0000
     35 ****        -0.4839  -0.9222  -0.9854 LP             1 S1                 0.0000
     36 ****         2.1396   0.7399   0.4075 LP             1 S1                 0.0000
     37 ****         1.8326  -1.1975   4.0102 LP             1 S1                 0.0000
     38 ****        -2.0689  -2.0601   0.4185 LP             1 S1                 0.0000
@<TRIPOS>BOND
    1    1    2 ar    
    2    2    3 ar    
    3    2    4 1     
    4    4    5 1     
    5    4   20 1     
    6    4    9 1     
    7    5    6 1     
    8    5   21 1     
    9    5   22 1     
   10    6    7 1     
   11    6    8 1     
   12    6   23 1     
   13    7   24 1     
   14    8   25 1     
   15    8   26 1     
   16    8    9 1     
   17    9   10 1     
   18   10   11 ar    
   19   10   18 ar    
   20   11   12 ar    
   21   12   27 1     
   22   12   13 ar    
   23   13   14 ar    
   24   14   15 1     
   25   14   18 ar    
   26   15   16 1     
   27   15   19 1     
   28   16   17 2     
   29   16   28 1     
   30   17   18 1     
   31    1   29 1     
   32    1   30 1     
   33    3   31 1     
   34    3   32 1     
   35    7   33 1     
   36    7   34 1     
   37    9   35 1     
   38   11   36 1     
   39   13   37 1     
   40   17   38 1     
@<TRIPOS>SUBSTRUCTURE
      1 S1             1
@<TRIPOS>SET
LONE_PAIRS      STATIC     ATOMS    <user>   **** ""
10 29 30 31 32 33 34 35 36 37 38
DONOR_HYDROGENS      STATIC     ATOMS    <user>   **** ""
2 24 19
ATOM$BLUE        STATIC     ATOMS    COLORGROUP SYSTEM
10 29 30 31 32 33 34 35 36 37 38
ATOM$RED        STATIC     ATOMS    COLORGROUP SYSTEM
2 24 19
