AV-unprocessed.smi:407|AV-procd|sdf|2502|dock3
  -GOLD-   2262022453D 1   1.00000     0.00000
 Structure written by MMmdl.
 45 47  0  0  0  0  0  0  0  0  1 V2000
  142.7929  145.3600  154.2893 C   0  0  0  0  0  0  0  0  0  0  0  0
  144.1218  145.0511  153.6018 C   0  0  0  0  0  0  0  0  0  0  0  0
  144.4379  145.7024  152.6066 O   0  0  0  0  0  0  0  0  0  0  0  0
  144.9678  143.9675  154.1779 C   0  0  0  0  0  0  0  0  0  0  0  0
  146.1453  143.5191  153.5360 C   0  0  0  0  0  0  0  0  0  0  0  0
  146.9236  142.4944  154.1078 C   0  0  0  0  0  0  0  0  0  0  0  0
  146.5512  141.8958  155.3274 C   0  0  0  0  0  0  0  0  0  0  0  0
  147.3741  140.9039  155.8157 O   0  0  0  0  0  0  0  0  0  0  0  0
  148.7606  140.9655  155.5072 C   0  0  0  0  0  0  0  0  0  0  0  0
  149.5072  141.5819  156.7019 C   0  0  1  0  0  0  0  0  0  0  0  0
  149.0428  140.9299  157.8677 O   0  0  0  0  0  0  0  0  0  0  0  0
  151.0303  141.3525  156.6105 C   0  0  0  0  0  0  0  0  0  0  0  0
  151.7054  141.7044  157.8591 N   0  0  0  0  0  0  0  0  0  0  0  0
  152.5057  140.8980  158.5966 C   0  0  0  0  0  0  0  0  0  0  0  0
  152.7890  139.7288  158.3353 O   0  0  0  0  0  0  0  0  0  0  0  0
  152.9458  141.6054  159.6630 N   0  0  0  0  0  0  0  0  0  0  0  0
  153.8398  141.1386  160.7158 C   0  0  0  0  0  0  0  0  0  0  0  0
  152.4255  142.9042  159.5995 C   0  0  0  0  0  0  0  0  0  0  0  0
  152.5961  144.0086  160.4518 C   0  0  0  0  0  0  0  0  0  0  0  0
  151.9265  145.2042  160.1008 C   0  0  0  0  0  0  0  0  0  0  0  0
  151.1220  145.2712  158.9335 C   0  0  0  0  0  0  0  0  0  0  0  0
  150.9690  144.1438  158.0927 C   0  0  0  0  0  0  0  0  0  0  0  0
  151.6435  142.9678  158.4652 C   0  0  0  0  0  0  0  0  0  0  0  0
  145.3702  142.3414  155.9698 C   0  0  0  0  0  0  0  0  0  0  0  0
  144.5898  143.3654  155.3991 C   0  0  0  0  0  0  0  0  0  0  0  0
  142.1478  144.4812  154.2861 H   0  0  0  0  0  0  0  0  0  0  0  0
  142.2732  146.1657  153.7704 H   0  0  0  0  0  0  0  0  0  0  0  0
  142.9587  145.6709  155.3210 H   0  0  0  0  0  0  0  0  0  0  0  0
  146.4739  143.9481  152.6013 H   0  0  0  0  0  0  0  0  0  0  0  0
  147.8207  142.1652  153.6040 H   0  0  0  0  0  0  0  0  0  0  0  0
  149.1650  139.9816  155.2615 H   0  0  0  0  0  0  0  0  0  0  0  0
  148.8852  141.6053  154.6321 H   0  0  0  0  0  0  0  0  0  0  0  0
  149.2874  142.6491  156.7566 H   0  0  0  0  0  0  0  0  0  0  0  0
  149.4157  141.3604  158.6216 H   0  0  0  0  0  0  0  0  0  0  0  0
  151.2604  140.3281  156.3148 H   0  0  0  0  0  0  0  0  0  0  0  0
  151.4511  141.9819  155.8246 H   0  0  0  0  0  0  0  0  0  0  0  0
  153.4590  141.4286  161.6958 H   0  0  0  0  0  0  0  0  0  0  0  0
  154.8292  141.5786  160.5891 H   0  0  0  0  0  0  0  0  0  0  0  0
  153.9467  140.0529  160.7082 H   0  0  0  0  0  0  0  0  0  0  0  0
  153.2123  143.9500  161.3368 H   0  0  0  0  0  0  0  0  0  0  0  0
  152.0299  146.0773  160.7283 H   0  0  0  0  0  0  0  0  0  0  0  0
  150.6214  146.1947  158.6828 H   0  0  0  0  0  0  0  0  0  0  0  0
  150.3608  144.1914  157.2017 H   0  0  0  0  0  0  0  0  0  0  0  0
  145.0385  141.9133  156.9034 H   0  0  0  0  0  0  0  0  0  0  0  0
  143.6953  143.6837  155.9148 H   0  0  0  0  0  0  0  0  0  0  0  0
  1  2  1  0  0  0  0
  1 26  1  0  0  0  0
  1 27  1  0  0  0  0
  1 28  1  0  0  0  0
  2  3  2  0  0  0  0
  2  4  1  0  0  0  0
  4 25  1  0  0  0  0
  4  5  2  0  0  0  0
  5  6  1  0  0  0  0
  5 29  1  0  0  0  0
  6  7  2  0  0  0  0
  6 30  1  0  0  0  0
  7  8  1  0  0  0  0
  7 24  1  0  0  0  0
  8  9  1  0  0  0  0
  9 10  1  0  0  0  0
  9 31  1  0  0  0  0
  9 32  1  0  0  0  0
 10 11  1  0  0  0  0
 10 12  1  0  0  0  0
 10 33  1  0  0  0  0
 11 34  1  0  0  0  0
 12 13  1  0  0  0  0
 12 35  1  0  0  0  0
 12 36  1  0  0  0  0
 13 23  1  0  0  0  0
 13 14  1  0  0  0  0
 14 15  2  0  0  0  0
 14 16  1  0  0  0  0
 16 17  1  0  0  0  0
 16 18  1  0  0  0  0
 17 37  1  0  0  0  0
 17 38  1  0  0  0  0
 17 39  1  0  0  0  0
 18 23  2  0  0  0  0
 18 19  1  0  0  0  0
 19 20  2  0  0  0  0
 19 40  1  0  0  0  0
 20 21  1  0  0  0  0
 20 41  1  0  0  0  0
 21 22  2  0  0  0  0
 21 42  1  0  0  0  0
 22 23  1  0  0  0  0
 22 43  1  0  0  0  0
 24 25  2  0  0  0  0
 24 44  1  0  0  0  0
 25 45  1  0  0  0  0
M  END
> <s_m_source_file>
AV-unprocessed.smi

> <i_m_source_file_index>
407

> <i_lp_mmshare_version>
43012

> <i_f3d_flags>
0

> <s_epik_input>
W0NIM11DKD1PKWMxW2NIXVtjSF1jKFtjSF1bY0hdMSlPW0NIMl1bQ0BIXShbT0hdKVtDSDJdbihjKD1PKW4yW0NIM10pYyhjMjMpW2NIXVtjSF1bY0hdW2NIXTM=

> <s_epik_cmdline>
J2VwaWtfcHl0aG9uJywgJy1waCcsICc3LjAnLCAnLXRuJywgJzgnLCAnLW1hJywgJzIwMCcsICctbWV0YWxfYmluZGluZycsICctaW1hZScsICc8aW5maWxlLm1hZT4nLCAnLW9tYWUnLCAnPG91dGZpbGUubWFlPic=

> <r_lp_tautomer_probability>
1

> <r_epik_Ionization_Penalty>
2.40123e-06

> <r_epik_Ionization_Penalty_Charging>
1.9356e-09

> <r_epik_Ionization_Penalty_Neutral>
2.3993e-06

> <r_epik_State_Penalty>
-0

> <r_epik_Charging_Adjusted_Penalty>
1.9356e-09

> <i_epik_Tot_Q>
0

> <i_epik_Tot_abs_Q>
0

> <r_epik_Metal_State_Penalty>
-0

> <b_epik_Metal_Only>
0

> <s_lp_Force_Field>
OPLS_2005

> <r_lp_Energy>
53.7359

> <b_lp_Chiralities_Consistent>
1

> <s_lp_Variant>
AV-unprocessed.smi:407-2

> <Gold.Version>
5.8.1

> <Gold.Id.Protein>
6NUR|6NUR_protein|mol2

> <Gold.PLP.Fitness>
57.3896

> <Gold.PLP.PLP>
-55.7721

> <Gold.PLP.part.hbond>
-3.0000

> <Gold.PLP.part.metal>
0.0000

> <Gold.PLP.part.buried>
-6.3689

> <Gold.PLP.part.nonpolar>
-46.0705

> <Gold.PLP.part.repulsive>
0.1765

> <Gold.PLP.ligand.clash>
0.0000

> <Gold.PLP.ligand.torsion>
0.8188

> <Gold.PLP.Chemscore.Hbond>
0.9913

> <Gold.PLP.Chemscore.CHOScore>
0.0000

> <Gold.PLP.Chemscore.Metal>
0.0000

> <Gold.Chemscore.Hbonds>
donor molecule, donor type, donor heavy atom, donor atom, acceptor molecule, acceptor atom, score
      P1  H  7997  8010       L1    15  0.37

> <Gold.PLP.Chemscore.Internal.Correction>
0.2813

> <Gold.Rescore>
     Score         DG    S(hbond)    S(metal)    S(lipo)     H(rot)  DE(clash)    DE(int)     intcor
     14.59     -17.22       0.67        0.00     131.61       2.30       1.83       0.81       ----

> <Gold.Chemscore.Fitness>
14.5859

> <Gold.Chemscore.DG>
-17.2201

> <Gold.Chemscore.ZeroCoef>
-5.4800

> <Gold.Chemscore.Hbond>
0.6663

> <Gold.Chemscore.Metal>
0.0000

> <Gold.Chemscore.Lipo>
131.6100

> <Gold.Chemscore.Internal_Hbond>
0.0000

> <Gold.Chemscore.DEClash>
1.8267

> <Gold.Chemscore.DEInternal>
0.8075

> <Gold.Chemscore.Rot>
2.2984

> <Gold.Chemscore.Internal.Correction>
   9.000000E+99

> <Gold.Chemscore.Hbonds>
donor molecule, donor type, donor heavy atom, donor atom, acceptor molecule, acceptor atom, score
      P1  H  7997  8010       L1    15  0.09

> <Gold.Chemscore.Hbond.Weighted>
-2.2256

> <Gold.Chemscore.Metal.Weighted>
-0.0000

> <Gold.Chemscore.Lipo.Weighted>
-15.3984

> <Gold.Chemscore.Internal_Hbond.Weighted>
0.0000

> <Gold.Chemscore.DEClash.Weighted>
1.8267

> <Gold.Chemscore.DEInternal.Weighted>
0.8075

> <Gold.Chemscore.Rot.Weighted>
5.8839

> <Gold.Chemscore.Internal.Correction.Weighted>
   9.000000E+99

> <Gold.Protein.RotatedTorsions>
[ 6907 6896 6895 6894 ] final  -68.30 input  -60.11 | X-H torsion
[ 7974 7965 7964 7962 ] final  -40.39 input  175.53 | X-H torsion
[ 8008 7997 7996 7995 ] final   51.83 input   59.86 | X-H torsion
[ 10167 10162 10161 10158 ] final  162.49 input  -65.29 | X-H torsion
[ 10718 10713 10712 10709 ] final  -63.31 input   66.30 | X-H torsion
[ 10763 10752 10751 10750 ] final   16.70 input  -60.55 | X-H torsion
[ 11005 11000 10999 10996 ] final  -39.51 input  -57.11 | X-H torsion

> <Gold.Protein.ActiveResidues>
 VAL166  LYS551  ARG553  GLY616  TRP617  ASP618  TYR619  PRO620  LYS621  CYS622 
 ASP623  PHE694  ASN695  SER759  ASP760  ASP761  ALA762  ILE779  LEU786  VAL792 
 PHE793  MET794  SER795  GLU796  ALA797  LYS798  CYS799  TRP800  GLU811  SER814 

> <Gold.Protein.RotatedAtoms>
  150.7363  134.5758  159.5913 H   0  0  0  0  0  0  0  0  0  0  0  0  # atno 6907 bound_to 6896
  152.3185  134.7407  160.0328 H   0  0  0  0  0  0  0  0  0  0  0  0  # atno 6908 bound_to 6896
  151.7931  133.3326  159.3541 H   0  0  0  0  0  0  0  0  0  0  0  0  # atno 6909 bound_to 6896
  146.0309  140.6733  142.9133 H   0  0  0  0  0  0  0  0  0  0  0  0  # atno 7974 bound_to 7965
  155.4418  140.3455  155.4291 H   0  0  0  0  0  0  0  0  0  0  0  0  # atno 8008 bound_to 7997
  156.1274  140.1504  156.9146 H   0  0  0  0  0  0  0  0  0  0  0  0  # atno 8009 bound_to 7997
  154.4868  140.0853  156.7485 H   0  0  0  0  0  0  0  0  0  0  0  0  # atno 8010 bound_to 7997
  139.4861  144.4432  151.8925 H   0  0  0  0  0  0  0  0  0  0  0  0  # atno 10167 bound_to 10162
  156.0799  130.4219  150.1259 H   0  0  0  0  0  0  0  0  0  0  0  0  # atno 10718 bound_to 10713
  153.1407  135.6759  153.9032 H   0  0  0  0  0  0  0  0  0  0  0  0  # atno 10763 bound_to 10752
  153.8490  135.3095  155.3432 H   0  0  0  0  0  0  0  0  0  0  0  0  # atno 10764 bound_to 10752
  154.7785  135.4901  153.9877 H   0  0  0  0  0  0  0  0  0  0  0  0  # atno 10765 bound_to 10752
  141.0107  133.6909  156.2196 H   0  0  0  0  0  0  0  0  0  0  0  0  # atno 11005 bound_to 11000
  144.7030  140.3733  143.7141 LP  0  0  0  0  0  0  0  0  0  0  0  0  # atno 17320 bound_to 7965
  145.7043  139.1669  143.2575 LP  0  0  0  0  0  0  0  0  0  0  0  0  # atno 17321 bound_to 7965
  140.3885  144.2646  150.5902 LP  0  0  0  0  0  0  0  0  0  0  0  0  # atno 17342 bound_to 10162
  140.5168  143.2276  151.8451 LP  0  0  0  0  0  0  0  0  0  0  0  0  # atno 17343 bound_to 10162
  156.9293  130.9708  151.3535 LP  0  0  0  0  0  0  0  0  0  0  0  0  # atno 17370 bound_to 10713
  157.5911  130.8444  149.8661 LP  0  0  0  0  0  0  0  0  0  0  0  0  # atno 17371 bound_to 10713
  140.6739  134.4839  157.5588 LP  0  0  0  0  0  0  0  0  0  0  0  0  # atno 17394 bound_to 11000
  139.9088  134.8390  156.1605 LP  0  0  0  0  0  0  0  0  0  0  0  0  # atno 17395 bound_to 11000

$$$$
