AV-unprocessed.smi:1673|AV-procd|sdf|6712|dock8
  -GOLD-   22720 7453D 1   1.00000     0.00000
 Structure written by MMmdl.
 39 40  0  0  0  0  0  0  0  0  1 V2000
  153.6068  136.5921  163.9829 C   0  0  0  0  0  0  0  0  0  0  0  0
  154.9205  137.1969  163.5714 C   0  0  0  0  0  0  0  0  0  0  0  0
  156.0448  136.6638  164.0264 N   0  0  0  0  0  0  0  0  0  0  0  0
  157.0985  137.3741  163.4305 O   0  0  0  0  0  0  0  0  0  0  0  0
  156.5794  138.3328  162.6199 C   0  0  0  0  0  0  0  0  0  0  0  0
  157.5479  139.1876  161.8746 C   0  0  0  0  0  0  0  0  0  0  0  0
  155.2189  138.2827  162.6964 C   0  0  0  0  0  0  0  0  0  0  0  0
  154.3380  139.1181  161.9650 N   0  0  0  0  0  0  0  0  0  0  0  0
  154.5097  140.4197  161.6891 C   0  0  0  0  0  0  0  0  0  0  0  0
  155.5011  141.0783  162.0019 O   0  0  0  0  0  0  0  0  0  0  0  0
  153.4661  140.9155  161.0085 N   0  0  0  0  0  0  0  0  0  0  0  0
  153.3269  142.2933  160.5381 C   0  0  1  0  0  0  0  0  0  0  0  0
  152.8248  142.2691  159.0810 C   0  0  0  0  0  0  0  0  0  0  0  0
  152.5983  143.6855  158.5334 C   0  0  0  0  0  0  0  0  0  0  0  0
  151.6329  144.4724  159.4295 C   0  0  0  0  0  0  0  0  0  0  0  0
  152.1376  144.5137  160.8798 C   0  0  0  0  0  0  0  0  0  0  0  0
  152.3660  143.0993  161.4509 C   0  0  2  0  0  0  0  0  0  0  0  0
  152.8534  143.1820  162.9088 C   0  0  0  0  0  0  0  0  0  0  0  0
  152.8694  136.6687  163.1838 H   0  0  0  0  0  0  0  0  0  0  0  0
  153.2038  137.0929  164.8631 H   0  0  0  0  0  0  0  0  0  0  0  0
  153.7130  135.5342  164.2247 H   0  0  0  0  0  0  0  0  0  0  0  0
  157.0330  139.8506  161.1793 H   0  0  0  0  0  0  0  0  0  0  0  0
  158.2435  138.5737  161.3024 H   0  0  0  0  0  0  0  0  0  0  0  0
  158.1268  139.8039  162.5626 H   0  0  0  0  0  0  0  0  0  0  0  0
  153.5427  138.6627  161.5420 H   0  0  0  0  0  0  0  0  0  0  0  0
  152.7023  140.2903  160.7976 H   0  0  0  0  0  0  0  0  0  0  0  0
  154.2997  142.7892  160.5421 H   0  0  0  0  0  0  0  0  0  0  0  0
  153.5419  141.7445  158.4483 H   0  0  0  0  0  0  0  0  0  0  0  0
  151.8915  141.7071  159.0202 H   0  0  0  0  0  0  0  0  0  0  0  0
  153.5521  144.2112  158.4702 H   0  0  0  0  0  0  0  0  0  0  0  0
  152.2050  143.6337  157.5178 H   0  0  0  0  0  0  0  0  0  0  0  0
  151.5144  145.4867  159.0474 H   0  0  0  0  0  0  0  0  0  0  0  0
  150.6445  144.0120  159.3978 H   0  0  0  0  0  0  0  0  0  0  0  0
  153.0682  145.0819  160.9226 H   0  0  0  0  0  0  0  0  0  0  0  0
  151.4195  145.0542  161.4975 H   0  0  0  0  0  0  0  0  0  0  0  0
  151.4013  142.5893  161.4592 H   0  0  0  0  0  0  0  0  0  0  0  0
  153.8398  143.6431  162.9696 H   0  0  0  0  0  0  0  0  0  0  0  0
  152.9174  142.1963  163.3698 H   0  0  0  0  0  0  0  0  0  0  0  0
  152.1707  143.7761  163.5167 H   0  0  0  0  0  0  0  0  0  0  0  0
  1  2  1  0  0  0  0
  1 19  1  0  0  0  0
  1 20  1  0  0  0  0
  1 21  1  0  0  0  0
  2  7  1  0  0  0  0
  2  3  2  0  0  0  0
  3  4  1  0  0  0  0
  4  5  1  0  0  0  0
  5  6  1  0  0  0  0
  5  7  2  0  0  0  0
  6 22  1  0  0  0  0
  6 23  1  0  0  0  0
  6 24  1  0  0  0  0
  7  8  1  0  0  0  0
  8  9  1  0  0  0  0
  8 25  1  0  0  0  0
  9 10  2  0  0  0  0
  9 11  1  0  0  0  0
 11 12  1  0  0  0  0
 11 26  1  0  0  0  0
 12 17  1  0  0  0  0
 12 13  1  0  0  0  0
 12 27  1  0  0  0  0
 13 14  1  0  0  0  0
 13 28  1  0  0  0  0
 13 29  1  0  0  0  0
 14 15  1  0  0  0  0
 14 30  1  0  0  0  0
 14 31  1  0  0  0  0
 15 16  1  0  0  0  0
 15 32  1  0  0  0  0
 15 33  1  0  0  0  0
 16 17  1  0  0  0  0
 16 34  1  0  0  0  0
 16 35  1  0  0  0  0
 17 18  1  0  0  0  0
 17 36  1  0  0  0  0
 18 37  1  0  0  0  0
 18 38  1  0  0  0  0
 18 39  1  0  0  0  0
M  END
> <s_m_source_file>
AV-unprocessed.smi

> <i_m_source_file_index>
1673

> <i_lp_mmshare_version>
43012

> <i_f3d_flags>
0

> <s_epik_input>
W0NIM11jMW5vYyhbQ0gzXSljMVtOSF1DKD1PKVtOSF1bQ0BASF0yW0NIMl1bQ0gyXVtDSDJdW0NIMl1bQ0BIXTJbQ0gzXQ==

> <s_epik_cmdline>
J2VwaWtfcHl0aG9uJywgJy1waCcsICc3LjAnLCAnLXRuJywgJzgnLCAnLW1hJywgJzIwMCcsICctbWV0YWxfYmluZGluZycsICctaW1hZScsICc8aW5maWxlLm1hZT4nLCAnLW9tYWUnLCAnPG91dGZpbGUubWFlPic=

> <r_lp_tautomer_probability>
1

> <r_epik_Ionization_Penalty>
4.01865e-05

> <r_epik_Ionization_Penalty_Charging>
0

> <r_epik_Ionization_Penalty_Neutral>
4.01865e-05

> <r_epik_State_Penalty>
-0

> <r_epik_Charging_Adjusted_Penalty>
0

> <i_epik_Tot_Q>
0

> <i_epik_Tot_abs_Q>
0

> <r_epik_Metal_State_Penalty>
-0

> <b_epik_Metal_Only>
0

> <s_lp_Force_Field>
OPLS_2005

> <r_lp_Energy>
12.0286

> <b_lp_Chiralities_Consistent>
1

> <s_lp_Variant>
AV-unprocessed.smi:1673-4

> <Gold.Version>
5.8.1

> <Gold.Id.Protein>
6NUR|6NUR_protein|mol2

> <Gold.PLP.Fitness>
38.5744

> <Gold.PLP.PLP>
-39.2480

> <Gold.PLP.part.hbond>
-0.4465

> <Gold.PLP.part.metal>
0.0000

> <Gold.PLP.part.buried>
-3.8086

> <Gold.PLP.part.nonpolar>
-34.6058

> <Gold.PLP.part.repulsive>
0.1022

> <Gold.PLP.ligand.clash>
0.0000

> <Gold.PLP.ligand.torsion>
0.4688

> <Gold.PLP.Chemscore.Hbond>
0.0000

> <Gold.PLP.Chemscore.CHOScore>
0.0000

> <Gold.PLP.Chemscore.Metal>
0.0000

> <Gold.PLP.Chemscore.Internal.Correction>
0.2639

> <Gold.Rescore>
     Score         DG    S(hbond)    S(metal)    S(lipo)     H(rot)  DE(clash)    DE(int)     intcor
     13.52     -16.09       0.00        0.00     112.58       1.00       2.02       0.56       ----

> <Gold.Chemscore.Fitness>
13.5178

> <Gold.Chemscore.DG>
-16.0918

> <Gold.Chemscore.ZeroCoef>
-5.4800

> <Gold.Chemscore.Hbond>
0.0000

> <Gold.Chemscore.Metal>
0.0000

> <Gold.Chemscore.Lipo>
112.5795

> <Gold.Chemscore.Internal_Hbond>
0.0000

> <Gold.Chemscore.DEClash>
2.0153

> <Gold.Chemscore.DEInternal>
0.5586

> <Gold.Chemscore.Rot>
1.0000

> <Gold.Chemscore.Internal.Correction>
   9.000000E+99

> <Gold.Chemscore.Hbond.Weighted>
-0.0000

> <Gold.Chemscore.Metal.Weighted>
-0.0000

> <Gold.Chemscore.Lipo.Weighted>
-13.1718

> <Gold.Chemscore.Internal_Hbond.Weighted>
0.0000

> <Gold.Chemscore.DEClash.Weighted>
2.0153

> <Gold.Chemscore.DEInternal.Weighted>
0.5586

> <Gold.Chemscore.Rot.Weighted>
2.5600

> <Gold.Chemscore.Internal.Correction.Weighted>
   9.000000E+99

> <Gold.Protein.RotatedTorsions>
[ 6907 6896 6895 6894 ] final -134.42 input  -60.11 | X-H torsion
[ 7974 7965 7964 7962 ] final  134.98 input  175.53 | X-H torsion
[ 8008 7997 7996 7995 ] final  109.28 input   59.86 | X-H torsion
[ 10167 10162 10161 10158 ] final   41.69 input  -65.29 | X-H torsion
[ 10718 10713 10712 10709 ] final   81.40 input   66.30 | X-H torsion
[ 10763 10752 10751 10750 ] final  113.40 input  -60.55 | X-H torsion
[ 11005 11000 10999 10996 ] final   54.31 input  -57.11 | X-H torsion

> <Gold.Protein.ActiveResidues>
 VAL166  LYS551  ARG553  GLY616  TRP617  ASP618  TYR619  PRO620  LYS621  CYS622 
 ASP623  PHE694  ASN695  SER759  ASP760  ASP761  ALA762  ILE779  LEU786  VAL792 
 PHE793  MET794  SER795  GLU796  ALA797  LYS798  CYS799  TRP800  GLU811  SER814 

> <Gold.Protein.RotatedAtoms>
  150.9857  133.6200  159.2715 H   0  0  0  0  0  0  0  0  0  0  0  0  # atno 6907 bound_to 6896
  151.3439  135.0868  159.9390 H   0  0  0  0  0  0  0  0  0  0  0  0  # atno 6908 bound_to 6896
  152.5230  133.9463  159.7705 H   0  0  0  0  0  0  0  0  0  0  0  0  # atno 6909 bound_to 6896
  144.9709  139.4606  143.5433 H   0  0  0  0  0  0  0  0  0  0  0  0  # atno 7974 bound_to 7965
  156.1967  140.3061  155.9442 H   0  0  0  0  0  0  0  0  0  0  0  0  # atno 8008 bound_to 7997
  155.3049  140.0448  157.3048 H   0  0  0  0  0  0  0  0  0  0  0  0  # atno 8009 bound_to 7997
  154.5518  140.2294  155.8481 H   0  0  0  0  0  0  0  0  0  0  0  0  # atno 8010 bound_to 7997
  140.3618  144.2218  150.6137 H   0  0  0  0  0  0  0  0  0  0  0  0  # atno 10167 bound_to 10162
  157.6832  131.0002  150.2220 H   0  0  0  0  0  0  0  0  0  0  0  0  # atno 10718 bound_to 10713
  153.4920  135.3656  155.2496 H   0  0  0  0  0  0  0  0  0  0  0  0  # atno 10763 bound_to 10752
  154.8751  135.3979  154.3578 H   0  0  0  0  0  0  0  0  0  0  0  0  # atno 10764 bound_to 10752
  153.4199  135.7080  153.6367 H   0  0  0  0  0  0  0  0  0  0  0  0  # atno 10765 bound_to 10752
  140.0697  134.5487  155.9060 H   0  0  0  0  0  0  0  0  0  0  0  0  # atno 11005 bound_to 11000
  146.3382  139.8921  142.8807 LP  0  0  0  0  0  0  0  0  0  0  0  0  # atno 17320 bound_to 7965
  145.2560  141.0060  143.3854 LP  0  0  0  0  0  0  0  0  0  0  0  0  # atno 17321 bound_to 7965
  140.5119  143.2288  151.8522 LP  0  0  0  0  0  0  0  0  0  0  0  0  # atno 17342 bound_to 10162
  139.4813  144.4939  151.9149 LP  0  0  0  0  0  0  0  0  0  0  0  0  # atno 17343 bound_to 10162
  156.2870  130.3740  149.7879 LP  0  0  0  0  0  0  0  0  0  0  0  0  # atno 17370 bound_to 10713
  156.5550  130.8358  151.3311 LP  0  0  0  0  0  0  0  0  0  0  0  0  # atno 17371 bound_to 10713
  141.2007  133.6614  156.5909 LP  0  0  0  0  0  0  0  0  0  0  0  0  # atno 17394 bound_to 11000
  140.3646  134.7658  157.4557 LP  0  0  0  0  0  0  0  0  0  0  0  0  # atno 17395 bound_to 11000

$$$$
