AV-unprocessed.smi:2850|AV-procd|sdf|10967|dock6
  -GOLD-   2272015423D 1   1.00000     0.00000
 Structure written by MMmdl.
 45 46  0  0  0  0  0  0  0  0  2 V2000
  151.9553  139.9755  158.9621 C   0  0  0  0  0  0  0  0  0  0  0  0
  152.0401  140.4712  157.2184 S   0  0  0  0  0  0  0  0  0  0  0  0
  151.3407  139.1564  156.2675 C   0  0  0  0  0  0  0  0  0  0  0  0
  151.3181  139.2202  154.8628 C   0  0  0  0  0  0  0  0  0  0  0  0
  150.7514  138.1278  154.1831 C   0  0  0  0  0  0  0  0  0  0  0  0
  150.2508  137.0614  154.9574 C   0  0  0  0  0  0  0  0  0  0  0  0
  149.6931  135.9537  154.3021 N   0  0  0  0  0  0  0  0  0  0  0  0
  149.7710  134.6078  154.8605 C   0  0  0  0  0  0  0  0  0  0  0  0
  148.9929  133.5645  154.0370 C   0  0  2  0  0  0  0  0  0  0  0  0
  147.4622  133.7517  154.1166 C   0  0  0  0  0  0  0  0  0  0  0  0
  146.7562  132.6944  153.3527 N   0  3  1  0  0  0  0  0  0  0  0  0
  146.7979  132.9009  151.8791 C   0  0  0  0  0  0  0  0  0  0  0  0
  145.7902  132.0169  151.1144 C   0  0  0  0  0  0  0  0  0  0  0  0
  146.0680  132.0708  149.6045 C   0  0  0  0  0  0  0  0  0  0  0  0
  144.3351  132.4194  151.4067 C   0  0  0  0  0  0  0  0  0  0  0  0
  147.1967  131.3502  153.8055 C   0  0  0  0  0  0  0  0  0  0  0  0
  148.7330  131.2241  153.7951 C   0  0  0  0  0  0  0  0  0  0  0  0
  149.3108  132.2781  154.5567 O   0  0  0  0  0  0  0  0  0  0  0  0
  150.3007  137.0759  156.3137 N   0  0  0  0  0  0  0  0  0  0  0  0
  150.8433  138.1102  156.9651 N   0  0  0  0  0  0  0  0  0  0  0  0
  152.4007  140.7453  159.5921 H   0  0  0  0  0  0  0  0  0  0  0  0
  152.4988  139.0437  159.1199 H   0  0  0  0  0  0  0  0  0  0  0  0
  150.9198  139.8342  159.2724 H   0  0  0  0  0  0  0  0  0  0  0  0
  151.7219  140.0673  154.3284 H   0  0  0  0  0  0  0  0  0  0  0  0
  150.7069  138.1105  153.1039 H   0  0  0  0  0  0  0  0  0  0  0  0
  149.2213  136.0848  153.4187 H   0  0  0  0  0  0  0  0  0  0  0  0
  150.8182  134.3147  154.9446 H   0  0  0  0  0  0  0  0  0  0  0  0
  149.3825  134.6379  155.8788 H   0  0  0  0  0  0  0  0  0  0  0  0
  149.3216  133.6097  152.9983 H   0  0  0  0  0  0  0  0  0  0  0  0
  147.1407  133.6989  155.1578 H   0  0  0  0  0  0  0  0  0  0  0  0
  147.1646  134.7370  153.7562 H   0  0  0  0  0  0  0  0  0  0  0  0
  146.5721  133.9440  151.6527 H   0  0  0  0  0  0  0  0  0  0  0  0
  147.8084  132.7292  151.5082 H   0  0  0  0  0  0  0  0  0  0  0  0
  145.9181  130.9791  151.4208 H   0  0  0  0  0  0  0  0  0  0  0  0
  145.9599  133.0842  149.2166 H   0  0  0  0  0  0  0  0  0  0  0  0
  145.3799  131.4292  149.0532 H   0  0  0  0  0  0  0  0  0  0  0  0
  147.0805  131.7347  149.3787 H   0  0  0  0  0  0  0  0  0  0  0  0
  144.1425  133.4527  151.1166 H   0  0  0  0  0  0  0  0  0  0  0  0
  144.0978  132.3204  152.4661 H   0  0  0  0  0  0  0  0  0  0  0  0
  143.6368  131.7860  150.8587 H   0  0  0  0  0  0  0  0  0  0  0  0
  146.8355  131.2026  154.8241 H   0  0  0  0  0  0  0  0  0  0  0  0
  146.7435  130.5610  153.2072 H   0  0  0  0  0  0  0  0  0  0  0  0
  149.0300  130.2717  154.2342 H   0  0  0  0  0  0  0  0  0  0  0  0
  149.1290  131.2344  152.7788 H   0  0  0  0  0  0  0  0  0  0  0  0
  145.7809  132.7794  153.6019 H   0  0  0  0  0  0  0  0  0  0  0  0
  1  2  1  0  0  0  0
  1 21  1  0  0  0  0
  1 22  1  0  0  0  0
  1 23  1  0  0  0  0
  2  3  1  0  0  0  0
  3 20  1  0  0  0  0
  3  4  2  0  0  0  0
  4  5  1  0  0  0  0
  4 24  1  0  0  0  0
  5  6  2  0  0  0  0
  5 25  1  0  0  0  0
  6  7  1  0  0  0  0
  6 19  1  0  0  0  0
  7  8  1  0  0  0  0
  7 26  1  0  0  0  0
  8  9  1  0  0  0  0
  8 27  1  0  0  0  0
  8 28  1  0  0  0  0
  9 18  1  0  0  0  0
  9 10  1  0  0  0  0
  9 29  1  0  0  0  0
 10 11  1  0  0  0  0
 10 30  1  0  0  0  0
 10 31  1  0  0  0  0
 11 12  1  0  0  0  0
 11 16  1  0  0  0  0
 11 45  1  0  0  0  0
 12 13  1  0  0  0  0
 12 32  1  0  0  0  0
 12 33  1  0  0  0  0
 13 14  1  0  0  0  0
 13 15  1  0  0  0  0
 13 34  1  0  0  0  0
 14 35  1  0  0  0  0
 14 36  1  0  0  0  0
 14 37  1  0  0  0  0
 15 38  1  0  0  0  0
 15 39  1  0  0  0  0
 15 40  1  0  0  0  0
 16 17  1  0  0  0  0
 16 41  1  0  0  0  0
 16 42  1  0  0  0  0
 17 18  1  0  0  0  0
 17 43  1  0  0  0  0
 17 44  1  0  0  0  0
 19 20  2  0  0  0  0
M  CHG  1  11   1
M  END
> <s_m_source_file>
AV-unprocessed.smi

> <i_m_source_file_index>
2850

> <i_lp_mmshare_version>
43012

> <i_f3d_flags>
0

> <s_epik_input>
W0NIM11TYzFbY0hdW2NIXWMobm4xKVtOSF1bQ0gyXVtDQEBIXTJbQ0gyXU4oW0NIMl1bQ0gyXU8yKVtDSDJdW0NIXShbQ0gzXSlbQ0gzXQ==

> <s_epik_cmdline>
J2VwaWtfcHl0aG9uJywgJy1waCcsICc3LjAnLCAnLXRuJywgJzgnLCAnLW1hJywgJzIwMCcsICctbWV0YWxfYmluZGluZycsICctaW1hZScsICc8aW5maWxlLm1hZT4nLCAnLW9tYWUnLCAnPG91dGZpbGUubWFlPic=

> <r_lp_tautomer_probability>
0.999978

> <r_epik_Ionization_Penalty>
0.0874875

> <r_epik_Ionization_Penalty_Charging>
0.0831532

> <r_epik_Ionization_Penalty_Neutral>
0.00433433

> <r_epik_State_Penalty>
0.0738301

> <r_epik_Charging_Adjusted_Penalty>
0.156983

> <i_epik_Tot_Q>
1

> <i_epik_Tot_abs_Q>
1

> <r_epik_Metal_State_Penalty>
0.073888

> <b_epik_Metal_Only>
0

> <s_lp_Force_Field>
OPLS_2005

> <r_lp_Energy>
26.7302

> <b_lp_Chiralities_Consistent>
1

> <s_lp_Variant>
AV-unprocessed.smi:2850-3

> <Gold.Version>
5.8.1

> <Gold.Id.Protein>
6NUR|6NUR_protein|mol2

> <Gold.PLP.Fitness>
35.8559

> <Gold.PLP.PLP>
-33.4717

> <Gold.PLP.part.hbond>
-1.5040

> <Gold.PLP.part.metal>
0.0000

> <Gold.PLP.part.buried>
-3.0375

> <Gold.PLP.part.nonpolar>
-29.6547

> <Gold.PLP.part.repulsive>
0.0892

> <Gold.PLP.ligand.clash>
0.0000

> <Gold.PLP.ligand.torsion>
0.3667

> <Gold.PLP.Chemscore.Hbond>
1.0000

> <Gold.PLP.Chemscore.CHOScore>
0.0000

> <Gold.PLP.Chemscore.Metal>
0.0000

> <Gold.Chemscore.Hbonds>
donor molecule, donor type, donor heavy atom, donor atom, acceptor molecule, acceptor atom, score
      L1  H     7    26       P1  7948  1.00

> <Gold.PLP.Chemscore.Internal.Correction>
0.1176

> <Gold.Rescore>
     Score         DG    S(hbond)    S(metal)    S(lipo)     H(rot)  DE(clash)    DE(int)     intcor
     14.69     -15.11       0.91        0.00      91.35       1.60       0.01       0.41       ----

> <Gold.Chemscore.Fitness>
14.6939

> <Gold.Chemscore.DG>
-15.1131

> <Gold.Chemscore.ZeroCoef>
-5.4800

> <Gold.Chemscore.Hbond>
0.9108

> <Gold.Chemscore.Metal>
0.0000

> <Gold.Chemscore.Lipo>
91.3503

> <Gold.Chemscore.Internal_Hbond>
0.0000

> <Gold.Chemscore.DEClash>
0.0064

> <Gold.Chemscore.DEInternal>
0.4129

> <Gold.Chemscore.Rot>
1.6003

> <Gold.Chemscore.Internal.Correction>
   9.000000E+99

> <Gold.Chemscore.Hbonds>
donor molecule, donor type, donor heavy atom, donor atom, acceptor molecule, acceptor atom, score
      L1  H     7    26       P1  7948  0.79

> <Gold.Chemscore.Hbond.Weighted>
-3.0419

> <Gold.Chemscore.Metal.Weighted>
-0.0000

> <Gold.Chemscore.Lipo.Weighted>
-10.6880

> <Gold.Chemscore.Internal_Hbond.Weighted>
0.0000

> <Gold.Chemscore.DEClash.Weighted>
0.0064

> <Gold.Chemscore.DEInternal.Weighted>
0.4129

> <Gold.Chemscore.Rot.Weighted>
4.0968

> <Gold.Chemscore.Internal.Correction.Weighted>
   9.000000E+99

> <Gold.Protein.RotatedTorsions>
[ 6907 6896 6895 6894 ] final  118.50 input  -60.11 | X-H torsion
[ 7974 7965 7964 7962 ] final   11.85 input  175.53 | X-H torsion
[ 8008 7997 7996 7995 ] final -168.15 input   59.86 | X-H torsion
[ 10167 10162 10161 10158 ] final  -88.00 input  -65.29 | X-H torsion
[ 10718 10713 10712 10709 ] final  -79.53 input   66.30 | X-H torsion
[ 10763 10752 10751 10750 ] final  123.65 input  -60.55 | X-H torsion
[ 11005 11000 10999 10996 ] final -109.83 input  -57.11 | X-H torsion

> <Gold.Protein.ActiveResidues>
 VAL166  LYS551  ARG553  GLY616  TRP617  ASP618  TYR619  PRO620  LYS621  CYS622 
 ASP623  PHE694  ASN695  SER759  ASP760  ASP761  ALA762  ILE779  LEU786  VAL792 
 PHE793  MET794  SER795  GLU796  ALA797  LYS798  CYS799  TRP800  GLU811  SER814 

> <Gold.Protein.RotatedAtoms>
  152.4538  133.7683  159.6784 H   0  0  0  0  0  0  0  0  0  0  0  0  # atno 6907 bound_to 6896
  150.8458  133.7853  159.3050 H   0  0  0  0  0  0  0  0  0  0  0  0  # atno 6908 bound_to 6896
  151.5464  135.1071  159.9991 H   0  0  0  0  0  0  0  0  0  0  0  0  # atno 6909 bound_to 6896
  146.2363  139.9424  142.8481 H   0  0  0  0  0  0  0  0  0  0  0  0  # atno 7974 bound_to 7965
  155.8875  140.1019  157.1442 H   0  0  0  0  0  0  0  0  0  0  0  0  # atno 8008 bound_to 7997
  154.4011  140.1317  156.4337 H   0  0  0  0  0  0  0  0  0  0  0  0  # atno 8009 bound_to 7997
  155.7572  140.3464  155.5182 H   0  0  0  0  0  0  0  0  0  0  0  0  # atno 8010 bound_to 7997
  140.3789  143.2758  151.9408 H   0  0  0  0  0  0  0  0  0  0  0  0  # atno 10167 bound_to 10162
  156.0090  130.4548  150.3662 H   0  0  0  0  0  0  0  0  0  0  0  0  # atno 10718 bound_to 10713
  153.6489  135.3366  155.3094 H   0  0  0  0  0  0  0  0  0  0  0  0  # atno 10763 bound_to 10752
  154.8542  135.4336  154.1926 H   0  0  0  0  0  0  0  0  0  0  0  0  # atno 10764 bound_to 10752
  153.2863  135.7013  153.7411 H   0  0  0  0  0  0  0  0  0  0  0  0  # atno 10765 bound_to 10752
  141.0826  133.9194  157.2256 H   0  0  0  0  0  0  0  0  0  0  0  0  # atno 11005 bound_to 11000
  145.1940  140.9824  143.4194 LP  0  0  0  0  0  0  0  0  0  0  0  0  # atno 17320 bound_to 7965
  144.9832  139.3762  143.6251 LP  0  0  0  0  0  0  0  0  0  0  0  0  # atno 17321 bound_to 7965
  139.4797  144.5837  151.7890 LP  0  0  0  0  0  0  0  0  0  0  0  0  # atno 17342 bound_to 10162
  140.4957  144.1243  150.5960 LP  0  0  0  0  0  0  0  0  0  0  0  0  # atno 17343 bound_to 10162
  157.1748  131.0377  151.2777 LP  0  0  0  0  0  0  0  0  0  0  0  0  # atno 17370 bound_to 10713
  157.4197  130.7431  149.6904 LP  0  0  0  0  0  0  0  0  0  0  0  0  # atno 17371 bound_to 10713
  139.9641  135.0146  156.9339 LP  0  0  0  0  0  0  0  0  0  0  0  0  # atno 17394 bound_to 11000
  140.5435  134.0696  155.7348 LP  0  0  0  0  0  0  0  0  0  0  0  0  # atno 17395 bound_to 11000

$$$$
