#       Name:                AV-unprocessed.smi:2706
#       Creating user name   scv26
#       Creation time:       Fri Mar 27 14:48:57 2020


#       File generated by GOLD software.
#

@<TRIPOS>MOLECULE
AV-unprocessed.smi:2706
    46    49     1
SMALL
NO_CHARGES


@<TRIPOS>ATOM
      1 ****        -4.0902  -1.3749  -2.9346 C.3            1 S1                 0.0000
      2 ****        -3.3079  -0.9192  -4.0796 N.pl3          1 S1                 0.0000
      3 ****        -3.8792  -0.9702  -5.4195 C.3            1 S1                 0.0000
      4 ****        -1.9959  -0.4315  -3.8832 C.ar           1 S1                 0.0000
      5 ****        -1.2105   0.0422  -4.9613 C.ar           1 S1                 0.0000
      6 ****         0.0864   0.5193  -4.6999 C.ar           1 S1                 0.0000
      7 ****         0.5630   0.5111  -3.3768 C.ar           1 S1                 0.0000
      8 ****        -0.2695   0.0214  -2.3487 C.ar           1 S1                 0.0000
      9 ****         0.2927   0.0530  -1.0447 N.am           1 S1                 0.0000
     10 ****        -0.2410  -0.4127   0.0988 C.2            1 S1                 0.0000
     11 ****        -1.3244  -0.9908   0.1945 O.2            1 S1                 0.0000
     12 ****         0.5655  -0.1735   1.1420 N.am           1 S1                 0.0000
     13 ****         0.3117  -0.5595   2.4934 C.3            1 S1                 0.0000
     14 ****         0.5692   0.4011   3.6481 C.3            1 S1                 0.0000
     15 ****         1.5482   1.5752   3.7200 C.3            1 S1                 0.0000
     16 ****         2.2660   1.4879   5.0842 C.3            1 S1                 0.0000
     17 ****         3.1910   0.2583   4.8949 C.3            1 S1                 0.0000
     18 ****         2.8681  -0.1798   3.4495 C.3            1 S1                 0.0000
     19 ****         2.7124   1.1974   2.8045 C.3            1 S1                 0.0000
     20 ****         1.4645  -0.7905   3.4639 C.3            1 S1                 0.0000
     21 ****        -1.5173  -0.4342  -2.6157 N.ar           1 S1                 0.0000
     22 ****        -3.5986  -2.2168  -2.4460 H              1 S1                 0.0000
     23 ****        -5.0868  -1.6981  -3.2350 H              1 S1                 0.0000
     24 ****        -4.2062  -0.5725  -2.2049 H              1 S1                 0.0000
     25 ****        -3.2707  -1.5969  -6.0720 H              1 S1                 0.0000
     26 ****        -3.9378   0.0300  -5.8499 H              1 S1                 0.0000
     27 ****        -4.8869  -1.3857  -5.4054 H              1 S1                 0.0000
     28 ****        -1.5753   0.0509  -5.9772 H              1 S1                 0.0000
     29 ****         0.7068   0.8876  -5.5035 H              1 S1                 0.0000
     30 ****         1.5567   0.8751  -3.1594 H              1 S1                 0.0000
     31 ****         1.2035   0.4817  -0.9746 H              1 S1                 0.0000
     32 ****         1.4340   0.3107   0.9684 H              1 S1                 0.0000
     33 ****        -0.5355  -1.2287   2.6368 H              1 S1                 0.0000
     34 ****        -0.1591   0.3672   4.4565 H              1 S1                 0.0000
     35 ****         1.0763   2.5354   3.5118 H              1 S1                 0.0000
     36 ****         2.8530   2.3867   5.2776 H              1 S1                 0.0000
     37 ****         1.5682   1.3599   5.9128 H              1 S1                 0.0000
     38 ****         4.2388   0.5446   4.9941 H              1 S1                 0.0000
     39 ****         2.9900  -0.5296   5.6220 H              1 S1                 0.0000
     40 ****         3.6115  -0.8333   2.9924 H              1 S1                 0.0000
     41 ****         2.4843   1.1909   1.7426 H              1 S1                 0.0000
     42 ****         3.5884   1.8366   2.9353 H              1 S1                 0.0000
     43 ****         1.3408  -1.6276   4.1487 H              1 S1                 0.0000
     44 ****        -1.8821  -1.1457  -0.6209 LP             1 S1                 0.0000
     45 ****        -1.6462  -1.3052   1.0876 LP             1 S1                 0.0000
     46 ****        -2.0901  -0.7755  -1.8705 LP             1 S1                 0.0000
@<TRIPOS>BOND
    1    1    2 1     
    2    1   22 1     
    3    1   23 1     
    4    1   24 1     
    5    2    3 1     
    6    2    4 1     
    7    3   25 1     
    8    3   26 1     
    9    3   27 1     
   10    4   21 ar    
   11    4    5 ar    
   12    5    6 ar    
   13    5   28 1     
   14    6    7 ar    
   15    6   29 1     
   16    7    8 ar    
   17    7   30 1     
   18    8    9 1     
   19    8   21 ar    
   20    9   10 am    
   21    9   31 1     
   22   10   11 2     
   23   10   12 am    
   24   12   13 1     
   25   12   32 1     
   26   13   20 1     
   27   13   14 1     
   28   13   33 1     
   29   14   20 1     
   30   14   15 1     
   31   14   34 1     
   32   15   19 1     
   33   15   16 1     
   34   15   35 1     
   35   16   17 1     
   36   16   36 1     
   37   16   37 1     
   38   17   18 1     
   39   17   38 1     
   40   17   39 1     
   41   18   19 1     
   42   18   20 1     
   43   18   40 1     
   44   19   41 1     
   45   19   42 1     
   46   20   43 1     
   47   11   44 1     
   48   11   45 1     
   49   21   46 1     
@<TRIPOS>SUBSTRUCTURE
      1 S1             1
@<TRIPOS>SET
LONE_PAIRS      STATIC     ATOMS    <user>   **** ""
3 44 45 46
DONOR_HYDROGENS      STATIC     ATOMS    <user>   **** ""
2 31 32
ATOM$BLUE        STATIC     ATOMS    COLORGROUP SYSTEM
3 44 45 46
ATOM$RED        STATIC     ATOMS    COLORGROUP SYSTEM
2 31 32
