#       Name:                AV-unprocessed.smi:1970
#       Creating user name   scv26
#       Creation time:       Fri Mar 27 10:13:12 2020


#       File generated by GOLD software.
#

@<TRIPOS>MOLECULE
AV-unprocessed.smi:1970
    38    39     1
SMALL
NO_CHARGES


@<TRIPOS>ATOM
      1 ****        -0.6911   0.1902   1.6640 O.2            1 S1                 0.0000
      2 ****        -1.2865  -0.6120   0.9434 C.2            1 S1                 0.0000
      3 ****        -2.8145  -0.7335   1.0043 C.3            1 S1                 0.0000
      4 ****        -3.4709   0.5268   1.3621 N.am           1 S1                 0.0000
      5 ****        -3.9932   0.6840   2.7151 C.3            1 S1                 0.0000
      6 ****        -4.4243   2.4318   2.9122 S.3            1 S1                 0.0000
      7 ****        -4.3431   2.7510   1.1417 C.3            1 S1                 0.0000
      8 ****        -3.6430   1.5573   0.5153 C.2            1 S1                 0.0000
      9 ****        -3.2795   1.5718  -0.6605 O.2            1 S1                 0.0000
     10 ****        -0.6608  -1.4296   0.0833 N.am           1 S1                 0.0000
     11 ****         0.7796  -1.4574  -0.1407 C.3            1 S1                 0.0000
     12 ****         1.2272  -0.3116  -1.0642 C.3            1 S1                 0.0000
     13 ****         2.7255  -0.3101  -1.2953 C.ar           1 S1                 0.0000
     14 ****         3.5914   0.5535  -0.5897 C.ar           1 S1                 0.0000
     15 ****         4.9770   0.5016  -0.8477 C.ar           1 S1                 0.0000
     16 ****         5.4673  -0.4124  -1.8036 C.ar           1 S1                 0.0000
     17 ****         4.5579  -1.2528  -2.4778 C.ar           1 S1                 0.0000
     18 ****         3.2372  -1.1728  -2.2031 N.pl3          1 S1                 1.0000
     19 ****        -3.1992  -1.0841   0.0446 H              1 S1                 0.0000
     20 ****        -3.0698  -1.5019   1.7350 H              1 S1                 0.0000
     21 ****        -4.8826   0.0663   2.8428 H              1 S1                 0.0000
     22 ****        -3.2554   0.3915   3.4630 H              1 S1                 0.0000
     23 ****        -5.3494   2.8444   0.7330 H              1 S1                 0.0000
     24 ****        -3.7980   3.6743   0.9447 H              1 S1                 0.0000
     25 ****        -1.2237  -2.0654  -0.4634 H              1 S1                 0.0000
     26 ****         1.3054  -1.4064   0.8144 H              1 S1                 0.0000
     27 ****         1.0360  -2.4194  -0.5852 H              1 S1                 0.0000
     28 ****         0.7199  -0.3869  -2.0271 H              1 S1                 0.0000
     29 ****         0.9375   0.6511  -0.6406 H              1 S1                 0.0000
     30 ****         3.2006   1.2466   0.1414 H              1 S1                 0.0000
     31 ****         5.6553   1.1547  -0.3183 H              1 S1                 0.0000
     32 ****         6.5252  -0.4678  -2.0157 H              1 S1                 0.0000
     33 ****         4.8445  -1.9808  -3.2226 H              1 S1                 0.0000
     34 ****         2.5975  -1.7904  -2.7033 H              1 S1                 0.0000
     35 ****        -1.2041   0.7703   2.2967 LP             1 S1                 0.0000
     36 ****         0.3052   0.2613   1.6163 LP             1 S1                 0.0000
     37 ****        -2.8179   0.7752  -1.0511 LP             1 S1                 0.0000
     38 ****        -3.4457   2.3801  -1.2254 LP             1 S1                 0.0000
@<TRIPOS>BOND
    1    1    2 2     
    2    2    3 1     
    3    2   10 am    
    4    3    4 1     
    5    3   19 1     
    6    3   20 1     
    7    4    8 am    
    8    4    5 1     
    9    5    6 1     
   10    5   21 1     
   11    5   22 1     
   12    6    7 1     
   13    7    8 1     
   14    7   23 1     
   15    7   24 1     
   16    8    9 2     
   17   10   11 1     
   18   10   25 1     
   19   11   12 1     
   20   11   26 1     
   21   11   27 1     
   22   12   13 1     
   23   12   28 1     
   24   12   29 1     
   25   13   18 ar    
   26   13   14 ar    
   27   14   15 ar    
   28   14   30 1     
   29   15   16 ar    
   30   15   31 1     
   31   16   17 ar    
   32   16   32 1     
   33   17   18 ar    
   34   17   33 1     
   35   18   34 1     
   36    1   35 1     
   37    1   36 1     
   38    9   37 1     
   39    9   38 1     
@<TRIPOS>SUBSTRUCTURE
      1 S1             1
@<TRIPOS>SET
LONE_PAIRS      STATIC     ATOMS    <user>   **** ""
4 35 36 37 38
DONOR_HYDROGENS      STATIC     ATOMS    <user>   **** ""
2 25 34
ATOM$BLUE        STATIC     ATOMS    COLORGROUP SYSTEM
4 35 36 37 38
ATOM$RED        STATIC     ATOMS    COLORGROUP SYSTEM
2 25 34
