AV-unprocessed.smi:2919|AV-procd|sdf|11194|dock4
  -GOLD-   2272016 83D 1   1.00000     0.00000
 Structure written by MMmdl.
 34 36  0  0  0  0  0  0  0  0  1 V2000
  152.7939  143.2187  161.7245 C   0  0  0  0  0  0  0  0  0  0  0  0
  152.4976  142.2145  160.6247 C   0  0  0  0  0  0  0  0  0  0  0  0
  151.3948  142.4812  159.8912 N   0  0  0  0  0  0  0  0  0  0  0  0
  151.0310  141.6697  158.8974 N   0  0  0  0  0  0  0  0  0  0  0  0
  151.7563  140.5649  158.5991 C   0  0  0  0  0  0  0  0  0  0  0  0
  151.3082  139.7574  157.5377 N   0  0  0  0  0  0  0  0  0  0  0  0
  151.3075  140.2565  156.1657 C   0  0  2  0  0  0  0  0  0  0  0  0
  150.4256  141.4938  155.9820 C   0  0  0  0  0  0  0  0  0  0  0  0
  149.5135  141.0628  154.8248 C   0  0  2  0  0  0  0  0  0  0  0  0
  148.4503  140.0589  155.2891 C   0  0  0  0  0  0  0  0  0  0  0  0
  149.2855  138.7974  155.4982 C   0  0  0  0  0  0  0  0  0  0  0  0
  150.6978  139.2864  155.1332 C   0  0  1  0  0  0  0  0  0  0  0  0
  150.3806  140.2052  154.1014 O   0  0  0  0  0  0  0  0  0  0  0  0
  152.9241  140.2225  159.3291 C   0  0  0  0  0  0  0  0  0  0  0  0
  153.7025  139.0295  159.0019 C   0  0  0  0  0  0  0  0  0  0  0  0
  154.3191  138.0853  158.7428 N   0  0  0  0  0  0  0  0  0  0  0  0
  153.3148  141.0829  160.3859 C   0  0  0  0  0  0  0  0  0  0  0  0
  154.5589  140.7959  161.2229 C   0  0  0  0  0  0  0  0  0  0  0  0
  152.8005  142.7275  162.6978 H   0  0  0  0  0  0  0  0  0  0  0  0
  152.0443  144.0105  161.7563 H   0  0  0  0  0  0  0  0  0  0  0  0
  153.7651  143.6866  161.5618 H   0  0  0  0  0  0  0  0  0  0  0  0
  151.3168  138.7558  157.6666 H   0  0  0  0  0  0  0  0  0  0  0  0
  152.3263  140.5124  155.8709 H   0  0  0  0  0  0  0  0  0  0  0  0
  149.8549  141.7651  156.8713 H   0  0  0  0  0  0  0  0  0  0  0  0
  151.0353  142.3523  155.6980 H   0  0  0  0  0  0  0  0  0  0  0  0
  149.1129  141.8937  154.2435 H   0  0  0  0  0  0  0  0  0  0  0  0
  147.9390  140.3844  156.1957 H   0  0  0  0  0  0  0  0  0  0  0  0
  147.7014  139.8975  154.5130 H   0  0  0  0  0  0  0  0  0  0  0  0
  149.2157  138.4027  156.5120 H   0  0  0  0  0  0  0  0  0  0  0  0
  148.9637  138.0137  154.8114 H   0  0  0  0  0  0  0  0  0  0  0  0
  151.3726  138.4878  154.8233 H   0  0  0  0  0  0  0  0  0  0  0  0
  155.4392  140.7355  160.5821 H   0  0  0  0  0  0  0  0  0  0  0  0
  154.4498  139.8440  161.7437 H   0  0  0  0  0  0  0  0  0  0  0  0
  154.7596  141.5572  161.9743 H   0  0  0  0  0  0  0  0  0  0  0  0
  1  2  1  0  0  0  0
  1 19  1  0  0  0  0
  1 20  1  0  0  0  0
  1 21  1  0  0  0  0
  2 17  1  0  0  0  0
  2  3  2  0  0  0  0
  3  4  1  0  0  0  0
  4  5  2  0  0  0  0
  5  6  1  0  0  0  0
  5 14  1  0  0  0  0
  6  7  1  0  0  0  0
  6 22  1  0  0  0  0
  7 12  1  0  0  0  0
  7  8  1  0  0  0  0
  7 23  1  0  0  0  0
  8  9  1  0  0  0  0
  8 24  1  0  0  0  0
  8 25  1  0  0  0  0
  9 13  1  0  0  0  0
  9 10  1  0  0  0  0
  9 26  1  0  0  0  0
 10 11  1  0  0  0  0
 10 27  1  0  0  0  0
 10 28  1  0  0  0  0
 11 12  1  0  0  0  0
 11 29  1  0  0  0  0
 11 30  1  0  0  0  0
 12 13  1  0  0  0  0
 12 31  1  0  0  0  0
 14 15  1  0  0  0  0
 14 17  2  0  0  0  0
 15 16  3  0  0  0  0
 17 18  1  0  0  0  0
 18 32  1  0  0  0  0
 18 33  1  0  0  0  0
 18 34  1  0  0  0  0
M  END
> <s_m_source_file>
AV-unprocessed.smi

> <i_m_source_file_index>
2919

> <i_lp_mmshare_version>
43012

> <i_f3d_flags>
0

> <s_epik_input>
W0NIM11jMW5uYyhjKEMjTiljMVtDSDNdKVtOSF1bQ0BIXShbQ0gyXVtDQEBIXTIzKVtDQEBIXShPMylbQ0gyXVtDSDJdMg==

> <s_epik_cmdline>
J2VwaWtfcHl0aG9uJywgJy1waCcsICc3LjAnLCAnLXRuJywgJzgnLCAnLW1hJywgJzIwMCcsICctbWV0YWxfYmluZGluZycsICctaW1hZScsICc8aW5maWxlLm1hZT4nLCAnLW9tYWUnLCAnPG91dGZpbGUubWFlPic=

> <r_lp_tautomer_probability>
1

> <r_epik_Ionization_Penalty>
0.00143865

> <r_epik_Ionization_Penalty_Charging>
0

> <r_epik_Ionization_Penalty_Neutral>
0.00143865

> <r_epik_State_Penalty>
-0

> <r_epik_Charging_Adjusted_Penalty>
0

> <i_epik_Tot_Q>
0

> <i_epik_Tot_abs_Q>
0

> <r_epik_Metal_State_Penalty>
-0

> <b_epik_Metal_Only>
0

> <s_lp_Force_Field>
OPLS_2005

> <r_lp_Energy>
49.1594

> <b_lp_Chiralities_Consistent>
1

> <s_lp_Variant>
AV-unprocessed.smi:2919-3

> <Gold.Version>
5.8.1

> <Gold.Id.Protein>
6NUR|6NUR_protein|mol2

> <Gold.PLP.Fitness>
35.6944

> <Gold.PLP.PLP>
-33.9488

> <Gold.PLP.part.hbond>
-1.7099

> <Gold.PLP.part.metal>
0.0000

> <Gold.PLP.part.buried>
-4.8775

> <Gold.PLP.part.nonpolar>
-27.3195

> <Gold.PLP.part.repulsive>
0.7732

> <Gold.PLP.ligand.clash>
0.0000

> <Gold.PLP.ligand.torsion>
0.6324

> <Gold.PLP.Chemscore.Hbond>
1.0000

> <Gold.PLP.Chemscore.CHOScore>
0.0000

> <Gold.PLP.Chemscore.Metal>
0.0000

> <Gold.Chemscore.Hbonds>
donor molecule, donor type, donor heavy atom, donor atom, acceptor molecule, acceptor atom, score
      P1  H  7989  7998       L1    13  1.00

> <Gold.PLP.Chemscore.Internal.Correction>
0.0103

> <Gold.Rescore>
     Score         DG    S(hbond)    S(metal)    S(lipo)     H(rot)  DE(clash)    DE(int)     intcor
     13.91     -15.60       0.95        0.00      81.17       1.00       0.01       1.68       ----

> <Gold.Chemscore.Fitness>
13.9096

> <Gold.Chemscore.DG>
-15.6018

> <Gold.Chemscore.ZeroCoef>
-5.4800

> <Gold.Chemscore.Hbond>
0.9535

> <Gold.Chemscore.Metal>
0.0000

> <Gold.Chemscore.Lipo>
81.1732

> <Gold.Chemscore.Internal_Hbond>
0.0000

> <Gold.Chemscore.DEClash>
0.0115

> <Gold.Chemscore.DEInternal>
1.6807

> <Gold.Chemscore.Rot>
1.0000

> <Gold.Chemscore.Internal.Correction>
   9.000000E+99

> <Gold.Chemscore.Hbonds>
donor molecule, donor type, donor heavy atom, donor atom, acceptor molecule, acceptor atom, score
      P1  H  7989  7998       L1    13  0.73

> <Gold.Chemscore.Hbond.Weighted>
-3.1846

> <Gold.Chemscore.Metal.Weighted>
-0.0000

> <Gold.Chemscore.Lipo.Weighted>
-9.4973

> <Gold.Chemscore.Internal_Hbond.Weighted>
0.0000

> <Gold.Chemscore.DEClash.Weighted>
0.0115

> <Gold.Chemscore.DEInternal.Weighted>
1.6807

> <Gold.Chemscore.Rot.Weighted>
2.5600

> <Gold.Chemscore.Internal.Correction.Weighted>
   9.000000E+99

> <Gold.Protein.RotatedTorsions>
[ 6907 6896 6895 6894 ] final  108.96 input  -60.11 | X-H torsion
[ 7974 7965 7964 7962 ] final   34.38 input  175.53 | X-H torsion
[ 8008 7997 7996 7995 ] final  156.31 input   59.86 | X-H torsion
[ 10167 10162 10161 10158 ] final  134.81 input  -65.29 | X-H torsion
[ 10718 10713 10712 10709 ] final -166.71 input   66.30 | X-H torsion
[ 10763 10752 10751 10750 ] final  -69.60 input  -60.55 | X-H torsion
[ 11005 11000 10999 10996 ] final -130.89 input  -57.11 | X-H torsion

> <Gold.Protein.ActiveResidues>
 VAL166  LYS551  ARG553  GLY616  TRP617  ASP618  TYR619  PRO620  LYS621  CYS622 
 ASP623  PHE694  ASN695  SER759  ASP760  ASP761  ALA762  ILE779  LEU786  VAL792 
 PHE793  MET794  SER795  GLU796  ALA797  LYS798  CYS799  TRP800  GLU811  SER814 

> <Gold.Protein.RotatedAtoms>
  152.5089  133.9013  159.7441 H   0  0  0  0  0  0  0  0  0  0  0  0  # atno 6907 bound_to 6896
  150.9428  133.6628  159.2794 H   0  0  0  0  0  0  0  0  0  0  0  0  # atno 6908 bound_to 6896
  151.3934  135.0964  159.9586 H   0  0  0  0  0  0  0  0  0  0  0  0  # atno 6909 bound_to 6896
  146.1357  139.6276  142.9197 H   0  0  0  0  0  0  0  0  0  0  0  0  # atno 7974 bound_to 7965
  156.2429  140.1916  156.6936 H   0  0  0  0  0  0  0  0  0  0  0  0  # atno 8008 bound_to 7997
  154.6233  140.0605  156.9669 H   0  0  0  0  0  0  0  0  0  0  0  0  # atno 8009 bound_to 7997
  155.1826  140.3277  155.4375 H   0  0  0  0  0  0  0  0  0  0  0  0  # atno 8010 bound_to 7997
  139.5241  144.6549  151.5193 H   0  0  0  0  0  0  0  0  0  0  0  0  # atno 10167 bound_to 10162
  156.6718  130.9087  151.3045 H   0  0  0  0  0  0  0  0  0  0  0  0  # atno 10718 bound_to 10713
  154.4058  135.6020  153.5923 H   0  0  0  0  0  0  0  0  0  0  0  0  # atno 10763 bound_to 10752
  152.9789  135.5917  154.4130 H   0  0  0  0  0  0  0  0  0  0  0  0  # atno 10764 bound_to 10752
  154.3935  135.2842  155.2119 H   0  0  0  0  0  0  0  0  0  0  0  0  # atno 10765 bound_to 10752
  140.9306  134.1324  157.4238 H   0  0  0  0  0  0  0  0  0  0  0  0  # atno 11005 bound_to 11000
  145.5162  141.0433  143.2460 LP  0  0  0  0  0  0  0  0  0  0  0  0  # atno 17320 bound_to 7965
  144.7737  139.6678  143.7184 LP  0  0  0  0  0  0  0  0  0  0  0  0  # atno 17321 bound_to 7965
  140.6370  143.8965  150.6656 LP  0  0  0  0  0  0  0  0  0  0  0  0  # atno 17342 bound_to 10162
  140.2287  143.3752  152.1583 LP  0  0  0  0  0  0  0  0  0  0  0  0  # atno 17343 bound_to 10162
  157.7074  130.9401  150.0977 LP  0  0  0  0  0  0  0  0  0  0  0  0  # atno 17370 bound_to 10713
  156.1933  130.3656  149.8881 LP  0  0  0  0  0  0  0  0  0  0  0  0  # atno 17371 bound_to 10713
  139.8795  135.0003  156.6006 LP  0  0  0  0  0  0  0  0  0  0  0  0  # atno 17394 bound_to 11000
  140.7867  133.8615  155.8612 LP  0  0  0  0  0  0  0  0  0  0  0  0  # atno 17395 bound_to 11000

$$$$
