#       Name:                AV-unprocessed.smi:79
#       Creating user name   scv26
#       Creation time:       Thu Mar 26 17:13:30 2020


#       File generated by GOLD software.
#

@<TRIPOS>MOLECULE
AV-unprocessed.smi:79
    66    69     1
SMALL
NO_CHARGES


@<TRIPOS>ATOM
      1 ****        -3.8006   1.5623   6.0487 C.3            1 S1                 0.0000
      2 ****        -3.7803   1.0915   4.5889 C.3            1 S1                 0.0000
      3 ****        -5.0478   1.3557   4.0222 O.3            1 S1                 0.0000
      4 ****        -2.6977   1.8117   3.7616 C.3            1 S1                 0.0000
      5 ****        -2.5896   1.2737   2.3817 N.4            1 S1                 1.0000
      6 ****        -1.8433  -0.0101   2.3040 C.3            1 S1                 0.0000
      7 ****        -1.8531  -0.5698   0.8715 C.3            1 S1                 0.0000
      8 ****        -1.3633   0.4296  -0.0752 N.3            1 S1                 0.0000
      9 ****        -0.0283   0.3828  -0.3229 C.ar           1 S1                 0.0000
     10 ****         0.7632   1.4400   0.0004 N.ar           1 S1                 0.0000
     11 ****         2.0790   1.3920  -0.2257 C.ar           1 S1                 0.0000
     12 ****         2.7973   0.4032  -0.7602 N.ar           1 S1                 0.0000
     13 ****         2.0091  -0.6572  -1.0977 C.ar           1 S1                 0.0000
     14 ****         0.6012  -0.7503  -0.9107 C.ar           1 S1                 0.0000
     15 ****         0.1430  -1.9779  -1.3722 N.2            1 S1                 0.0000
     16 ****         1.2189  -2.5785  -1.8018 C.2            1 S1                 0.0000
     17 ****         2.3832  -1.8516  -1.6912 N.pl3          1 S1                 0.0000
     18 ****         3.7174  -2.2753  -2.0924 C.3            1 S1                 0.0000
     19 ****         4.0324  -2.0557  -3.5884 C.3            1 S1                 0.0000
     20 ****         3.9109  -0.5670  -3.9545 C.3            1 S1                 0.0000
     21 ****         4.8676   0.2096  -3.2632 O.3            1 S1                 0.0000
     22 ****         5.3039  -2.7546  -4.0890 C.3            1 S1                 0.0000
     23 ****         4.5542  -3.7536  -4.8115 O.3            1 S1                 0.0000
     24 ****         3.3372  -3.0197  -4.5617 C.3            1 S1                 0.0000
     25 ****        -2.0365   1.7319  -0.0254 C.3            1 S1                 0.0000
     26 ****        -3.4470   1.6553  -0.6352 C.3            1 S1                 0.0000
     27 ****        -2.0667   2.2796   1.4200 C.3            1 S1                 0.0000
     28 ****        -2.8470   1.3604   6.5375 H              1 S1                 0.0000
     29 ****        -4.5753   1.0468   6.6176 H              1 S1                 0.0000
     30 ****        -3.9904   2.6338   6.1214 H              1 S1                 0.0000
     31 ****        -3.6205   0.0139   4.5792 H              1 S1                 0.0000
     32 ****        -5.2386   2.2765   4.1190 H              1 S1                 0.0000
     33 ****        -2.9395   2.8754   3.7272 H              1 S1                 0.0000
     34 ****        -1.7258   1.7390   4.2524 H              1 S1                 0.0000
     35 ****        -0.8149   0.1493   2.6325 H              1 S1                 0.0000
     36 ****        -2.2772  -0.7491   2.9759 H              1 S1                 0.0000
     37 ****        -1.2601  -1.4836   0.8365 H              1 S1                 0.0000
     38 ****        -2.8657  -0.8577   0.5888 H              1 S1                 0.0000
     39 ****         2.6365   2.2713   0.0621 H              1 S1                 0.0000
     40 ****         1.1884  -3.5770  -2.2127 H              1 S1                 0.0000
     41 ****         4.4453  -1.7603  -1.4646 H              1 S1                 0.0000
     42 ****         3.8153  -3.3319  -1.8388 H              1 S1                 0.0000
     43 ****         4.0750  -0.4186  -5.0222 H              1 S1                 0.0000
     44 ****         2.9136  -0.1792  -3.7477 H              1 S1                 0.0000
     45 ****         4.7422   1.1172  -3.4947 H              1 S1                 0.0000
     46 ****         5.9133  -2.1437  -4.7567 H              1 S1                 0.0000
     47 ****         5.9140  -3.1860  -3.2947 H              1 S1                 0.0000
     48 ****         2.5685  -3.6457  -4.1109 H              1 S1                 0.0000
     49 ****         2.9605  -2.5414  -5.4671 H              1 S1                 0.0000
     50 ****        -1.4829   2.4398  -0.6440 H              1 S1                 0.0000
     51 ****        -3.9100   2.6417  -0.6705 H              1 S1                 0.0000
     52 ****        -4.1077   1.0035  -0.0632 H              1 S1                 0.0000
     53 ****        -3.4096   1.2760  -1.6569 H              1 S1                 0.0000
     54 ****        -2.6755   3.1840   1.4568 H              1 S1                 0.0000
     55 ****        -1.0627   2.5708   1.7314 H              1 S1                 0.0000
     56 ****        -3.5351   1.0770   2.0851 H              1 S1                 0.0000
     57 ****        -5.7457   0.8164   4.4935 LP             1 S1                 0.0000
     58 ****        -5.0390   1.1144   3.0518 LP             1 S1                 0.0000
     59 ****        -1.6998   0.1272  -0.9670 LP             1 S1                 0.0000
     60 ****         0.3583   2.2577   0.4096 LP             1 S1                 0.0000
     61 ****         3.7875   0.4354  -0.8961 LP             1 S1                 0.0000
     62 ****        -0.7958  -2.3223  -1.3746 LP             1 S1                 0.0000
     63 ****         5.7887  -0.0804  -3.5230 LP             1 S1                 0.0000
     64 ****         4.7473   0.0935  -2.2773 LP             1 S1                 0.0000
     65 ****         4.5763  -4.6620  -4.3940 LP             1 S1                 0.0000
     66 ****         4.7965  -3.8255  -5.7790 LP             1 S1                 0.0000
@<TRIPOS>BOND
    1    1    2 1     
    2    1   28 1     
    3    1   29 1     
    4    1   30 1     
    5    2    3 1     
    6    2    4 1     
    7    2   31 1     
    8    3   32 1     
    9    4    5 1     
   10    4   33 1     
   11    4   34 1     
   12    5   27 1     
   13    5    6 1     
   14    5   56 1     
   15    6    7 1     
   16    6   35 1     
   17    6   36 1     
   18    7    8 1     
   19    7   37 1     
   20    7   38 1     
   21    8    9 1     
   22    8   25 1     
   23    9   14 ar    
   24    9   10 ar    
   25   10   11 ar    
   26   11   12 ar    
   27   11   39 1     
   28   12   13 ar    
   29   13   17 1     
   30   13   14 ar    
   31   14   15 1     
   32   15   16 2     
   33   16   17 1     
   34   16   40 1     
   35   17   18 1     
   36   18   19 1     
   37   18   41 1     
   38   18   42 1     
   39   19   24 1     
   40   19   20 1     
   41   19   22 1     
   42   20   21 1     
   43   20   43 1     
   44   20   44 1     
   45   21   45 1     
   46   22   23 1     
   47   22   46 1     
   48   22   47 1     
   49   23   24 1     
   50   24   48 1     
   51   24   49 1     
   52   25   26 1     
   53   25   27 1     
   54   25   50 1     
   55   26   51 1     
   56   26   52 1     
   57   26   53 1     
   58   27   54 1     
   59   27   55 1     
   60    3   57 1     
   61    3   58 1     
   62    8   59 1     
   63   10   60 1     
   64   12   61 1     
   65   15   62 1     
   66   21   63 1     
   67   21   64 1     
   68   23   65 1     
   69   23   66 1     
@<TRIPOS>SUBSTRUCTURE
      1 S1             1
@<TRIPOS>SET
LONE_PAIRS      STATIC     ATOMS    <user>   **** ""
10 57 58 59 60 61 62 63 64 65 66
DONOR_HYDROGENS      STATIC     ATOMS    <user>   **** ""
3 32 56 45
ATOM$BLUE        STATIC     ATOMS    COLORGROUP SYSTEM
10 57 58 59 60 61 62 63 64 65 66
ATOM$RED        STATIC     ATOMS    COLORGROUP SYSTEM
3 32 56 45
