AV-unprocessed.smi:276|AV-procd|sdf|2079|dock1
  -GOLD-   2262021343D 1   1.00000     0.00000
 Structure written by MMmdl.
 57 61  0  0  0  0  0  0  0  0  1 V2000
  148.5651  130.3013  154.0717 C   0  0  0  0  0  0  0  0  0  0  0  0
  148.2961  131.6907  153.9938 O   0  0  0  0  0  0  0  0  0  0  0  0
  149.4656  132.4873  154.1025 C   0  0  1  0  0  0  0  0  0  0  0  0
  149.1550  133.9810  153.9721 C   0  0  0  0  0  0  0  0  0  0  0  0
  150.2472  134.2201  155.0220 C   0  0  1  0  0  0  0  0  0  0  0  0
  149.9366  135.3256  155.9317 N   0  0  0  0  0  0  0  0  0  0  0  0
  148.5464  135.4332  156.3554 C   0  0  0  0  0  0  0  0  0  0  0  0
  150.4092  136.5419  155.5765 C   0  0  0  0  0  0  0  0  0  0  0  0
  151.1063  136.6135  154.4149 N   0  0  0  0  0  0  0  0  0  0  0  0
  151.5969  137.7845  153.9985 C   0  0  0  0  0  0  0  0  0  0  0  0
  151.5141  138.9803  154.5848 N   0  0  0  0  0  0  0  0  0  0  0  0
  150.8336  138.9070  155.7643 C   0  0  0  0  0  0  0  0  0  0  0  0
  150.2560  137.7381  156.3354 C   0  0  0  0  0  0  0  0  0  0  0  0
  149.6607  138.0539  157.5516 N   0  0  0  0  0  0  0  0  0  0  0  0
  149.8625  139.3363  157.6840 C   0  0  0  0  0  0  0  0  0  0  0  0
  150.5600  139.9277  156.6560 N   0  0  0  0  0  0  0  0  0  0  0  0
  150.9312  141.3267  156.5425 C   0  0  0  0  0  0  0  0  0  0  0  0
  150.2449  142.2034  157.6083 C   0  0  2  0  0  0  0  0  0  0  0  0
  149.0024  142.6585  157.1064 O   0  0  0  0  0  0  0  0  0  0  0  0
  151.1009  143.4213  158.0016 C   0  0  1  0  0  0  0  0  0  0  0  0
  150.4107  144.4027  158.9491 C   0  0  0  0  0  0  0  0  0  0  0  0
  151.5714  145.1119  159.6268 C   0  0  0  0  0  0  0  0  0  0  0  0
  152.7614  144.1750  159.4003 C   0  0  0  0  0  0  0  0  0  0  0  0
  152.2201  143.0181  158.7760 O   0  0  0  0  0  0  0  0  0  0  0  0
  149.9505  132.7865  155.5381 C   0  0  0  0  0  0  0  0  0  0  0  0
  151.0415  131.9283  156.1930 C   0  0  0  0  0  0  0  0  0  0  0  0
  150.2778  132.0071  157.5191 C   0  0  0  0  0  0  0  0  0  0  0  0
  149.0453  132.5007  156.7538 C   0  0  0  0  0  0  0  0  0  0  0  0
  147.6352  129.7431  153.9651 H   0  0  0  0  0  0  0  0  0  0  0  0
  149.0072  130.0322  155.0309 H   0  0  0  0  0  0  0  0  0  0  0  0
  149.2398  129.9857  153.2749 H   0  0  0  0  0  0  0  0  0  0  0  0
  150.2712  132.1852  153.4293 H   0  0  0  0  0  0  0  0  0  0  0  0
  149.3630  134.4074  152.9907 H   0  0  0  0  0  0  0  0  0  0  0  0
  148.1526  134.2376  154.3209 H   0  0  0  0  0  0  0  0  0  0  0  0
  151.2262  134.2925  154.5461 H   0  0  0  0  0  0  0  0  0  0  0  0
  147.8969  135.6293  155.5013 H   0  0  0  0  0  0  0  0  0  0  0  0
  148.4150  136.2384  157.0800 H   0  0  0  0  0  0  0  0  0  0  0  0
  148.2153  134.5089  156.8288 H   0  0  0  0  0  0  0  0  0  0  0  0
  152.1317  137.7599  153.0604 H   0  0  0  0  0  0  0  0  0  0  0  0
  149.5115  139.8881  158.5437 H   0  0  0  0  0  0  0  0  0  0  0  0
  152.0155  141.3955  156.6365 H   0  0  0  0  0  0  0  0  0  0  0  0
  150.6826  141.6758  155.5394 H   0  0  0  0  0  0  0  0  0  0  0  0
  150.0477  141.6015  158.4966 H   0  0  0  0  0  0  0  0  0  0  0  0
  149.1000  143.5581  156.8341 H   0  0  0  0  0  0  0  0  0  0  0  0
  151.4563  143.9465  157.1126 H   0  0  0  0  0  0  0  0  0  0  0  0
  149.7382  145.0884  158.4327 H   0  0  0  0  0  0  0  0  0  0  0  0
  149.8295  143.8596  159.6958 H   0  0  0  0  0  0  0  0  0  0  0  0
  151.7599  146.0833  159.1683 H   0  0  0  0  0  0  0  0  0  0  0  0
  151.3723  145.2727  160.6868 H   0  0  0  0  0  0  0  0  0  0  0  0
  153.4920  144.6363  158.7346 H   0  0  0  0  0  0  0  0  0  0  0  0
  153.2671  143.9114  160.3294 H   0  0  0  0  0  0  0  0  0  0  0  0
  151.0830  130.9154  155.7915 H   0  0  0  0  0  0  0  0  0  0  0  0
  152.0298  132.3868  156.2161 H   0  0  0  0  0  0  0  0  0  0  0  0
  150.1414  131.0464  158.0162 H   0  0  0  0  0  0  0  0  0  0  0  0
  150.6866  132.7541  158.1997 H   0  0  0  0  0  0  0  0  0  0  0  0
  148.5570  133.3696  157.1936 H   0  0  0  0  0  0  0  0  0  0  0  0
  148.3265  131.6996  156.5807 H   0  0  0  0  0  0  0  0  0  0  0  0
  1  2  1  0  0  0  0
  1 29  1  0  0  0  0
  1 30  1  0  0  0  0
  1 31  1  0  0  0  0
  2  3  1  0  0  0  0
  3 25  1  0  0  0  0
  3  4  1  0  0  0  0
  3 32  1  0  0  0  0
  4  5  1  0  0  0  0
  4 33  1  0  0  0  0
  4 34  1  0  0  0  0
  5  6  1  0  0  0  0
  5 25  1  0  0  0  0
  5 35  1  0  0  0  0
  6  7  1  0  0  0  0
  6  8  1  0  0  0  0
  7 36  1  0  0  0  0
  7 37  1  0  0  0  0
  7 38  1  0  0  0  0
  8 13  1  0  0  0  0
  8  9  2  0  0  0  0
  9 10  1  0  0  0  0
 10 11  2  0  0  0  0
 10 39  1  0  0  0  0
 11 12  1  0  0  0  0
 12 16  1  0  0  0  0
 12 13  2  0  0  0  0
 13 14  1  0  0  0  0
 14 15  2  0  0  0  0
 15 16  1  0  0  0  0
 15 40  1  0  0  0  0
 16 17  1  0  0  0  0
 17 18  1  0  0  0  0
 17 41  1  0  0  0  0
 17 42  1  0  0  0  0
 18 19  1  0  0  0  0
 18 20  1  0  0  0  0
 18 43  1  0  0  0  0
 19 44  1  0  0  0  0
 20 24  1  0  0  0  0
 20 21  1  0  0  0  0
 20 45  1  0  0  0  0
 21 22  1  0  0  0  0
 21 46  1  0  0  0  0
 21 47  1  0  0  0  0
 22 23  1  0  0  0  0
 22 48  1  0  0  0  0
 22 49  1  0  0  0  0
 23 24  1  0  0  0  0
 23 50  1  0  0  0  0
 23 51  1  0  0  0  0
 25 28  1  0  0  0  0
 25 26  1  0  0  0  0
 26 27  1  0  0  0  0
 26 52  1  0  0  0  0
 26 53  1  0  0  0  0
 27 28  1  0  0  0  0
 27 54  1  0  0  0  0
 27 55  1  0  0  0  0
 28 56  1  0  0  0  0
 28 57  1  0  0  0  0
M  END
> <s_m_source_file>
AV-unprocessed.smi

> <i_m_source_file_index>
276

> <i_lp_mmshare_version>
43012

> <i_f3d_flags>
0

> <s_epik_input>
W0NIMl0xW0NIMl1bQ0gyXUMxMltDQEhdKE9bQ0gzXSlbQ0gyXVtDQEhdMk4oW0NIM10pYyhuW2NIXW4zKWMoYzM0KW5bY0hdbjRbQ0gyXVtDQEhdKFtPSF0pW0NAQEhdNVtDSDJdW0NIMl1bQ0gyXU81

> <s_epik_cmdline>
J2VwaWtfcHl0aG9uJywgJy1waCcsICc3LjAnLCAnLXRuJywgJzgnLCAnLW1hJywgJzIwMCcsICctbWV0YWxfYmluZGluZycsICctaW1hZScsICc8aW5maWxlLm1hZT4nLCAnLW9tYWUnLCAnPG91dGZpbGUubWFlPic=

> <r_lp_tautomer_probability>
1

> <r_epik_Ionization_Penalty>
0.00204117

> <r_epik_Ionization_Penalty_Charging>
0

> <r_epik_Ionization_Penalty_Neutral>
0.00204117

> <r_epik_State_Penalty>
0.00127401

> <r_epik_Charging_Adjusted_Penalty>
0.00127401

> <i_epik_Tot_Q>
0

> <i_epik_Tot_abs_Q>
0

> <r_epik_Metal_State_Penalty>
-0

> <b_epik_Metal_Only>
0

> <s_lp_Force_Field>
OPLS_2005

> <r_lp_Energy>
54.7762

> <b_lp_Chiralities_Consistent>
1

> <s_lp_Variant>
AV-unprocessed.smi:276-10

> <Gold.Version>
5.8.1

> <Gold.Id.Protein>
6NUR|6NUR_protein|mol2

> <Gold.PLP.Fitness>
48.7053

> <Gold.PLP.PLP>
-40.2098

> <Gold.PLP.part.hbond>
-2.7763

> <Gold.PLP.part.metal>
0.0000

> <Gold.PLP.part.buried>
-6.1407

> <Gold.PLP.part.nonpolar>
-32.2137

> <Gold.PLP.part.repulsive>
1.1663

> <Gold.PLP.ligand.clash>
0.0000

> <Gold.PLP.ligand.torsion>
1.1855

> <Gold.PLP.Chemscore.Hbond>
2.7150

> <Gold.PLP.Chemscore.CHOScore>
0.6691

> <Gold.PLP.Chemscore.Metal>
0.0000

> <Gold.Chemscore.Hbonds>
donor molecule, donor type, donor heavy atom, donor atom, acceptor molecule, acceptor atom, score
      L1  H    19    44       P1  8028  0.99
      P1  H  7989  7998       L1    11  0.65
      P1  H 10752 10763       L1     9  0.72
      L1  C    10    39       P1  7949  0.61

> <Gold.PLP.Chemscore.Internal.Correction>
0.7142

> <Gold.Rescore>
     Score         DG    S(hbond)    S(metal)    S(lipo)     H(rot)  DE(clash)    DE(int)     intcor
     11.46     -13.13       0.98        0.00      96.94       2.72       0.39       1.29       ----

> <Gold.Chemscore.Fitness>
11.4576

> <Gold.Chemscore.DG>
-13.1343

> <Gold.Chemscore.ZeroCoef>
-5.4800

> <Gold.Chemscore.Hbond>
0.9786

> <Gold.Chemscore.Metal>
0.0000

> <Gold.Chemscore.Lipo>
96.9388

> <Gold.Chemscore.Internal_Hbond>
0.0000

> <Gold.Chemscore.DEClash>
0.3872

> <Gold.Chemscore.DEInternal>
1.2894

> <Gold.Chemscore.Rot>
2.7172

> <Gold.Chemscore.Internal.Correction>
   9.000000E+99

> <Gold.Chemscore.Hbonds>
donor molecule, donor type, donor heavy atom, donor atom, acceptor molecule, acceptor atom, score
      L1  H    19    44       P1  8028  0.76
      P1  H  7989  7998       L1    11  0.62
      P1  H 10752 10763       L1     9  0.09

> <Gold.Chemscore.Hbond.Weighted>
-3.2685

> <Gold.Chemscore.Metal.Weighted>
-0.0000

> <Gold.Chemscore.Lipo.Weighted>
-11.3418

> <Gold.Chemscore.Internal_Hbond.Weighted>
0.0000

> <Gold.Chemscore.DEClash.Weighted>
0.3872

> <Gold.Chemscore.DEInternal.Weighted>
1.2894

> <Gold.Chemscore.Rot.Weighted>
6.9560

> <Gold.Chemscore.Internal.Correction.Weighted>
   9.000000E+99

> <Gold.Protein.RotatedTorsions>
[ 6907 6896 6895 6894 ] final -167.94 input  -60.11 | X-H torsion
[ 7974 7965 7964 7962 ] final   13.86 input  175.53 | X-H torsion
[ 8008 7997 7996 7995 ] final  -39.42 input   59.86 | X-H torsion
[ 10167 10162 10161 10158 ] final  -41.21 input  -65.29 | X-H torsion
[ 10718 10713 10712 10709 ] final   43.60 input   66.30 | X-H torsion
[ 10763 10752 10751 10750 ] final   52.82 input  -60.55 | X-H torsion
[ 11005 11000 10999 10996 ] final -157.24 input  -57.11 | X-H torsion

> <Gold.Protein.ActiveResidues>
 VAL166  LYS551  ARG553  GLY616  TRP617  ASP618  TYR619  PRO620  LYS621  CYS622 
 ASP623  PHE694  ASN695  SER759  ASP760  ASP761  ALA762  ILE779  LEU786  VAL792 
 PHE793  MET794  SER795  GLU796  ALA797  LYS798  CYS799  TRP800  GLU811  SER814 

> <Gold.Protein.RotatedAtoms>
  151.4676  133.3577  159.2818 H   0  0  0  0  0  0  0  0  0  0  0  0  # atno 6907 bound_to 6896
  150.8983  134.8395  159.7353 H   0  0  0  0  0  0  0  0  0  0  0  0  # atno 6908 bound_to 6896
  152.4864  134.4593  159.9652 H   0  0  0  0  0  0  0  0  0  0  0  0  # atno 6909 bound_to 6896
  146.2319  139.9127  142.8522 H   0  0  0  0  0  0  0  0  0  0  0  0  # atno 7974 bound_to 7965
  154.4023  140.1552  156.2861 H   0  0  0  0  0  0  0  0  0  0  0  0  # atno 8008 bound_to 7997
  155.8827  140.3443  155.5877 H   0  0  0  0  0  0  0  0  0  0  0  0  # atno 8009 bound_to 7997
  155.7649  140.0822  157.2127 H   0  0  0  0  0  0  0  0  0  0  0  0  # atno 8010 bound_to 7997
  140.7010  143.3108  151.3033 H   0  0  0  0  0  0  0  0  0  0  0  0  # atno 10167 bound_to 10162
  157.4177  130.7951  149.7487 H   0  0  0  0  0  0  0  0  0  0  0  0  # atno 10718 bound_to 10713
  152.9791  135.5799  154.4641 H   0  0  0  0  0  0  0  0  0  0  0  0  # atno 10763 bound_to 10752
  154.4213  135.2771  155.1976 H   0  0  0  0  0  0  0  0  0  0  0  0  # atno 10764 bound_to 10752
  154.3723  135.6165  153.5800 H   0  0  0  0  0  0  0  0  0  0  0  0  # atno 10765 bound_to 10752
  140.6668  134.4290  157.5233 H   0  0  0  0  0  0  0  0  0  0  0  0  # atno 11005 bound_to 11000
  145.2214  140.9936  143.4043 LP  0  0  0  0  0  0  0  0  0  0  0  0  # atno 17320 bound_to 7965
  144.9607  139.3983  143.6357 LP  0  0  0  0  0  0  0  0  0  0  0  0  # atno 17321 bound_to 7965
  139.6530  144.0327  152.2640 LP  0  0  0  0  0  0  0  0  0  0  0  0  # atno 17342 bound_to 10162
  139.9870  144.6388  150.7849 LP  0  0  0  0  0  0  0  0  0  0  0  0  # atno 17343 bound_to 10162
  155.9870  130.3970  150.3183 LP  0  0  0  0  0  0  0  0  0  0  0  0  # atno 17370 bound_to 10713
  157.1328  131.0276  151.2962 LP  0  0  0  0  0  0  0  0  0  0  0  0  # atno 17371 bound_to 10713
  139.8995  134.8590  156.1959 LP  0  0  0  0  0  0  0  0  0  0  0  0  # atno 17394 bound_to 11000
  141.0423  133.6931  156.1620 LP  0  0  0  0  0  0  0  0  0  0  0  0  # atno 17395 bound_to 11000

$$$$
