AV-unprocessed.smi:317|AV-procd|sdf|2328|dock2
  -GOLD-   2262022233D 1   1.00000     0.00000
 Structure written by MMmdl.
 40 41  0  0  0  0  0  0  0  0  2 V2000
  155.6099  138.3584  159.9376 C   0  0  0  0  0  0  0  0  0  0  0  0
  154.3575  138.7297  160.7464 C   0  0  2  0  0  0  0  0  0  0  0  0
  153.5829  137.4861  161.2263 C   0  0  0  0  0  0  0  0  0  0  0  0
  153.3734  136.5922  160.1539 O   0  0  0  0  0  0  0  0  0  0  0  0
  153.4976  139.5813  159.9288 N   0  0  0  0  0  0  0  0  0  0  0  0
  153.3114  140.8972  160.1060 C   0  0  0  0  0  0  0  0  0  0  0  0
  153.8401  141.5454  161.0087 O   0  0  0  0  0  0  0  0  0  0  0  0
  152.4648  141.3951  159.1891 N   0  0  0  0  0  0  0  0  0  0  0  0
  152.0026  142.7350  159.0471 C   0  0  0  0  0  0  0  0  0  0  0  0
  152.5243  143.7853  159.8464 C   0  0  0  0  0  0  0  0  0  0  0  0
  152.0320  145.0953  159.6966 C   0  0  0  0  0  0  0  0  0  0  0  0
  151.0269  145.3393  158.7456 C   0  0  0  0  0  0  0  0  0  0  0  0
  150.5661  144.3246  157.9859 N   0  3  0  0  0  0  0  0  0  0  0  0
  151.0097  143.0455  158.0717 C   0  0  0  0  0  0  0  0  0  0  0  0
  150.4401  142.0926  157.1963 N   0  0  0  0  0  0  0  0  0  0  0  0
  151.2762  141.3768  156.2393 C   0  0  0  0  0  0  0  0  0  0  0  0
  150.4076  140.2267  155.7373 C   0  0  0  0  0  0  0  0  0  0  0  0
  149.6029  139.8575  156.9799 C   0  0  0  0  0  0  0  0  0  0  0  0
  149.4002  141.1980  157.6946 C   0  0  0  0  0  0  0  0  0  0  0  0
  156.2997  137.7576  160.5309 H   0  0  0  0  0  0  0  0  0  0  0  0
  156.1486  139.2502  159.6155 H   0  0  0  0  0  0  0  0  0  0  0  0
  155.3525  137.7844  159.0467 H   0  0  0  0  0  0  0  0  0  0  0  0
  154.6778  139.3044  161.6182 H   0  0  0  0  0  0  0  0  0  0  0  0
  154.1440  136.9527  161.9944 H   0  0  0  0  0  0  0  0  0  0  0  0
  152.6238  137.7650  161.6639 H   0  0  0  0  0  0  0  0  0  0  0  0
  153.9861  136.7994  159.4647 H   0  0  0  0  0  0  0  0  0  0  0  0
  153.0167  139.1312  159.1638 H   0  0  0  0  0  0  0  0  0  0  0  0
  152.0339  140.7200  158.5751 H   0  0  0  0  0  0  0  0  0  0  0  0
  153.3035  143.6095  160.5722 H   0  0  0  0  0  0  0  0  0  0  0  0
  152.4200  145.9000  160.3042 H   0  0  0  0  0  0  0  0  0  0  0  0
  150.5868  146.3090  158.5629 H   0  0  0  0  0  0  0  0  0  0  0  0
  151.5973  142.0267  155.4247 H   0  0  0  0  0  0  0  0  0  0  0  0
  152.1631  140.9765  156.7322 H   0  0  0  0  0  0  0  0  0  0  0  0
  149.7382  140.5787  154.9512 H   0  0  0  0  0  0  0  0  0  0  0  0
  150.9900  139.3946  155.3411 H   0  0  0  0  0  0  0  0  0  0  0  0
  148.6639  139.3557  156.7457 H   0  0  0  0  0  0  0  0  0  0  0  0
  150.1914  139.1902  157.6110 H   0  0  0  0  0  0  0  0  0  0  0  0
  149.4434  141.0797  158.7782 H   0  0  0  0  0  0  0  0  0  0  0  0
  148.4263  141.6138  157.4348 H   0  0  0  0  0  0  0  0  0  0  0  0
  149.8441  144.5360  157.2968 H   0  0  0  0  0  0  0  0  0  0  0  0
  1  2  1  0  0  0  0
  1 20  1  0  0  0  0
  1 21  1  0  0  0  0
  1 22  1  0  0  0  0
  2  3  1  0  0  0  0
  2  5  1  0  0  0  0
  2 23  1  0  0  0  0
  3  4  1  0  0  0  0
  3 24  1  0  0  0  0
  3 25  1  0  0  0  0
  4 26  1  0  0  0  0
  5  6  1  0  0  0  0
  5 27  1  0  0  0  0
  6  7  2  0  0  0  0
  6  8  1  0  0  0  0
  8  9  1  0  0  0  0
  8 28  1  0  0  0  0
  9 14  1  0  0  0  0
  9 10  2  0  0  0  0
 10 11  1  0  0  0  0
 10 29  1  0  0  0  0
 11 12  2  0  0  0  0
 11 30  1  0  0  0  0
 12 13  1  0  0  0  0
 12 31  1  0  0  0  0
 13 14  2  0  0  0  0
 13 40  1  0  0  0  0
 14 15  1  0  0  0  0
 15 19  1  0  0  0  0
 15 16  1  0  0  0  0
 16 17  1  0  0  0  0
 16 32  1  0  0  0  0
 16 33  1  0  0  0  0
 17 18  1  0  0  0  0
 17 34  1  0  0  0  0
 17 35  1  0  0  0  0
 18 19  1  0  0  0  0
 18 36  1  0  0  0  0
 18 37  1  0  0  0  0
 19 38  1  0  0  0  0
 19 39  1  0  0  0  0
M  CHG  1  13   1
M  END
> <s_m_source_file>
AV-unprocessed.smi

> <i_m_source_file_index>
317

> <i_lp_mmshare_version>
43012

> <i_f3d_flags>
0

> <s_epik_input>
W09IXVtDSDJdW0NAQEhdKFtDSDNdKVtOSF1DKD1PKVtOSF1jMVtjSF1bY0hdW2NIXW5jMU4yW0NIMl1bQ0gyXVtDSDJdW0NIMl0y

> <s_epik_cmdline>
J2VwaWtfcHl0aG9uJywgJy1waCcsICc3LjAnLCAnLXRuJywgJzgnLCAnLW1hJywgJzIwMCcsICctbWV0YWxfYmluZGluZycsICctaW1hZScsICc8aW5maWxlLm1hZT4nLCAnLW9tYWUnLCAnPG91dGZpbGUubWFlPic=

> <r_lp_tautomer_probability>
0.999994

> <r_epik_Ionization_Penalty>
1.11558

> <r_epik_Ionization_Penalty_Charging>
1.11556

> <r_epik_Ionization_Penalty_Neutral>
2.02999e-05

> <r_epik_State_Penalty>
1.17393

> <r_epik_Charging_Adjusted_Penalty>
2.28949

> <i_epik_Tot_Q>
1

> <i_epik_Tot_abs_Q>
1

> <r_epik_Metal_State_Penalty>
1.25924

> <b_epik_Metal_Only>
0

> <s_lp_Force_Field>
OPLS_2005

> <r_lp_Energy>
37.9657

> <b_lp_Chiralities_Consistent>
1

> <s_lp_Variant>
AV-unprocessed.smi:317-3

> <Gold.Version>
5.8.1

> <Gold.Id.Protein>
6NUR|6NUR_protein|mol2

> <Gold.PLP.Fitness>
42.7992

> <Gold.PLP.PLP>
-34.2816

> <Gold.PLP.part.hbond>
-2.3682

> <Gold.PLP.part.metal>
0.0000

> <Gold.PLP.part.buried>
-6.6735

> <Gold.PLP.part.nonpolar>
-25.0984

> <Gold.PLP.part.repulsive>
0.3488

> <Gold.PLP.ligand.clash>
0.0000

> <Gold.PLP.ligand.torsion>
0.4483

> <Gold.PLP.Chemscore.Hbond>
3.0000

> <Gold.PLP.Chemscore.CHOScore>
0.0000

> <Gold.PLP.Chemscore.Metal>
0.0000

> <Gold.Chemscore.Hbonds>
donor molecule, donor type, donor heavy atom, donor atom, acceptor molecule, acceptor atom, score
      L1  H    13    40       P1  8028  1.90
      P1  H  6896  6909       L1     4  1.00

> <Gold.PLP.Chemscore.Internal.Correction>
0.4142

> <Gold.Rescore>
     Score         DG    S(hbond)    S(metal)    S(lipo)     H(rot)  DE(clash)    DE(int)     intcor
     14.63     -16.83       1.99        0.00      86.46       2.11       0.22       1.98       ----

> <Gold.Chemscore.Fitness>
14.6306

> <Gold.Chemscore.DG>
-16.8329

> <Gold.Chemscore.ZeroCoef>
-5.4800

> <Gold.Chemscore.Hbond>
1.9876

> <Gold.Chemscore.Metal>
0.0000

> <Gold.Chemscore.Lipo>
86.4602

> <Gold.Chemscore.Internal_Hbond>
0.0000

> <Gold.Chemscore.DEClash>
0.2235

> <Gold.Chemscore.DEInternal>
1.9788

> <Gold.Chemscore.Rot>
2.1099

> <Gold.Chemscore.Internal.Correction>
   9.000000E+99

> <Gold.Chemscore.Hbonds>
donor molecule, donor type, donor heavy atom, donor atom, acceptor molecule, acceptor atom, score
      L1  H    13    40       P1  8028  0.22
      P1  H  6896  6909       L1     4  0.93

> <Gold.Chemscore.Hbond.Weighted>
-6.6385

> <Gold.Chemscore.Metal.Weighted>
-0.0000

> <Gold.Chemscore.Lipo.Weighted>
-10.1158

> <Gold.Chemscore.Internal_Hbond.Weighted>
0.0000

> <Gold.Chemscore.DEClash.Weighted>
0.2235

> <Gold.Chemscore.DEInternal.Weighted>
1.9788

> <Gold.Chemscore.Rot.Weighted>
5.4015

> <Gold.Chemscore.Internal.Correction.Weighted>
   9.000000E+99

> <Gold.Protein.RotatedTorsions>
[ 6907 6896 6895 6894 ] final  157.09 input  -60.11 | X-H torsion
[ 7974 7965 7964 7962 ] final   47.03 input  175.53 | X-H torsion
[ 8008 7997 7996 7995 ] final  -13.79 input   59.86 | X-H torsion
[ 10167 10162 10161 10158 ] final  -79.59 input  -65.29 | X-H torsion
[ 10718 10713 10712 10709 ] final  125.17 input   66.30 | X-H torsion
[ 10763 10752 10751 10750 ] final -155.33 input  -60.55 | X-H torsion
[ 11005 11000 10999 10996 ] final -125.01 input  -57.11 | X-H torsion

> <Gold.Protein.ActiveResidues>
 VAL166  LYS551  ARG553  GLY616  TRP617  ASP618  TYR619  PRO620  LYS621  CYS622 
 ASP623  PHE694  ASN695  SER759  ASP760  ASP761  ALA762  ILE779  LEU786  VAL792 
 PHE793  MET794  SER795  GLU796  ALA797  LYS798  CYS799  TRP800  GLU811  SER814 

> <Gold.Protein.RotatedAtoms>
  152.0203  133.3896  159.4255 H   0  0  0  0  0  0  0  0  0  0  0  0  # atno 6907 bound_to 6896
  150.6891  134.3634  159.4969 H   0  0  0  0  0  0  0  0  0  0  0  0  # atno 6908 bound_to 6896
  152.1406  134.9065  160.0604 H   0  0  0  0  0  0  0  0  0  0  0  0  # atno 6909 bound_to 6896
  146.0335  139.4792  142.9823 H   0  0  0  0  0  0  0  0  0  0  0  0  # atno 7974 bound_to 7965
  154.5263  140.2240  155.8884 H   0  0  0  0  0  0  0  0  0  0  0  0  # atno 8008 bound_to 7997
  156.1717  140.3120  155.8949 H   0  0  0  0  0  0  0  0  0  0  0  0  # atno 8009 bound_to 7997
  155.3544  140.0457  157.3037 H   0  0  0  0  0  0  0  0  0  0  0  0  # atno 8010 bound_to 7997
  140.4580  143.2462  151.8391 H   0  0  0  0  0  0  0  0  0  0  0  0  # atno 10167 bound_to 10162
  157.5525  131.1093  150.8678 H   0  0  0  0  0  0  0  0  0  0  0  0  # atno 10718 bound_to 10713
  154.7794  135.3170  154.8022 H   0  0  0  0  0  0  0  0  0  0  0  0  # atno 10763 bound_to 10752
  153.8737  135.6842  153.4776 H   0  0  0  0  0  0  0  0  0  0  0  0  # atno 10764 bound_to 10752
  153.1427  135.4732  154.9456 H   0  0  0  0  0  0  0  0  0  0  0  0  # atno 10765 bound_to 10752
  140.9795  134.0692  157.3780 H   0  0  0  0  0  0  0  0  0  0  0  0  # atno 11005 bound_to 11000
  145.7002  141.0138  143.1508 LP  0  0  0  0  0  0  0  0  0  0  0  0  # atno 17320 bound_to 7965
  144.7041  139.8635  143.7435 LP  0  0  0  0  0  0  0  0  0  0  0  0  # atno 17321 bound_to 7965
  139.4803  144.5042  151.9020 LP  0  0  0  0  0  0  0  0  0  0  0  0  # atno 17342 bound_to 10162
  140.4128  144.2346  150.5888 LP  0  0  0  0  0  0  0  0  0  0  0  0  # atno 17343 bound_to 10162
  156.9199  130.5311  149.5279 LP  0  0  0  0  0  0  0  0  0  0  0  0  # atno 17370 bound_to 10713
  156.0589  130.5645  150.9150 LP  0  0  0  0  0  0  0  0  0  0  0  0  # atno 17371 bound_to 10713
  139.8944  135.0136  156.6951 LP  0  0  0  0  0  0  0  0  0  0  0  0  # atno 17394 bound_to 11000
  140.7207  133.9143  155.8145 LP  0  0  0  0  0  0  0  0  0  0  0  0  # atno 17395 bound_to 11000

$$$$
