AV-unprocessed.smi:3238|AV-procd|sdf|12377|dock7
  -GOLD-   2272018243D 1   1.00000     0.00000
 Structure written by MMmdl.
 37 39  0  0  0  0  0  0  0  0  1 V2000
  146.4747  139.0556  152.1429 C   0  0  0  0  0  0  0  0  0  0  0  0
  147.3992  140.0660  152.6343 N   0  0  0  0  0  0  0  0  0  0  0  0
  147.4032  140.5395  153.8889 C   0  0  0  0  0  0  0  0  0  0  0  0
  146.6098  140.1580  154.7510 O   0  0  0  0  0  0  0  0  0  0  0  0
  148.4758  141.5901  154.2049 C   0  0  0  0  0  0  0  0  0  0  0  0
  149.5504  141.0586  155.1025 C   0  0  0  0  0  0  0  0  0  0  0  0
  150.4222  140.1528  154.6739 N   0  0  0  0  0  0  0  0  0  0  0  0
  151.2470  139.9443  155.7882 O   0  0  0  0  0  0  0  0  0  0  0  0
  150.7640  140.7519  156.7628 C   0  0  0  0  0  0  0  0  0  0  0  0
  151.4681  140.8003  158.0789 C   0  0  0  0  0  0  0  0  0  0  0  0
  152.1853  142.1420  158.3271 C   0  0  2  0  0  0  0  0  0  0  0  0
  152.4323  142.4576  159.8213 C   0  0  0  0  0  0  0  0  0  0  0  0
  151.7827  143.8419  159.9976 C   0  0  1  0  0  0  0  0  0  0  0  0
  152.6116  144.9004  159.2467 C   0  0  0  0  0  0  0  0  0  0  0  0
  152.2992  144.5900  157.7704 C   0  0  0  0  0  0  0  0  0  0  0  0
  151.3636  143.3697  157.8709 C   0  0  2  0  0  0  0  0  0  0  0  0
  150.5489  143.7168  159.1133 C   0  0  0  0  0  0  0  0  0  0  0  0
  149.7184  141.4835  156.3860 N   0  0  0  0  0  0  0  0  0  0  0  0
  146.6958  138.8250  151.1008 H   0  0  0  0  0  0  0  0  0  0  0  0
  145.4446  139.4090  152.2035 H   0  0  0  0  0  0  0  0  0  0  0  0
  146.5615  138.1349  152.7214 H   0  0  0  0  0  0  0  0  0  0  0  0
  148.0815  140.4247  151.9818 H   0  0  0  0  0  0  0  0  0  0  0  0
  148.9171  141.9377  153.2699 H   0  0  0  0  0  0  0  0  0  0  0  0
  148.0134  142.4572  154.6787 H   0  0  0  0  0  0  0  0  0  0  0  0
  150.7285  140.6296  158.8617 H   0  0  0  0  0  0  0  0  0  0  0  0
  152.1701  139.9678  158.1338 H   0  0  0  0  0  0  0  0  0  0  0  0
  153.1322  142.1221  157.7851 H   0  0  0  0  0  0  0  0  0  0  0  0
  151.9412  141.7313  160.4702 H   0  0  0  0  0  0  0  0  0  0  0  0
  153.4931  142.4605  160.0743 H   0  0  0  0  0  0  0  0  0  0  0  0
  151.5809  144.1003  161.0374 H   0  0  0  0  0  0  0  0  0  0  0  0
  152.2841  145.9084  159.5047 H   0  0  0  0  0  0  0  0  0  0  0  0
  153.6761  144.8254  159.4721 H   0  0  0  0  0  0  0  0  0  0  0  0
  151.7865  145.4320  157.3031 H   0  0  0  0  0  0  0  0  0  0  0  0
  153.1972  144.3835  157.1871 H   0  0  0  0  0  0  0  0  0  0  0  0
  150.7774  143.2017  156.9668 H   0  0  0  0  0  0  0  0  0  0  0  0
  149.8688  142.9237  159.4277 H   0  0  0  0  0  0  0  0  0  0  0  0
  149.9890  144.6489  159.0174 H   0  0  0  0  0  0  0  0  0  0  0  0
  1  2  1  0  0  0  0
  1 19  1  0  0  0  0
  1 20  1  0  0  0  0
  1 21  1  0  0  0  0
  2  3  1  0  0  0  0
  2 22  1  0  0  0  0
  3  4  2  0  0  0  0
  3  5  1  0  0  0  0
  5  6  1  0  0  0  0
  5 23  1  0  0  0  0
  5 24  1  0  0  0  0
  6 18  1  0  0  0  0
  6  7  2  0  0  0  0
  7  8  1  0  0  0  0
  8  9  1  0  0  0  0
  9 10  1  0  0  0  0
  9 18  2  0  0  0  0
 10 11  1  0  0  0  0
 10 25  1  0  0  0  0
 10 26  1  0  0  0  0
 11 16  1  0  0  0  0
 11 12  1  0  0  0  0
 11 27  1  0  0  0  0
 12 13  1  0  0  0  0
 12 28  1  0  0  0  0
 12 29  1  0  0  0  0
 13 17  1  0  0  0  0
 13 14  1  0  0  0  0
 13 30  1  0  0  0  0
 14 15  1  0  0  0  0
 14 31  1  0  0  0  0
 14 32  1  0  0  0  0
 15 16  1  0  0  0  0
 15 33  1  0  0  0  0
 15 34  1  0  0  0  0
 16 17  1  0  0  0  0
 16 35  1  0  0  0  0
 17 36  1  0  0  0  0
 17 37  1  0  0  0  0
M  END
> <s_m_source_file>
AV-unprocessed.smi

> <i_m_source_file_index>
3238

> <i_lp_mmshare_version>
43012

> <i_f3d_flags>
0

> <s_epik_input>
W0NIM11bTkhdQyg9TylbQ0gyXWMxbm9jKG4xKVtDSDJdW0NASF0oW0NIMl1bQ0BIXTIzKVtDQEhdKFtDSDJdMylbQ0gyXVtDSDJdMg==

> <s_epik_cmdline>
J2VwaWtfcHl0aG9uJywgJy1waCcsICc3LjAnLCAnLXRuJywgJzgnLCAnLW1hJywgJzIwMCcsICctbWV0YWxfYmluZGluZycsICctaW1hZScsICc8aW5maWxlLm1hZT4nLCAnLW9tYWUnLCAnPG91dGZpbGUubWFlPic=

> <r_lp_tautomer_probability>
1

> <r_epik_Ionization_Penalty>
1.02915e-07

> <r_epik_Ionization_Penalty_Charging>
0

> <r_epik_Ionization_Penalty_Neutral>
1.02915e-07

> <r_epik_State_Penalty>
-0

> <r_epik_Charging_Adjusted_Penalty>
0

> <i_epik_Tot_Q>
0

> <i_epik_Tot_abs_Q>
0

> <r_epik_Metal_State_Penalty>
-0

> <b_epik_Metal_Only>
0

> <s_lp_Force_Field>
OPLS_2005

> <r_lp_Energy>
47.6747

> <b_lp_Chiralities_Consistent>
1

> <s_lp_Variant>
AV-unprocessed.smi:3238-3

> <Gold.Version>
5.8.1

> <Gold.Id.Protein>
6NUR|6NUR_protein|mol2

> <Gold.PLP.Fitness>
45.6856

> <Gold.PLP.PLP>
-40.5717

> <Gold.PLP.part.hbond>
-1.7780

> <Gold.PLP.part.metal>
0.0000

> <Gold.PLP.part.buried>
-6.6152

> <Gold.PLP.part.nonpolar>
-33.6028

> <Gold.PLP.part.repulsive>
0.3348

> <Gold.PLP.ligand.clash>
0.0000

> <Gold.PLP.ligand.torsion>
0.4533

> <Gold.PLP.Chemscore.Hbond>
2.0000

> <Gold.PLP.Chemscore.CHOScore>
0.0000

> <Gold.PLP.Chemscore.Metal>
0.0000

> <Gold.Chemscore.Hbonds>
donor molecule, donor type, donor heavy atom, donor atom, acceptor molecule, acceptor atom, score
      L1  H     2    22       P1  7957  0.88
      P1  H  7989  7998       L1     7  1.00

> <Gold.PLP.Chemscore.Internal.Correction>
0.0205

> <Gold.Rescore>
     Score         DG    S(hbond)    S(metal)    S(lipo)     H(rot)  DE(clash)    DE(int)     intcor
     15.83     -17.02       1.34        0.00     100.85       1.85       0.30       0.89       ----

> <Gold.Chemscore.Fitness>
15.8268

> <Gold.Chemscore.DG>
-17.0207

> <Gold.Chemscore.ZeroCoef>
-5.4800

> <Gold.Chemscore.Hbond>
1.3399

> <Gold.Chemscore.Metal>
0.0000

> <Gold.Chemscore.Lipo>
100.8491

> <Gold.Chemscore.Internal_Hbond>
0.0000

> <Gold.Chemscore.DEClash>
0.2999

> <Gold.Chemscore.DEInternal>
0.8940

> <Gold.Chemscore.Rot>
1.8492

> <Gold.Chemscore.Internal.Correction>
   9.000000E+99

> <Gold.Chemscore.Hbonds>
donor molecule, donor type, donor heavy atom, donor atom, acceptor molecule, acceptor atom, score
      L1  H     2    22       P1  7957  0.87
      P1  H  7989  7998       L1     7  0.24

> <Gold.Chemscore.Hbond.Weighted>
-4.4753

> <Gold.Chemscore.Metal.Weighted>
-0.0000

> <Gold.Chemscore.Lipo.Weighted>
-11.7993

> <Gold.Chemscore.Internal_Hbond.Weighted>
0.0000

> <Gold.Chemscore.DEClash.Weighted>
0.2999

> <Gold.Chemscore.DEInternal.Weighted>
0.8940

> <Gold.Chemscore.Rot.Weighted>
4.7340

> <Gold.Chemscore.Internal.Correction.Weighted>
   9.000000E+99

> <Gold.Protein.RotatedTorsions>
[ 6907 6896 6895 6894 ] final -122.47 input  -60.11 | X-H torsion
[ 7974 7965 7964 7962 ] final   56.69 input  175.53 | X-H torsion
[ 8008 7997 7996 7995 ] final   61.04 input   59.86 | X-H torsion
[ 10167 10162 10161 10158 ] final   60.17 input  -65.29 | X-H torsion
[ 10718 10713 10712 10709 ] final -147.75 input   66.30 | X-H torsion
[ 10763 10752 10751 10750 ] final  -35.32 input  -60.55 | X-H torsion
[ 11005 11000 10999 10996 ] final   96.21 input  -57.11 | X-H torsion

> <Gold.Protein.ActiveResidues>
 VAL166  LYS551  ARG553  GLY616  TRP617  ASP618  TYR619  PRO620  LYS621  CYS622 
 ASP623  PHE694  ASN695  SER759  ASP760  ASP761  ALA762  ILE779  LEU786  VAL792 
 PHE793  MET794  SER795  GLU796  ALA797  LYS798  CYS799  TRP800  GLU811  SER814 

> <Gold.Protein.RotatedAtoms>
  150.8579  133.7687  159.3002 H   0  0  0  0  0  0  0  0  0  0  0  0  # atno 6907 bound_to 6896
  151.5338  135.1067  159.9919 H   0  0  0  0  0  0  0  0  0  0  0  0  # atno 6908 bound_to 6896
  152.4604  133.7767  159.6884 H   0  0  0  0  0  0  0  0  0  0  0  0  # atno 6909 bound_to 6896
  145.9371  139.3856  143.0386 H   0  0  0  0  0  0  0  0  0  0  0  0  # atno 7974 bound_to 7965
  155.5919  140.3493  155.4569 H   0  0  0  0  0  0  0  0  0  0  0  0  # atno 8008 bound_to 7997
  156.0294  140.1271  157.0298 H   0  0  0  0  0  0  0  0  0  0  0  0  # atno 8009 bound_to 7997
  154.4346  140.1046  156.6064 H   0  0  0  0  0  0  0  0  0  0  0  0  # atno 8010 bound_to 7997
  140.1685  144.4301  150.6673 H   0  0  0  0  0  0  0  0  0  0  0  0  # atno 10167 bound_to 10162
  156.4114  130.7983  151.2201 H   0  0  0  0  0  0  0  0  0  0  0  0  # atno 10718 bound_to 10713
  153.8613  135.6840  153.4782 H   0  0  0  0  0  0  0  0  0  0  0  0  # atno 10763 bound_to 10752
  153.1340  135.4685  154.9392 H   0  0  0  0  0  0  0  0  0  0  0  0  # atno 10764 bound_to 10752
  154.7757  135.3252  154.8046 H   0  0  0  0  0  0  0  0  0  0  0  0  # atno 10765 bound_to 10752
  139.8783  134.8939  156.4126 H   0  0  0  0  0  0  0  0  0  0  0  0  # atno 11005 bound_to 11000
  145.8349  140.9611  143.0829 LP  0  0  0  0  0  0  0  0  0  0  0  0  # atno 17320 bound_to 7965
  144.6773  140.0210  143.7483 LP  0  0  0  0  0  0  0  0  0  0  0  0  # atno 17321 bound_to 7965
  140.6598  143.2248  151.5884 LP  0  0  0  0  0  0  0  0  0  0  0  0  # atno 17342 bound_to 10162
  139.5349  144.2810  152.1229 LP  0  0  0  0  0  0  0  0  0  0  0  0  # atno 17343 bound_to 10162
  157.7507  131.0256  150.3927 LP  0  0  0  0  0  0  0  0  0  0  0  0  # atno 17370 bound_to 10713
  156.4226  130.3956  149.6814 LP  0  0  0  0  0  0  0  0  0  0  0  0  # atno 17371 bound_to 10713
  140.9190  133.7658  155.9883 LP  0  0  0  0  0  0  0  0  0  0  0  0  # atno 17394 bound_to 11000
  140.8461  134.3009  157.5294 LP  0  0  0  0  0  0  0  0  0  0  0  0  # atno 17395 bound_to 11000

$$$$
