AV-unprocessed.smi:72|AV-procd|sdf|674|dock2
  -GOLD-   2262016583D 1   1.00000     0.00000
 Structure written by MMmdl.
 29 30  0  0  0  0  0  0  0  0  1 V2000
  152.3606  136.4578  155.9049 N   0  0  0  0  0  0  0  0  0  0  0  0
  151.7355  137.5302  155.5716 C   0  0  0  0  0  0  0  0  0  0  0  0
  151.0788  137.7397  154.3506 N   0  0  0  0  0  0  0  0  0  0  0  0
  150.4538  138.8609  154.1643 C   0  0  0  0  0  0  0  0  0  0  0  0
  150.3697  139.8907  155.1944 N   0  0  0  0  0  0  0  0  0  0  0  0
  149.6669  141.2191  154.9434 C   0  0  1  0  0  0  0  0  0  0  0  0
  149.1479  141.2406  153.6408 O   0  0  0  0  0  0  0  0  0  0  0  0
  147.7306  141.0758  153.6300 C   0  0  1  0  0  0  0  0  0  0  0  0
  147.3492  139.5787  153.5687 C   0  0  0  0  0  0  0  0  0  0  0  0
  147.7025  139.0445  152.3107 O   0  0  0  0  0  0  0  0  0  0  0  0
  147.3349  141.7956  154.9231 C   0  0  1  0  0  0  0  0  0  0  0  0
  146.0753  141.3916  155.4237 O   0  0  0  0  0  0  0  0  0  0  0  0
  148.4619  141.4504  155.8881 C   0  0  2  0  0  0  0  0  0  0  0  0
  148.6776  142.5412  156.7607 O   0  0  0  0  0  0  0  0  0  0  0  0
  151.1235  139.7333  156.3868 C   0  0  0  0  0  0  0  0  0  0  0  0
  151.2118  140.6166  157.2389 O   0  0  0  0  0  0  0  0  0  0  0  0
  151.7475  138.5450  156.5360 N   0  0  0  0  0  0  0  0  0  0  0  0
  150.4575  141.9657  155.0359 H   0  0  0  0  0  0  0  0  0  0  0  0
  147.3014  141.5928  152.7706 H   0  0  0  0  0  0  0  0  0  0  0  0
  147.3167  142.8698  154.7298 H   0  0  0  0  0  0  0  0  0  0  0  0
  148.2298  140.5389  156.4413 H   0  0  0  0  0  0  0  0  0  0  0  0
  152.7562  136.5497  156.8290 H   0  0  0  0  0  0  0  0  0  0  0  0
  149.9543  139.0932  153.2237 H   0  0  0  0  0  0  0  0  0  0  0  0
  147.7983  138.9982  154.3731 H   0  0  0  0  0  0  0  0  0  0  0  0
  146.2703  139.4558  153.6606 H   0  0  0  0  0  0  0  0  0  0  0  0
  148.5703  139.3460  152.0889 H   0  0  0  0  0  0  0  0  0  0  0  0
  146.2021  140.6278  155.9659 H   0  0  0  0  0  0  0  0  0  0  0  0
  148.4517  143.3370  156.3027 H   0  0  0  0  0  0  0  0  0  0  0  0
  152.2692  138.3977  157.3876 H   0  0  0  0  0  0  0  0  0  0  0  0
  1  2  2  0  0  0  0
  1 22  1  0  0  0  0
  2 17  1  0  0  0  0
  2  3  1  0  0  0  0
  3  4  2  0  0  0  0
  4  5  1  0  0  0  0
  4 23  1  0  0  0  0
  5  6  1  0  0  0  0
  5 15  1  0  0  0  0
  6 18  1  0  0  0  0
  6 13  1  0  0  0  0
  6  7  1  0  0  0  0
  7  8  1  0  0  0  0
  8 19  1  0  0  0  0
  8  9  1  0  0  0  0
  8 11  1  0  0  0  0
  9 10  1  0  0  0  0
  9 24  1  0  0  0  0
  9 25  1  0  0  0  0
 10 26  1  0  0  0  0
 11 20  1  0  0  0  0
 11 12  1  0  0  0  0
 11 13  1  0  0  0  0
 12 27  1  0  0  0  0
 13 21  1  0  0  0  0
 13 14  1  0  0  0  0
 14 28  1  0  0  0  0
 15 16  2  0  0  0  0
 15 17  1  0  0  0  0
 17 29  1  0  0  0  0
M  END
> <s_m_source_file>
AV-unprocessed.smi

> <i_m_source_file_index>
72

> <i_lp_mmshare_version>
43012

> <i_f3d_flags>
0

> <s_epik_input>
W05IMl1jMW5bY0hdbihjKD1PKW4xKVtDQEBIXTJPW0NASF0oW0NIMl1bT0hdKVtDQEBIXShbT0hdKVtDQEhdMltPSF0=

> <s_epik_cmdline>
J2VwaWtfcHl0aG9uJywgJy1waCcsICc3LjAnLCAnLXRuJywgJzgnLCAnLW1hJywgJzIwMCcsICctbWV0YWxfYmluZGluZycsICctaW1hZScsICc8aW5maWxlLm1hZT4nLCAnLW9tYWUnLCAnPG91dGZpbGUubWFlPic=

> <r_lp_tautomer_probability>
7.17554e-07

> <r_epik_Ionization_Penalty>
0.0066451

> <r_epik_Ionization_Penalty_Charging>
0.00663793

> <r_epik_Ionization_Penalty_Neutral>
7.17052e-06

> <r_epik_State_Penalty>
0.419231

> <r_epik_Charging_Adjusted_Penalty>
0.425868

> <i_epik_Tot_Q>
0

> <i_epik_Tot_abs_Q>
0

> <r_epik_Metal_State_Penalty>
1.44144

> <b_epik_Metal_Only>
0

> <s_epik_Chemistry_Notes>
This compound contains an acetal/aminal-like group ( X-CH(R)-Y where X, Y are N, S, or O) that may be acid/base labile, releasing an aldehyde.

> <s_lp_Force_Field>
OPLS_2005

> <r_lp_Energy>
41.469

> <b_lp_Chiralities_Consistent>
1

> <s_lp_Variant>
AV-unprocessed.smi:72-12

> <Gold.Version>
5.8.1

> <Gold.Id.Protein>
6NUR|6NUR_protein|mol2

> <Gold.PLP.Fitness>
39.7932

> <Gold.PLP.PLP>
-25.1274

> <Gold.PLP.part.hbond>
-5.0453

> <Gold.PLP.part.metal>
0.0000

> <Gold.PLP.part.buried>
-4.6173

> <Gold.PLP.part.nonpolar>
-18.5863

> <Gold.PLP.part.repulsive>
2.5712

> <Gold.PLP.ligand.clash>
0.0000

> <Gold.PLP.ligand.torsion>
0.1085

> <Gold.PLP.Chemscore.Hbond>
3.9280

> <Gold.PLP.Chemscore.CHOScore>
1.0000

> <Gold.PLP.Chemscore.Metal>
0.0000

> <Gold.Chemscore.Hbonds>
donor molecule, donor type, donor heavy atom, donor atom, acceptor molecule, acceptor atom, score
      L1  H    10    26       P1  7957  1.00
      L1  H    14    28       P1  8028  1.00
      P1  H  8011  8017       L1     7  0.93
      P1  H 10752 10764       L1     1  0.98
      L1  C     4    23       P1  7957  1.00

> <Gold.PLP.Chemscore.Internal.Correction>
0.0989

> <Gold.Rescore>
     Score         DG    S(hbond)    S(metal)    S(lipo)     H(rot)  DE(clash)    DE(int)     intcor
      8.21      -8.50       3.26        0.00      21.69       4.06       0.19       0.11       ----

> <Gold.Chemscore.Fitness>
8.2060

> <Gold.Chemscore.DG>
-8.5047

> <Gold.Chemscore.ZeroCoef>
-5.4800

> <Gold.Chemscore.Hbond>
3.2577

> <Gold.Chemscore.Metal>
0.0000

> <Gold.Chemscore.Lipo>
21.6900

> <Gold.Chemscore.Internal_Hbond>
0.0000

> <Gold.Chemscore.DEClash>
0.1893

> <Gold.Chemscore.DEInternal>
0.1094

> <Gold.Chemscore.Rot>
4.0600

> <Gold.Chemscore.Internal.Correction>
   9.000000E+99

> <Gold.Chemscore.Hbonds>
donor molecule, donor type, donor heavy atom, donor atom, acceptor molecule, acceptor atom, score
      L1  H    10    26       P1  7957  0.91
      L1  H    14    28       P1  8028  0.65
      P1  H  8011  8017       L1     7  0.78
      P1  H 10752 10764       L1     1  0.85

> <Gold.Chemscore.Hbond.Weighted>
-10.8806

> <Gold.Chemscore.Metal.Weighted>
-0.0000

> <Gold.Chemscore.Lipo.Weighted>
-2.5377

> <Gold.Chemscore.Internal_Hbond.Weighted>
0.0000

> <Gold.Chemscore.DEClash.Weighted>
0.1893

> <Gold.Chemscore.DEInternal.Weighted>
0.1094

> <Gold.Chemscore.Rot.Weighted>
10.3936

> <Gold.Chemscore.Internal.Correction.Weighted>
   9.000000E+99

> <Gold.Protein.RotatedTorsions>
[ 6907 6896 6895 6894 ] final  -59.63 input  -60.11 | X-H torsion
[ 7974 7965 7964 7962 ] final -102.48 input  175.53 | X-H torsion
[ 8008 7997 7996 7995 ] final  154.58 input   59.86 | X-H torsion
[ 10167 10162 10161 10158 ] final  131.62 input  -65.29 | X-H torsion
[ 10718 10713 10712 10709 ] final  130.66 input   66.30 | X-H torsion
[ 10763 10752 10751 10750 ] final  -38.66 input  -60.55 | X-H torsion
[ 11005 11000 10999 10996 ] final -140.83 input  -57.11 | X-H torsion

> <Gold.Protein.ActiveResidues>
 VAL166  LYS551  ARG553  GLY616  TRP617  ASP618  TYR619  PRO620  LYS621  CYS622 
 ASP623  PHE694  ASN695  SER759  ASP760  ASP761  ALA762  ILE779  LEU786  VAL792 
 PHE793  MET794  SER795  GLU796  ALA797  LYS798  CYS799  TRP800  GLU811  SER814 

> <Gold.Protein.RotatedAtoms>
  150.7916  134.6944  159.6514 H   0  0  0  0  0  0  0  0  0  0  0  0  # atno 6907 bound_to 6896
  152.4022  134.6263  160.0074 H   0  0  0  0  0  0  0  0  0  0  0  0  # atno 6908 bound_to 6896
  151.6531  133.3283  159.3192 H   0  0  0  0  0  0  0  0  0  0  0  0  # atno 6909 bound_to 6896
  145.2682  140.9290  143.3002 H   0  0  0  0  0  0  0  0  0  0  0  0  # atno 7974 bound_to 7965
  156.2524  140.1963  156.6668 H   0  0  0  0  0  0  0  0  0  0  0  0  # atno 8008 bound_to 7997
  154.6423  140.0582  156.9885 H   0  0  0  0  0  0  0  0  0  0  0  0  # atno 8009 bound_to 7997
  155.1544  140.3254  155.4427 H   0  0  0  0  0  0  0  0  0  0  0  0  # atno 8010 bound_to 7997
  139.5375  144.6698  151.4734 H   0  0  0  0  0  0  0  0  0  0  0  0  # atno 10167 bound_to 10162
  157.5041  131.1095  150.9386 H   0  0  0  0  0  0  0  0  0  0  0  0  # atno 10718 bound_to 10713
  153.9164  135.6787  153.4749 H   0  0  0  0  0  0  0  0  0  0  0  0  # atno 10763 bound_to 10752
  153.1051  135.4809  154.8934 H   0  0  0  0  0  0  0  0  0  0  0  0  # atno 10764 bound_to 10752
  154.7500  135.3182  154.8530 H   0  0  0  0  0  0  0  0  0  0  0  0  # atno 10765 bound_to 10752
  140.8384  134.2432  157.4822 H   0  0  0  0  0  0  0  0  0  0  0  0  # atno 11005 bound_to 11000
  144.9358  139.4245  143.6473 LP  0  0  0  0  0  0  0  0  0  0  0  0  # atno 17320 bound_to 7965
  146.3255  139.8293  142.8911 LP  0  0  0  0  0  0  0  0  0  0  0  0  # atno 17321 bound_to 7965
  140.6590  143.8539  150.6866 LP  0  0  0  0  0  0  0  0  0  0  0  0  # atno 17342 bound_to 10162
  140.1928  143.4023  152.1851 LP  0  0  0  0  0  0  0  0  0  0  0  0  # atno 17343 bound_to 10162
  157.0047  130.5613  149.5315 LP  0  0  0  0  0  0  0  0  0  0  0  0  # atno 17370 bound_to 10713
  156.0247  130.5341  150.8374 LP  0  0  0  0  0  0  0  0  0  0  0  0  # atno 17371 bound_to 10713
  139.8703  134.9622  156.4422 LP  0  0  0  0  0  0  0  0  0  0  0  0  # atno 17394 bound_to 11000
  140.8922  133.7840  155.9585 LP  0  0  0  0  0  0  0  0  0  0  0  0  # atno 17395 bound_to 11000

$$$$
