AV-unprocessed.smi:2375|AV-procd|sdf|9443|dock5
  -GOLD-   2272013 73D 1   1.00000     0.00000
 Structure written by MMmdl.
 37 38  0  0  0  0  0  0  0  0  1 V2000
  144.7572  144.6015  153.4751 C   0  0  0  0  0  0  0  0  0  0  0  0
  145.5528  143.6123  154.2567 C   0  0  0  0  0  0  0  0  0  0  0  0
  145.4965  143.3671  155.6062 C   0  0  0  0  0  0  0  0  0  0  0  0
  146.3633  142.3591  156.0331 N   0  0  0  0  0  0  0  0  0  0  0  0
  147.0712  141.8344  155.0288 C   0  0  0  0  0  0  0  0  0  0  0  0
  148.0454  140.7069  155.1950 C   0  0  1  0  0  0  0  0  0  0  0  0
  147.5996  139.4399  154.4521 C   0  0  0  0  0  0  0  0  0  0  0  0
  149.5008  141.1124  154.8740 C   0  0  0  0  0  0  0  0  0  0  0  0
  149.9328  142.2838  155.6297 N   0  0  0  0  0  0  0  0  0  0  0  0
  150.8953  142.2933  156.5660 C   0  0  0  0  0  0  0  0  0  0  0  0
  151.5904  141.3151  156.8340 O   0  0  0  0  0  0  0  0  0  0  0  0
  151.0450  143.4701  157.2001 N   0  0  0  0  0  0  0  0  0  0  0  0
  151.9984  143.8013  158.2613 C   0  0  0  0  0  0  0  0  0  0  0  0
  151.8638  142.8498  159.4746 C   0  0  0  0  0  0  0  0  0  0  0  0
  151.9271  143.7745  160.6605 C   0  0  0  0  0  0  0  0  0  0  0  0
  151.8984  145.0577  160.3064 C   0  0  0  0  0  0  0  0  0  0  0  0
  151.8091  145.2369  158.8164 C   0  0  0  0  0  0  0  0  0  0  0  0
  146.7205  142.5807  153.4738 S   0  0  0  0  0  0  0  0  0  0  0  0
  144.1631  145.2358  154.1336 H   0  0  0  0  0  0  0  0  0  0  0  0
  144.0761  144.0937  152.7922 H   0  0  0  0  0  0  0  0  0  0  0  0
  145.4102  145.2458  152.8864 H   0  0  0  0  0  0  0  0  0  0  0  0
  144.8653  143.8555  156.3338 H   0  0  0  0  0  0  0  0  0  0  0  0
  148.0273  140.4531  156.2557 H   0  0  0  0  0  0  0  0  0  0  0  0
  146.6079  139.1236  154.7768 H   0  0  0  0  0  0  0  0  0  0  0  0
  148.2876  138.6148  154.6383 H   0  0  0  0  0  0  0  0  0  0  0  0
  147.5619  139.6048  153.3750 H   0  0  0  0  0  0  0  0  0  0  0  0
  150.1810  140.2756  155.0412 H   0  0  0  0  0  0  0  0  0  0  0  0
  149.5822  141.3676  153.8170 H   0  0  0  0  0  0  0  0  0  0  0  0
  149.4217  143.1397  155.4702 H   0  0  0  0  0  0  0  0  0  0  0  0
  150.4722  144.2340  156.8718 H   0  0  0  0  0  0  0  0  0  0  0  0
  153.0169  143.7041  157.8806 H   0  0  0  0  0  0  0  0  0  0  0  0
  150.9108  142.3191  159.4862 H   0  0  0  0  0  0  0  0  0  0  0  0
  152.6701  142.1162  159.5063 H   0  0  0  0  0  0  0  0  0  0  0  0
  151.9665  143.4087  161.6759 H   0  0  0  0  0  0  0  0  0  0  0  0
  151.9099  145.8956  160.9882 H   0  0  0  0  0  0  0  0  0  0  0  0
  152.5788  145.9187  158.4538 H   0  0  0  0  0  0  0  0  0  0  0  0
  150.8314  145.6519  158.5703 H   0  0  0  0  0  0  0  0  0  0  0  0
  1  2  1  0  0  0  0
  1 19  1  0  0  0  0
  1 20  1  0  0  0  0
  1 21  1  0  0  0  0
  2 18  1  0  0  0  0
  2  3  2  0  0  0  0
  3  4  1  0  0  0  0
  3 22  1  0  0  0  0
  4  5  2  0  0  0  0
  5  6  1  0  0  0  0
  5 18  1  0  0  0  0
  6  7  1  0  0  0  0
  6  8  1  0  0  0  0
  6 23  1  0  0  0  0
  7 24  1  0  0  0  0
  7 25  1  0  0  0  0
  7 26  1  0  0  0  0
  8  9  1  0  0  0  0
  8 27  1  0  0  0  0
  8 28  1  0  0  0  0
  9 10  1  0  0  0  0
  9 29  1  0  0  0  0
 10 11  2  0  0  0  0
 10 12  1  0  0  0  0
 12 13  1  0  0  0  0
 12 30  1  0  0  0  0
 13 17  1  0  0  0  0
 13 14  1  0  0  0  0
 13 31  1  0  0  0  0
 14 15  1  0  0  0  0
 14 32  1  0  0  0  0
 14 33  1  0  0  0  0
 15 16  2  0  0  0  0
 15 34  1  0  0  0  0
 16 17  1  0  0  0  0
 16 35  1  0  0  0  0
 17 36  1  0  0  0  0
 17 37  1  0  0  0  0
M  END
> <s_m_source_file>
AV-unprocessed.smi

> <i_m_source_file_index>
2375

> <i_lp_mmshare_version>
43012

> <i_f3d_flags>
0

> <s_epik_input>
W0NIM11jMVtjSF1uYyhzMSlbQ0BIXShbQ0gzXSlbQ0gyXVtOSF1DKD1PKVtOSF1bQ0hdMltDSDJdW0NIXT1bQ0hdW0NIMl0y

> <s_epik_cmdline>
J2VwaWtfcHl0aG9uJywgJy1waCcsICc3LjAnLCAnLXRuJywgJzgnLCAnLW1hJywgJzIwMCcsICctbWV0YWxfYmluZGluZycsICctaW1hZScsICc8aW5maWxlLm1hZT4nLCAnLW9tYWUnLCAnPG91dGZpbGUubWFlPic=

> <r_epik_Ionization_Penalty>
0.000644205

> <r_epik_Ionization_Penalty_Charging>
0

> <r_epik_Ionization_Penalty_Neutral>
0.000644205

> <r_epik_State_Penalty>
0.000370883

> <r_epik_Charging_Adjusted_Penalty>
0.000370883

> <i_epik_Tot_Q>
0

> <i_epik_Tot_abs_Q>
0

> <r_epik_Metal_State_Penalty>
-0

> <b_epik_Metal_Only>
0

> <s_lp_Force_Field>
OPLS_2005

> <r_lp_Energy>
15.8173

> <b_lp_Chiralities_Consistent>
1

> <s_lp_Variant>
AV-unprocessed.smi:2375-2

> <Gold.Version>
5.8.1

> <Gold.Id.Protein>
6NUR|6NUR_protein|mol2

> <Gold.PLP.Fitness>
46.1086

> <Gold.PLP.PLP>
-40.4337

> <Gold.PLP.part.hbond>
-2.0000

> <Gold.PLP.part.metal>
0.0000

> <Gold.PLP.part.buried>
-5.0873

> <Gold.PLP.part.nonpolar>
-33.3943

> <Gold.PLP.part.repulsive>
0.3413

> <Gold.PLP.ligand.clash>
0.0000

> <Gold.PLP.ligand.torsion>
0.0848

> <Gold.PLP.Chemscore.Hbond>
1.9120

> <Gold.PLP.Chemscore.CHOScore>
0.0000

> <Gold.PLP.Chemscore.Metal>
0.0000

> <Gold.Chemscore.Hbonds>
donor molecule, donor type, donor heavy atom, donor atom, acceptor molecule, acceptor atom, score
      L1  H     9    29       P1  8028  1.00
      L1  H    12    30       P1  8028  0.91

> <Gold.PLP.Chemscore.Internal.Correction>
0.1084

> <Gold.Rescore>
     Score         DG    S(hbond)    S(metal)    S(lipo)     H(rot)  DE(clash)    DE(int)     intcor
     19.93     -20.05       1.92        0.00     102.55       1.50       0.04       0.08       ----

> <Gold.Chemscore.Fitness>
19.9279

> <Gold.Chemscore.DG>
-20.0543

> <Gold.Chemscore.ZeroCoef>
-5.4800

> <Gold.Chemscore.Hbond>
1.9218

> <Gold.Chemscore.Metal>
0.0000

> <Gold.Chemscore.Lipo>
102.5498

> <Gold.Chemscore.Internal_Hbond>
0.0000

> <Gold.Chemscore.DEClash>
0.0419

> <Gold.Chemscore.DEInternal>
0.0844

> <Gold.Chemscore.Rot>
1.5012

> <Gold.Chemscore.Internal.Correction>
   9.000000E+99

> <Gold.Chemscore.Hbonds>
donor molecule, donor type, donor heavy atom, donor atom, acceptor molecule, acceptor atom, score
      L1  H     9    29       P1  8028  1.00
      L1  H    12    30       P1  8028  0.80

> <Gold.Chemscore.Hbond.Weighted>
-6.4189

> <Gold.Chemscore.Metal.Weighted>
-0.0000

> <Gold.Chemscore.Lipo.Weighted>
-11.9983

> <Gold.Chemscore.Internal_Hbond.Weighted>
0.0000

> <Gold.Chemscore.DEClash.Weighted>
0.0419

> <Gold.Chemscore.DEInternal.Weighted>
0.0844

> <Gold.Chemscore.Rot.Weighted>
3.8429

> <Gold.Chemscore.Internal.Correction.Weighted>
   9.000000E+99

> <Gold.Protein.RotatedTorsions>
[ 6907 6896 6895 6894 ] final  145.69 input  -60.11 | X-H torsion
[ 7974 7965 7964 7962 ] final   67.26 input  175.53 | X-H torsion
[ 8008 7997 7996 7995 ] final  -63.20 input   59.86 | X-H torsion
[ 10167 10162 10161 10158 ] final  110.42 input  -65.29 | X-H torsion
[ 10718 10713 10712 10709 ] final  125.87 input   66.30 | X-H torsion
[ 10763 10752 10751 10750 ] final -143.32 input  -60.55 | X-H torsion
[ 11005 11000 10999 10996 ] final -155.67 input  -57.11 | X-H torsion

> <Gold.Protein.ActiveResidues>
 VAL166  LYS551  ARG553  GLY616  TRP617  ASP618  TYR619  PRO620  LYS621  CYS622 
 ASP623  PHE694  ASN695  SER759  ASP760  ASP761  ALA762  ILE779  LEU786  VAL792 
 PHE793  MET794  SER795  GLU796  ALA797  LYS798  CYS799  TRP800  GLU811  SER814 

> <Gold.Protein.RotatedAtoms>
  152.1777  133.4686  159.4941 H   0  0  0  0  0  0  0  0  0  0  0  0  # atno 6907 bound_to 6896
  150.6929  134.1873  159.4281 H   0  0  0  0  0  0  0  0  0  0  0  0  # atno 6908 bound_to 6896
  151.9783  135.0041  160.0607 H   0  0  0  0  0  0  0  0  0  0  0  0  # atno 6909 bound_to 6896
  145.8168  139.3062  143.1067 H   0  0  0  0  0  0  0  0  0  0  0  0  # atno 7974 bound_to 7965
  154.4541  140.0980  156.6706 H   0  0  0  0  0  0  0  0  0  0  0  0  # atno 8008 bound_to 7997
  155.5192  140.3478  155.4385 H   0  0  0  0  0  0  0  0  0  0  0  0  # atno 8009 bound_to 7997
  156.0742  140.1357  156.9780 H   0  0  0  0  0  0  0  0  0  0  0  0  # atno 8010 bound_to 7997
  139.6689  144.7126  151.1724 H   0  0  0  0  0  0  0  0  0  0  0  0  # atno 10167 bound_to 10162
  157.5467  131.1095  150.8770 H   0  0  0  0  0  0  0  0  0  0  0  0  # atno 10718 bound_to 10713
  154.8475  135.3471  154.6168 H   0  0  0  0  0  0  0  0  0  0  0  0  # atno 10763 bound_to 10752
  153.6777  135.6982  153.5132 H   0  0  0  0  0  0  0  0  0  0  0  0  # atno 10764 bound_to 10752
  153.2693  135.4298  155.0928 H   0  0  0  0  0  0  0  0  0  0  0  0  # atno 10765 bound_to 10752
  140.6840  134.4114  157.5224 H   0  0  0  0  0  0  0  0  0  0  0  0  # atno 11005 bound_to 11000
  145.9718  140.8754  143.0158 LP  0  0  0  0  0  0  0  0  0  0  0  0  # atno 17320 bound_to 7965
  144.6751  140.1956  143.7392 LP  0  0  0  0  0  0  0  0  0  0  0  0  # atno 17321 bound_to 7965
  140.7610  143.5875  150.8831 LP  0  0  0  0  0  0  0  0  0  0  0  0  # atno 17342 bound_to 10162
  139.9539  143.6241  152.3021 LP  0  0  0  0  0  0  0  0  0  0  0  0  # atno 17343 bound_to 10162
  156.9307  130.5348  149.5279 LP  0  0  0  0  0  0  0  0  0  0  0  0  # atno 17370 bound_to 10713
  156.0542  130.5606  150.9054 LP  0  0  0  0  0  0  0  0  0  0  0  0  # atno 17371 bound_to 10713
  139.8943  134.8709  156.2183 LP  0  0  0  0  0  0  0  0  0  0  0  0  # atno 17394 bound_to 11000
  141.0295  133.6996  156.1405 LP  0  0  0  0  0  0  0  0  0  0  0  0  # atno 17395 bound_to 11000

$$$$
