AV-unprocessed.smi:1986|AV-procd|sdf|8050|dock5
  -GOLD-   2272010253D 1   1.00000     0.00000
 Structure written by MMmdl.
 47 48  0  0  0  0  0  0  0  0  1 V2000
  145.5502  137.8258  152.1708 C   0  0  0  0  0  0  0  0  0  0  0  0
  146.8506  138.4295  152.7318 C   0  0  0  0  0  0  0  0  0  0  0  0
  146.9603  138.4686  154.2899 C   0  0  1  0  0  0  0  0  0  0  0  0
  145.8540  139.4398  154.7843 C   0  0  0  0  0  0  0  0  0  0  0  0
  146.6388  137.0419  154.8359 C   0  0  0  0  0  0  0  0  0  0  0  0
  147.1059  135.9776  153.9497 N   0  0  0  0  0  0  0  0  0  0  0  0
  146.7211  134.6943  153.9970 C   0  0  0  0  0  0  0  0  0  0  0  0
  145.8747  134.2674  154.7831 O   0  0  0  0  0  0  0  0  0  0  0  0
  147.3880  133.7559  152.9813 C   0  0  0  0  0  0  0  0  0  0  0  0
  146.4337  133.1552  152.0386 N   0  0  0  0  0  0  0  0  0  0  0  0
  145.7462  134.0754  151.2621 N   0  0  0  0  0  0  0  0  0  0  0  0
  144.8757  133.6692  150.4010 C   0  0  0  0  0  0  0  0  0  0  0  0
  144.2162  134.6144  149.6547 O   0  0  0  0  0  0  0  0  0  0  0  0
  144.5993  132.2606  150.2227 C   0  0  0  0  0  0  0  0  0  0  0  0
  145.2780  131.3714  150.9802 C   0  0  0  0  0  0  0  0  0  0  0  0
  146.2739  131.7978  151.9649 C   0  0  0  0  0  0  0  0  0  0  0  0
  146.9115  131.0100  152.6638 O   0  0  0  0  0  0  0  0  0  0  0  0
  148.3042  138.9469  154.7224 N   0  0  0  0  0  0  0  0  0  0  0  0
  149.4306  138.0992  154.3136 C   0  0  0  0  0  0  0  0  0  0  0  0
  150.7613  138.5774  154.9191 C   0  0  0  0  0  0  0  0  0  0  0  0
  150.9956  139.9322  154.5540 O   0  0  0  0  0  0  0  0  0  0  0  0
  149.9514  140.7981  154.9817 C   0  0  0  0  0  0  0  0  0  0  0  0
  148.6163  140.3382  154.3726 C   0  0  0  0  0  0  0  0  0  0  0  0
  144.6755  134.6470  148.8296 H   0  0  0  0  0  0  0  0  0  0  0  0
  145.5601  137.8484  151.0811 H   0  0  0  0  0  0  0  0  0  0  0  0
  144.6705  138.3794  152.4984 H   0  0  0  0  0  0  0  0  0  0  0  0
  145.4243  136.7860  152.4711 H   0  0  0  0  0  0  0  0  0  0  0  0
  147.6791  137.8573  152.3130 H   0  0  0  0  0  0  0  0  0  0  0  0
  146.9804  139.4300  152.3190 H   0  0  0  0  0  0  0  0  0  0  0  0
  144.8991  139.2626  154.2882 H   0  0  0  0  0  0  0  0  0  0  0  0
  146.1211  140.4807  154.5997 H   0  0  0  0  0  0  0  0  0  0  0  0
  145.6684  139.3371  155.8536 H   0  0  0  0  0  0  0  0  0  0  0  0
  147.0793  136.9124  155.8248 H   0  0  0  0  0  0  0  0  0  0  0  0
  145.5651  136.9011  154.9567 H   0  0  0  0  0  0  0  0  0  0  0  0
  147.8003  136.2357  153.2636 H   0  0  0  0  0  0  0  0  0  0  0  0
  148.1466  134.3273  152.4433 H   0  0  0  0  0  0  0  0  0  0  0  0
  147.9322  132.9676  153.5053 H   0  0  0  0  0  0  0  0  0  0  0  0
  143.8662  131.9374  149.4985 H   0  0  0  0  0  0  0  0  0  0  0  0
  145.0816  130.3165  150.8577 H   0  0  0  0  0  0  0  0  0  0  0  0
  149.2763  137.0675  154.6248 H   0  0  0  0  0  0  0  0  0  0  0  0
  149.5249  138.0924  153.2279 H   0  0  0  0  0  0  0  0  0  0  0  0
  150.7475  138.4827  156.0061 H   0  0  0  0  0  0  0  0  0  0  0  0
  151.5852  137.9636  154.5548 H   0  0  0  0  0  0  0  0  0  0  0  0
  149.8963  140.8050  156.0715 H   0  0  0  0  0  0  0  0  0  0  0  0
  150.1812  141.8158  154.6661 H   0  0  0  0  0  0  0  0  0  0  0  0
  148.6693  140.4541  153.2901 H   0  0  0  0  0  0  0  0  0  0  0  0
  147.8399  141.0147  154.7250 H   0  0  0  0  0  0  0  0  0  0  0  0
  1  2  1  0  0  0  0
  1 25  1  0  0  0  0
  1 26  1  0  0  0  0
  1 27  1  0  0  0  0
  2  3  1  0  0  0  0
  2 28  1  0  0  0  0
  2 29  1  0  0  0  0
  3  4  1  0  0  0  0
  3  5  1  0  0  0  0
  3 18  1  0  0  0  0
  4 30  1  0  0  0  0
  4 31  1  0  0  0  0
  4 32  1  0  0  0  0
  5  6  1  0  0  0  0
  5 33  1  0  0  0  0
  5 34  1  0  0  0  0
  6  7  1  0  0  0  0
  6 35  1  0  0  0  0
  7  8  2  0  0  0  0
  7  9  1  0  0  0  0
  9 36  1  0  0  0  0
  9 37  1  0  0  0  0
  9 10  1  0  0  0  0
 10 11  1  0  0  0  0
 10 16  1  0  0  0  0
 11 12  2  0  0  0  0
 12 13  1  0  0  0  0
 12 14  1  0  0  0  0
 13 24  1  0  0  0  0
 14 38  1  0  0  0  0
 14 15  2  0  0  0  0
 15 39  1  0  0  0  0
 15 16  1  0  0  0  0
 16 17  2  0  0  0  0
 18 23  1  0  0  0  0
 18 19  1  0  0  0  0
 19 20  1  0  0  0  0
 19 40  1  0  0  0  0
 19 41  1  0  0  0  0
 20 21  1  0  0  0  0
 20 42  1  0  0  0  0
 20 43  1  0  0  0  0
 21 22  1  0  0  0  0
 22 23  1  0  0  0  0
 22 44  1  0  0  0  0
 22 45  1  0  0  0  0
 23 46  1  0  0  0  0
 23 47  1  0  0  0  0
M  END
> <s_m_source_file>
AV-unprocessed.smi

> <i_m_source_file_index>
1986

> <i_lp_mmshare_version>
43012

> <i_f3d_flags>
0

> <s_epik_input>
W0NIMl0xW0NIMl1PW0NIMl1bQ0gyXU4xW0NAQF0oW0NIM10pKFtDSDJdW0NIM10pW0NIMl1bTkhdQyg9TylbQ0gyXW4yW25IXWMoPU8pW2NIXVtjSF1jMj1P

> <s_epik_cmdline>
J2VwaWtfcHl0aG9uJywgJy1waCcsICc3LjAnLCAnLXRuJywgJzgnLCAnLW1hJywgJzIwMCcsICctbWV0YWxfYmluZGluZycsICctaW1hZScsICc8aW5maWxlLm1hZT4nLCAnLW9tYWUnLCAnPG91dGZpbGUubWFlPic=

> <r_epik_Ionization_Penalty>
2.44436

> <r_epik_Ionization_Penalty_Charging>
3.63754e-08

> <r_epik_Ionization_Penalty_Neutral>
2.44436

> <r_epik_State_Penalty>
2.04701

> <r_epik_Charging_Adjusted_Penalty>
2.04701

> <i_epik_Tot_Q>
0

> <i_epik_Tot_abs_Q>
0

> <r_epik_Metal_State_Penalty>
2.04701

> <b_epik_Metal_Only>
0

> <s_lp_Force_Field>
OPLS_2005

> <r_lp_Energy>
55.4417

> <b_lp_Chiralities_Consistent>
1

> <s_lp_Variant>
AV-unprocessed.smi:1986-5

> <Gold.Version>
5.8.1

> <Gold.Id.Protein>
6NUR|6NUR_protein|mol2

> <Gold.PLP.Fitness>
37.7822

> <Gold.PLP.PLP>
-30.0226

> <Gold.PLP.part.hbond>
-3.3475

> <Gold.PLP.part.metal>
0.0000

> <Gold.PLP.part.buried>
-0.7782

> <Gold.PLP.part.nonpolar>
-26.6274

> <Gold.PLP.part.repulsive>
0.5233

> <Gold.PLP.ligand.clash>
0.0127

> <Gold.PLP.ligand.torsion>
0.6788

> <Gold.PLP.Chemscore.Hbond>
3.0000

> <Gold.PLP.Chemscore.CHOScore>
0.0000

> <Gold.PLP.Chemscore.Metal>
0.0000

> <Gold.Chemscore.Hbonds>
donor molecule, donor type, donor heavy atom, donor atom, acceptor molecule, acceptor atom, score
      L1  H     6    35       P1  7948  1.00
      L1  H    13    24       P1  7921  1.00
      P1  H  7989  7998       L1    21  0.90

> <Gold.PLP.Chemscore.Internal.Correction>
0.1300

> <Gold.Rescore>
     Score         DG    S(hbond)    S(metal)    S(lipo)     H(rot)  DE(clash)    DE(int)     intcor
     14.10     -15.02       2.93        0.00      64.96       3.06       0.29       0.63       ----

> <Gold.Chemscore.Fitness>
14.1047

> <Gold.Chemscore.DG>
-15.0243

> <Gold.Chemscore.ZeroCoef>
-5.4800

> <Gold.Chemscore.Hbond>
2.9290

> <Gold.Chemscore.Metal>
0.0000

> <Gold.Chemscore.Lipo>
64.9584

> <Gold.Chemscore.Internal_Hbond>
0.0000

> <Gold.Chemscore.DEClash>
0.2851

> <Gold.Chemscore.DEInternal>
0.6346

> <Gold.Chemscore.Rot>
3.0620

> <Gold.Chemscore.Internal.Correction>
   9.000000E+99

> <Gold.Chemscore.Hbonds>
donor molecule, donor type, donor heavy atom, donor atom, acceptor molecule, acceptor atom, score
      L1  H     6    35       P1  7948  1.00
      L1  H    13    24       P1  7921  0.99
      P1  H  7989  7998       L1    21  0.17

> <Gold.Chemscore.Hbond.Weighted>
-9.7829

> <Gold.Chemscore.Metal.Weighted>
-0.0000

> <Gold.Chemscore.Lipo.Weighted>
-7.6001

> <Gold.Chemscore.Internal_Hbond.Weighted>
0.0000

> <Gold.Chemscore.DEClash.Weighted>
0.2851

> <Gold.Chemscore.DEInternal.Weighted>
0.6346

> <Gold.Chemscore.Rot.Weighted>
7.8387

> <Gold.Chemscore.Internal.Correction.Weighted>
   9.000000E+99

> <Gold.Protein.RotatedTorsions>
[ 6907 6896 6895 6894 ] final  -80.70 input  -60.11 | X-H torsion
[ 7974 7965 7964 7962 ] final   44.36 input  175.53 | X-H torsion
[ 8008 7997 7996 7995 ] final  -57.02 input   59.86 | X-H torsion
[ 10167 10162 10161 10158 ] final  166.97 input  -65.29 | X-H torsion
[ 10718 10713 10712 10709 ] final   50.64 input   66.30 | X-H torsion
[ 10763 10752 10751 10750 ] final -132.96 input  -60.55 | X-H torsion
[ 11005 11000 10999 10996 ] final   50.00 input  -57.11 | X-H torsion

> <Gold.Protein.ActiveResidues>
 VAL166  LYS551  ARG553  GLY616  TRP617  ASP618  TYR619  PRO620  LYS621  CYS622 
 ASP623  PHE694  ASN695  SER759  ASP760  ASP761  ALA762  ILE779  LEU786  VAL792 
 PHE793  MET794  SER795  GLU796  ALA797  LYS798  CYS799  TRP800  GLU811  SER814 

> <Gold.Protein.RotatedAtoms>
  150.6924  134.3929  159.5084 H   0  0  0  0  0  0  0  0  0  0  0  0  # atno 6907 bound_to 6896
  152.1715  134.8828  160.0543 H   0  0  0  0  0  0  0  0  0  0  0  0  # atno 6908 bound_to 6896
  151.9852  133.3737  159.4160 H   0  0  0  0  0  0  0  0  0  0  0  0  # atno 6909 bound_to 6896
  146.0575  139.5083  142.9679 H   0  0  0  0  0  0  0  0  0  0  0  0  # atno 7974 bound_to 7965
  154.4252  140.1116  156.5730 H   0  0  0  0  0  0  0  0  0  0  0  0  # atno 8008 bound_to 7997
  155.6192  140.3495  155.4627 H   0  0  0  0  0  0  0  0  0  0  0  0  # atno 8009 bound_to 7997
  156.0038  140.1204  157.0511 H   0  0  0  0  0  0  0  0  0  0  0  0  # atno 8010 bound_to 7997
  139.4935  144.3971  151.9452 H   0  0  0  0  0  0  0  0  0  0  0  0  # atno 10167 bound_to 10162
  157.4904  130.8372  149.8196 H   0  0  0  0  0  0  0  0  0  0  0  0  # atno 10718 bound_to 10713
  154.8738  135.3781  154.4494 H   0  0  0  0  0  0  0  0  0  0  0  0  # atno 10763 bound_to 10752
  153.5172  135.7029  153.5755 H   0  0  0  0  0  0  0  0  0  0  0  0  # atno 10764 bound_to 10752
  153.4019  135.3946  155.1959 H   0  0  0  0  0  0  0  0  0  0  0  0  # atno 10765 bound_to 10752
  140.1055  134.5024  155.8724 H   0  0  0  0  0  0  0  0  0  0  0  0  # atno 11005 bound_to 11000
  145.6617  141.0239  143.1705 LP  0  0  0  0  0  0  0  0  0  0  0  0  # atno 17320 bound_to 7965
  144.7156  139.8208  143.7400 LP  0  0  0  0  0  0  0  0  0  0  0  0  # atno 17321 bound_to 7965
  140.3409  144.3204  150.5967 LP  0  0  0  0  0  0  0  0  0  0  0  0  # atno 17342 bound_to 10162
  140.5566  143.2198  151.7836 LP  0  0  0  0  0  0  0  0  0  0  0  0  # atno 17343 bound_to 10162
  156.0170  130.3810  150.2079 LP  0  0  0  0  0  0  0  0  0  0  0  0  # atno 17370 bound_to 10713
  157.0268  130.9995  151.3324 LP  0  0  0  0  0  0  0  0  0  0  0  0  # atno 17371 bound_to 10713
  141.2117  133.6710  156.6602 LP  0  0  0  0  0  0  0  0  0  0  0  0  # atno 17394 bound_to 11000
  140.3162  134.8046  157.4216 LP  0  0  0  0  0  0  0  0  0  0  0  0  # atno 17395 bound_to 11000

$$$$
