AV-unprocessed.smi:252|AV-procd|sdf|1940|dock10
  -GOLD-   2262021 63D 1   1.00000     0.00000
 Structure written by MMmdl.
 56 59  0  0  0  0  0  0  0  0  1 V2000
  146.2362  143.3368  156.5721 C   0  0  0  0  0  0  0  0  0  0  0  0
  145.9142  143.7353  158.0199 C   0  0  0  0  0  0  0  0  0  0  0  0
  147.0269  143.3540  159.0004 C   0  0  0  0  0  0  0  0  0  0  0  0
  146.8254  142.5002  159.8640 O   0  0  0  0  0  0  0  0  0  0  0  0
  148.1941  144.0040  158.8526 N   0  0  0  0  0  0  0  0  0  0  0  0
  149.4160  143.8319  159.6399 C   0  0  2  0  0  0  0  0  0  0  0  0
  150.1127  145.1715  159.9571 C   0  0  0  0  0  0  0  0  0  0  0  0
  151.3560  144.9226  160.8234 C   0  0  0  0  0  0  0  0  0  0  0  0
  152.2984  143.9103  160.1521 C   0  0  0  0  0  0  0  0  0  0  0  0
  151.5915  142.6698  159.8320 N   0  0  0  0  0  0  0  0  0  0  0  0
  152.3972  141.6052  159.5877 C   0  0  0  0  0  0  0  0  0  0  0  0
  152.3203  140.9534  158.3964 N   0  0  0  0  0  0  0  0  0  0  0  0
  153.1216  139.9146  158.1420 C   0  0  0  0  0  0  0  0  0  0  0  0
  154.0546  139.3689  158.9245 N   0  0  0  0  0  0  0  0  0  0  0  0
  154.1319  140.0127  160.1242 C   0  0  0  0  0  0  0  0  0  0  0  0
  153.3452  141.1257  160.5354 C   0  0  0  0  0  0  0  0  0  0  0  0
  153.6923  141.4972  161.8294 N   0  0  0  0  0  0  0  0  0  0  0  0
  154.6385  140.6613  162.1583 C   0  0  0  0  0  0  0  0  0  0  0  0
  154.9737  139.7427  161.1894 N   0  0  0  0  0  0  0  0  0  0  0  0
  155.9947  138.7112  161.2847 C   0  0  0  0  0  0  0  0  0  0  0  0
  155.6270  137.5763  162.2699 C   0  0  1  0  0  0  0  0  0  0  0  0
  156.7910  136.8076  162.5288 O   0  0  0  0  0  0  0  0  0  0  0  0
  155.0676  138.0642  163.5983 C   0  0  0  0  0  0  0  0  0  0  0  0
  154.2714  136.8598  164.0839 C   0  0  0  0  0  0  0  0  0  0  0  0
  153.7177  136.2907  162.9045 O   0  0  0  0  0  0  0  0  0  0  0  0
  154.4790  136.6769  161.7607 C   0  0  2  0  0  0  0  0  0  0  0  0
  154.8829  135.4488  160.9293 C   0  0  0  0  0  0  0  0  0  0  0  0
  150.3995  142.8305  158.9970 C   0  0  0  0  0  0  0  0  0  0  0  0
  145.4376  143.6504  155.8996 H   0  0  0  0  0  0  0  0  0  0  0  0
  146.3460  142.2568  156.4683 H   0  0  0  0  0  0  0  0  0  0  0  0
  147.1597  143.8042  156.2280 H   0  0  0  0  0  0  0  0  0  0  0  0
  145.7352  144.8104  158.0666 H   0  0  0  0  0  0  0  0  0  0  0  0
  144.9913  143.2511  158.3394 H   0  0  0  0  0  0  0  0  0  0  0  0
  148.2432  144.6898  158.1130 H   0  0  0  0  0  0  0  0  0  0  0  0
  149.0883  143.4024  160.5875 H   0  0  0  0  0  0  0  0  0  0  0  0
  150.4156  145.6760  159.0392 H   0  0  0  0  0  0  0  0  0  0  0  0
  149.4273  145.8443  160.4736 H   0  0  0  0  0  0  0  0  0  0  0  0
  151.8819  145.8607  161.0018 H   0  0  0  0  0  0  0  0  0  0  0  0
  151.0529  144.5455  161.8011 H   0  0  0  0  0  0  0  0  0  0  0  0
  152.6966  144.3322  159.2282 H   0  0  0  0  0  0  0  0  0  0  0  0
  153.1528  143.7286  160.8032 H   0  0  0  0  0  0  0  0  0  0  0  0
  152.9997  139.4571  157.1712 H   0  0  0  0  0  0  0  0  0  0  0  0
  155.1260  140.6965  163.1219 H   0  0  0  0  0  0  0  0  0  0  0  0
  156.1537  138.3058  160.2847 H   0  0  0  0  0  0  0  0  0  0  0  0
  156.9361  139.1780  161.5777 H   0  0  0  0  0  0  0  0  0  0  0  0
  156.5322  136.0111  162.9664 H   0  0  0  0  0  0  0  0  0  0  0  0
  155.8317  138.3874  164.3065 H   0  0  0  0  0  0  0  0  0  0  0  0
  154.3866  138.9007  163.4347 H   0  0  0  0  0  0  0  0  0  0  0  0
  154.9309  136.1290  164.5540 H   0  0  0  0  0  0  0  0  0  0  0  0
  153.4967  137.1290  164.8018 H   0  0  0  0  0  0  0  0  0  0  0  0
  153.8029  137.2852  161.1582 H   0  0  0  0  0  0  0  0  0  0  0  0
  155.4726  135.7412  160.0600 H   0  0  0  0  0  0  0  0  0  0  0  0
  154.0001  134.9211  160.5683 H   0  0  0  0  0  0  0  0  0  0  0  0
  155.4699  134.7400  161.5139 H   0  0  0  0  0  0  0  0  0  0  0  0
  149.9041  141.8669  158.8692 H   0  0  0  0  0  0  0  0  0  0  0  0
  150.7069  143.1700  158.0073 H   0  0  0  0  0  0  0  0  0  0  0  0
  1  2  1  0  0  0  0
  1 29  1  0  0  0  0
  1 30  1  0  0  0  0
  1 31  1  0  0  0  0
  2  3  1  0  0  0  0
  2 32  1  0  0  0  0
  2 33  1  0  0  0  0
  3  4  2  0  0  0  0
  3  5  1  0  0  0  0
  5  6  1  0  0  0  0
  5 34  1  0  0  0  0
  6 28  1  0  0  0  0
  6  7  1  0  0  0  0
  6 35  1  0  0  0  0
  7  8  1  0  0  0  0
  7 36  1  0  0  0  0
  7 37  1  0  0  0  0
  8  9  1  0  0  0  0
  8 38  1  0  0  0  0
  8 39  1  0  0  0  0
  9 10  1  0  0  0  0
  9 40  1  0  0  0  0
  9 41  1  0  0  0  0
 10 11  1  0  0  0  0
 10 28  1  0  0  0  0
 11 16  1  0  0  0  0
 11 12  2  0  0  0  0
 12 13  1  0  0  0  0
 13 14  2  0  0  0  0
 13 42  1  0  0  0  0
 14 15  1  0  0  0  0
 15 19  1  0  0  0  0
 15 16  2  0  0  0  0
 16 17  1  0  0  0  0
 17 18  2  0  0  0  0
 18 19  1  0  0  0  0
 18 43  1  0  0  0  0
 19 20  1  0  0  0  0
 20 21  1  0  0  0  0
 20 44  1  0  0  0  0
 20 45  1  0  0  0  0
 21 26  1  0  0  0  0
 21 22  1  0  0  0  0
 21 23  1  0  0  0  0
 22 46  1  0  0  0  0
 23 24  1  0  0  0  0
 23 47  1  0  0  0  0
 23 48  1  0  0  0  0
 24 25  1  0  0  0  0
 24 49  1  0  0  0  0
 24 50  1  0  0  0  0
 25 26  1  0  0  0  0
 26 27  1  0  0  0  0
 26 51  1  0  0  0  0
 27 52  1  0  0  0  0
 27 53  1  0  0  0  0
 27 54  1  0  0  0  0
 28 55  1  0  0  0  0
 28 56  1  0  0  0  0
M  END
> <s_m_source_file>
AV-unprocessed.smi

> <i_m_source_file_index>
252

> <i_lp_mmshare_version>
43012

> <i_f3d_flags>
0

> <s_epik_input>
W0NIM11bQ0gyXUMoPU8pW05IXVtDQEBIXTFbQ0gyXVtDSDJdW0NIMl1OKFtDSDJdMSljKG5bY0hdbjIpYyhjMjMpbltjSF1uM1tDSDJdW0NAQF00KFtPSF0pW0NIMl1bQ0gyXU9bQ0BIXTRbQ0gzXQ==

> <s_epik_cmdline>
J2VwaWtfcHl0aG9uJywgJy1waCcsICc3LjAnLCAnLXRuJywgJzgnLCAnLW1hJywgJzIwMCcsICctbWV0YWxfYmluZGluZycsICctaW1hZScsICc8aW5maWxlLm1hZT4nLCAnLW9tYWUnLCAnPG91dGZpbGUubWFlPic=

> <r_lp_tautomer_probability>
1

> <r_epik_Ionization_Penalty>
0.00182575

> <r_epik_Ionization_Penalty_Charging>
0

> <r_epik_Ionization_Penalty_Neutral>
0.00182575

> <r_epik_State_Penalty>
0.00104524

> <r_epik_Charging_Adjusted_Penalty>
0.00104524

> <i_epik_Tot_Q>
0

> <i_epik_Tot_abs_Q>
0

> <r_epik_Metal_State_Penalty>
-0

> <b_epik_Metal_Only>
0

> <s_lp_Force_Field>
OPLS_2005

> <r_lp_Energy>
36.8902

> <b_lp_Chiralities_Consistent>
1

> <s_lp_Variant>
AV-unprocessed.smi:252-5

> <Gold.Version>
5.8.1

> <Gold.Id.Protein>
6NUR|6NUR_protein|mol2

> <Gold.PLP.Fitness>
48.2974

> <Gold.PLP.PLP>
-40.8441

> <Gold.PLP.part.hbond>
-3.1458

> <Gold.PLP.part.metal>
0.0000

> <Gold.PLP.part.buried>
-3.4911

> <Gold.PLP.part.nonpolar>
-34.4420

> <Gold.PLP.part.repulsive>
0.1519

> <Gold.PLP.ligand.clash>
0.0000

> <Gold.PLP.ligand.torsion>
0.8290

> <Gold.PLP.Chemscore.Hbond>
2.8834

> <Gold.PLP.Chemscore.CHOScore>
0.0000

> <Gold.PLP.Chemscore.Metal>
0.0000

> <Gold.Chemscore.Hbonds>
donor molecule, donor type, donor heavy atom, donor atom, acceptor molecule, acceptor atom, score
      L1  H     5    34       P1  8029  1.00
      P1  H  6933  6944       L1     4  0.23
      P1  H  6934  6946       L1     4  0.98

> <Gold.PLP.Chemscore.Internal.Correction>
0.4611

> <Gold.Rescore>
     Score         DG    S(hbond)    S(metal)    S(lipo)     H(rot)  DE(clash)    DE(int)     intcor
     15.51     -16.24       2.31        0.00      85.15       2.70       0.12       0.61       ----

> <Gold.Chemscore.Fitness>
15.5145

> <Gold.Chemscore.DG>
-16.2391

> <Gold.Chemscore.ZeroCoef>
-5.4800

> <Gold.Chemscore.Hbond>
2.3111

> <Gold.Chemscore.Metal>
0.0000

> <Gold.Chemscore.Lipo>
85.1493

> <Gold.Chemscore.Internal_Hbond>
0.0000

> <Gold.Chemscore.DEClash>
0.1195

> <Gold.Chemscore.DEInternal>
0.6050

> <Gold.Chemscore.Rot>
2.7041

> <Gold.Chemscore.Internal.Correction>
   9.000000E+99

> <Gold.Chemscore.Hbonds>
donor molecule, donor type, donor heavy atom, donor atom, acceptor molecule, acceptor atom, score
      L1  H     5    34       P1  8029  0.52
      P1  H  6933  6944       L1     4  0.21
      P1  H  6934  6946       L1     4  0.93

> <Gold.Chemscore.Hbond.Weighted>
-7.7191

> <Gold.Chemscore.Metal.Weighted>
-0.0000

> <Gold.Chemscore.Lipo.Weighted>
-9.9625

> <Gold.Chemscore.Internal_Hbond.Weighted>
0.0000

> <Gold.Chemscore.DEClash.Weighted>
0.1195

> <Gold.Chemscore.DEInternal.Weighted>
0.6050

> <Gold.Chemscore.Rot.Weighted>
6.9225

> <Gold.Chemscore.Internal.Correction.Weighted>
   9.000000E+99

> <Gold.Protein.RotatedTorsions>
[ 6907 6896 6895 6894 ] final   49.67 input  -60.11 | X-H torsion
[ 7974 7965 7964 7962 ] final -118.28 input  175.53 | X-H torsion
[ 8008 7997 7996 7995 ] final  130.31 input   59.86 | X-H torsion
[ 10167 10162 10161 10158 ] final  -11.26 input  -65.29 | X-H torsion
[ 10718 10713 10712 10709 ] final  107.37 input   66.30 | X-H torsion
[ 10763 10752 10751 10750 ] final  -36.21 input  -60.55 | X-H torsion
[ 11005 11000 10999 10996 ] final  -23.05 input  -57.11 | X-H torsion

> <Gold.Protein.ActiveResidues>
 VAL166  LYS551  ARG553  GLY616  TRP617  ASP618  TYR619  PRO620  LYS621  CYS622 
 ASP623  PHE694  ASN695  SER759  ASP760  ASP761  ALA762  ILE779  LEU786  VAL792 
 PHE793  MET794  SER795  GLU796  ALA797  LYS798  CYS799  TRP800  GLU811  SER814 

> <Gold.Protein.RotatedAtoms>
  152.2933  134.7696  160.0373 H   0  0  0  0  0  0  0  0  0  0  0  0  # atno 6907 bound_to 6896
  151.8235  133.3393  159.3599 H   0  0  0  0  0  0  0  0  0  0  0  0  # atno 6908 bound_to 6896
  150.7240  134.5480  159.5825 H   0  0  0  0  0  0  0  0  0  0  0  0  # atno 6909 bound_to 6896
  145.0756  140.8390  143.4069 H   0  0  0  0  0  0  0  0  0  0  0  0  # atno 7974 bound_to 7965
  156.2952  140.2599  156.2740 H   0  0  0  0  0  0  0  0  0  0  0  0  # atno 8008 bound_to 7997
  154.9667  140.0391  157.2234 H   0  0  0  0  0  0  0  0  0  0  0  0  # atno 8009 bound_to 7997
  154.7897  140.2809  155.6006 H   0  0  0  0  0  0  0  0  0  0  0  0  # atno 8010 bound_to 7997
  140.7134  143.5658  150.9146 H   0  0  0  0  0  0  0  0  0  0  0  0  # atno 10167 bound_to 10162
  157.6631  131.0871  150.6147 H   0  0  0  0  0  0  0  0  0  0  0  0  # atno 10718 bound_to 10713
  153.8760  135.6826  153.4770 H   0  0  0  0  0  0  0  0  0  0  0  0  # atno 10763 bound_to 10752
  153.1260  135.4718  154.9271 H   0  0  0  0  0  0  0  0  0  0  0  0  # atno 10764 bound_to 10752
  154.7691  135.3233  154.8177 H   0  0  0  0  0  0  0  0  0  0  0  0  # atno 10765 bound_to 10752
  140.8715  133.7717  156.0192 H   0  0  0  0  0  0  0  0  0  0  0  0  # atno 11005 bound_to 11000
  145.1239  139.2675  143.5574 LP  0  0  0  0  0  0  0  0  0  0  0  0  # atno 17320 bound_to 7965
  146.3530  140.0871  142.8614 LP  0  0  0  0  0  0  0  0  0  0  0  0  # atno 17321 bound_to 7965
  139.9384  143.6411  152.3060 LP  0  0  0  0  0  0  0  0  0  0  0  0  # atno 17342 bound_to 10162
  139.6887  144.7649  151.1478 LP  0  0  0  0  0  0  0  0  0  0  0  0  # atno 17343 bound_to 10162
  156.6448  130.4468  149.5739 LP  0  0  0  0  0  0  0  0  0  0  0  0  # atno 17370 bound_to 10713
  156.2181  130.6720  151.1340 LP  0  0  0  0  0  0  0  0  0  0  0  0  # atno 17371 bound_to 10713
  140.8568  134.2889  157.5252 LP  0  0  0  0  0  0  0  0  0  0  0  0  # atno 17394 bound_to 11000
  139.8712  134.9497  156.4033 LP  0  0  0  0  0  0  0  0  0  0  0  0  # atno 17395 bound_to 11000

$$$$
