#       Name:                AV-unprocessed.smi:1716
#       Creating user name   scv26
#       Creation time:       Fri Mar 27 08:12:06 2020


#       File generated by GOLD software.
#

@<TRIPOS>MOLECULE
AV-unprocessed.smi:1716
    45    46     1
SMALL
NO_CHARGES


@<TRIPOS>ATOM
      1 ****        -4.4482  -3.7437  -0.7460 C.3            1 S1                 0.0000
      2 ****        -4.1374  -2.8562   0.4615 C.2            1 S1                 0.0000
      3 ****        -4.2305  -3.3538   1.5838 O.2            1 S1                 0.0000
      4 ****        -3.7711  -1.5673   0.2600 N.am           1 S1                 0.0000
      5 ****        -3.3898  -0.6694   1.3566 C.3            1 S1                 0.0000
      6 ****        -1.8787  -0.3884   1.2708 C.3            1 S1                 0.0000
      7 ****        -1.4907   0.1835  -0.1122 C.3            1 S1                 0.0000
      8 ****        -0.0394   0.2654  -0.2484 N.am           1 S1                 0.0000
      9 ****         0.7275   1.2581   0.2266 C.2            1 S1                 0.0000
     10 ****         0.2797   2.2250   0.8440 O.2            1 S1                 0.0000
     11 ****         2.0247   1.0491  -0.0605 N.am           1 S1                 0.0000
     12 ****         3.1468   1.8644   0.2610 C.ar           1 S1                 0.0000
     13 ****         3.0321   3.0329   0.9414 N.ar           1 S1                 0.0000
     14 ****         4.1372   3.7567   1.2124 C.ar           1 S1                 0.0000
     15 ****         5.4281   3.3616   0.8222 C.ar           1 S1                 0.0000
     16 ****         5.5654   2.1538   0.1169 C.ar           1 S1                 0.0000
     17 ****         4.4145   1.3897  -0.1712 C.ar           1 S1                 0.0000
     18 ****         4.5615   0.0828  -0.9337 C.3            1 S1                 0.0000
     19 ****        -2.0723  -0.6736  -1.2568 C.3            1 S1                 0.0000
     20 ****        -3.5752  -0.9339  -1.0502 C.3            1 S1                 0.0000
     21 ****        -3.5866  -3.8085  -1.4113 H              1 S1                 0.0000
     22 ****        -5.2999  -3.3531  -1.3035 H              1 S1                 0.0000
     23 ****        -4.6965  -4.7557  -0.4248 H              1 S1                 0.0000
     24 ****        -3.9497   0.2630   1.2718 H              1 S1                 0.0000
     25 ****        -3.6353  -1.0736   2.3395 H              1 S1                 0.0000
     26 ****        -1.5867   0.3043   2.0609 H              1 S1                 0.0000
     27 ****        -1.3328  -1.3149   1.4550 H              1 S1                 0.0000
     28 ****        -1.9157   1.1851  -0.2023 H              1 S1                 0.0000
     29 ****         0.4128  -0.4906  -0.7414 H              1 S1                 0.0000
     30 ****         2.2380   0.2060  -0.5722 H              1 S1                 0.0000
     31 ****         3.9868   4.6778   1.7557 H              1 S1                 0.0000
     32 ****         6.2892   3.9692   1.0578 H              1 S1                 0.0000
     33 ****         6.5438   1.8212  -0.1975 H              1 S1                 0.0000
     34 ****         5.6041  -0.1165  -1.1832 H              1 S1                 0.0000
     35 ****         3.9953   0.1178  -1.8647 H              1 S1                 0.0000
     36 ****         4.1947  -0.7518  -0.3357 H              1 S1                 0.0000
     37 ****        -1.9091  -0.1784  -2.2147 H              1 S1                 0.0000
     38 ****        -1.5486  -1.6296  -1.3091 H              1 S1                 0.0000
     39 ****        -3.9670  -1.5177  -1.8815 H              1 S1                 0.0000
     40 ****        -4.1224   0.0095  -1.0759 H              1 S1                 0.0000
     41 ****        -4.5023  -4.3108   1.6854 LP             1 S1                 0.0000
     42 ****        -4.0343  -2.8010   2.3937 LP             1 S1                 0.0000
     43 ****        -0.7030   2.2983   1.0137 LP             1 S1                 0.0000
     44 ****         0.8989   2.9368   1.1756 LP             1 S1                 0.0000
     45 ****         2.1338   3.3552   1.2399 LP             1 S1                 0.0000
@<TRIPOS>BOND
    1    1    2 1     
    2    1   21 1     
    3    1   22 1     
    4    1   23 1     
    5    2    3 2     
    6    2    4 am    
    7    4   20 1     
    8    4    5 1     
    9    5    6 1     
   10    5   24 1     
   11    5   25 1     
   12    6    7 1     
   13    6   26 1     
   14    6   27 1     
   15    7    8 1     
   16    7   19 1     
   17    7   28 1     
   18    8    9 am    
   19    8   29 1     
   20    9   10 2     
   21    9   11 am    
   22   11   12 1     
   23   11   30 1     
   24   12   17 ar    
   25   12   13 ar    
   26   13   14 ar    
   27   14   15 ar    
   28   14   31 1     
   29   15   16 ar    
   30   15   32 1     
   31   16   17 ar    
   32   16   33 1     
   33   17   18 1     
   34   18   34 1     
   35   18   35 1     
   36   18   36 1     
   37   19   20 1     
   38   19   37 1     
   39   19   38 1     
   40   20   39 1     
   41   20   40 1     
   42    3   41 1     
   43    3   42 1     
   44   10   43 1     
   45   10   44 1     
   46   13   45 1     
@<TRIPOS>SUBSTRUCTURE
      1 S1             1
@<TRIPOS>SET
LONE_PAIRS      STATIC     ATOMS    <user>   **** ""
5 41 42 43 44 45
DONOR_HYDROGENS      STATIC     ATOMS    <user>   **** ""
2 29 30
ATOM$BLUE        STATIC     ATOMS    COLORGROUP SYSTEM
5 41 42 43 44 45
ATOM$RED        STATIC     ATOMS    COLORGROUP SYSTEM
2 29 30
