AV-unprocessed.smi:2955|AV-procd|sdf|11304|dock6
  -GOLD-   2272016203D 1   1.00000     0.00000
 Structure written by MMmdl.
 46 48  0  0  0  0  0  0  0  0  2 V2000
  151.9990  144.3625  160.4504 C   0  0  0  0  0  0  0  0  0  0  0  0
  152.5147  142.9482  160.2795 C   0  0  0  0  0  0  0  0  0  0  0  0
  153.5130  142.4505  161.1401 C   0  0  0  0  0  0  0  0  0  0  0  0
  153.9892  141.1367  160.9777 C   0  0  0  0  0  0  0  0  0  0  0  0
  153.4679  140.3197  159.9569 C   0  0  0  0  0  0  0  0  0  0  0  0
  152.4666  140.8006  159.0887 C   0  0  0  0  0  0  0  0  0  0  0  0
  152.0136  139.9338  158.1183 O   0  0  0  0  0  0  0  0  0  0  0  0
  150.9170  140.3382  157.3088 C   0  0  0  0  0  0  0  0  0  0  0  0
  151.3923  140.4913  155.8574 C   0  0  0  0  0  0  0  0  0  0  0  0
  150.4733  139.8544  154.9015 N   0  0  0  0  0  0  0  0  0  0  0  0
  150.5959  138.6975  154.1857 C   0  0  0  0  0  0  0  0  0  0  0  0
  151.7613  137.7509  154.1829 C   0  0  1  0  0  0  0  0  0  0  0  0
  153.0922  138.5161  154.2170 C   0  0  0  0  0  0  0  0  0  0  0  0
  151.6995  136.8193  155.3020 N   0  0  0  0  0  0  0  0  0  0  0  0
  150.7295  135.9123  155.4712 C   0  0  0  0  0  0  0  0  0  0  0  0
  149.7931  135.7769  154.6883 O   0  0  0  0  0  0  0  0  0  0  0  0
  149.4633  138.5693  153.4363 N   0  3  0  0  0  0  0  0  0  0  0  0
  148.6018  139.6359  153.6905 C   0  0  0  0  0  0  0  0  0  0  0  0
  147.3424  139.9318  153.1781 C   0  0  0  0  0  0  0  0  0  0  0  0
  146.7259  141.1073  153.6545 C   0  0  0  0  0  0  0  0  0  0  0  0
  147.3598  141.9357  154.6034 C   0  0  0  0  0  0  0  0  0  0  0  0
  148.6374  141.6257  155.1143 C   0  0  0  0  0  0  0  0  0  0  0  0
  149.2415  140.4631  154.6356 C   0  0  0  0  0  0  0  0  0  0  0  0
  151.9918  142.1258  159.2598 C   0  0  0  0  0  0  0  0  0  0  0  0
  152.7279  144.9864  160.9688 H   0  0  0  0  0  0  0  0  0  0  0  0
  151.0759  144.3592  161.0302 H   0  0  0  0  0  0  0  0  0  0  0  0
  151.7951  144.8182  159.4810 H   0  0  0  0  0  0  0  0  0  0  0  0
  153.9166  143.0731  161.9252 H   0  0  0  0  0  0  0  0  0  0  0  0
  154.7554  140.7552  161.6363 H   0  0  0  0  0  0  0  0  0  0  0  0
  153.8423  139.3137  159.8386 H   0  0  0  0  0  0  0  0  0  0  0  0
  150.1178  139.5970  157.3588 H   0  0  0  0  0  0  0  0  0  0  0  0
  150.5178  141.2908  157.6599 H   0  0  0  0  0  0  0  0  0  0  0  0
  151.5123  141.5422  155.5941 H   0  0  0  0  0  0  0  0  0  0  0  0
  152.3754  140.0376  155.7336 H   0  0  0  0  0  0  0  0  0  0  0  0
  151.7445  137.1721  153.2588 H   0  0  0  0  0  0  0  0  0  0  0  0
  153.1706  139.2000  153.3713 H   0  0  0  0  0  0  0  0  0  0  0  0
  153.9392  137.8313  154.1645 H   0  0  0  0  0  0  0  0  0  0  0  0
  153.1971  139.1034  155.1299 H   0  0  0  0  0  0  0  0  0  0  0  0
  152.4417  136.8612  155.9854 H   0  0  0  0  0  0  0  0  0  0  0  0
  150.8799  135.3136  156.3829 H   0  0  0  0  0  0  0  0  0  0  0  0
  146.8544  139.2973  152.4529 H   0  0  0  0  0  0  0  0  0  0  0  0
  145.7470  141.3782  153.2861 H   0  0  0  0  0  0  0  0  0  0  0  0
  146.8558  142.8277  154.9465 H   0  0  0  0  0  0  0  0  0  0  0  0
  149.1116  142.2662  155.8428 H   0  0  0  0  0  0  0  0  0  0  0  0
  151.2258  142.5341  158.6182 H   0  0  0  0  0  0  0  0  0  0  0  0
  149.2941  137.8011  152.7999 H   0  0  0  0  0  0  0  0  0  0  0  0
  1  2  1  0  0  0  0
  1 25  1  0  0  0  0
  1 26  1  0  0  0  0
  1 27  1  0  0  0  0
  2 24  1  0  0  0  0
  2  3  2  0  0  0  0
  3  4  1  0  0  0  0
  3 28  1  0  0  0  0
  4  5  2  0  0  0  0
  4 29  1  0  0  0  0
  5  6  1  0  0  0  0
  5 30  1  0  0  0  0
  6  7  1  0  0  0  0
  6 24  2  0  0  0  0
  7  8  1  0  0  0  0
  8  9  1  0  0  0  0
  8 31  1  0  0  0  0
  8 32  1  0  0  0  0
  9 10  1  0  0  0  0
  9 33  1  0  0  0  0
  9 34  1  0  0  0  0
 10 23  1  0  0  0  0
 10 11  1  0  0  0  0
 11 12  1  0  0  0  0
 11 17  2  0  0  0  0
 12 13  1  0  0  0  0
 12 14  1  0  0  0  0
 12 35  1  0  0  0  0
 13 36  1  0  0  0  0
 13 37  1  0  0  0  0
 13 38  1  0  0  0  0
 14 15  1  0  0  0  0
 14 39  1  0  0  0  0
 15 16  2  0  0  0  0
 15 40  1  0  0  0  0
 17 18  1  0  0  0  0
 17 46  1  0  0  0  0
 18 23  2  0  0  0  0
 18 19  1  0  0  0  0
 19 20  2  0  0  0  0
 19 41  1  0  0  0  0
 20 21  1  0  0  0  0
 20 42  1  0  0  0  0
 21 22  2  0  0  0  0
 21 43  1  0  0  0  0
 22 23  1  0  0  0  0
 22 44  1  0  0  0  0
 24 45  1  0  0  0  0
M  CHG  1  17   1
M  END
> <s_m_source_file>
AV-unprocessed.smi

> <i_m_source_file_index>
2955

> <i_lp_mmshare_version>
43012

> <i_f3d_flags>
0

> <s_epik_input>
W0NIM11jMVtjSF1bY0hdW2NIXWMoW2NIXTEpT1tDSDJdW0NIMl1uKGMobjIpW0NASF0oW0NIM10pW05IXVtDSF09TyljKGMyMylbY0hdW2NIXVtjSF1bY0hdMw==

> <s_epik_cmdline>
J2VwaWtfcHl0aG9uJywgJy1waCcsICc3LjAnLCAnLXRuJywgJzgnLCAnLW1hJywgJzIwMCcsICctbWV0YWxfYmluZGluZycsICctaW1hZScsICc8aW5maWxlLm1hZT4nLCAnLW9tYWUnLCAnPG91dGZpbGUubWFlPic=

> <r_lp_tautomer_probability>
1

> <r_epik_Ionization_Penalty>
1.15027

> <r_epik_Ionization_Penalty_Charging>
1.15027

> <r_epik_Ionization_Penalty_Neutral>
5.5802e-08

> <r_epik_State_Penalty>
1.21159

> <r_epik_Charging_Adjusted_Penalty>
2.36186

> <i_epik_Tot_Q>
1

> <i_epik_Tot_abs_Q>
1

> <r_epik_Metal_State_Penalty>
1.29223

> <b_epik_Metal_Only>
0

> <s_lp_Force_Field>
OPLS_2005

> <r_lp_Energy>
16.9999

> <b_lp_Chiralities_Consistent>
1

> <s_lp_Variant>
AV-unprocessed.smi:2955-4

> <Gold.Version>
5.8.1

> <Gold.Id.Protein>
6NUR|6NUR_protein|mol2

> <Gold.PLP.Fitness>
57.0162

> <Gold.PLP.PLP>
-53.9231

> <Gold.PLP.part.hbond>
-2.0000

> <Gold.PLP.part.metal>
0.0000

> <Gold.PLP.part.buried>
-0.7153

> <Gold.PLP.part.nonpolar>
-51.6813

> <Gold.PLP.part.repulsive>
0.3291

> <Gold.PLP.ligand.clash>
0.0000

> <Gold.PLP.ligand.torsion>
1.5108

> <Gold.PLP.Chemscore.Hbond>
2.0000

> <Gold.PLP.Chemscore.CHOScore>
0.0000

> <Gold.PLP.Chemscore.Metal>
0.0000

> <Gold.Chemscore.Hbonds>
donor molecule, donor type, donor heavy atom, donor atom, acceptor molecule, acceptor atom, score
      L1  H    17    46       P1  7948  2.00

> <Gold.PLP.Chemscore.Internal.Correction>
0.1148

> <Gold.Rescore>
     Score         DG    S(hbond)    S(metal)    S(lipo)     H(rot)  DE(clash)    DE(int)     intcor
     16.65     -19.21       0.99        0.00     139.95       2.32       1.18       1.39       ----

> <Gold.Chemscore.Fitness>
16.6453

> <Gold.Chemscore.DG>
-19.2117

> <Gold.Chemscore.ZeroCoef>
-5.4800

> <Gold.Chemscore.Hbond>
0.9889

> <Gold.Chemscore.Metal>
0.0000

> <Gold.Chemscore.Lipo>
139.9476

> <Gold.Chemscore.Internal_Hbond>
0.0000

> <Gold.Chemscore.DEClash>
1.1750

> <Gold.Chemscore.DEInternal>
1.3913

> <Gold.Chemscore.Rot>
2.3223

> <Gold.Chemscore.Internal.Correction>
   9.000000E+99

> <Gold.Chemscore.Hbonds>
donor molecule, donor type, donor heavy atom, donor atom, acceptor molecule, acceptor atom, score
      L1  H    17    46       P1  7948  0.94

> <Gold.Chemscore.Hbond.Weighted>
-3.3028

> <Gold.Chemscore.Metal.Weighted>
-0.0000

> <Gold.Chemscore.Lipo.Weighted>
-16.3739

> <Gold.Chemscore.Internal_Hbond.Weighted>
0.0000

> <Gold.Chemscore.DEClash.Weighted>
1.1750

> <Gold.Chemscore.DEInternal.Weighted>
1.3913

> <Gold.Chemscore.Rot.Weighted>
5.9450

> <Gold.Chemscore.Internal.Correction.Weighted>
   9.000000E+99

> <Gold.Protein.RotatedTorsions>
[ 6907 6896 6895 6894 ] final -154.20 input  -60.11 | X-H torsion
[ 7974 7965 7964 7962 ] final  -11.49 input  175.53 | X-H torsion
[ 8008 7997 7996 7995 ] final   -8.44 input   59.86 | X-H torsion
[ 10167 10162 10161 10158 ] final -160.30 input  -65.29 | X-H torsion
[ 10718 10713 10712 10709 ] final  169.58 input   66.30 | X-H torsion
[ 10763 10752 10751 10750 ] final   71.24 input  -60.55 | X-H torsion
[ 11005 11000 10999 10996 ] final -176.39 input  -57.11 | X-H torsion

> <Gold.Protein.ActiveResidues>
 VAL166  LYS551  ARG553  GLY616  TRP617  ASP618  TYR619  PRO620  LYS621  CYS622 
 ASP623  PHE694  ASN695  SER759  ASP760  ASP761  ALA762  ILE779  LEU786  VAL792 
 PHE793  MET794  SER795  GLU796  ALA797  LYS798  CYS799  TRP800  GLU811  SER814 

> <Gold.Protein.RotatedAtoms>
  151.2539  133.4336  159.2612 H   0  0  0  0  0  0  0  0  0  0  0  0  # atno 6907 bound_to 6896
  151.0592  134.9725  159.8262 H   0  0  0  0  0  0  0  0  0  0  0  0  # atno 6908 bound_to 6896
  152.5395  134.2490  159.8944 H   0  0  0  0  0  0  0  0  0  0  0  0  # atno 6909 bound_to 6896
  146.2185  140.2918  142.8369 H   0  0  0  0  0  0  0  0  0  0  0  0  # atno 7974 bound_to 7965
  154.5741  140.2381  155.8149 H   0  0  0  0  0  0  0  0  0  0  0  0  # atno 8008 bound_to 7997
  156.2129  140.3020  155.9731 H   0  0  0  0  0  0  0  0  0  0  0  0  # atno 8009 bound_to 7997
  155.2659  140.0416  157.2992 H   0  0  0  0  0  0  0  0  0  0  0  0  # atno 8010 bound_to 7997
  139.6550  144.0015  152.2187 H   0  0  0  0  0  0  0  0  0  0  0  0  # atno 10167 bound_to 10162
  157.0206  131.0231  151.2775 H   0  0  0  0  0  0  0  0  0  0  0  0  # atno 10718 bound_to 10713
  153.0388  135.5144  154.7564 H   0  0  0  0  0  0  0  0  0  0  0  0  # atno 10763 bound_to 10752
  154.6518  135.2926  154.9979 H   0  0  0  0  0  0  0  0  0  0  0  0  # atno 10764 bound_to 10752
  154.0861  135.6657  153.4897 H   0  0  0  0  0  0  0  0  0  0  0  0  # atno 10765 bound_to 10752
  140.4526  134.6329  157.4808 H   0  0  0  0  0  0  0  0  0  0  0  0  # atno 11005 bound_to 11000
  144.9121  140.7769  143.5801 LP  0  0  0  0  0  0  0  0  0  0  0  0  # atno 17320 bound_to 7965
  145.2850  139.1904  143.4771 LP  0  0  0  0  0  0  0  0  0  0  0  0  # atno 17321 bound_to 7965
  139.9739  144.6475  150.7963 LP  0  0  0  0  0  0  0  0  0  0  0  0  # atno 17342 bound_to 10162
  140.7555  143.3047  151.2991 LP  0  0  0  0  0  0  0  0  0  0  0  0  # atno 17343 bound_to 10162
  157.5252  130.8023  149.7854 LP  0  0  0  0  0  0  0  0  0  0  0  0  # atno 17370 bound_to 10713
  156.0103  130.3836  150.2286 LP  0  0  0  0  0  0  0  0  0  0  0  0  # atno 17371 bound_to 10713
  139.9997  134.6856  155.9551 LP  0  0  0  0  0  0  0  0  0  0  0  0  # atno 17394 bound_to 11000
  141.1657  133.6537  156.4472 LP  0  0  0  0  0  0  0  0  0  0  0  0  # atno 17395 bound_to 11000

$$$$
