#       Name:                AV-unprocessed.smi:2290
#       Creating user name   scv26
#       Creation time:       Fri Mar 27 12:42:56 2020


#       File generated by GOLD software.
#

@<TRIPOS>MOLECULE
AV-unprocessed.smi:2290
    45    46     1
SMALL
NO_CHARGES


@<TRIPOS>ATOM
      1 ****        -2.2037   5.3222  -0.1805 C.3            1 S1                 0.0000
      2 ****        -1.6298   3.9190  -0.2660 C.2            1 S1                 0.0000
      3 ****        -1.3153   3.4726  -1.5529 N.2            1 S1                 0.0000
      4 ****        -0.8206   2.2902  -1.7223 C.2            1 S1                 0.0000
      5 ****        -0.5849   1.4272  -0.6398 N.am           1 S1                 0.0000
      6 ****        -0.0106   0.1121  -0.9678 C.3            1 S1                 0.0000
      7 ****         1.5186   0.0711  -0.7488 C.3            1 S1                 0.0000
      8 ****         2.1953   0.6144  -1.8647 O.3            1 S1                 0.0000
      9 ****         2.0532  -1.3525  -0.5215 C.3            1 S1                 0.0000
     10 ****         1.4988  -2.2425  -1.4833 O.3            1 S1                 0.0000
     11 ****         1.8692  -3.6017  -1.2960 C.3            1 S1                 0.0000
     12 ****         1.0383  -4.1833  -0.1936 C.2            1 S1                 0.0000
     13 ****         1.4335  -5.0999   0.7473 C.2            1 S1                 0.0000
     14 ****         0.3929  -5.4615   1.6528 C.2            1 S1                 0.0000
     15 ****        -0.7885  -4.8224   1.3867 C.2            1 S1                 0.0000
     16 ****        -0.6467  -3.7631   0.0109 S.3            1 S1                 0.0000
     17 ****        -0.8581   1.7851   0.6483 C.2            1 S1                 0.0000
     18 ****        -0.6358   1.0237   1.5919 O.2            1 S1                 0.0000
     19 ****        -1.4245   3.1320   0.8254 C.2            1 S1                 0.0000
     20 ****        -1.7473   3.5645   2.2503 C.3            1 S1                 0.0000
     21 ****        -3.1988   5.3026   0.2648 H              1 S1                 0.0000
     22 ****        -2.2888   5.7772  -1.1683 H              1 S1                 0.0000
     23 ****        -1.5615   5.9608   0.4266 H              1 S1                 0.0000
     24 ****        -0.5546   1.8956  -2.7045 H              1 S1                 0.0000
     25 ****        -0.4849  -0.6364  -0.3304 H              1 S1                 0.0000
     26 ****        -0.2604  -0.2052  -1.9824 H              1 S1                 0.0000
     27 ****         1.7939   0.6701   0.1200 H              1 S1                 0.0000
     28 ****         1.9385   1.5185  -1.9618 H              1 S1                 0.0000
     29 ****         3.1436  -1.3705  -0.5619 H              1 S1                 0.0000
     30 ****         1.7680  -1.6749   0.4808 H              1 S1                 0.0000
     31 ****         1.6715  -4.1433  -2.2210 H              1 S1                 0.0000
     32 ****         2.9362  -3.6990  -1.0896 H              1 S1                 0.0000
     33 ****         2.4266  -5.5182   0.8184 H              1 S1                 0.0000
     34 ****         0.5447  -6.1690   2.4545 H              1 S1                 0.0000
     35 ****        -1.7296  -4.9114   1.9092 H              1 S1                 0.0000
     36 ****        -0.8439   3.5499   2.8610 H              1 S1                 0.0000
     37 ****        -2.4686   2.8790   2.6965 H              1 S1                 0.0000
     38 ****        -2.1675   4.5671   2.3109 H              1 S1                 0.0000
     39 ****        -1.4727   4.0671  -2.3414 LP             1 S1                 0.0000
     40 ****         1.9499   0.1040  -2.6889 LP             1 S1                 0.0000
     41 ****         3.1832   0.5584  -1.7198 LP             1 S1                 0.0000
     42 ****         1.8057  -1.9554  -2.3907 LP             1 S1                 0.0000
     43 ****         0.5022  -2.1786  -1.4328 LP             1 S1                 0.0000
     44 ****        -0.2457   0.1185   1.4228 LP             1 S1                 0.0000
     45 ****        -0.8454   1.3112   2.5265 LP             1 S1                 0.0000
@<TRIPOS>BOND
    1    1    2 1     
    2    1   21 1     
    3    1   22 1     
    4    1   23 1     
    5    2   19 2     
    6    2    3 1     
    7    3    4 2     
    8    4    5 1     
    9    4   24 1     
   10    5    6 1     
   11    5   17 am    
   12    6    7 1     
   13    6   25 1     
   14    6   26 1     
   15    7    8 1     
   16    7    9 1     
   17    7   27 1     
   18    8   28 1     
   19    9   10 1     
   20    9   29 1     
   21    9   30 1     
   22   10   11 1     
   23   11   12 1     
   24   11   31 1     
   25   11   32 1     
   26   12   16 1     
   27   12   13 2     
   28   13   14 1     
   29   13   33 1     
   30   14   15 2     
   31   14   34 1     
   32   15   16 1     
   33   15   35 1     
   34   17   18 2     
   35   17   19 1     
   36   19   20 1     
   37   20   36 1     
   38   20   37 1     
   39   20   38 1     
   40    3   39 1     
   41    8   40 1     
   42    8   41 1     
   43   10   42 1     
   44   10   43 1     
   45   18   44 1     
   46   18   45 1     
@<TRIPOS>SUBSTRUCTURE
      1 S1             1
@<TRIPOS>SET
LONE_PAIRS      STATIC     ATOMS    <user>   **** ""
7 39 40 41 42 43 44 45
DONOR_HYDROGENS      STATIC     ATOMS    <user>   **** ""
1 28
ATOM$BLUE        STATIC     ATOMS    COLORGROUP SYSTEM
7 39 40 41 42 43 44 45
ATOM$RED        STATIC     ATOMS    COLORGROUP SYSTEM
1 28
