AV-unprocessed.smi:1701|AV-procd|sdf|6833|dock7
  -GOLD-   22720 8 13D 1   1.00000     0.00000
 Structure written by MMmdl.
 54 56  0  0  0  0  0  0  0  0  2 V2000
  153.0186  139.9829  158.7742 C   0  0  0  0  0  0  0  0  0  0  0  0
  151.8283  140.9042  158.4648 C   0  0  0  0  0  0  0  0  0  0  0  0
  151.5870  141.0633  157.0313 N   0  0  0  0  0  0  0  0  0  0  0  0
  151.1366  142.3790  156.5721 C   0  0  0  0  0  0  0  0  0  0  0  0
  151.7471  143.5386  157.3754 C   0  0  0  0  0  0  0  0  0  0  0  0
  151.0647  139.9140  156.3993 C   0  0  0  0  0  0  0  0  0  0  0  0
  150.6602  138.8068  157.1786 C   0  0  0  0  0  0  0  0  0  0  0  0
  150.1277  137.6753  156.5340 C   0  0  0  0  0  0  0  0  0  0  0  0
  150.0104  137.6710  155.1305 C   0  0  0  0  0  0  0  0  0  0  0  0
  149.4493  136.5159  154.5216 N   0  0  0  0  0  0  0  0  0  0  0  0
  148.9212  135.4165  155.0949 C   0  0  0  0  0  0  0  0  0  0  0  0
  148.7689  135.2559  156.3029 O   0  0  0  0  0  0  0  0  0  0  0  0
  148.5534  134.4626  154.2197 N   0  0  0  0  0  0  0  0  0  0  0  0
  147.9516  133.1534  154.4919 C   0  0  2  0  0  0  0  0  0  0  0  0
  148.9603  131.9969  154.3525 C   0  0  0  0  0  0  0  0  0  0  0  0
  148.1756  130.8768  153.6629 C   0  0  0  0  0  0  0  0  0  0  0  0
  147.2567  131.6125  152.7872 N   0  3  1  0  0  0  0  0  0  0  0  0
  146.1605  130.8712  152.1316 C   0  0  0  0  0  0  0  0  0  0  0  0
  145.4667  131.8163  151.1272 C   0  0  0  0  0  0  0  0  0  0  0  0
  145.0367  133.1498  151.7798 C   0  0  0  0  0  0  0  0  0  0  0  0
  146.1944  133.8083  152.5609 C   0  0  0  0  0  0  0  0  0  0  0  0
  146.7817  132.7819  153.5471 C   0  0  2  0  0  0  0  0  0  0  0  0
  150.4326  138.8298  154.4350 C   0  0  0  0  0  0  0  0  0  0  0  0
  150.9449  139.9166  155.0497 N   0  0  0  0  0  0  0  0  0  0  0  0
  153.1581  139.8839  159.8506 H   0  0  0  0  0  0  0  0  0  0  0  0
  153.9465  140.3753  158.3571 H   0  0  0  0  0  0  0  0  0  0  0  0
  152.8651  138.9827  158.3683 H   0  0  0  0  0  0  0  0  0  0  0  0
  150.9272  140.4951  158.9227 H   0  0  0  0  0  0  0  0  0  0  0  0
  151.9831  141.8739  158.9376 H   0  0  0  0  0  0  0  0  0  0  0  0
  151.3596  142.4985  155.5113 H   0  0  0  0  0  0  0  0  0  0  0  0
  150.0508  142.4277  156.6591 H   0  0  0  0  0  0  0  0  0  0  0  0
  151.3486  144.4932  157.0321 H   0  0  0  0  0  0  0  0  0  0  0  0
  152.8311  143.5830  157.2738 H   0  0  0  0  0  0  0  0  0  0  0  0
  151.5142  143.4456  158.4364 H   0  0  0  0  0  0  0  0  0  0  0  0
  150.7623  138.8136  158.2538 H   0  0  0  0  0  0  0  0  0  0  0  0
  149.8143  136.8203  157.1155 H   0  0  0  0  0  0  0  0  0  0  0  0
  149.4432  136.5282  153.5127 H   0  0  0  0  0  0  0  0  0  0  0  0
  148.7365  134.6637  153.2470 H   0  0  0  0  0  0  0  0  0  0  0  0
  147.5835  133.1331  155.5194 H   0  0  0  0  0  0  0  0  0  0  0  0
  149.7935  132.2954  153.7139 H   0  0  0  0  0  0  0  0  0  0  0  0
  149.3772  131.6840  155.3105 H   0  0  0  0  0  0  0  0  0  0  0  0
  148.8176  130.1962  153.1026 H   0  0  0  0  0  0  0  0  0  0  0  0
  147.6076  130.2980  154.3931 H   0  0  0  0  0  0  0  0  0  0  0  0
  146.5625  130.0002  151.6131 H   0  0  0  0  0  0  0  0  0  0  0  0
  145.4525  130.5072  152.8780 H   0  0  0  0  0  0  0  0  0  0  0  0
  146.1523  132.0291  150.3058 H   0  0  0  0  0  0  0  0  0  0  0  0
  144.6025  131.3214  150.6831 H   0  0  0  0  0  0  0  0  0  0  0  0
  144.6611  133.8349  151.0190 H   0  0  0  0  0  0  0  0  0  0  0  0
  144.2053  132.9623  152.4607 H   0  0  0  0  0  0  0  0  0  0  0  0
  146.9633  134.1558  151.8694 H   0  0  0  0  0  0  0  0  0  0  0  0
  145.8222  134.6849  153.0908 H   0  0  0  0  0  0  0  0  0  0  0  0
  145.9688  132.4427  154.1930 H   0  0  0  0  0  0  0  0  0  0  0  0
  150.3530  138.9230  153.3642 H   0  0  0  0  0  0  0  0  0  0  0  0
  147.8345  131.9814  152.0454 H   0  0  0  0  0  0  0  0  0  0  0  0
  1  2  1  0  0  0  0
  1 25  1  0  0  0  0
  1 26  1  0  0  0  0
  1 27  1  0  0  0  0
  2  3  1  0  0  0  0
  2 28  1  0  0  0  0
  2 29  1  0  0  0  0
  3  4  1  0  0  0  0
  3  6  1  0  0  0  0
  4  5  1  0  0  0  0
  4 30  1  0  0  0  0
  4 31  1  0  0  0  0
  5 32  1  0  0  0  0
  5 33  1  0  0  0  0
  5 34  1  0  0  0  0
  6 24  1  0  0  0  0
  6  7  2  0  0  0  0
  7  8  1  0  0  0  0
  7 35  1  0  0  0  0
  8  9  2  0  0  0  0
  8 36  1  0  0  0  0
  9 10  1  0  0  0  0
  9 23  1  0  0  0  0
 10 11  1  0  0  0  0
 10 37  1  0  0  0  0
 11 12  2  0  0  0  0
 11 13  1  0  0  0  0
 13 14  1  0  0  0  0
 13 38  1  0  0  0  0
 14 22  1  0  0  0  0
 14 15  1  0  0  0  0
 14 39  1  0  0  0  0
 15 16  1  0  0  0  0
 15 40  1  0  0  0  0
 15 41  1  0  0  0  0
 16 17  1  0  0  0  0
 16 42  1  0  0  0  0
 16 43  1  0  0  0  0
 17 22  1  0  0  0  0
 17 18  1  0  0  0  0
 17 54  1  0  0  0  0
 18 19  1  0  0  0  0
 18 44  1  0  0  0  0
 18 45  1  0  0  0  0
 19 20  1  0  0  0  0
 19 46  1  0  0  0  0
 19 47  1  0  0  0  0
 20 21  1  0  0  0  0
 20 48  1  0  0  0  0
 20 49  1  0  0  0  0
 21 22  1  0  0  0  0
 21 50  1  0  0  0  0
 21 51  1  0  0  0  0
 22 52  1  0  0  0  0
 23 24  2  0  0  0  0
 23 53  1  0  0  0  0
M  CHG  1  17   1
M  END
> <s_m_source_file>
AV-unprocessed.smi

> <i_m_source_file_index>
1701

> <i_lp_mmshare_version>
43012

> <i_f3d_flags>
0

> <s_epik_input>
W0NIM11bQ0gyXU4oW0NIMl1bQ0gzXSljMVtjSF1bY0hdYyhbY0hdbjEpW05IXUMoPU8pW05IXVtDQEhdKFtDSDJdW0NIMl0yKVtDQEBIXShOMjMpW0NIMl1bQ0gyXVtDSDJdW0NIMl0z

> <s_epik_cmdline>
J2VwaWtfcHl0aG9uJywgJy1waCcsICc3LjAnLCAnLXRuJywgJzgnLCAnLW1hJywgJzIwMCcsICctbWV0YWxfYmluZGluZycsICctaW1hZScsICc8aW5maWxlLm1hZT4nLCAnLW9tYWUnLCAnPG91dGZpbGUubWFlPic=

> <r_lp_tautomer_probability>
1

> <r_epik_Ionization_Penalty>
0.56662

> <r_epik_Ionization_Penalty_Charging>
0.000974069

> <r_epik_Ionization_Penalty_Neutral>
0.565646

> <r_epik_State_Penalty>
2.0247

> <r_epik_Charging_Adjusted_Penalty>
2.02568

> <i_epik_Tot_Q>
1

> <i_epik_Tot_abs_Q>
1

> <r_epik_Metal_State_Penalty>
1.51504

> <b_epik_Metal_Only>
0

> <s_lp_Force_Field>
OPLS_2005

> <r_lp_Energy>
60.4427

> <b_lp_Chiralities_Consistent>
1

> <s_lp_Variant>
AV-unprocessed.smi:1701-13

> <Gold.Version>
5.8.1

> <Gold.Id.Protein>
6NUR|6NUR_protein|mol2

> <Gold.PLP.Fitness>
46.3597

> <Gold.PLP.PLP>
-36.1257

> <Gold.PLP.part.hbond>
-4.0000

> <Gold.PLP.part.metal>
0.0000

> <Gold.PLP.part.buried>
-3.8775

> <Gold.PLP.part.nonpolar>
-27.6947

> <Gold.PLP.part.repulsive>
0.1147

> <Gold.PLP.ligand.clash>
0.9553

> <Gold.PLP.ligand.torsion>
0.9230

> <Gold.PLP.Chemscore.Hbond>
3.0616

> <Gold.PLP.Chemscore.CHOScore>
0.9996

> <Gold.PLP.Chemscore.Metal>
0.0000

> <Gold.Chemscore.Hbonds>
donor molecule, donor type, donor heavy atom, donor atom, acceptor molecule, acceptor atom, score
      L1  H    10    37       P1  7948  1.00
      L1  H    13    38       P1  7948  0.83
      L1  H    17    54       P1 10747  0.07
      P1  H  7989  7998       L1    24  1.00
      L1  C    23    53       P1  7957  0.91

> <Gold.PLP.Chemscore.Internal.Correction>
0.8517

> <Gold.Rescore>
     Score         DG    S(hbond)    S(metal)    S(lipo)     H(rot)  DE(clash)    DE(int)     intcor
     17.81     -20.40       2.10        0.00      99.01       1.44       0.11       2.48       ----

> <Gold.Chemscore.Fitness>
17.8142

> <Gold.Chemscore.DG>
-20.4015

> <Gold.Chemscore.ZeroCoef>
-5.4800

> <Gold.Chemscore.Hbond>
2.1031

> <Gold.Chemscore.Metal>
0.0000

> <Gold.Chemscore.Lipo>
99.0135

> <Gold.Chemscore.Internal_Hbond>
0.0000

> <Gold.Chemscore.DEClash>
0.1104

> <Gold.Chemscore.DEInternal>
2.4769

> <Gold.Chemscore.Rot>
1.4404

> <Gold.Chemscore.Internal.Correction>
   9.000000E+99

> <Gold.Chemscore.Hbonds>
donor molecule, donor type, donor heavy atom, donor atom, acceptor molecule, acceptor atom, score
      L1  H    10    37       P1  7948  0.78
      L1  H    13    38       P1  7948  0.20
      L1  H    17    54       P1 10747  0.09
      P1  H  7989  7998       L1    24  0.25

> <Gold.Chemscore.Hbond.Weighted>
-7.0245

> <Gold.Chemscore.Metal.Weighted>
-0.0000

> <Gold.Chemscore.Lipo.Weighted>
-11.5846

> <Gold.Chemscore.Internal_Hbond.Weighted>
0.0000

> <Gold.Chemscore.DEClash.Weighted>
0.1104

> <Gold.Chemscore.DEInternal.Weighted>
2.4769

> <Gold.Chemscore.Rot.Weighted>
3.6875

> <Gold.Chemscore.Internal.Correction.Weighted>
   9.000000E+99

> <Gold.Protein.RotatedTorsions>
[ 6907 6896 6895 6894 ] final  116.56 input  -60.11 | X-H torsion
[ 7974 7965 7964 7962 ] final  157.11 input  175.53 | X-H torsion
[ 8008 7997 7996 7995 ] final  -65.36 input   59.86 | X-H torsion
[ 10167 10162 10161 10158 ] final   12.04 input  -65.29 | X-H torsion
[ 10718 10713 10712 10709 ] final -157.72 input   66.30 | X-H torsion
[ 10763 10752 10751 10750 ] final   76.32 input  -60.55 | X-H torsion
[ 11005 11000 10999 10996 ] final   50.08 input  -57.11 | X-H torsion

> <Gold.Protein.ActiveResidues>
 VAL166  LYS551  ARG553  GLY616  TRP617  ASP618  TYR619  PRO620  LYS621  CYS622 
 ASP623  PHE694  ASN695  SER759  ASP760  ASP761  ALA762  ILE779  LEU786  VAL792 
 PHE793  MET794  SER795  GLU796  ALA797  LYS798  CYS799  TRP800  GLU811  SER814 

> <Gold.Protein.RotatedAtoms>
  152.4670  133.7944  159.6919 H   0  0  0  0  0  0  0  0  0  0  0  0  # atno 6907 bound_to 6896
  150.8639  133.7593  159.2989 H   0  0  0  0  0  0  0  0  0  0  0  0  # atno 6908 bound_to 6896
  151.5150  135.1069  159.9915 H   0  0  0  0  0  0  0  0  0  0  0  0  # atno 6909 bound_to 6896
  144.7923  139.7296  143.6216 H   0  0  0  0  0  0  0  0  0  0  0  0  # atno 7974 bound_to 7965
  154.4667  140.0934  156.7039 H   0  0  0  0  0  0  0  0  0  0  0  0  # atno 8008 bound_to 7997
  155.4838  140.3468  155.4325 H   0  0  0  0  0  0  0  0  0  0  0  0  # atno 8009 bound_to 7997
  156.0969  140.1412  156.9508 H   0  0  0  0  0  0  0  0  0  0  0  0  # atno 8010 bound_to 7997
  140.6093  143.8441  150.7048 H   0  0  0  0  0  0  0  0  0  0  0  0  # atno 10167 bound_to 10162
  156.5441  130.8576  151.2758 H   0  0  0  0  0  0  0  0  0  0  0  0  # atno 10718 bound_to 10713
  153.0717  135.4955  154.8319 H   0  0  0  0  0  0  0  0  0  0  0  0  # atno 10763 bound_to 10752
  154.7032  135.3005  154.9312 H   0  0  0  0  0  0  0  0  0  0  0  0  # atno 10764 bound_to 10752
  154.0029  135.6764  153.4813 H   0  0  0  0  0  0  0  0  0  0  0  0  # atno 10765 bound_to 10752
  140.1048  134.5033  155.8730 H   0  0  0  0  0  0  0  0  0  0  0  0  # atno 11005 bound_to 11000
  146.2179  139.5582  142.9638 LP  0  0  0  0  0  0  0  0  0  0  0  0  # atno 17320 bound_to 7965
  145.5763  141.0388  143.2146 LP  0  0  0  0  0  0  0  0  0  0  0  0  # atno 17321 bound_to 7965
  140.2006  143.3963  152.1795 LP  0  0  0  0  0  0  0  0  0  0  0  0  # atno 17342 bound_to 10162
  139.5349  144.7199  151.4928 LP  0  0  0  0  0  0  0  0  0  0  0  0  # atno 17343 bound_to 10162
  157.7400  130.9841  150.2348 LP  0  0  0  0  0  0  0  0  0  0  0  0  # atno 17370 bound_to 10713
  156.2944  130.3750  149.7810 LP  0  0  0  0  0  0  0  0  0  0  0  0  # atno 17371 bound_to 10713
  141.2115  133.6708  156.6589 LP  0  0  0  0  0  0  0  0  0  0  0  0  # atno 17394 bound_to 11000
  140.3171  134.8038  157.4223 LP  0  0  0  0  0  0  0  0  0  0  0  0  # atno 17395 bound_to 11000

$$$$
