#       Name:                AV-unprocessed.smi:3249
#       Creating user name   scv26
#       Creation time:       Fri Mar 27 18:30:15 2020


#       File generated by GOLD software.
#

@<TRIPOS>MOLECULE
AV-unprocessed.smi:3249
    47    48     1
SMALL
NO_CHARGES


@<TRIPOS>ATOM
      1 ****        -2.8885   0.6117   3.9847 C.3            1 S1                 0.0000
      2 ****        -2.7918   0.6503   2.4869 C.2            1 S1                 0.0000
      3 ****        -3.2351  -0.3309   1.5559 C.2            1 S1                 0.0000
      4 ****        -2.9890   0.0048   0.3003 N.2            1 S1                 0.0000
      5 ****        -2.3980   1.2165   0.3800 N.pl3          1 S1                 0.0000
      6 ****        -1.9529   1.8835  -0.8391 C.3            1 S1                 0.0000
      7 ****        -2.5089   3.3194  -0.8797 C.3            1 S1                 0.0000
      8 ****        -0.4090   1.8120  -0.9686 C.3            1 S1                 0.0000
      9 ****         0.1076   2.4471  -2.2734 C.3            1 S1                 0.0000
     10 ****         0.0351   0.4004  -0.8866 N.4            1 S1                 1.0000
     11 ****         1.4221   0.1963  -0.4201 C.3            1 S1                 0.0000
     12 ****         1.7316  -1.2994  -0.2698 C.3            1 S1                 0.0000
     13 ****         3.1043  -1.5398   0.3879 C.3            1 S1                 0.0000
     14 ****         3.4205  -3.0388   0.4423 C.3            1 S1                 0.0000
     15 ****         3.2801  -3.6477  -0.9567 C.3            1 S1                 0.0000
     16 ****         1.9096  -3.2970  -1.5572 C.3            1 S1                 0.0000
     17 ****         1.7326  -1.8834  -1.5710 O.3            1 S1                 0.0000
     18 ****        -2.2585   1.6245   1.6918 C.2            1 S1                 0.0000
     19 ****        -3.5095  -0.2152   4.3299 H              1 S1                 0.0000
     20 ****        -3.3243   1.5277   4.3839 H              1 S1                 0.0000
     21 ****        -1.9087   0.4923   4.4475 H              1 S1                 0.0000
     22 ****        -3.7197  -1.2757   1.7549 H              1 S1                 0.0000
     23 ****        -2.3899   1.3479  -1.6845 H              1 S1                 0.0000
     24 ****        -2.3482   3.7864  -1.8509 H              1 S1                 0.0000
     25 ****        -2.0431   3.9522  -0.1237 H              1 S1                 0.0000
     26 ****        -3.5847   3.3256  -0.7008 H              1 S1                 0.0000
     27 ****         0.0219   2.3545  -0.1251 H              1 S1                 0.0000
     28 ****        -0.1243   3.5105  -2.3228 H              1 S1                 0.0000
     29 ****        -0.3332   1.9685  -3.1485 H              1 S1                 0.0000
     30 ****         1.1905   2.3626  -2.3607 H              1 S1                 0.0000
     31 ****        -0.5718  -0.0665  -0.2271 H              1 S1                 0.0000
     32 ****         2.1280   0.6607  -1.1091 H              1 S1                 0.0000
     33 ****         1.5411   0.6902   0.5452 H              1 S1                 0.0000
     34 ****         0.9529  -1.7648   0.3377 H              1 S1                 0.0000
     35 ****         3.8802  -1.0239  -0.1797 H              1 S1                 0.0000
     36 ****         3.1222  -1.1197   1.3942 H              1 S1                 0.0000
     37 ****         4.4264  -3.2027   0.8299 H              1 S1                 0.0000
     38 ****         2.7344  -3.5348   1.1299 H              1 S1                 0.0000
     39 ****         4.0695  -3.2643  -1.6045 H              1 S1                 0.0000
     40 ****         3.4086  -4.7296  -0.9130 H              1 S1                 0.0000
     41 ****         1.8428  -3.6698  -2.5794 H              1 S1                 0.0000
     42 ****         1.1042  -3.7698  -0.9930 H              1 S1                 0.0000
     43 ****        -1.7921   2.5639   1.9503 H              1 S1                 0.0000
     44 ****        -0.0840  -0.0373  -1.7892 H              1 S1                 0.0000
     45 ****        -3.1949  -0.5216  -0.5246 LP             1 S1                 0.0000
     46 ****         2.4766  -1.4760  -2.1006 LP             1 S1                 0.0000
     47 ****         0.8586  -1.6777  -2.0113 LP             1 S1                 0.0000
@<TRIPOS>BOND
    1    1    2 1     
    2    1   19 1     
    3    1   20 1     
    4    1   21 1     
    5    2   18 2     
    6    2    3 1     
    7    3    4 2     
    8    3   22 1     
    9    4    5 1     
   10    5    6 1     
   11    5   18 1     
   12    6    7 1     
   13    6    8 1     
   14    6   23 1     
   15    7   24 1     
   16    7   25 1     
   17    7   26 1     
   18    8    9 1     
   19    8   10 1     
   20    8   27 1     
   21    9   28 1     
   22    9   29 1     
   23    9   30 1     
   24   10   11 1     
   25   10   31 1     
   26   10   44 1     
   27   11   12 1     
   28   11   32 1     
   29   11   33 1     
   30   12   17 1     
   31   12   13 1     
   32   12   34 1     
   33   13   14 1     
   34   13   35 1     
   35   13   36 1     
   36   14   15 1     
   37   14   37 1     
   38   14   38 1     
   39   15   16 1     
   40   15   39 1     
   41   15   40 1     
   42   16   17 1     
   43   16   41 1     
   44   16   42 1     
   45   18   43 1     
   46    4   45 1     
   47   17   46 1     
   48   17   47 1     
@<TRIPOS>SUBSTRUCTURE
      1 S1             1
@<TRIPOS>SET
LONE_PAIRS      STATIC     ATOMS    <user>   **** ""
3 45 46 47
DONOR_HYDROGENS      STATIC     ATOMS    <user>   **** ""
2 31 44
ATOM$BLUE        STATIC     ATOMS    COLORGROUP SYSTEM
3 45 46 47
ATOM$RED        STATIC     ATOMS    COLORGROUP SYSTEM
2 31 44
