AV-unprocessed.smi:3329|AV-procd|sdf|12800|dock8
  -GOLD-   2272019163D 1   1.00000     0.00000
 Structure written by MMmdl.
 41 42  0  0  0  0  0  0  0  0  3 V2000
  152.6137  144.2251  159.8268 C   0  0  0  0  0  0  0  0  0  0  0  0
  152.0678  143.1110  158.9810 C   0  0  0  0  0  0  0  0  0  0  0  0
  151.8185  141.7639  159.3687 C   0  0  0  0  0  0  0  0  0  0  0  0
  151.3334  141.0261  158.3834 N   0  0  0  0  0  0  0  0  0  0  0  0
  151.2543  141.8728  157.3356 N   0  0  0  0  0  0  0  0  0  0  0  0
  150.7409  141.3982  156.0627 C   0  0  0  0  0  0  0  0  0  0  0  0
  149.2082  141.2784  156.0668 C   0  0  0  0  0  0  0  0  0  0  0  0
  148.5900  142.4381  156.7362 N   0  3  0  0  0  0  0  0  0  0  0  0
  148.5853  142.3750  158.2107 C   0  0  0  0  0  0  0  0  0  0  0  0
  147.3157  143.0483  158.7345 C   0  0  0  0  0  0  0  0  0  0  0  0
  146.2995  143.0397  158.0419 O   0  0  0  0  0  0  0  0  0  0  0  0
  147.5120  143.6007  159.9587 N   0  5  0  0  0  0  0  0  0  0  0  0
  146.8229  144.8059  160.4194 C   0  0  2  0  0  0  0  0  0  0  0  0
  146.1561  145.5180  159.2260 C   0  0  0  0  0  0  0  0  0  0  0  0
  147.7615  145.7258  161.0993 C   0  0  0  0  0  0  0  0  0  0  0  0
  148.4955  146.4460  161.6316 N   0  0  0  0  0  0  0  0  0  0  0  0
  145.7434  144.3444  161.3972 C   0  0  0  0  0  0  0  0  0  0  0  0
  144.4450  143.7234  160.9306 C   0  0  0  0  0  0  0  0  0  0  0  0
  144.4381  145.0870  161.5829 C   0  0  0  0  0  0  0  0  0  0  0  0
  151.6933  143.1376  157.6675 C   0  0  0  0  0  0  0  0  0  0  0  0
  153.6782  144.0958  160.0222 H   0  0  0  0  0  0  0  0  0  0  0  0
  152.1132  144.2777  160.7937 H   0  0  0  0  0  0  0  0  0  0  0  0
  152.4900  145.1969  159.3484 H   0  0  0  0  0  0  0  0  0  0  0  0
  151.9745  141.3033  160.3333 H   0  0  0  0  0  0  0  0  0  0  0  0
  151.0684  142.0792  155.2758 H   0  0  0  0  0  0  0  0  0  0  0  0
  151.1933  140.4292  155.8477 H   0  0  0  0  0  0  0  0  0  0  0  0
  148.8345  141.2180  155.0442 H   0  0  0  0  0  0  0  0  0  0  0  0
  148.9064  140.3601  156.5727 H   0  0  0  0  0  0  0  0  0  0  0  0
  149.1109  143.2666  156.4832 H   0  0  0  0  0  0  0  0  0  0  0  0
  148.6262  141.3345  158.5358 H   0  0  0  0  0  0  0  0  0  0  0  0
  149.4618  142.8831  158.6163 H   0  0  0  0  0  0  0  0  0  0  0  0
  145.5736  146.3761  159.5630 H   0  0  0  0  0  0  0  0  0  0  0  0
  145.4781  144.8527  158.6899 H   0  0  0  0  0  0  0  0  0  0  0  0
  146.8902  145.8903  158.5111 H   0  0  0  0  0  0  0  0  0  0  0  0
  146.1552  143.9066  162.3057 H   0  0  0  0  0  0  0  0  0  0  0  0
  144.2502  143.6769  159.8611 H   0  0  0  0  0  0  0  0  0  0  0  0
  144.0536  142.8890  161.5089 H   0  0  0  0  0  0  0  0  0  0  0  0
  144.0461  145.1564  162.5950 H   0  0  0  0  0  0  0  0  0  0  0  0
  144.2419  145.9504  160.9509 H   0  0  0  0  0  0  0  0  0  0  0  0
  151.6988  143.9459  156.9510 H   0  0  0  0  0  0  0  0  0  0  0  0
  147.6397  142.5487  156.4139 H   0  0  0  0  0  0  0  0  0  0  0  0
  1  2  1  0  0  0  0
  1 21  1  0  0  0  0
  1 22  1  0  0  0  0
  1 23  1  0  0  0  0
  2 20  2  0  0  0  0
  2  3  1  0  0  0  0
  3  4  2  0  0  0  0
  3 24  1  0  0  0  0
  4  5  1  0  0  0  0
  5  6  1  0  0  0  0
  5 20  1  0  0  0  0
  6  7  1  0  0  0  0
  6 25  1  0  0  0  0
  6 26  1  0  0  0  0
  7  8  1  0  0  0  0
  7 27  1  0  0  0  0
  7 28  1  0  0  0  0
  8  9  1  0  0  0  0
  8 29  1  0  0  0  0
  8 41  1  0  0  0  0
  9 10  1  0  0  0  0
  9 30  1  0  0  0  0
  9 31  1  0  0  0  0
 10 11  2  0  0  0  0
 10 12  1  0  0  0  0
 12 13  1  0  0  0  0
 13 14  1  0  0  0  0
 13 15  1  0  0  0  0
 13 17  1  0  0  0  0
 14 32  1  0  0  0  0
 14 33  1  0  0  0  0
 14 34  1  0  0  0  0
 15 16  3  0  0  0  0
 17 19  1  0  0  0  0
 17 18  1  0  0  0  0
 17 35  1  0  0  0  0
 18 19  1  0  0  0  0
 18 36  1  0  0  0  0
 18 37  1  0  0  0  0
 19 38  1  0  0  0  0
 19 39  1  0  0  0  0
 20 40  1  0  0  0  0
M  CHG  1   8   1
M  CHG  1  12  -1
M  END
> <s_m_source_file>
AV-unprocessed.smi

> <i_m_source_file_index>
3329

> <i_lp_mmshare_version>
43012

> <i_f3d_flags>
0

> <s_epik_input>
W0NIM11jMVtjSF1ubihbY0hdMSlbQ0gyXVtDSDJdW05IXVtDSDJdQyg9TylbTkhdW0NAQF0oW0NIM10pKEMjTilbQ0hdMltDSDJdW0NIMl0y

> <s_epik_cmdline>
J2VwaWtfcHl0aG9uJywgJy1waCcsICc3LjAnLCAnLXRuJywgJzgnLCAnLW1hJywgJzIwMCcsICctbWV0YWxfYmluZGluZycsICctaW1hZScsICc8aW5maWxlLm1hZT4nLCAnLW9tYWUnLCAnPG91dGZpbGUubWFlPic=

> <r_lp_tautomer_probability>
1

> <r_epik_Ionization_Penalty>
5.61187

> <r_epik_Ionization_Penalty_Charging>
5.61186

> <r_epik_Ionization_Penalty_Neutral>
4.91277e-06

> <r_epik_State_Penalty>
5.94522

> <r_epik_Charging_Adjusted_Penalty>
11.5571

> <i_epik_Tot_Q>
0

> <i_epik_Tot_abs_Q>
2

> <r_epik_Metal_State_Penalty>
1.9215

> <b_epik_Metal_Only>
1

> <s_lp_Force_Field>
OPLS_2005

> <r_lp_Energy>
5.18635

> <b_lp_Chiralities_Consistent>
1

> <s_lp_Variant>
AV-unprocessed.smi:3329-6

> <Gold.Version>
5.8.1

> <Gold.Id.Protein>
6NUR|6NUR_protein|mol2

> <Gold.PLP.Fitness>
55.3682

> <Gold.PLP.PLP>
-43.5454

> <Gold.PLP.part.hbond>
-4.7214

> <Gold.PLP.part.metal>
0.0000

> <Gold.PLP.part.buried>
-7.1031

> <Gold.PLP.part.nonpolar>
-33.0878

> <Gold.PLP.part.repulsive>
0.4290

> <Gold.PLP.ligand.clash>
0.0000

> <Gold.PLP.ligand.torsion>
2.2904

> <Gold.PLP.Chemscore.Hbond>
4.0000

> <Gold.PLP.Chemscore.CHOScore>
0.8974

> <Gold.PLP.Chemscore.Metal>
0.0000

> <Gold.Chemscore.Hbonds>
donor molecule, donor type, donor heavy atom, donor atom, acceptor molecule, acceptor atom, score
      L1  H     8    29       P1  8028  1.57
      P1  H  6933  6944       L1    12  1.30

> <Gold.PLP.Chemscore.Internal.Correction>
1.7113

> <Gold.Rescore>
     Score         DG    S(hbond)    S(metal)    S(lipo)     H(rot)  DE(clash)    DE(int)     intcor
      8.23     -15.44       1.72        0.00      86.76       2.31       1.47       5.73       ----

> <Gold.Chemscore.Fitness>
8.2339

> <Gold.Chemscore.DG>
-15.4357

> <Gold.Chemscore.ZeroCoef>
-5.4800

> <Gold.Chemscore.Hbond>
1.7151

> <Gold.Chemscore.Metal>
0.0000

> <Gold.Chemscore.Lipo>
86.7611

> <Gold.Chemscore.Internal_Hbond>
0.0000

> <Gold.Chemscore.DEClash>
1.4731

> <Gold.Chemscore.DEInternal>
5.7287

> <Gold.Chemscore.Rot>
2.3140

> <Gold.Chemscore.Internal.Correction>
   9.000000E+99

> <Gold.Chemscore.Hbonds>
donor molecule, donor type, donor heavy atom, donor atom, acceptor molecule, acceptor atom, score
      L1  H     8    29       P1  8028  0.77
      P1  H  6933  6944       L1    12  0.57

> <Gold.Chemscore.Hbond.Weighted>
-5.7284

> <Gold.Chemscore.Metal.Weighted>
-0.0000

> <Gold.Chemscore.Lipo.Weighted>
-10.1510

> <Gold.Chemscore.Internal_Hbond.Weighted>
0.0000

> <Gold.Chemscore.DEClash.Weighted>
1.4731

> <Gold.Chemscore.DEInternal.Weighted>
5.7287

> <Gold.Chemscore.Rot.Weighted>
5.9238

> <Gold.Chemscore.Internal.Correction.Weighted>
   9.000000E+99

> <Gold.Protein.RotatedTorsions>
[ 6907 6896 6895 6894 ] final   77.45 input  -60.11 | X-H torsion
[ 7974 7965 7964 7962 ] final  -87.81 input  175.53 | X-H torsion
[ 8008 7997 7996 7995 ] final -115.18 input   59.86 | X-H torsion
[ 10167 10162 10161 10158 ] final -134.63 input  -65.29 | X-H torsion
[ 10718 10713 10712 10709 ] final    6.77 input   66.30 | X-H torsion
[ 10763 10752 10751 10750 ] final  -99.40 input  -60.55 | X-H torsion
[ 11005 11000 10999 10996 ] final -107.23 input  -57.11 | X-H torsion

> <Gold.Protein.ActiveResidues>
 VAL166  LYS551  ARG553  GLY616  TRP617  ASP618  TYR619  PRO620  LYS621  CYS622 
 ASP623  PHE694  ASN695  SER759  ASP760  ASP761  ALA762  ILE779  LEU786  VAL792 
 PHE793  MET794  SER795  GLU796  ALA797  LYS798  CYS799  TRP800  GLU811  SER814 

> <Gold.Protein.RotatedAtoms>
  152.5118  134.3815  159.9352 H   0  0  0  0  0  0  0  0  0  0  0  0  # atno 6907 bound_to 6896
  151.3772  133.3827  159.2714 H   0  0  0  0  0  0  0  0  0  0  0  0  # atno 6908 bound_to 6896
  150.9532  134.8949  159.7743 H   0  0  0  0  0  0  0  0  0  0  0  0  # atno 6909 bound_to 6896
  145.4616  140.9561  143.1966 H   0  0  0  0  0  0  0  0  0  0  0  0  # atno 7974 bound_to 7965
  155.0479  140.0392  157.2533 H   0  0  0  0  0  0  0  0  0  0  0  0  # atno 8008 bound_to 7997
  154.7161  140.2702  155.6560 H   0  0  0  0  0  0  0  0  0  0  0  0  # atno 8009 bound_to 7997
  156.2803  140.2712  156.1819 H   0  0  0  0  0  0  0  0  0  0  0  0  # atno 8010 bound_to 7997
  139.8860  143.6780  152.2620 H   0  0  0  0  0  0  0  0  0  0  0  0  # atno 10167 bound_to 10162
  156.9271  130.5812  149.5649 H   0  0  0  0  0  0  0  0  0  0  0  0  # atno 10718 bound_to 10713
  154.7495  135.4973  153.9263 H   0  0  0  0  0  0  0  0  0  0  0  0  # atno 10763 bound_to 10752
  153.1127  135.6713  153.9479 H   0  0  0  0  0  0  0  0  0  0  0  0  # atno 10764 bound_to 10752
  153.9234  135.3086  155.3426 H   0  0  0  0  0  0  0  0  0  0  0  0  # atno 10765 bound_to 10752
  141.0964  133.8963  157.1951 H   0  0  0  0  0  0  0  0  0  0  0  0  # atno 11005 bound_to 11000
  144.7999  139.6161  143.7076 LP  0  0  0  0  0  0  0  0  0  0  0  0  # atno 17320 bound_to 7965
  146.2448  139.6075  142.9467 LP  0  0  0  0  0  0  0  0  0  0  0  0  # atno 17321 bound_to 7965
  139.7152  144.7613  151.1045 LP  0  0  0  0  0  0  0  0  0  0  0  0  # atno 17342 bound_to 10162
  140.7735  143.5278  150.9459 LP  0  0  0  0  0  0  0  0  0  0  0  0  # atno 17343 bound_to 10162
  156.0464  130.5540  150.8891 LP  0  0  0  0  0  0  0  0  0  0  0  0  # atno 17370 bound_to 10713
  157.5871  131.0945  150.9179 LP  0  0  0  0  0  0  0  0  0  0  0  0  # atno 17371 bound_to 10713
  139.9802  135.0100  156.9731 LP  0  0  0  0  0  0  0  0  0  0  0  0  # atno 17394 bound_to 11000
  140.5129  134.0984  155.7274 LP  0  0  0  0  0  0  0  0  0  0  0  0  # atno 17395 bound_to 11000

$$$$
