#       Name:                AV-unprocessed.smi:283
#       Creating user name   scv26
#       Creation time:       Thu Mar 26 21:43:20 2020


#       File generated by GOLD software.
#

@<TRIPOS>MOLECULE
AV-unprocessed.smi:283
    59    62     1
SMALL
NO_CHARGES


@<TRIPOS>ATOM
      1 ****        -3.7999   0.9789   1.7770 C.3            1 S1                 0.0000
      2 ****        -3.5916   1.2334   0.2731 C.3            1 S1                 0.0000
      3 ****        -2.3621   0.6013  -0.2040 N.pl3          1 S1                 0.0000
      4 ****        -1.1430   1.1041   0.0922 C.ar           1 S1                 0.0000
      5 ****        -1.0036   2.3096   0.7039 N.ar           1 S1                 0.0000
      6 ****         0.2152   2.7831   0.9813 C.ar           1 S1                 0.0000
      7 ****         1.4035   2.2260   0.7351 N.ar           1 S1                 0.0000
      8 ****         1.2663   1.0181   0.1157 C.ar           1 S1                 0.0000
      9 ****         0.0391   0.3920  -0.2364 C.ar           1 S1                 0.0000
     10 ****         0.2935  -0.8297  -0.8464 N.2            1 S1                 0.0000
     11 ****         1.5971  -0.9157  -0.8512 C.2            1 S1                 0.0000
     12 ****         2.2601   0.1559  -0.2905 N.pl3          1 S1                 0.0000
     13 ****         3.7282   0.3823  -0.1259 C.3            1 S1                 0.0000
     14 ****         4.3939  -0.4429  -1.0384 O.3            1 S1                 0.0000
     15 ****         5.1940  -1.4108  -0.3617 C.3            1 S1                 0.0000
     16 ****         5.1758  -2.7340  -1.1427 C.3            1 S1                 0.0000
     17 ****         6.1425  -3.6244  -0.6276 O.3            1 S1                 0.0000
     18 ****         4.5930  -1.4845   1.0438 C.3            1 S1                 0.0000
     19 ****         5.4998  -1.9474   2.0258 O.3            1 S1                 0.0000
     20 ****         4.1517  -0.0482   1.2837 C.3            1 S1                 0.0000
     21 ****         5.1889   0.7819   1.7741 O.3            1 S1                 0.0000
     22 ****        -4.8257   0.7832  -0.5073 C.ar           1 S1                 0.0000
     23 ****        -4.9280  -0.5541  -0.9590 C.ar           1 S1                 0.0000
     24 ****        -6.0615  -0.9869  -1.6726 C.ar           1 S1                 0.0000
     25 ****        -7.1105  -0.0889  -1.9379 C.ar           1 S1                 0.0000
     26 ****        -7.0262   1.2397  -1.4830 C.ar           1 S1                 0.0000
     27 ****        -5.8943   1.6791  -0.7673 C.ar           1 S1                 0.0000
     28 ****        -5.8571   3.3183  -0.2175 Cl             1 S1                 0.0000
     29 ****         3.8716   1.4413  -0.3457 H              1 S1                 0.0000
     30 ****         6.2077  -1.0081  -0.3167 H              1 S1                 0.0000
     31 ****         3.7157  -2.1330   1.0366 H              1 S1                 0.0000
     32 ****         3.3150   0.0108   1.9817 H              1 S1                 0.0000
     33 ****        -4.6914   1.4914   2.1394 H              1 S1                 0.0000
     34 ****        -2.9590   1.3360   2.3712 H              1 S1                 0.0000
     35 ****        -3.9226  -0.0847   1.9839 H              1 S1                 0.0000
     36 ****        -3.4776   2.3047   0.1131 H              1 S1                 0.0000
     37 ****        -2.4849  -0.2747  -0.6911 H              1 S1                 0.0000
     38 ****         0.2414   3.7459   1.4698 H              1 S1                 0.0000
     39 ****         2.1095  -1.7708  -1.2668 H              1 S1                 0.0000
     40 ****         4.1907  -3.1998  -1.1085 H              1 S1                 0.0000
     41 ****         5.4095  -2.5518  -2.1918 H              1 S1                 0.0000
     42 ****         5.9501  -3.7826   0.2844 H              1 S1                 0.0000
     43 ****         6.2184  -1.3351   2.0773 H              1 S1                 0.0000
     44 ****         4.8516   1.6601   1.8650 H              1 S1                 0.0000
     45 ****        -4.1386  -1.2629  -0.7576 H              1 S1                 0.0000
     46 ****        -6.1267  -2.0095  -2.0143 H              1 S1                 0.0000
     47 ****        -7.9813  -0.4195  -2.4846 H              1 S1                 0.0000
     48 ****        -7.8372   1.9248  -1.6821 H              1 S1                 0.0000
     49 ****        -1.8138   2.8430   0.9468 LP             1 S1                 0.0000
     50 ****         2.2814   2.6409   0.9741 LP             1 S1                 0.0000
     51 ****        -0.3683  -1.4907  -1.2001 LP             1 S1                 0.0000
     52 ****         4.9823   0.1195  -1.6193 LP             1 S1                 0.0000
     53 ****         3.7189  -0.9151  -1.6054 LP             1 S1                 0.0000
     54 ****         7.0532  -3.2207  -0.7149 LP             1 S1                 0.0000
     55 ****         6.1102  -4.4865  -1.1334 LP             1 S1                 0.0000
     56 ****         5.8430  -2.8512   1.7702 LP             1 S1                 0.0000
     57 ****         5.0393  -2.0040   2.9117 LP             1 S1                 0.0000
     58 ****         5.9553   0.7795   1.1318 LP             1 S1                 0.0000
     59 ****         5.4984   0.4455   2.6635 LP             1 S1                 0.0000
@<TRIPOS>BOND
    1    1    2 1     
    2    1   33 1     
    3    1   34 1     
    4    1   35 1     
    5    2    3 1     
    6    2   22 1     
    7    2   36 1     
    8    3    4 1     
    9    3   37 1     
   10    4    9 ar    
   11    4    5 ar    
   12    5    6 ar    
   13    6    7 ar    
   14    6   38 1     
   15    7    8 ar    
   16    8   12 1     
   17    8    9 ar    
   18    9   10 1     
   19   10   11 2     
   20   11   12 1     
   21   11   39 1     
   22   12   13 1     
   23   13   29 1     
   24   13   20 1     
   25   13   14 1     
   26   14   15 1     
   27   15   30 1     
   28   15   16 1     
   29   15   18 1     
   30   16   17 1     
   31   16   40 1     
   32   16   41 1     
   33   17   42 1     
   34   18   31 1     
   35   18   19 1     
   36   18   20 1     
   37   19   43 1     
   38   20   32 1     
   39   20   21 1     
   40   21   44 1     
   41   22   27 ar    
   42   22   23 ar    
   43   23   24 ar    
   44   23   45 1     
   45   24   25 ar    
   46   24   46 1     
   47   25   26 ar    
   48   25   47 1     
   49   26   27 ar    
   50   26   48 1     
   51   27   28 1     
   52    5   49 1     
   53    7   50 1     
   54   10   51 1     
   55   14   52 1     
   56   14   53 1     
   57   17   54 1     
   58   17   55 1     
   59   19   56 1     
   60   19   57 1     
   61   21   58 1     
   62   21   59 1     
@<TRIPOS>SUBSTRUCTURE
      1 S1             1
@<TRIPOS>SET
LONE_PAIRS      STATIC     ATOMS    <user>   **** ""
11 49 50 51 52 53 54 55 56 57 58 59
DONOR_HYDROGENS      STATIC     ATOMS    <user>   **** ""
4 37 42 43 44
ATOM$BLUE        STATIC     ATOMS    COLORGROUP SYSTEM
11 49 50 51 52 53 54 55 56 57 58 59
ATOM$RED        STATIC     ATOMS    COLORGROUP SYSTEM
4 37 42 43 44
