AV-unprocessed.smi:113|AV-procd|sdf|1096|dock9
  -GOLD-   2262018203D 1   1.00000     0.00000
 Structure written by MMmdl.
 52 55  0  0  0  0  0  0  0  0  1 V2000
  152.8819  139.0361  159.9494 C   0  0  0  0  0  0  0  0  0  0  0  0
  152.4867  140.3853  159.3862 C   0  0  0  0  0  0  0  0  0  0  0  0
  151.9528  140.4936  158.0899 C   0  0  0  0  0  0  0  0  0  0  0  0
  151.5975  141.7709  157.5989 C   0  0  0  0  0  0  0  0  0  0  0  0
  151.0106  141.9440  156.1937 C   0  0  0  0  0  0  0  0  0  0  0  0
  150.6046  140.7310  155.4979 N   0  0  0  0  0  0  0  0  0  0  0  0
  151.6059  139.7743  155.1998 C   0  0  0  0  0  0  0  0  0  0  0  0
  152.7827  139.9497  155.5226 O   0  0  0  0  0  0  0  0  0  0  0  0
  151.1336  138.5762  154.5018 C   0  0  0  0  0  0  0  0  0  0  0  0
  152.1588  137.5244  154.1084 C   0  0  0  0  0  0  0  0  0  0  0  0
  149.8150  138.4347  154.2259 C   0  0  0  0  0  0  0  0  0  0  0  0
  148.8508  139.3671  154.5695 N   0  0  0  0  0  0  0  0  0  0  0  0
  147.3922  139.1360  154.2466 C   0  0  1  0  0  0  0  0  0  0  0  0
  147.1933  138.9435  152.7423 C   0  0  0  0  0  0  0  0  0  0  0  0
  146.1277  137.8681  152.7133 C   0  0  1  0  0  0  0  0  0  0  0  0
  146.1783  137.1434  151.5015 O   0  0  0  0  0  0  0  0  0  0  0  0
  146.5079  137.0168  153.9286 C   0  0  2  0  0  0  0  0  0  0  0  0
  145.3562  136.1953  154.5283 C   0  0  0  0  0  0  0  0  0  0  0  0
  144.9279  135.2054  153.6177 O   0  0  0  0  0  0  0  0  0  0  0  0
  146.9583  137.9715  154.8878 O   0  0  0  0  0  0  0  0  0  0  0  0
  149.2312  140.5648  155.2087 C   0  0  0  0  0  0  0  0  0  0  0  0
  148.3950  141.4213  155.5061 O   0  0  0  0  0  0  0  0  0  0  0  0
  151.8008  142.8910  158.4495 C   0  0  0  0  0  0  0  0  0  0  0  0
  151.4686  144.2040  158.0360 C   0  0  0  0  0  0  0  0  0  0  0  0
  151.6801  145.2994  158.8920 C   0  0  0  0  0  0  0  0  0  0  0  0
  152.2258  145.0946  160.1699 C   0  0  0  0  0  0  0  0  0  0  0  0
  152.5574  143.7935  160.5886 C   0  0  0  0  0  0  0  0  0  0  0  0
  152.3529  142.6789  159.7473 C   0  0  0  0  0  0  0  0  0  0  0  0
  152.6842  141.4467  160.1921 N   0  0  0  0  0  0  0  0  0  0  0  0
  152.3805  138.2275  159.4165 H   0  0  0  0  0  0  0  0  0  0  0  0
  152.6136  138.9615  161.0039 H   0  0  0  0  0  0  0  0  0  0  0  0
  153.9585  138.8914  159.8569 H   0  0  0  0  0  0  0  0  0  0  0  0
  151.8245  139.6022  157.4944 H   0  0  0  0  0  0  0  0  0  0  0  0
  150.1447  142.6069  156.2272 H   0  0  0  0  0  0  0  0  0  0  0  0
  151.7216  142.4633  155.5496 H   0  0  0  0  0  0  0  0  0  0  0  0
  151.7046  136.6994  153.5590 H   0  0  0  0  0  0  0  0  0  0  0  0
  152.6390  137.1109  154.9959 H   0  0  0  0  0  0  0  0  0  0  0  0
  152.9304  137.9614  153.4734 H   0  0  0  0  0  0  0  0  0  0  0  0
  149.5047  137.5419  153.7047 H   0  0  0  0  0  0  0  0  0  0  0  0
  146.8231  139.9701  154.6593 H   0  0  0  0  0  0  0  0  0  0  0  0
  146.8984  139.8751  152.2584 H   0  0  0  0  0  0  0  0  0  0  0  0
  148.1211  138.5848  152.2924 H   0  0  0  0  0  0  0  0  0  0  0  0
  145.1414  138.3155  152.8456 H   0  0  0  0  0  0  0  0  0  0  0  0
  147.0530  136.8029  151.3901 H   0  0  0  0  0  0  0  0  0  0  0  0
  147.3515  136.3680  153.6865 H   0  0  0  0  0  0  0  0  0  0  0  0
  145.6890  135.6959  155.4384 H   0  0  0  0  0  0  0  0  0  0  0  0
  144.5164  136.8352  154.8006 H   0  0  0  0  0  0  0  0  0  0  0  0
  145.4641  135.2594  152.8410 H   0  0  0  0  0  0  0  0  0  0  0  0
  151.0477  144.3963  157.0610 H   0  0  0  0  0  0  0  0  0  0  0  0
  151.4231  146.2969  158.5670 H   0  0  0  0  0  0  0  0  0  0  0  0
  152.3901  145.9341  160.8292 H   0  0  0  0  0  0  0  0  0  0  0  0
  152.9760  143.6487  161.5740 H   0  0  0  0  0  0  0  0  0  0  0  0
  1  2  1  0  0  0  0
  1 30  1  0  0  0  0
  1 31  1  0  0  0  0
  1 32  1  0  0  0  0
  2 29  1  0  0  0  0
  2  3  2  0  0  0  0
  3  4  1  0  0  0  0
  3 33  1  0  0  0  0
  4  5  1  0  0  0  0
  4 23  2  0  0  0  0
  5  6  1  0  0  0  0
  5 34  1  0  0  0  0
  5 35  1  0  0  0  0
  6 21  1  0  0  0  0
  6  7  1  0  0  0  0
  7  8  2  0  0  0  0
  7  9  1  0  0  0  0
  9 10  1  0  0  0  0
  9 11  2  0  0  0  0
 10 36  1  0  0  0  0
 10 37  1  0  0  0  0
 10 38  1  0  0  0  0
 11 12  1  0  0  0  0
 11 39  1  0  0  0  0
 12 13  1  0  0  0  0
 12 21  1  0  0  0  0
 13 20  1  0  0  0  0
 13 14  1  0  0  0  0
 13 40  1  0  0  0  0
 14 15  1  0  0  0  0
 14 41  1  0  0  0  0
 14 42  1  0  0  0  0
 15 16  1  0  0  0  0
 15 17  1  0  0  0  0
 15 43  1  0  0  0  0
 16 44  1  0  0  0  0
 17 18  1  0  0  0  0
 17 20  1  0  0  0  0
 17 45  1  0  0  0  0
 18 19  1  0  0  0  0
 18 46  1  0  0  0  0
 18 47  1  0  0  0  0
 19 48  1  0  0  0  0
 21 22  2  0  0  0  0
 23 28  1  0  0  0  0
 23 24  1  0  0  0  0
 24 25  2  0  0  0  0
 24 49  1  0  0  0  0
 25 26  1  0  0  0  0
 25 50  1  0  0  0  0
 26 27  2  0  0  0  0
 26 51  1  0  0  0  0
 27 28  1  0  0  0  0
 27 52  1  0  0  0  0
 28 29  2  0  0  0  0
M  END
> <s_m_source_file>
AV-unprocessed.smi

> <i_m_source_file_index>
113

> <i_lp_mmshare_version>
43012

> <i_f3d_flags>
0

> <s_epik_input>
W2NIXTFbY0hdW2NIXVtjSF1jKGMxMiluYyhbQ0gzXSlbY0hdYzJbQ0gyXW4zYyg9TyljKFtDSDNdKVtjSF1uKGMzPU8pW0NAQEhdNFtDSDJdW0NAQEhdKFtPSF0pW0NASF0oTzQpW0NIMl1bT0hd

> <s_epik_cmdline>
J2VwaWtfcHl0aG9uJywgJy1waCcsICc3LjAnLCAnLXRuJywgJzgnLCAnLW1hJywgJzIwMCcsICctbWV0YWxfYmluZGluZycsICctaW1hZScsICc8aW5maWxlLm1hZT4nLCAnLW9tYWUnLCAnPG91dGZpbGUubWFlPic=

> <r_lp_tautomer_probability>
1

> <r_epik_Ionization_Penalty>
0.214728

> <r_epik_Ionization_Penalty_Charging>
3.04883e-08

> <r_epik_Ionization_Penalty_Neutral>
0.214728

> <r_epik_State_Penalty>
0.204913

> <r_epik_Charging_Adjusted_Penalty>
0.204913

> <i_epik_Tot_Q>
0

> <i_epik_Tot_abs_Q>
0

> <r_epik_Metal_State_Penalty>
0.000244761

> <b_epik_Metal_Only>
0

> <s_epik_Chemistry_Notes>
This compound contains an acetal/aminal-like group ( X-CH(R)-Y where X, Y are N, S, or O) that may be acid/base labile, releasing an aldehyde.

> <s_lp_Force_Field>
OPLS_2005

> <r_lp_Energy>
37.2315

> <b_lp_Chiralities_Consistent>
1

> <s_lp_Variant>
AV-unprocessed.smi:113-6

> <Gold.Version>
5.8.1

> <Gold.Id.Protein>
6NUR|6NUR_protein|mol2

> <Gold.PLP.Fitness>
60.3561

> <Gold.PLP.PLP>
-51.8034

> <Gold.PLP.part.hbond>
-3.4141

> <Gold.PLP.part.metal>
0.0000

> <Gold.PLP.part.buried>
0.8586

> <Gold.PLP.part.nonpolar>
-48.2107

> <Gold.PLP.part.repulsive>
0.1736

> <Gold.PLP.ligand.clash>
0.0512

> <Gold.PLP.ligand.torsion>
0.1451

> <Gold.PLP.Chemscore.Hbond>
1.9588

> <Gold.PLP.Chemscore.CHOScore>
1.0000

> <Gold.PLP.Chemscore.Metal>
0.0000

> <Gold.Chemscore.Hbonds>
donor molecule, donor type, donor heavy atom, donor atom, acceptor molecule, acceptor atom, score
      L1  H    16    44       P1  7948  1.00
      P1  H  7997  8009       L1     8  1.00
      L1  C    11    39       P1  7948  1.00

> <Gold.PLP.Chemscore.Internal.Correction>
0.0177

> <Gold.Rescore>
     Score         DG    S(hbond)    S(metal)    S(lipo)     H(rot)  DE(clash)    DE(int)     intcor
     16.53     -20.71       1.98        0.00     138.10       2.95       0.66       3.52       ----

> <Gold.Chemscore.Fitness>
16.5335

> <Gold.Chemscore.DG>
-20.7131

> <Gold.Chemscore.ZeroCoef>
-5.4800

> <Gold.Chemscore.Hbond>
1.9817

> <Gold.Chemscore.Metal>
0.0000

> <Gold.Chemscore.Lipo>
138.1048

> <Gold.Chemscore.Internal_Hbond>
0.0000

> <Gold.Chemscore.DEClash>
0.6622

> <Gold.Chemscore.DEInternal>
3.5174

> <Gold.Chemscore.Rot>
2.9469

> <Gold.Chemscore.Internal.Correction>
   9.000000E+99

> <Gold.Chemscore.Hbonds>
donor molecule, donor type, donor heavy atom, donor atom, acceptor molecule, acceptor atom, score
      L1  H    16    44       P1  7948  0.96
      P1  H  7997  8009       L1     8  1.00

> <Gold.Chemscore.Hbond.Weighted>
-6.6188

> <Gold.Chemscore.Metal.Weighted>
-0.0000

> <Gold.Chemscore.Lipo.Weighted>
-16.1583

> <Gold.Chemscore.Internal_Hbond.Weighted>
0.0000

> <Gold.Chemscore.DEClash.Weighted>
0.6622

> <Gold.Chemscore.DEInternal.Weighted>
3.5174

> <Gold.Chemscore.Rot.Weighted>
7.5439

> <Gold.Chemscore.Internal.Correction.Weighted>
   9.000000E+99

> <Gold.Protein.RotatedTorsions>
[ 6907 6896 6895 6894 ] final  152.09 input  -60.11 | X-H torsion
[ 7974 7965 7964 7962 ] final   76.80 input  175.53 | X-H torsion
[ 8008 7997 7996 7995 ] final -150.07 input   59.86 | X-H torsion
[ 10167 10162 10161 10158 ] final   17.05 input  -65.29 | X-H torsion
[ 10718 10713 10712 10709 ] final  -57.46 input   66.30 | X-H torsion
[ 10763 10752 10751 10750 ] final  107.93 input  -60.55 | X-H torsion
[ 11005 11000 10999 10996 ] final -100.67 input  -57.11 | X-H torsion

> <Gold.Protein.ActiveResidues>
 VAL166  LYS551  ARG553  GLY616  TRP617  ASP618  TYR619  PRO620  LYS621  CYS622 
 ASP623  PHE694  ASN695  SER759  ASP760  ASP761  ALA762  ILE779  LEU786  VAL792 
 PHE793  MET794  SER795  GLU796  ALA797  LYS798  CYS799  TRP800  GLU811  SER814 

> <Gold.Protein.RotatedAtoms>
  152.0916  133.4203  159.4545 H   0  0  0  0  0  0  0  0  0  0  0  0  # atno 6907 bound_to 6896
  150.6862  134.2865  159.4658 H   0  0  0  0  0  0  0  0  0  0  0  0  # atno 6908 bound_to 6896
  152.0717  134.9528  160.0625 H   0  0  0  0  0  0  0  0  0  0  0  0  # atno 6909 bound_to 6896
  145.6982  139.2574  143.1721 H   0  0  0  0  0  0  0  0  0  0  0  0  # atno 7974 bound_to 7965
  155.6176  140.0678  157.2687 H   0  0  0  0  0  0  0  0  0  0  0  0  # atno 8008 bound_to 7997
  154.4237  140.1790  156.1386 H   0  0  0  0  0  0  0  0  0  0  0  0  # atno 8009 bound_to 7997
  156.0035  140.3334  155.6872 H   0  0  0  0  0  0  0  0  0  0  0  0  # atno 8010 bound_to 7997
  140.5753  143.9083  150.6745 H   0  0  0  0  0  0  0  0  0  0  0  0  # atno 10167 bound_to 10162
  156.1209  130.4166  150.0443 H   0  0  0  0  0  0  0  0  0  0  0  0  # atno 10718 bound_to 10713
  153.4135  135.3828  155.2066 H   0  0  0  0  0  0  0  0  0  0  0  0  # atno 10763 bound_to 10752
  154.8739  135.3800  154.4471 H   0  0  0  0  0  0  0  0  0  0  0  0  # atno 10764 bound_to 10752
  153.4982  135.7088  153.5908 H   0  0  0  0  0  0  0  0  0  0  0  0  # atno 10765 bound_to 10752
  141.1261  133.8417  157.1133 H   0  0  0  0  0  0  0  0  0  0  0  0  # atno 11005 bound_to 11000
  146.0822  140.7751  142.9636 LP  0  0  0  0  0  0  0  0  0  0  0  0  # atno 17320 bound_to 7965
  144.6976  140.3506  143.7182 LP  0  0  0  0  0  0  0  0  0  0  0  0  # atno 17321 bound_to 7965
  140.2569  143.3552  152.1357 LP  0  0  0  0  0  0  0  0  0  0  0  0  # atno 17342 bound_to 10162
  139.5139  144.6940  151.5681 LP  0  0  0  0  0  0  0  0  0  0  0  0  # atno 17343 bound_to 10162
  156.8382  130.9416  151.3633 LP  0  0  0  0  0  0  0  0  0  0  0  0  # atno 17370 bound_to 10713
  157.6393  130.8792  149.9417 LP  0  0  0  0  0  0  0  0  0  0  0  0  # atno 17371 bound_to 10713
  140.0262  134.9923  157.0690 LP  0  0  0  0  0  0  0  0  0  0  0  0  # atno 17394 bound_to 11000
  140.4359  134.1731  155.7171 LP  0  0  0  0  0  0  0  0  0  0  0  0  # atno 17395 bound_to 11000

$$$$
