AV-unprocessed.smi:2899|AV-procd|sdf|11146|dock5
  -GOLD-   2272016 23D 1   1.00000     0.00000
 Structure written by MMmdl.
 30 32  0  0  0  0  0  0  0  0  1 V2000
  147.7149  140.5956  153.4990 C   0  0  0  0  0  0  0  0  0  0  0  0
  148.9760  140.6155  154.3360 C   0  0  0  0  0  0  0  0  0  0  0  0
  149.8804  139.5332  154.3346 C   0  0  0  0  0  0  0  0  0  0  0  0
  151.0177  139.6737  155.1549 C   0  0  0  0  0  0  0  0  0  0  0  0
  151.2256  140.7815  155.8998 N   0  0  0  0  0  0  0  0  0  0  0  0
  150.3033  141.7446  155.8281 C   0  0  0  0  0  0  0  0  0  0  0  0
  150.5467  142.8590  156.6097 N   0  0  0  0  0  0  0  0  0  0  0  0
  151.6197  142.9648  157.5909 C   0  0  1  0  0  0  0  0  0  0  0  0
  151.9076  144.4116  158.0117 C   0  0  0  0  0  0  0  0  0  0  0  0
  151.7248  144.3415  159.5330 C   0  0  2  0  0  0  0  0  0  0  0  0
  152.8351  143.5313  160.2159 C   0  0  0  0  0  0  0  0  0  0  0  0
  152.4703  142.1020  159.8152 C   0  0  0  0  0  0  0  0  0  0  0  0
  151.2329  142.3262  158.9353 C   0  0  1  0  0  0  0  0  0  0  0  0
  150.6467  143.4262  159.6130 O   0  0  0  0  0  0  0  0  0  0  0  0
  149.1904  141.7201  155.0842 N   0  0  0  0  0  0  0  0  0  0  0  0
  147.6634  139.6951  152.8863 H   0  0  0  0  0  0  0  0  0  0  0  0
  147.6852  141.4606  152.8358 H   0  0  0  0  0  0  0  0  0  0  0  0
  146.8339  140.6227  154.1407 H   0  0  0  0  0  0  0  0  0  0  0  0
  149.7159  138.6460  153.7409 H   0  0  0  0  0  0  0  0  0  0  0  0
  151.7632  138.8946  155.2144 H   0  0  0  0  0  0  0  0  0  0  0  0
  150.0237  143.6948  156.3919 H   0  0  0  0  0  0  0  0  0  0  0  0
  152.5122  142.4813  157.1912 H   0  0  0  0  0  0  0  0  0  0  0  0
  152.9076  144.7395  157.7266 H   0  0  0  0  0  0  0  0  0  0  0  0
  151.1883  145.1086  157.5786 H   0  0  0  0  0  0  0  0  0  0  0  0
  151.5298  145.3074  159.9997 H   0  0  0  0  0  0  0  0  0  0  0  0
  153.8296  143.8265  159.8798 H   0  0  0  0  0  0  0  0  0  0  0  0
  152.7911  143.6474  161.2993 H   0  0  0  0  0  0  0  0  0  0  0  0
  153.2741  141.5913  159.2837 H   0  0  0  0  0  0  0  0  0  0  0  0
  152.2156  141.5118  160.6963 H   0  0  0  0  0  0  0  0  0  0  0  0
  150.5922  141.4473  158.8530 H   0  0  0  0  0  0  0  0  0  0  0  0
  1  2  1  0  0  0  0
  1 16  1  0  0  0  0
  1 17  1  0  0  0  0
  1 18  1  0  0  0  0
  2 15  1  0  0  0  0
  2  3  2  0  0  0  0
  3  4  1  0  0  0  0
  3 19  1  0  0  0  0
  4  5  2  0  0  0  0
  4 20  1  0  0  0  0
  5  6  1  0  0  0  0
  6  7  1  0  0  0  0
  6 15  2  0  0  0  0
  7  8  1  0  0  0  0
  7 21  1  0  0  0  0
  8 13  1  0  0  0  0
  8  9  1  0  0  0  0
  8 22  1  0  0  0  0
  9 10  1  0  0  0  0
  9 23  1  0  0  0  0
  9 24  1  0  0  0  0
 10 14  1  0  0  0  0
 10 11  1  0  0  0  0
 10 25  1  0  0  0  0
 11 12  1  0  0  0  0
 11 26  1  0  0  0  0
 11 27  1  0  0  0  0
 12 13  1  0  0  0  0
 12 28  1  0  0  0  0
 12 29  1  0  0  0  0
 13 14  1  0  0  0  0
 13 30  1  0  0  0  0
M  END
> <s_m_source_file>
AV-unprocessed.smi

> <i_m_source_file_index>
2899

> <i_lp_mmshare_version>
43012

> <i_f3d_flags>
0

> <s_epik_input>
W0NIM11jMVtjSF1bY0hdbmMobjEpW05IXVtDQEhdKFtDSDJdW0NAQEhdMjMpW0NAQEhdKE8zKVtDSDJdW0NIMl0y

> <s_epik_cmdline>
J2VwaWtfcHl0aG9uJywgJy1waCcsICc3LjAnLCAnLXRuJywgJzgnLCAnLW1hJywgJzIwMCcsICctbWV0YWxfYmluZGluZycsICctaW1hZScsICc8aW5maWxlLm1hZT4nLCAnLW9tYWUnLCAnPG91dGZpbGUubWFlPic=

> <r_lp_tautomer_probability>
1

> <r_epik_Ionization_Penalty>
0.00589655

> <r_epik_Ionization_Penalty_Charging>
0

> <r_epik_Ionization_Penalty_Neutral>
0.00589655

> <r_epik_State_Penalty>
0.00375391

> <r_epik_Charging_Adjusted_Penalty>
0.00375391

> <i_epik_Tot_Q>
0

> <i_epik_Tot_abs_Q>
0

> <r_epik_Metal_State_Penalty>
-0

> <b_epik_Metal_Only>
0

> <s_lp_Force_Field>
OPLS_2005

> <r_lp_Energy>
31.4606

> <b_lp_Chiralities_Consistent>
1

> <s_lp_Variant>
AV-unprocessed.smi:2899-4

> <Gold.Version>
5.8.1

> <Gold.Id.Protein>
6NUR|6NUR_protein|mol2

> <Gold.PLP.Fitness>
38.9233

> <Gold.PLP.PLP>
-36.4705

> <Gold.PLP.part.hbond>
-1.5354

> <Gold.PLP.part.metal>
0.0000

> <Gold.PLP.part.buried>
-4.2751

> <Gold.PLP.part.nonpolar>
-31.0955

> <Gold.PLP.part.repulsive>
0.6479

> <Gold.PLP.ligand.clash>
0.0000

> <Gold.PLP.ligand.torsion>
0.2833

> <Gold.PLP.Chemscore.Hbond>
1.0000

> <Gold.PLP.Chemscore.CHOScore>
0.0000

> <Gold.PLP.Chemscore.Metal>
0.0000

> <Gold.Chemscore.Hbonds>
donor molecule, donor type, donor heavy atom, donor atom, acceptor molecule, acceptor atom, score
      L1  H     7    21       P1  8028  1.00

> <Gold.PLP.Chemscore.Internal.Correction>
0.0194

> <Gold.Rescore>
     Score         DG    S(hbond)    S(metal)    S(lipo)     H(rot)  DE(clash)    DE(int)     intcor
     17.06     -17.35       0.98        0.00      95.42       1.00       0.01       0.29       ----

> <Gold.Chemscore.Fitness>
17.0562

> <Gold.Chemscore.DG>
-17.3516

> <Gold.Chemscore.ZeroCoef>
-5.4800

> <Gold.Chemscore.Hbond>
0.9784

> <Gold.Chemscore.Metal>
0.0000

> <Gold.Chemscore.Lipo>
95.4158

> <Gold.Chemscore.Internal_Hbond>
0.0000

> <Gold.Chemscore.DEClash>
0.0102

> <Gold.Chemscore.DEInternal>
0.2852

> <Gold.Chemscore.Rot>
1.0000

> <Gold.Chemscore.Internal.Correction>
   9.000000E+99

> <Gold.Chemscore.Hbonds>
donor molecule, donor type, donor heavy atom, donor atom, acceptor molecule, acceptor atom, score
      L1  H     7    21       P1  8028  1.00

> <Gold.Chemscore.Hbond.Weighted>
-3.2680

> <Gold.Chemscore.Metal.Weighted>
-0.0000

> <Gold.Chemscore.Lipo.Weighted>
-11.1636

> <Gold.Chemscore.Internal_Hbond.Weighted>
0.0000

> <Gold.Chemscore.DEClash.Weighted>
0.0102

> <Gold.Chemscore.DEInternal.Weighted>
0.2852

> <Gold.Chemscore.Rot.Weighted>
2.5600

> <Gold.Chemscore.Internal.Correction.Weighted>
   9.000000E+99

> <Gold.Protein.RotatedTorsions>
[ 6907 6896 6895 6894 ] final   26.01 input  -60.11 | X-H torsion
[ 7974 7965 7964 7962 ] final   70.87 input  175.53 | X-H torsion
[ 8008 7997 7996 7995 ] final  -79.37 input   59.86 | X-H torsion
[ 10167 10162 10161 10158 ] final  158.42 input  -65.29 | X-H torsion
[ 10718 10713 10712 10709 ] final   62.51 input   66.30 | X-H torsion
[ 10763 10752 10751 10750 ] final  -61.59 input  -60.55 | X-H torsion
[ 11005 11000 10999 10996 ] final -127.03 input  -57.11 | X-H torsion

> <Gold.Protein.ActiveResidues>
 VAL166  LYS551  ARG553  GLY616  TRP617  ASP618  TYR619  PRO620  LYS621  CYS622 
 ASP623  PHE694  ASN695  SER759  ASP760  ASP761  ALA762  ILE779  LEU786  VAL792 
 PHE793  MET794  SER795  GLU796  ALA797  LYS798  CYS799  TRP800  GLU811  SER814 

> <Gold.Protein.RotatedAtoms>
  151.9811  135.0028  160.0557 H   0  0  0  0  0  0  0  0  0  0  0  0  # atno 6907 bound_to 6896
  152.1695  133.4630  159.4910 H   0  0  0  0  0  0  0  0  0  0  0  0  # atno 6908 bound_to 6896
  150.6899  134.1888  159.4320 H   0  0  0  0  0  0  0  0  0  0  0  0  # atno 6909 bound_to 6896
  145.7728  139.2851  143.1311 H   0  0  0  0  0  0  0  0  0  0  0  0  # atno 7974 bound_to 7965
  154.5779  140.0679  156.9061 H   0  0  0  0  0  0  0  0  0  0  0  0  # atno 8008 bound_to 7997
  155.2516  140.3352  155.4263 H   0  0  0  0  0  0  0  0  0  0  0  0  # atno 8009 bound_to 7997
  156.2167  140.1781  156.7556 H   0  0  0  0  0  0  0  0  0  0  0  0  # atno 8010 bound_to 7997
  139.4827  144.4826  151.8422 H   0  0  0  0  0  0  0  0  0  0  0  0  # atno 10167 bound_to 10162
  157.5906  130.9054  149.9597 H   0  0  0  0  0  0  0  0  0  0  0  0  # atno 10718 bound_to 10713
  154.2869  135.6261  153.5369 H   0  0  0  0  0  0  0  0  0  0  0  0  # atno 10763 bound_to 10752
  152.9858  135.5646  154.5433 H   0  0  0  0  0  0  0  0  0  0  0  0  # atno 10764 bound_to 10752
  154.5036  135.2873  155.1376 H   0  0  0  0  0  0  0  0  0  0  0  0  # atno 10765 bound_to 10752
  140.9633  134.0907  157.3946 H   0  0  0  0  0  0  0  0  0  0  0  0  # atno 11005 bound_to 11000
  146.0153  140.8398  142.9950 LP  0  0  0  0  0  0  0  0  0  0  0  0  # atno 17320 bound_to 7965
  144.6809  140.2549  143.7327 LP  0  0  0  0  0  0  0  0  0  0  0  0  # atno 17321 bound_to 7965
  140.4304  144.2124  150.5888 LP  0  0  0  0  0  0  0  0  0  0  0  0  # atno 17342 bound_to 10162
  140.4785  143.2387  151.8988 LP  0  0  0  0  0  0  0  0  0  0  0  0  # atno 17343 bound_to 10162
  156.0960  130.3659  150.0306 LP  0  0  0  0  0  0  0  0  0  0  0  0  # atno 17370 bound_to 10713
  156.8429  130.9432  151.3630 LP  0  0  0  0  0  0  0  0  0  0  0  0  # atno 17371 bound_to 10713
  139.8885  135.0098  156.6627 LP  0  0  0  0  0  0  0  0  0  0  0  0  # atno 17394 bound_to 11000
  140.7436  133.8956  155.8296 LP  0  0  0  0  0  0  0  0  0  0  0  0  # atno 17395 bound_to 11000

$$$$
