AV-unprocessed.smi:977|AV-procd|sdf|4307|dock10
  -GOLD-   22720 2213D 1   1.00000     0.00000
 Structure written by MMmdl.
 37 38  0  0  0  0  0  0  0  0  1 V2000
  152.5069  132.8617  155.4306 C   0  0  0  0  0  0  0  0  0  0  0  0
  151.2507  132.4369  154.7218 C   0  0  0  0  0  0  0  0  0  0  0  0
  150.9395  131.1496  154.6803 N   0  0  0  0  0  0  0  0  0  0  0  0
  149.7007  131.0544  154.0276 O   0  0  0  0  0  0  0  0  0  0  0  0
  149.2874  132.3023  153.6847 C   0  0  0  0  0  0  0  0  0  0  0  0
  147.9719  132.4148  152.9914 C   0  0  0  0  0  0  0  0  0  0  0  0
  150.2369  133.2010  154.0720 C   0  0  0  0  0  0  0  0  0  0  0  0
  150.1345  134.6045  153.9032 N   0  0  0  0  0  0  0  0  0  0  0  0
  150.6381  135.5501  154.7102 C   0  0  0  0  0  0  0  0  0  0  0  0
  151.3190  135.3296  155.7111 O   0  0  0  0  0  0  0  0  0  0  0  0
  150.3205  136.7790  154.2782 N   0  0  0  0  0  0  0  0  0  0  0  0
  150.7096  138.0371  154.9136 C   0  0  1  0  0  0  0  0  0  0  0  0
  152.1889  138.3077  154.6029 C   0  0  0  0  0  0  0  0  0  0  0  0
  149.8029  139.1907  154.4344 C   0  0  1  0  0  0  0  0  0  0  0  0
  148.3303  139.0701  154.8321 C   0  0  0  0  0  0  0  0  0  0  0  0
  147.8718  140.5070  154.7419 C   0  0  0  0  0  0  0  0  0  0  0  0
  149.0897  141.2606  155.2697 C   0  0  0  0  0  0  0  0  0  0  0  0
  150.2174  140.4273  155.0096 O   0  0  0  0  0  0  0  0  0  0  0  0
  152.3783  133.8287  155.9170 H   0  0  0  0  0  0  0  0  0  0  0  0
  153.3412  132.9432  154.7339 H   0  0  0  0  0  0  0  0  0  0  0  0
  152.7913  132.1460  156.2025 H   0  0  0  0  0  0  0  0  0  0  0  0
  147.6383  133.4516  152.9487 H   0  0  0  0  0  0  0  0  0  0  0  0
  147.2089  131.8370  153.5134 H   0  0  0  0  0  0  0  0  0  0  0  0
  148.0414  132.0397  151.9703 H   0  0  0  0  0  0  0  0  0  0  0  0
  149.7059  134.9181  153.0448 H   0  0  0  0  0  0  0  0  0  0  0  0
  149.7599  136.8534  153.4420 H   0  0  0  0  0  0  0  0  0  0  0  0
  150.6134  137.9478  155.9973 H   0  0  0  0  0  0  0  0  0  0  0  0
  152.5347  139.2184  155.0926 H   0  0  0  0  0  0  0  0  0  0  0  0
  152.3559  138.4230  153.5313 H   0  0  0  0  0  0  0  0  0  0  0  0
  152.8197  137.4899  154.9528 H   0  0  0  0  0  0  0  0  0  0  0  0
  149.8681  139.2920  153.3494 H   0  0  0  0  0  0  0  0  0  0  0  0
  147.7648  138.4008  154.1831 H   0  0  0  0  0  0  0  0  0  0  0  0
  148.2365  138.7135  155.8589 H   0  0  0  0  0  0  0  0  0  0  0  0
  147.6859  140.7738  153.7007 H   0  0  0  0  0  0  0  0  0  0  0  0
  146.9652  140.7064  155.3137 H   0  0  0  0  0  0  0  0  0  0  0  0
  149.2024  142.2386  154.8009 H   0  0  0  0  0  0  0  0  0  0  0  0
  149.0118  141.4088  156.3474 H   0  0  0  0  0  0  0  0  0  0  0  0
  1  2  1  0  0  0  0
  1 19  1  0  0  0  0
  1 20  1  0  0  0  0
  1 21  1  0  0  0  0
  2  7  1  0  0  0  0
  2  3  2  0  0  0  0
  3  4  1  0  0  0  0
  4  5  1  0  0  0  0
  5  6  1  0  0  0  0
  5  7  2  0  0  0  0
  6 22  1  0  0  0  0
  6 23  1  0  0  0  0
  6 24  1  0  0  0  0
  7  8  1  0  0  0  0
  8  9  1  0  0  0  0
  8 25  1  0  0  0  0
  9 10  2  0  0  0  0
  9 11  1  0  0  0  0
 11 12  1  0  0  0  0
 11 26  1  0  0  0  0
 12 13  1  0  0  0  0
 12 14  1  0  0  0  0
 12 27  1  0  0  0  0
 13 28  1  0  0  0  0
 13 29  1  0  0  0  0
 13 30  1  0  0  0  0
 14 18  1  0  0  0  0
 14 15  1  0  0  0  0
 14 31  1  0  0  0  0
 15 16  1  0  0  0  0
 15 32  1  0  0  0  0
 15 33  1  0  0  0  0
 16 17  1  0  0  0  0
 16 34  1  0  0  0  0
 16 35  1  0  0  0  0
 17 18  1  0  0  0  0
 17 36  1  0  0  0  0
 17 37  1  0  0  0  0
M  END
> <s_m_source_file>
AV-unprocessed.smi

> <i_m_source_file_index>
977

> <i_lp_mmshare_version>
43012

> <i_f3d_flags>
0

> <s_epik_input>
W0NIM11jMW5vYyhbQ0gzXSljMVtOSF1DKD1PKVtOSF1bQ0BIXShbQ0gzXSlbQ0BASF0yW0NIMl1bQ0gyXVtDSDJdTzI=

> <s_epik_cmdline>
J2VwaWtfcHl0aG9uJywgJy1waCcsICc3LjAnLCAnLXRuJywgJzgnLCAnLW1hJywgJzIwMCcsICctbWV0YWxfYmluZGluZycsICctaW1hZScsICc8aW5maWxlLm1hZT4nLCAnLW9tYWUnLCAnPG91dGZpbGUubWFlPic=

> <r_lp_tautomer_probability>
1

> <r_epik_Ionization_Penalty>
3.41601e-05

> <r_epik_Ionization_Penalty_Charging>
0

> <r_epik_Ionization_Penalty_Neutral>
3.41601e-05

> <r_epik_State_Penalty>
-0

> <r_epik_Charging_Adjusted_Penalty>
0

> <i_epik_Tot_Q>
0

> <i_epik_Tot_abs_Q>
0

> <r_epik_Metal_State_Penalty>
-0

> <b_epik_Metal_Only>
0

> <s_lp_Force_Field>
OPLS_2005

> <r_lp_Energy>
19.4669

> <b_lp_Chiralities_Consistent>
1

> <s_lp_Variant>
AV-unprocessed.smi:977-4

> <Gold.Version>
5.8.1

> <Gold.Id.Protein>
6NUR|6NUR_protein|mol2

> <Gold.PLP.Fitness>
37.9831

> <Gold.PLP.PLP>
-31.0978

> <Gold.PLP.part.hbond>
-3.5543

> <Gold.PLP.part.metal>
0.0000

> <Gold.PLP.part.buried>
-1.8581

> <Gold.PLP.part.nonpolar>
-26.0731

> <Gold.PLP.part.repulsive>
0.2514

> <Gold.PLP.ligand.clash>
0.0000

> <Gold.PLP.ligand.torsion>
0.4400

> <Gold.PLP.Chemscore.Hbond>
2.5000

> <Gold.PLP.Chemscore.CHOScore>
0.0000

> <Gold.PLP.Chemscore.Metal>
0.0000

> <Gold.Chemscore.Hbonds>
donor molecule, donor type, donor heavy atom, donor atom, acceptor molecule, acceptor atom, score
      L1  H    11    26       P1  7948  1.00
      P1  H  7989  7998       L1    18  0.60
      P1  H 10752 10764       L1    10  1.00

> <Gold.PLP.Chemscore.Internal.Correction>
0.2652

> <Gold.Rescore>
     Score         DG    S(hbond)    S(metal)    S(lipo)     H(rot)  DE(clash)    DE(int)     intcor
     14.98     -17.04       2.28        0.00      60.31       1.22       0.02       2.05       ----

> <Gold.Chemscore.Fitness>
14.9761

> <Gold.Chemscore.DG>
-17.0393

> <Gold.Chemscore.ZeroCoef>
-5.4800

> <Gold.Chemscore.Hbond>
2.2834

> <Gold.Chemscore.Metal>
0.0000

> <Gold.Chemscore.Lipo>
60.3068

> <Gold.Chemscore.Internal_Hbond>
0.0000

> <Gold.Chemscore.DEClash>
0.0158

> <Gold.Chemscore.DEInternal>
2.0474

> <Gold.Chemscore.Rot>
1.2200

> <Gold.Chemscore.Internal.Correction>
   9.000000E+99

> <Gold.Chemscore.Hbonds>
donor molecule, donor type, donor heavy atom, donor atom, acceptor molecule, acceptor atom, score
      L1  H    11    26       P1  7948  0.49
      P1  H  7989  7998       L1    18  0.07
      P1  H 10752 10764       L1    10  0.25

> <Gold.Chemscore.Hbond.Weighted>
-7.6266

> <Gold.Chemscore.Metal.Weighted>
-0.0000

> <Gold.Chemscore.Lipo.Weighted>
-7.0559

> <Gold.Chemscore.Internal_Hbond.Weighted>
0.0000

> <Gold.Chemscore.DEClash.Weighted>
0.0158

> <Gold.Chemscore.DEInternal.Weighted>
2.0474

> <Gold.Chemscore.Rot.Weighted>
3.1232

> <Gold.Chemscore.Internal.Correction.Weighted>
   9.000000E+99

> <Gold.Protein.RotatedTorsions>
[ 6907 6896 6895 6894 ] final  125.97 input  -60.11 | X-H torsion
[ 7974 7965 7964 7962 ] final  -55.41 input  175.53 | X-H torsion
[ 8008 7997 7996 7995 ] final  123.27 input   59.86 | X-H torsion
[ 10167 10162 10161 10158 ] final    7.83 input  -65.29 | X-H torsion
[ 10718 10713 10712 10709 ] final  138.88 input   66.30 | X-H torsion
[ 10763 10752 10751 10750 ] final  -36.25 input  -60.55 | X-H torsion
[ 11005 11000 10999 10996 ] final    6.66 input  -57.11 | X-H torsion

> <Gold.Protein.ActiveResidues>
 VAL166  LYS551  ARG553  GLY616  TRP617  ASP618  TYR619  PRO620  LYS621  CYS622 
 ASP623  PHE694  ASN695  SER759  ASP760  ASP761  ALA762  ILE779  LEU786  VAL792 
 PHE793  MET794  SER795  GLU796  ALA797  LYS798  CYS799  TRP800  GLU811  SER814 

> <Gold.Protein.RotatedAtoms>
  152.3945  133.6727  159.6264 H   0  0  0  0  0  0  0  0  0  0  0  0  # atno 6907 bound_to 6896
  150.7847  133.8897  159.3318 H   0  0  0  0  0  0  0  0  0  0  0  0  # atno 6908 bound_to 6896
  151.6677  135.0982  160.0243 H   0  0  0  0  0  0  0  0  0  0  0  0  # atno 6909 bound_to 6896
  145.8745  140.8191  142.9871 H   0  0  0  0  0  0  0  0  0  0  0  0  # atno 7974 bound_to 7965
  156.2759  140.2766  156.1601 H   0  0  0  0  0  0  0  0  0  0  0  0  # atno 8008 bound_to 7997
  155.0763  140.0387  157.2642 H   0  0  0  0  0  0  0  0  0  0  0  0  # atno 8009 bound_to 7997
  154.7000  140.2647  155.6734 H   0  0  0  0  0  0  0  0  0  0  0  0  # atno 8010 bound_to 7997
  140.6349  143.7909  150.7346 H   0  0  0  0  0  0  0  0  0  0  0  0  # atno 10167 bound_to 10162
  157.4204  131.1038  151.0359 H   0  0  0  0  0  0  0  0  0  0  0  0  # atno 10718 bound_to 10713
  153.8766  135.6825  153.4770 H   0  0  0  0  0  0  0  0  0  0  0  0  # atno 10763 bound_to 10752
  153.1257  135.4720  154.9266 H   0  0  0  0  0  0  0  0  0  0  0  0  # atno 10764 bound_to 10752
  154.7689  135.3232  154.8182 H   0  0  0  0  0  0  0  0  0  0  0  0  # atno 10765 bound_to 10752
  140.5570  134.0228  155.7957 H   0  0  0  0  0  0  0  0  0  0  0  0  # atno 11005 bound_to 11000
  144.6726  140.1289  143.7445 LP  0  0  0  0  0  0  0  0  0  0  0  0  # atno 17320 bound_to 7965
  145.9097  139.2480  143.1445 LP  0  0  0  0  0  0  0  0  0  0  0  0  # atno 17321 bound_to 7965
  140.1528  143.4343  152.2120 LP  0  0  0  0  0  0  0  0  0  0  0  0  # atno 17342 bound_to 10162
  139.5560  144.7373  151.4292 LP  0  0  0  0  0  0  0  0  0  0  0  0  # atno 17343 bound_to 10162
  157.1291  130.6094  149.5525 LP  0  0  0  0  0  0  0  0  0  0  0  0  # atno 17370 bound_to 10713
  155.9879  130.4920  150.7145 LP  0  0  0  0  0  0  0  0  0  0  0  0  # atno 17371 bound_to 10713
  141.1137  133.9574  157.2862 LP  0  0  0  0  0  0  0  0  0  0  0  0  # atno 17394 bound_to 11000
  139.9426  135.0189  156.8756 LP  0  0  0  0  0  0  0  0  0  0  0  0  # atno 17395 bound_to 11000

$$$$
