AV-unprocessed.smi:266|AV-procd|sdf|2038|dock5
  -GOLD-   2262021253D 1   1.00000     0.00000
 Structure written by MMmdl.
 52 55  0  0  0  0  0  0  0  0  1 V2000
  151.8776  141.0166  159.1395 C   0  0  0  0  0  0  0  0  0  0  0  0
  151.2767  142.4288  159.2130 C   0  0  1  0  0  0  0  0  0  0  0  0
  152.0792  143.1835  160.1189 O   0  0  0  0  0  0  0  0  0  0  0  0
  152.1102  144.5357  159.6972 C   0  0  0  0  0  0  0  0  0  0  0  0
  152.1934  144.4067  158.1843 C   0  0  0  0  0  0  0  0  0  0  0  0
  151.2484  143.2455  157.8899 C   0  0  2  0  0  0  0  0  0  0  0  0
  149.9424  143.7794  157.7426 O   0  0  0  0  0  0  0  0  0  0  0  0
  151.5920  142.4727  156.5889 C   0  0  0  0  0  0  0  0  0  0  0  0
  150.8929  141.2014  156.4739 N   0  0  0  0  0  0  0  0  0  0  0  0
  149.6261  140.9094  156.9292 C   0  0  0  0  0  0  0  0  0  0  0  0
  149.2139  139.6939  156.6906 N   0  0  0  0  0  0  0  0  0  0  0  0
  150.2820  139.1009  156.0292 C   0  0  0  0  0  0  0  0  0  0  0  0
  150.5173  137.8113  155.4775 C   0  0  0  0  0  0  0  0  0  0  0  0
  149.6215  136.8042  155.4866 N   0  0  0  0  0  0  0  0  0  0  0  0
  148.3003  137.1990  155.0166 C   0  0  0  0  0  0  0  0  0  0  0  0
  150.1691  135.5454  154.9904 C   0  0  0  0  0  0  0  0  0  0  0  0
  149.4555  134.3211  155.5881 C   0  0  1  0  0  0  0  0  0  0  0  0
  149.9189  133.0051  154.9344 C   0  0  0  0  0  0  0  0  0  0  0  0
  149.3975  131.8330  155.7712 C   0  0  0  0  0  0  0  0  0  0  0  0
  149.4358  132.4150  157.5068 S   0  0  0  0  0  0  0  0  0  0  0  0
  148.1088  132.2166  158.1087 O   0  0  0  0  0  0  0  0  0  0  0  0
  150.6500  131.9109  158.1661 O   0  0  0  0  0  0  0  0  0  0  0  0
  149.6699  134.1884  157.1058 C   0  0  0  0  0  0  0  0  0  0  0  0
  151.7120  137.5768  154.8826 N   0  0  0  0  0  0  0  0  0  0  0  0
  152.6306  138.5462  154.8312 C   0  0  0  0  0  0  0  0  0  0  0  0
  152.5543  139.7947  155.2979 N   0  0  0  0  0  0  0  0  0  0  0  0
  151.3491  140.0316  155.8920 C   0  0  0  0  0  0  0  0  0  0  0  0
  151.3079  140.3748  158.4675 H   0  0  0  0  0  0  0  0  0  0  0  0
  151.8713  140.5455  160.1226 H   0  0  0  0  0  0  0  0  0  0  0  0
  152.9125  141.0397  158.7968 H   0  0  0  0  0  0  0  0  0  0  0  0
  150.2739  142.3540  159.6379 H   0  0  0  0  0  0  0  0  0  0  0  0
  151.1910  145.0393  160.0005 H   0  0  0  0  0  0  0  0  0  0  0  0
  152.9580  145.0721  160.1237 H   0  0  0  0  0  0  0  0  0  0  0  0
  151.9402  145.3280  157.6578 H   0  0  0  0  0  0  0  0  0  0  0  0
  153.2148  144.1378  157.9127 H   0  0  0  0  0  0  0  0  0  0  0  0
  149.7595  143.8737  156.8204 H   0  0  0  0  0  0  0  0  0  0  0  0
  151.3365  143.0668  155.7114 H   0  0  0  0  0  0  0  0  0  0  0  0
  152.6641  142.2803  156.5289 H   0  0  0  0  0  0  0  0  0  0  0  0
  149.0089  141.6350  157.4390 H   0  0  0  0  0  0  0  0  0  0  0  0
  148.0600  138.2193  155.3198 H   0  0  0  0  0  0  0  0  0  0  0  0
  147.5385  136.5422  155.4356 H   0  0  0  0  0  0  0  0  0  0  0  0
  148.2408  137.1417  153.9292 H   0  0  0  0  0  0  0  0  0  0  0  0
  150.0775  135.5283  153.9035 H   0  0  0  0  0  0  0  0  0  0  0  0
  151.2368  135.4847  155.2095 H   0  0  0  0  0  0  0  0  0  0  0  0
  148.3833  134.4053  155.4068 H   0  0  0  0  0  0  0  0  0  0  0  0
  149.5902  132.9314  153.8975 H   0  0  0  0  0  0  0  0  0  0  0  0
  151.0092  132.9731  154.9255 H   0  0  0  0  0  0  0  0  0  0  0  0
  148.3630  131.6041  155.5146 H   0  0  0  0  0  0  0  0  0  0  0  0
  149.9947  130.9276  155.6613 H   0  0  0  0  0  0  0  0  0  0  0  0
  150.6883  134.4614  157.3847 H   0  0  0  0  0  0  0  0  0  0  0  0
  148.9789  134.7996  157.6864 H   0  0  0  0  0  0  0  0  0  0  0  0
  153.5581  138.2855  154.3430 H   0  0  0  0  0  0  0  0  0  0  0  0
  1  2  1  0  0  0  0
  1 28  1  0  0  0  0
  1 29  1  0  0  0  0
  1 30  1  0  0  0  0
  2  6  1  0  0  0  0
  2  3  1  0  0  0  0
  2 31  1  0  0  0  0
  3  4  1  0  0  0  0
  4  5  1  0  0  0  0
  4 32  1  0  0  0  0
  4 33  1  0  0  0  0
  5  6  1  0  0  0  0
  5 34  1  0  0  0  0
  5 35  1  0  0  0  0
  6  7  1  0  0  0  0
  6  8  1  0  0  0  0
  7 36  1  0  0  0  0
  8  9  1  0  0  0  0
  8 37  1  0  0  0  0
  8 38  1  0  0  0  0
  9 27  1  0  0  0  0
  9 10  1  0  0  0  0
 10 11  2  0  0  0  0
 10 39  1  0  0  0  0
 11 12  1  0  0  0  0
 12 27  2  0  0  0  0
 12 13  1  0  0  0  0
 13 14  1  0  0  0  0
 13 24  2  0  0  0  0
 14 15  1  0  0  0  0
 14 16  1  0  0  0  0
 15 40  1  0  0  0  0
 15 41  1  0  0  0  0
 15 42  1  0  0  0  0
 16 17  1  0  0  0  0
 16 43  1  0  0  0  0
 16 44  1  0  0  0  0
 17 23  1  0  0  0  0
 17 18  1  0  0  0  0
 17 45  1  0  0  0  0
 18 19  1  0  0  0  0
 18 46  1  0  0  0  0
 18 47  1  0  0  0  0
 19 20  1  0  0  0  0
 19 48  1  0  0  0  0
 19 49  1  0  0  0  0
 20 21  2  0  0  0  0
 20 22  2  0  0  0  0
 20 23  1  0  0  0  0
 23 50  1  0  0  0  0
 23 51  1  0  0  0  0
 24 25  1  0  0  0  0
 25 26  2  0  0  0  0
 25 52  1  0  0  0  0
 26 27  1  0  0  0  0
M  END
> <s_m_source_file>
AV-unprocessed.smi

> <i_m_source_file_index>
266

> <i_lp_mmshare_version>
43012

> <i_f3d_flags>
0

> <s_epik_input>
W0NIMl0xW0NIMl1PW0NAQEhdKFtDSDNdKVtDQEBdMShbT0hdKVtDSDJdbihbY0hdbjIpYyhjMjMpbltjSF1uYzNOKFtDSDNdKVtDSDJdW0NAQEhdKFtDSDJdNClbQ0gyXVtDSDJdUzQoPU8pPU8=

> <s_epik_cmdline>
J2VwaWtfcHl0aG9uJywgJy1waCcsICc3LjAnLCAnLXRuJywgJzgnLCAnLW1hJywgJzIwMCcsICctbWV0YWxfYmluZGluZycsICctaW1hZScsICc8aW5maWxlLm1hZT4nLCAnLW9tYWUnLCAnPG91dGZpbGUubWFlPic=

> <r_lp_tautomer_probability>
1

> <r_epik_Ionization_Penalty>
0.00155497

> <r_epik_Ionization_Penalty_Charging>
0

> <r_epik_Ionization_Penalty_Neutral>
0.00155497

> <r_epik_State_Penalty>
-0

> <r_epik_Charging_Adjusted_Penalty>
0

> <i_epik_Tot_Q>
0

> <i_epik_Tot_abs_Q>
0

> <r_epik_Metal_State_Penalty>
-0

> <b_epik_Metal_Only>
0

> <s_lp_Force_Field>
OPLS_2005

> <r_lp_Energy>
32.9828

> <b_lp_Chiralities_Consistent>
1

> <s_lp_Variant>
AV-unprocessed.smi:266-8

> <Gold.Version>
5.8.1

> <Gold.Id.Protein>
6NUR|6NUR_protein|mol2

> <Gold.PLP.Fitness>
50.6424

> <Gold.PLP.PLP>
-41.7490

> <Gold.PLP.part.hbond>
-5.2928

> <Gold.PLP.part.metal>
0.0000

> <Gold.PLP.part.buried>
-6.7708

> <Gold.PLP.part.nonpolar>
-31.5320

> <Gold.PLP.part.repulsive>
0.2447

> <Gold.PLP.ligand.clash>
0.0073

> <Gold.PLP.ligand.torsion>
0.8574

> <Gold.PLP.Chemscore.Hbond>
3.3951

> <Gold.PLP.Chemscore.CHOScore>
0.0000

> <Gold.PLP.Chemscore.Metal>
0.0000

> <Gold.Chemscore.Hbonds>
donor molecule, donor type, donor heavy atom, donor atom, acceptor molecule, acceptor atom, score
      L1  H     7    36       P1  8028  0.90
      P1  H  6896  6909       L1    22  1.00
      P1  H  7989  7998       L1    26  0.08
      P1  H  7997  8010       L1    26  1.00
      P1  H 10752 10764       L1    24  0.23

> <Gold.PLP.Chemscore.Internal.Correction>
0.4304

> <Gold.Rescore>
     Score         DG    S(hbond)    S(metal)    S(lipo)     H(rot)  DE(clash)    DE(int)     intcor
     13.09     -18.17       2.66        0.00      92.99       2.76       1.75       3.32       ----

> <Gold.Chemscore.Fitness>
13.0929

> <Gold.Chemscore.DG>
-18.1679

> <Gold.Chemscore.ZeroCoef>
-5.4800

> <Gold.Chemscore.Hbond>
2.6597

> <Gold.Chemscore.Metal>
0.0000

> <Gold.Chemscore.Lipo>
92.9884

> <Gold.Chemscore.Internal_Hbond>
0.0000

> <Gold.Chemscore.DEClash>
1.7536

> <Gold.Chemscore.DEInternal>
3.3214

> <Gold.Chemscore.Rot>
2.7637

> <Gold.Chemscore.Internal.Correction>
   9.000000E+99

> <Gold.Chemscore.Hbonds>
donor molecule, donor type, donor heavy atom, donor atom, acceptor molecule, acceptor atom, score
      L1  H     7    36       P1  8028  0.84
      P1  H  6896  6909       L1    22  0.70
      P1  H  7997  8010       L1    26  0.47
      P1  H 10752 10764       L1    24  0.09

> <Gold.Chemscore.Hbond.Weighted>
-8.8833

> <Gold.Chemscore.Metal.Weighted>
-0.0000

> <Gold.Chemscore.Lipo.Weighted>
-10.8796

> <Gold.Chemscore.Internal_Hbond.Weighted>
0.0000

> <Gold.Chemscore.DEClash.Weighted>
1.7536

> <Gold.Chemscore.DEInternal.Weighted>
3.3214

> <Gold.Chemscore.Rot.Weighted>
7.0750

> <Gold.Chemscore.Internal.Correction.Weighted>
   9.000000E+99

> <Gold.Protein.RotatedTorsions>
[ 6907 6896 6895 6894 ] final  -46.55 input  -60.11 | X-H torsion
[ 7974 7965 7964 7962 ] final   83.95 input  175.53 | X-H torsion
[ 8008 7997 7996 7995 ] final   90.87 input   59.86 | X-H torsion
[ 10167 10162 10161 10158 ] final -163.01 input  -65.29 | X-H torsion
[ 10718 10713 10712 10709 ] final   40.48 input   66.30 | X-H torsion
[ 10763 10752 10751 10750 ] final  -72.93 input  -60.55 | X-H torsion
[ 11005 11000 10999 10996 ] final  -62.90 input  -57.11 | X-H torsion

> <Gold.Protein.ActiveResidues>
 VAL166  LYS551  ARG553  GLY616  TRP617  ASP618  TYR619  PRO620  LYS621  CYS622 
 ASP623  PHE694  ASN695  SER759  ASP760  ASP761  ALA762  ILE779  LEU786  VAL792 
 PHE793  MET794  SER795  GLU796  ALA797  LYS798  CYS799  TRP800  GLU811  SER814 

> <Gold.Protein.RotatedAtoms>
  150.9101  134.8517  159.7418 H   0  0  0  0  0  0  0  0  0  0  0  0  # atno 6907 bound_to 6896
  152.4939  134.4373  159.9542 H   0  0  0  0  0  0  0  0  0  0  0  0  # atno 6908 bound_to 6896
  151.4416  133.3602  159.2818 H   0  0  0  0  0  0  0  0  0  0  0  0  # atno 6909 bound_to 6896
  145.6052  139.2359  143.2223 H   0  0  0  0  0  0  0  0  0  0  0  0  # atno 7974 bound_to 7965
  156.0170  140.3344  155.7000 H   0  0  0  0  0  0  0  0  0  0  0  0  # atno 8008 bound_to 7997
  155.6076  140.0662  157.2733 H   0  0  0  0  0  0  0  0  0  0  0  0  # atno 8009 bound_to 7997
  154.4302  140.1799  156.1226 H   0  0  0  0  0  0  0  0  0  0  0  0  # atno 8010 bound_to 7997
  139.6351  144.0366  152.2047 H   0  0  0  0  0  0  0  0  0  0  0  0  # atno 10167 bound_to 10162
  157.3827  130.7762  149.7205 H   0  0  0  0  0  0  0  0  0  0  0  0  # atno 10718 bound_to 10713
  154.4525  135.5914  153.6201 H   0  0  0  0  0  0  0  0  0  0  0  0  # atno 10763 bound_to 10752
  152.9815  135.6024  154.3587 H   0  0  0  0  0  0  0  0  0  0  0  0  # atno 10764 bound_to 10752
  154.3450  135.2841  155.2381 H   0  0  0  0  0  0  0  0  0  0  0  0  # atno 10765 bound_to 10752
  141.1375  133.6645  156.5598 H   0  0  0  0  0  0  0  0  0  0  0  0  # atno 11005 bound_to 11000
  146.1546  140.6876  142.9306 LP  0  0  0  0  0  0  0  0  0  0  0  0  # atno 17320 bound_to 7965
  144.7293  140.4622  143.6950 LP  0  0  0  0  0  0  0  0  0  0  0  0  # atno 17321 bound_to 7965
  140.0041  144.6272  150.7704 LP  0  0  0  0  0  0  0  0  0  0  0  0  # atno 17342 bound_to 10162
  140.7461  143.2885  151.3396 LP  0  0  0  0  0  0  0  0  0  0  0  0  # atno 17343 bound_to 10162
  155.9779  130.4057  150.3680 LP  0  0  0  0  0  0  0  0  0  0  0  0  # atno 17370 bound_to 10713
  157.1786  131.0386  151.2760 LP  0  0  0  0  0  0  0  0  0  0  0  0  # atno 17371 bound_to 10713
  140.3997  134.7367  157.4772 LP  0  0  0  0  0  0  0  0  0  0  0  0  # atno 17394 bound_to 11000
  140.0505  134.6137  155.8867 LP  0  0  0  0  0  0  0  0  0  0  0  0  # atno 17395 bound_to 11000

$$$$
