AV-unprocessed.smi:2660|AV-procd|sdf|10314|dock2
  -GOLD-   2272014333D 1   1.00000     0.00000
 Structure written by MMmdl.
 36 37  0  0  0  0  0  0  0  0  1 V2000
  153.5938  139.2044  161.1155 N   0  0  0  0  0  0  0  0  0  0  0  0
  152.6000  139.0176  160.2378 C   0  0  0  0  0  0  0  0  0  0  0  0
  152.3136  137.8675  159.9051 O   0  0  0  0  0  0  0  0  0  0  0  0
  151.9569  140.2675  159.7711 C   0  0  0  0  0  0  0  0  0  0  0  0
  152.2692  141.4822  160.2761 C   0  0  0  0  0  0  0  0  0  0  0  0
  151.6178  142.6673  159.7911 C   0  0  0  0  0  0  0  0  0  0  0  0
  150.6982  142.5830  158.8119 C   0  0  0  0  0  0  0  0  0  0  0  0
  149.9864  143.8404  158.2962 C   0  0  0  0  0  0  0  0  0  0  0  0
  148.6685  143.7629  158.4875 F   0  0  0  0  0  0  0  0  0  0  0  0
  150.3987  144.9347  158.9328 F   0  0  0  0  0  0  0  0  0  0  0  0
  150.1763  143.9920  156.9850 F   0  0  0  0  0  0  0  0  0  0  0  0
  150.3738  141.3093  158.2479 N   0  0  0  0  0  0  0  0  0  0  0  0
  149.3892  141.2047  157.1417 C   0  0  0  0  0  0  0  0  0  0  0  0
  149.9564  140.4659  155.8970 C   0  0  2  0  0  0  0  0  0  0  0  0
  151.1028  141.1476  155.4303 O   0  0  0  0  0  0  0  0  0  0  0  0
  148.9182  140.3377  154.7910 C   0  0  0  0  0  0  0  0  0  0  0  0
  148.6306  139.0722  154.2355 C   0  0  0  0  0  0  0  0  0  0  0  0
  147.6663  138.9462  153.2171 C   0  0  0  0  0  0  0  0  0  0  0  0
  146.9831  140.0845  152.7482 C   0  0  0  0  0  0  0  0  0  0  0  0
  147.2647  141.3495  153.2986 C   0  0  0  0  0  0  0  0  0  0  0  0
  148.2296  141.4762  154.3168 C   0  0  0  0  0  0  0  0  0  0  0  0
  150.9393  140.1362  158.6966 C   0  0  0  0  0  0  0  0  0  0  0  0
  150.5974  139.0566  158.2050 O   0  0  0  0  0  0  0  0  0  0  0  0
  154.0868  138.4059  161.4880 H   0  0  0  0  0  0  0  0  0  0  0  0
  153.8457  140.1384  161.4036 H   0  0  0  0  0  0  0  0  0  0  0  0
  153.0089  141.6092  161.0526 H   0  0  0  0  0  0  0  0  0  0  0  0
  151.8758  143.6178  160.2338 H   0  0  0  0  0  0  0  0  0  0  0  0
  148.5138  140.6716  157.5188 H   0  0  0  0  0  0  0  0  0  0  0  0
  148.9454  142.1507  156.8473 H   0  0  0  0  0  0  0  0  0  0  0  0
  150.2904  139.4644  156.1720 H   0  0  0  0  0  0  0  0  0  0  0  0
  151.7956  141.0339  156.0630 H   0  0  0  0  0  0  0  0  0  0  0  0
  149.1447  138.1916  154.5919 H   0  0  0  0  0  0  0  0  0  0  0  0
  147.4496  137.9751  152.7971 H   0  0  0  0  0  0  0  0  0  0  0  0
  146.2426  139.9869  151.9680 H   0  0  0  0  0  0  0  0  0  0  0  0
  146.7396  142.2229  152.9409 H   0  0  0  0  0  0  0  0  0  0  0  0
  148.4378  142.4497  154.7361 H   0  0  0  0  0  0  0  0  0  0  0  0
  1  2  1  0  0  0  0
  1 24  1  0  0  0  0
  1 25  1  0  0  0  0
  2  3  2  0  0  0  0
  2  4  1  0  0  0  0
  4 22  1  0  0  0  0
  4  5  2  0  0  0  0
  5  6  1  0  0  0  0
  5 26  1  0  0  0  0
  6  7  2  0  0  0  0
  6 27  1  0  0  0  0
  7  8  1  0  0  0  0
  7 12  1  0  0  0  0
  8  9  1  0  0  0  0
  8 10  1  0  0  0  0
  8 11  1  0  0  0  0
 12 13  1  0  0  0  0
 12 22  1  0  0  0  0
 13 14  1  0  0  0  0
 13 28  1  0  0  0  0
 13 29  1  0  0  0  0
 14 15  1  0  0  0  0
 14 16  1  0  0  0  0
 14 30  1  0  0  0  0
 15 31  1  0  0  0  0
 16 21  1  0  0  0  0
 16 17  2  0  0  0  0
 17 18  1  0  0  0  0
 17 32  1  0  0  0  0
 18 19  2  0  0  0  0
 18 33  1  0  0  0  0
 19 20  1  0  0  0  0
 19 34  1  0  0  0  0
 20 21  2  0  0  0  0
 20 35  1  0  0  0  0
 21 36  1  0  0  0  0
 22 23  2  0  0  0  0
M  END
> <s_m_source_file>
AV-unprocessed.smi

> <i_m_source_file_index>
2660

> <i_lp_mmshare_version>
43012

> <i_f3d_flags>
0

> <s_epik_input>
W05IMl1DKD1PKWMxW2NIXVtjSF1jKEMoRikoRilGKW4oYzE9TylbQ0gyXVtDQEhdKFtPSF0pYzJbY0hdW2NIXVtjSF1bY0hdW2NIXTI=

> <s_epik_cmdline>
J2VwaWtfcHl0aG9uJywgJy1waCcsICc3LjAnLCAnLXRuJywgJzgnLCAnLW1hJywgJzIwMCcsICctbWV0YWxfYmluZGluZycsICctaW1hZScsICc8aW5maWxlLm1hZT4nLCAnLW9tYWUnLCAnPG91dGZpbGUubWFlPic=

> <r_lp_tautomer_probability>
1

> <r_epik_Ionization_Penalty>
1.58596e-06

> <r_epik_Ionization_Penalty_Charging>
5.13453e-09

> <r_epik_Ionization_Penalty_Neutral>
1.58083e-06

> <r_epik_State_Penalty>
-0

> <r_epik_Charging_Adjusted_Penalty>
5.13453e-09

> <i_epik_Tot_Q>
0

> <i_epik_Tot_abs_Q>
0

> <r_epik_Metal_State_Penalty>
-0

> <b_epik_Metal_Only>
0

> <s_lp_Force_Field>
OPLS_2005

> <r_lp_Energy>
35.2508

> <b_lp_Chiralities_Consistent>
1

> <s_lp_Variant>
AV-unprocessed.smi:2660-1

> <Gold.Version>
5.8.1

> <Gold.Id.Protein>
6NUR|6NUR_protein|mol2

> <Gold.PLP.Fitness>
47.0743

> <Gold.PLP.PLP>
-43.8637

> <Gold.PLP.part.hbond>
-2.0000

> <Gold.PLP.part.metal>
0.0000

> <Gold.PLP.part.buried>
-5.2683

> <Gold.PLP.part.nonpolar>
-36.8983

> <Gold.PLP.part.repulsive>
0.0103

> <Gold.PLP.ligand.clash>
5.2692

> <Gold.PLP.ligand.torsion>
0.1738

> <Gold.PLP.Chemscore.Hbond>
1.7753

> <Gold.PLP.Chemscore.CHOScore>
0.0000

> <Gold.PLP.Chemscore.Metal>
0.0000

> <Gold.Chemscore.Hbonds>
donor molecule, donor type, donor heavy atom, donor atom, acceptor molecule, acceptor atom, score
      P1  H  7989  7998       L1    15  0.59

> <Gold.PLP.Chemscore.Internal.Correction>
3.5016

> <Gold.Rescore>
     Score         DG    S(hbond)    S(metal)    S(lipo)     H(rot)  DE(clash)    DE(int)     intcor
     11.63     -16.39       1.83        0.00      89.41       2.21       0.02       4.74       ----

> <Gold.Chemscore.Fitness>
11.6338

> <Gold.Chemscore.DG>
-16.3923

> <Gold.Chemscore.ZeroCoef>
-5.4800

> <Gold.Chemscore.Hbond>
1.8280

> <Gold.Chemscore.Metal>
0.0000

> <Gold.Chemscore.Lipo>
89.4092

> <Gold.Chemscore.Internal_Hbond>
0.0000

> <Gold.Chemscore.DEClash>
0.0186

> <Gold.Chemscore.DEInternal>
4.7399

> <Gold.Chemscore.Rot>
2.2086

> <Gold.Chemscore.Internal.Correction>
   9.000000E+99

> <Gold.Chemscore.Hbonds>
donor molecule, donor type, donor heavy atom, donor atom, acceptor molecule, acceptor atom, score
      P1  H  7989  7998       L1    15  0.50

> <Gold.Chemscore.Hbond.Weighted>
-6.1054

> <Gold.Chemscore.Metal.Weighted>
-0.0000

> <Gold.Chemscore.Lipo.Weighted>
-10.4609

> <Gold.Chemscore.Internal_Hbond.Weighted>
0.0000

> <Gold.Chemscore.DEClash.Weighted>
0.0186

> <Gold.Chemscore.DEInternal.Weighted>
4.7399

> <Gold.Chemscore.Rot.Weighted>
5.6540

> <Gold.Chemscore.Internal.Correction.Weighted>
   9.000000E+99

> <Gold.Protein.RotatedTorsions>
[ 6907 6896 6895 6894 ] final   20.06 input  -60.11 | X-H torsion
[ 7974 7965 7964 7962 ] final -164.15 input  175.53 | X-H torsion
[ 8008 7997 7996 7995 ] final -131.88 input   59.86 | X-H torsion
[ 10167 10162 10161 10158 ] final  -12.94 input  -65.29 | X-H torsion
[ 10718 10713 10712 10709 ] final -145.85 input   66.30 | X-H torsion
[ 10763 10752 10751 10750 ] final   95.29 input  -60.55 | X-H torsion
[ 11005 11000 10999 10996 ] final -179.55 input  -57.11 | X-H torsion

> <Gold.Protein.ActiveResidues>
 VAL166  LYS551  ARG553  GLY616  TRP617  ASP618  TYR619  PRO620  LYS621  CYS622 
 ASP623  PHE694  ASN695  SER759  ASP760  ASP761  ALA762  ILE779  LEU786  VAL792 
 PHE793  MET794  SER795  GLU796  ALA797  LYS798  CYS799  TRP800  GLU811  SER814 

> <Gold.Protein.RotatedAtoms>
  151.8906  135.0418  160.0497 H   0  0  0  0  0  0  0  0  0  0  0  0  # atno 6907 bound_to 6896
  152.2439  133.5154  159.5294 H   0  0  0  0  0  0  0  0  0  0  0  0  # atno 6908 bound_to 6896
  150.7062  134.0968  159.3994 H   0  0  0  0  0  0  0  0  0  0  0  0  # atno 6909 bound_to 6896
  144.7305  140.3003  143.6205 H   0  0  0  0  0  0  0  0  0  0  0  0  # atno 7974 bound_to 7965
  155.3197  140.0461  157.3038 H   0  0  0  0  0  0  0  0  0  0  0  0  # atno 8008 bound_to 7997
  154.5387  140.2281  155.8644 H   0  0  0  0  0  0  0  0  0  0  0  0  # atno 8009 bound_to 7997
  156.1860  140.3062  155.9246 H   0  0  0  0  0  0  0  0  0  0  0  0  # atno 8010 bound_to 7997
  140.7172  143.5479  150.9334 H   0  0  0  0  0  0  0  0  0  0  0  0  # atno 10167 bound_to 10162
  156.3876  130.7869  151.2068 H   0  0  0  0  0  0  0  0  0  0  0  0  # atno 10718 bound_to 10713
  153.2514  135.4259  155.0801 H   0  0  0  0  0  0  0  0  0  0  0  0  # atno 10763 bound_to 10752
  154.8383  135.3427  154.6507 H   0  0  0  0  0  0  0  0  0  0  0  0  # atno 10764 bound_to 10752
  153.6928  135.7033  153.5142 H   0  0  0  0  0  0  0  0  0  0  0  0  # atno 10765 bound_to 10752
  140.4174  134.6636  157.4646 H   0  0  0  0  0  0  0  0  0  0  0  0  # atno 11005 bound_to 11000
  145.7767  139.1876  143.2181 LP  0  0  0  0  0  0  0  0  0  0  0  0  # atno 17320 bound_to 7965
  146.0867  140.7703  142.9615 LP  0  0  0  0  0  0  0  0  0  0  0  0  # atno 17321 bound_to 7965
  139.9203  143.6614  152.3098 LP  0  0  0  0  0  0  0  0  0  0  0  0  # atno 17342 bound_to 10162
  139.7029  144.7632  151.1243 LP  0  0  0  0  0  0  0  0  0  0  0  0  # atno 17343 bound_to 10162
  157.7497  131.0325  150.4230 LP  0  0  0  0  0  0  0  0  0  0  0  0  # atno 17370 bound_to 10713
  156.4486  130.4006  149.6651 LP  0  0  0  0  0  0  0  0  0  0  0  0  # atno 17371 bound_to 10713
  140.0224  134.6527  155.9221 LP  0  0  0  0  0  0  0  0  0  0  0  0  # atno 17394 bound_to 11000
  141.1797  133.6545  156.4971 LP  0  0  0  0  0  0  0  0  0  0  0  0  # atno 17395 bound_to 11000

$$$$
