#       Name:                AV-unprocessed.smi:2061
#       Creating user name   scv26
#       Creation time:       Fri Mar 27 11:03:55 2020


#       File generated by GOLD software.
#

@<TRIPOS>MOLECULE
AV-unprocessed.smi:2061
    53    54     1
SMALL
NO_CHARGES


@<TRIPOS>ATOM
      1 ****        -4.5220   6.8950   2.2752 C.3            1 S1                 0.0000
      2 ****        -3.9220   5.5605   1.9932 C.2            1 S1                 0.0000
      3 ****        -3.1480   5.0857   0.9718 C.2            1 S1                 0.0000
      4 ****        -2.9349   3.7294   1.3360 C.2            1 S1                 0.0000
      5 ****        -2.1613   2.8685   0.5162 N.am           1 S1                 0.0000
      6 ****        -1.8746   1.5731   0.7305 C.2            1 S1                 0.0000
      7 ****        -2.2389   0.9197   1.7083 O.2            1 S1                 0.0000
      8 ****        -1.1250   1.0713  -0.2623 N.am           1 S1                 0.0000
      9 ****        -0.6337  -0.3027  -0.3474 C.3            1 S1                 0.0000
     10 ****         0.9166  -0.4004  -0.2697 C.3            1 S1                 0.0000
     11 ****         1.4001   0.2732   1.0406 C.3            1 S1                 0.0000
     12 ****         1.4265  -1.7847  -0.4206 N.3            1 S1                 0.0000
     13 ****         2.8924  -1.8481  -0.3828 C.3            1 S1                 0.0000
     14 ****         3.4590  -3.2704  -0.5622 C.3            1 S1                 0.0000
     15 ****         3.2796  -4.1602   0.6798 C.3            1 S1                 0.0000
     16 ****         2.9199  -3.8760  -1.7345 O.3            1 S1                 0.0000
     17 ****         1.4986  -3.8707  -1.8065 C.3            1 S1                 0.0000
     18 ****         1.0915  -4.4974  -3.1443 C.3            1 S1                 0.0000
     19 ****         0.9803  -2.4283  -1.6602 C.3            1 S1                 0.0000
     20 ****        -3.5259   3.4056   2.4758 N.2            1 S1                 0.0000
     21 ****        -4.1622   4.5771   2.9025 O.3            1 S1                 0.0000
     22 ****        -4.0949   7.6588   1.6251 H              1 S1                 0.0000
     23 ****        -4.3408   7.1913   3.3086 H              1 S1                 0.0000
     24 ****        -5.5997   6.8756   2.1122 H              1 S1                 0.0000
     25 ****        -2.7935   5.6244   0.1057 H              1 S1                 0.0000
     26 ****        -1.7893   3.2830  -0.3253 H              1 S1                 0.0000
     27 ****        -0.8732   1.6867  -1.0219 H              1 S1                 0.0000
     28 ****        -1.0866  -0.9397   0.4143 H              1 S1                 0.0000
     29 ****        -1.0036  -0.6613  -1.3060 H              1 S1                 0.0000
     30 ****         1.3119   0.1932  -1.0956 H              1 S1                 0.0000
     31 ****         1.0071   1.2817   1.1607 H              1 S1                 0.0000
     32 ****         2.4816   0.3925   1.0761 H              1 S1                 0.0000
     33 ****         1.0947  -0.3027   1.9149 H              1 S1                 0.0000
     34 ****         3.2998  -1.2055  -1.1649 H              1 S1                 0.0000
     35 ****         3.2752  -1.4682   0.5623 H              1 S1                 0.0000
     36 ****         4.5322  -3.1811  -0.7332 H              1 S1                 0.0000
     37 ****         3.8030  -3.7372   1.5375 H              1 S1                 0.0000
     38 ****         3.6848  -5.1571   0.5054 H              1 S1                 0.0000
     39 ****         2.2322  -4.2683   0.9605 H              1 S1                 0.0000
     40 ****         1.0908  -4.4867  -1.0045 H              1 S1                 0.0000
     41 ****         0.0068  -4.5332  -3.2478 H              1 S1                 0.0000
     42 ****         1.4661  -5.5180  -3.2256 H              1 S1                 0.0000
     43 ****         1.4905  -3.9284  -3.9845 H              1 S1                 0.0000
     44 ****        -0.1058  -2.4840  -1.6951 H              1 S1                 0.0000
     45 ****         1.2963  -1.8340  -2.5190 H              1 S1                 0.0000
     46 ****        -2.7928   1.3516   2.4201 LP             1 S1                 0.0000
     47 ****        -1.9809  -0.0430   1.7907 LP             1 S1                 0.0000
     48 ****         1.0444  -2.2766   0.3618 LP             1 S1                 0.0000
     49 ****         3.2298  -4.8263  -1.7649 LP             1 S1                 0.0000
     50 ****         3.2739  -3.3844  -2.5300 LP             1 S1                 0.0000
     51 ****        -3.5192   2.5162   2.9330 LP             1 S1                 0.0000
     52 ****        -5.1469   4.4182   2.9740 LP             1 S1                 0.0000
     53 ****        -3.8028   4.8491   3.7952 LP             1 S1                 0.0000
@<TRIPOS>BOND
    1    1    2 1     
    2    1   22 1     
    3    1   23 1     
    4    1   24 1     
    5    2   21 1     
    6    2    3 2     
    7    3    4 1     
    8    3   25 1     
    9    4    5 1     
   10    4   20 2     
   11    5    6 am    
   12    5   26 1     
   13    6    7 2     
   14    6    8 am    
   15    8    9 1     
   16    8   27 1     
   17    9   10 1     
   18    9   28 1     
   19    9   29 1     
   20   10   11 1     
   21   10   12 1     
   22   10   30 1     
   23   11   31 1     
   24   11   32 1     
   25   11   33 1     
   26   12   19 1     
   27   12   13 1     
   28   13   14 1     
   29   13   34 1     
   30   13   35 1     
   31   14   15 1     
   32   14   16 1     
   33   14   36 1     
   34   15   37 1     
   35   15   38 1     
   36   15   39 1     
   37   16   17 1     
   38   17   18 1     
   39   17   19 1     
   40   17   40 1     
   41   18   41 1     
   42   18   42 1     
   43   18   43 1     
   44   19   44 1     
   45   19   45 1     
   46   20   21 1     
   47    7   46 1     
   48    7   47 1     
   49   12   48 1     
   50   16   49 1     
   51   16   50 1     
   52   20   51 1     
   53   21   52 1     
   54   21   53 1     
@<TRIPOS>SUBSTRUCTURE
      1 S1             1
@<TRIPOS>SET
LONE_PAIRS      STATIC     ATOMS    <user>   **** ""
8 46 47 48 49 50 51 52 53
DONOR_HYDROGENS      STATIC     ATOMS    <user>   **** ""
2 26 27
ATOM$BLUE        STATIC     ATOMS    COLORGROUP SYSTEM
8 46 47 48 49 50 51 52 53
ATOM$RED        STATIC     ATOMS    COLORGROUP SYSTEM
2 26 27
