AV-unprocessed.smi:221|AV-procd|sdf|1698|dock8
  -GOLD-   2262020153D 1   1.00000     0.00000
 Structure written by MMmdl.
 50 53  0  0  0  0  0  0  0  0  1 V2000
  142.2012  134.5888  154.4609 N   0  0  0  0  0  0  0  0  0  0  0  0
  142.4937  135.4606  153.4931 C   0  0  0  0  0  0  0  0  0  0  0  0
  141.9737  136.5738  153.4371 O   0  0  0  0  0  0  0  0  0  0  0  0
  143.5331  135.0165  152.4536 C   0  0  2  0  0  0  0  0  0  0  0  0
  143.2661  133.5927  151.9474 C   0  0  0  0  0  0  0  0  0  0  0  0
  144.6368  133.1392  151.4581 C   0  0  1  0  0  0  0  0  0  0  0  0
  144.8584  133.6254  150.2358 F   0  0  0  0  0  0  0  0  0  0  0  0
  145.5962  133.7974  152.4513 C   0  0  0  0  0  0  0  0  0  0  0  0
  144.8844  134.9424  153.0148 N   0  0  0  0  0  0  0  0  0  0  0  0
  145.5694  136.1076  153.0465 C   0  0  0  0  0  0  0  0  0  0  0  0
  145.6329  136.8901  151.9370 N   0  0  0  0  0  0  0  0  0  0  0  0
  146.3046  138.0451  151.9746 C   0  0  0  0  0  0  0  0  0  0  0  0
  146.9692  138.5918  152.9953 N   0  0  0  0  0  0  0  0  0  0  0  0
  146.9053  137.8049  154.1081 C   0  0  0  0  0  0  0  0  0  0  0  0
  146.2306  136.5577  154.2184 C   0  0  0  0  0  0  0  0  0  0  0  0
  146.3797  136.0442  155.5002 N   0  0  0  0  0  0  0  0  0  0  0  0
  147.1044  136.9386  156.1154 C   0  0  0  0  0  0  0  0  0  0  0  0
  147.4716  138.0238  155.3517 N   0  0  0  0  0  0  0  0  0  0  0  0
  148.2790  139.1521  155.7819 C   0  0  0  0  0  0  0  0  0  0  0  0
  149.7915  138.8260  155.8567 C   0  0  1  0  0  0  0  0  0  0  0  0
  150.4449  138.6866  154.4597 C   0  0  0  0  0  0  0  0  0  0  0  0
  150.1501  139.7978  153.6381 O   0  0  0  0  0  0  0  0  0  0  0  0
  150.5501  139.8325  156.7582 C   0  0  1  0  0  0  0  0  0  0  0  0
  150.6123  141.2520  156.2223 C   0  0  0  0  0  0  0  0  0  0  0  0
  150.9715  142.0469  157.4722 C   0  0  0  0  0  0  0  0  0  0  0  0
  150.3282  141.3731  158.5475 O   0  0  0  0  0  0  0  0  0  0  0  0
  149.9070  140.0783  158.1281 C   0  0  0  0  0  0  0  0  0  0  0  0
  143.5174  135.7044  151.6053 H   0  0  0  0  0  0  0  0  0  0  0  0
  144.7440  132.0555  151.4061 H   0  0  0  0  0  0  0  0  0  0  0  0
  141.5227  134.8344  155.1670 H   0  0  0  0  0  0  0  0  0  0  0  0
  142.6568  133.6881  154.4836 H   0  0  0  0  0  0  0  0  0  0  0  0
  142.9383  132.9438  152.7619 H   0  0  0  0  0  0  0  0  0  0  0  0
  142.5071  133.5570  151.1653 H   0  0  0  0  0  0  0  0  0  0  0  0
  145.8101  133.1112  153.2713 H   0  0  0  0  0  0  0  0  0  0  0  0
  146.5514  134.0492  151.9864 H   0  0  0  0  0  0  0  0  0  0  0  0
  146.3096  138.6127  151.0560 H   0  0  0  0  0  0  0  0  0  0  0  0
  147.3990  136.8281  157.1491 H   0  0  0  0  0  0  0  0  0  0  0  0
  148.1052  139.9865  155.1014 H   0  0  0  0  0  0  0  0  0  0  0  0
  147.9064  139.4681  156.7565 H   0  0  0  0  0  0  0  0  0  0  0  0
  149.8759  137.8467  156.3302 H   0  0  0  0  0  0  0  0  0  0  0  0
  151.5275  138.5951  154.5446 H   0  0  0  0  0  0  0  0  0  0  0  0
  150.1081  137.7803  153.9566 H   0  0  0  0  0  0  0  0  0  0  0  0
  150.1151  139.5076  152.7395 H   0  0  0  0  0  0  0  0  0  0  0  0
  151.5730  139.4845  156.9129 H   0  0  0  0  0  0  0  0  0  0  0  0
  151.3441  141.3806  155.4244 H   0  0  0  0  0  0  0  0  0  0  0  0
  149.6363  141.5638  155.8473 H   0  0  0  0  0  0  0  0  0  0  0  0
  152.0487  142.0216  157.6417 H   0  0  0  0  0  0  0  0  0  0  0  0
  150.6621  143.0904  157.4094 H   0  0  0  0  0  0  0  0  0  0  0  0
  148.8190  140.0851  158.0507 H   0  0  0  0  0  0  0  0  0  0  0  0
  150.1870  139.3203  158.8598 H   0  0  0  0  0  0  0  0  0  0  0  0
  1  2  1  0  0  0  0
  1 30  1  0  0  0  0
  1 31  1  0  0  0  0
  2  3  2  0  0  0  0
  2  4  1  0  0  0  0
  4 28  1  0  0  0  0
  4  9  1  0  0  0  0
  4  5  1  0  0  0  0
  5  6  1  0  0  0  0
  5 32  1  0  0  0  0
  5 33  1  0  0  0  0
  6 29  1  0  0  0  0
  6  7  1  0  0  0  0
  6  8  1  0  0  0  0
  8  9  1  0  0  0  0
  8 34  1  0  0  0  0
  8 35  1  0  0  0  0
  9 10  1  0  0  0  0
 10 15  1  0  0  0  0
 10 11  2  0  0  0  0
 11 12  1  0  0  0  0
 12 13  2  0  0  0  0
 12 36  1  0  0  0  0
 13 14  1  0  0  0  0
 14 18  1  0  0  0  0
 14 15  2  0  0  0  0
 15 16  1  0  0  0  0
 16 17  2  0  0  0  0
 17 18  1  0  0  0  0
 17 37  1  0  0  0  0
 18 19  1  0  0  0  0
 19 20  1  0  0  0  0
 19 38  1  0  0  0  0
 19 39  1  0  0  0  0
 20 21  1  0  0  0  0
 20 23  1  0  0  0  0
 20 40  1  0  0  0  0
 21 22  1  0  0  0  0
 21 41  1  0  0  0  0
 21 42  1  0  0  0  0
 22 43  1  0  0  0  0
 23 27  1  0  0  0  0
 23 24  1  0  0  0  0
 23 44  1  0  0  0  0
 24 25  1  0  0  0  0
 24 45  1  0  0  0  0
 24 46  1  0  0  0  0
 25 26  1  0  0  0  0
 25 47  1  0  0  0  0
 25 48  1  0  0  0  0
 26 27  1  0  0  0  0
 27 49  1  0  0  0  0
 27 50  1  0  0  0  0
M  END
> <s_m_source_file>
AV-unprocessed.smi

> <i_m_source_file_index>
221

> <i_lp_mmshare_version>
43012

> <i_f3d_flags>
0

> <s_epik_input>
W05IMl1DKD1PKVtDQEBIXTFbQ0gyXVtDQEBIXShGKVtDSDJdTjFjKG5bY0hdbjIpYyhjMjMpbltjSF1uM1tDSDJdW0NASF0oW0NIMl1bT0hdKVtDQEBIXTRbQ0gyXVtDSDJdT1tDSDJdNA==

> <s_epik_cmdline>
J2VwaWtfcHl0aG9uJywgJy1waCcsICc3LjAnLCAnLXRuJywgJzgnLCAnLW1hJywgJzIwMCcsICctbWV0YWxfYmluZGluZycsICctaW1hZScsICc8aW5maWxlLm1hZT4nLCAnLW9tYWUnLCAnPG91dGZpbGUubWFlPic=

> <r_lp_tautomer_probability>
1

> <r_epik_Ionization_Penalty>
0.000818822

> <r_epik_Ionization_Penalty_Charging>
0

> <r_epik_Ionization_Penalty_Neutral>
0.000818822

> <r_epik_State_Penalty>
0.000440551

> <r_epik_Charging_Adjusted_Penalty>
0.000440551

> <i_epik_Tot_Q>
0

> <i_epik_Tot_abs_Q>
0

> <r_epik_Metal_State_Penalty>
-0

> <b_epik_Metal_Only>
0

> <s_lp_Force_Field>
OPLS_2005

> <r_lp_Energy>
50.4935

> <b_lp_Chiralities_Consistent>
1

> <s_lp_Variant>
AV-unprocessed.smi:221-13

> <Gold.Version>
5.8.1

> <Gold.Id.Protein>
6NUR|6NUR_protein|mol2

> <Gold.PLP.Fitness>
42.6392

> <Gold.PLP.PLP>
-31.7494

> <Gold.PLP.part.hbond>
-3.5501

> <Gold.PLP.part.metal>
0.0000

> <Gold.PLP.part.buried>
-4.8780

> <Gold.PLP.part.nonpolar>
-24.1547

> <Gold.PLP.part.repulsive>
0.7539

> <Gold.PLP.ligand.clash>
0.0000

> <Gold.PLP.ligand.torsion>
1.1838

> <Gold.PLP.Chemscore.Hbond>
3.6560

> <Gold.PLP.Chemscore.CHOScore>
0.6866

> <Gold.PLP.Chemscore.Metal>
0.0000

> <Gold.Chemscore.Hbonds>
donor molecule, donor type, donor heavy atom, donor atom, acceptor molecule, acceptor atom, score
      L1  H     1    30       P1 11000  0.90
      L1  H     1    31       P1 10957  1.00
      L1  H    22    43       P1  7957  0.85
      P1  H  7989  7998       L1    22  0.69
      L1  C    12    36       P1 10171  0.35

> <Gold.PLP.Chemscore.Internal.Correction>
0.2294

> <Gold.Rescore>
     Score         DG    S(hbond)    S(metal)    S(lipo)     H(rot)  DE(clash)    DE(int)     intcor
     11.16     -13.10       3.25        0.00      53.66       3.72       0.03       1.91       ----

> <Gold.Chemscore.Fitness>
11.1619

> <Gold.Chemscore.DG>
-13.1030

> <Gold.Chemscore.ZeroCoef>
-5.4800

> <Gold.Chemscore.Hbond>
3.2542

> <Gold.Chemscore.Metal>
0.0000

> <Gold.Chemscore.Lipo>
53.6556

> <Gold.Chemscore.Internal_Hbond>
0.0000

> <Gold.Chemscore.DEClash>
0.0329

> <Gold.Chemscore.DEInternal>
1.9082

> <Gold.Chemscore.Rot>
3.7202

> <Gold.Chemscore.Internal.Correction>
   9.000000E+99

> <Gold.Chemscore.Hbonds>
donor molecule, donor type, donor heavy atom, donor atom, acceptor molecule, acceptor atom, score
      L1  H     1    30       P1 11000  0.54
      L1  H     1    31       P1 10957  0.95
      L1  H    22    43       P1  7957  0.78
      P1  H  7989  7998       L1    22  0.09

> <Gold.Chemscore.Hbond.Weighted>
-10.8690

> <Gold.Chemscore.Metal.Weighted>
-0.0000

> <Gold.Chemscore.Lipo.Weighted>
-6.2777

> <Gold.Chemscore.Internal_Hbond.Weighted>
0.0000

> <Gold.Chemscore.DEClash.Weighted>
0.0329

> <Gold.Chemscore.DEInternal.Weighted>
1.9082

> <Gold.Chemscore.Rot.Weighted>
9.5237

> <Gold.Chemscore.Internal.Correction.Weighted>
   9.000000E+99

> <Gold.Protein.RotatedTorsions>
[ 6907 6896 6895 6894 ] final   18.97 input  -60.11 | X-H torsion
[ 7974 7965 7964 7962 ] final  -78.73 input  175.53 | X-H torsion
[ 8008 7997 7996 7995 ] final   95.35 input   59.86 | X-H torsion
[ 10167 10162 10161 10158 ] final  136.03 input  -65.29 | X-H torsion
[ 10718 10713 10712 10709 ] final  -29.99 input   66.30 | X-H torsion
[ 10763 10752 10751 10750 ] final   17.39 input  -60.55 | X-H torsion
[ 11005 11000 10999 10996 ] final  171.34 input  -57.11 | X-H torsion

> <Gold.Protein.ActiveResidues>
 VAL166  LYS551  ARG553  GLY616  TRP617  ASP618  TYR619  PRO620  LYS621  CYS622 
 ASP623  PHE694  ASN695  SER759  ASP760  ASP761  ALA762  ILE779  LEU786  VAL792 
 PHE793  MET794  SER795  GLU796  ALA797  LYS798  CYS799  TRP800  GLU811  SER814 

> <Gold.Protein.RotatedAtoms>
  151.8736  135.0480  160.0481 H   0  0  0  0  0  0  0  0  0  0  0  0  # atno 6907 bound_to 6896
  152.2569  133.5258  159.5366 H   0  0  0  0  0  0  0  0  0  0  0  0  # atno 6908 bound_to 6896
  150.7103  134.0800  159.3937 H   0  0  0  0  0  0  0  0  0  0  0  0  # atno 6909 bound_to 6896
  145.5827  140.9445  143.1335 H   0  0  0  0  0  0  0  0  0  0  0  0  # atno 7974 bound_to 7965
  156.0680  140.3287  155.7541 H   0  0  0  0  0  0  0  0  0  0  0  0  # atno 8008 bound_to 7997
  155.5351  140.0597  157.2898 H   0  0  0  0  0  0  0  0  0  0  0  0  # atno 8009 bound_to 7997
  154.4515  140.1920  156.0523 H   0  0  0  0  0  0  0  0  0  0  0  0  # atno 8010 bound_to 7997
  139.5195  144.6486  151.5368 H   0  0  0  0  0  0  0  0  0  0  0  0  # atno 10167 bound_to 10162
  156.4055  130.4398  149.7290 H   0  0  0  0  0  0  0  0  0  0  0  0  # atno 10718 bound_to 10713
  153.1343  135.6747  153.9128 H   0  0  0  0  0  0  0  0  0  0  0  0  # atno 10763 bound_to 10752
  153.8605  135.3082  155.3439 H   0  0  0  0  0  0  0  0  0  0  0  0  # atno 10764 bound_to 10752
  154.7734  135.4927  153.9777 H   0  0  0  0  0  0  0  0  0  0  0  0  # atno 10765 bound_to 10752
  140.3180  134.7461  157.4042 H   0  0  0  0  0  0  0  0  0  0  0  0  # atno 11005 bound_to 11000
  144.7387  139.7512  143.7319 LP  0  0  0  0  0  0  0  0  0  0  0  0  # atno 17320 bound_to 7965
  146.1705  139.4853  142.9931 LP  0  0  0  0  0  0  0  0  0  0  0  0  # atno 17321 bound_to 7965
  140.6281  143.9129  150.6582 LP  0  0  0  0  0  0  0  0  0  0  0  0  # atno 17342 bound_to 10162
  140.2424  143.3653  152.1475 LP  0  0  0  0  0  0  0  0  0  0  0  0  # atno 17343 bound_to 10162
  156.4290  130.7806  151.2825 LP  0  0  0  0  0  0  0  0  0  0  0  0  # atno 17370 bound_to 10713
  157.7505  131.0160  150.3526 LP  0  0  0  0  0  0  0  0  0  0  0  0  # atno 17371 bound_to 10713
  140.0967  134.5528  155.8392 LP  0  0  0  0  0  0  0  0  0  0  0  0  # atno 17394 bound_to 11000
  141.2093  133.6682  156.6430 LP  0  0  0  0  0  0  0  0  0  0  0  0  # atno 17395 bound_to 11000

$$$$
