AV-unprocessed.smi:662|AV-procd|sdf|3246|dock4
  -GOLD-   22720 0193D 1   1.00000     0.00000
 Structure written by MMmdl.
 33 34  0  0  0  0  0  0  0  0  1 V2000
  150.6282  136.4615  156.4999 O   0  0  0  0  0  0  0  0  0  0  0  0
  150.4933  136.3569  155.2802 C   0  0  0  0  0  0  0  0  0  0  0  0
  150.3433  137.4093  154.4602 N   0  0  0  0  0  0  0  0  0  0  0  0
  150.3341  138.8114  154.8699 C   0  0  0  0  0  0  0  0  0  0  0  0
  151.6988  139.2775  155.4133 C   0  0  0  0  0  0  0  0  0  0  0  0
  151.6103  140.3602  156.4405 C   0  0  0  0  0  0  0  0  0  0  0  0
  152.4393  140.4502  157.4833 N   0  0  0  0  0  0  0  0  0  0  0  0
  152.1925  141.5759  158.2768 C   0  0  0  0  0  0  0  0  0  0  0  0
  153.0398  141.8340  159.4892 C   0  0  0  0  0  0  0  0  0  0  0  0
  153.6671  143.0076  159.4084 F   0  0  0  0  0  0  0  0  0  0  0  0
  152.3009  141.8498  160.5981 F   0  0  0  0  0  0  0  0  0  0  0  0
  153.9705  140.8912  159.6341 F   0  0  0  0  0  0  0  0  0  0  0  0
  151.1502  142.3414  157.8130 C   0  0  0  0  0  0  0  0  0  0  0  0
  150.4474  141.6793  156.3634 S   0  0  0  0  0  0  0  0  0  0  0  0
  150.4997  134.9748  154.6177 C   0  0  1  0  0  0  0  0  0  0  0  0
  150.8038  133.8394  155.6100 C   0  0  0  0  0  0  0  0  0  0  0  0
  149.6895  132.8282  155.3703 C   0  0  0  0  0  0  0  0  0  0  0  0
  149.1337  133.2111  154.0006 C   0  0  0  0  0  0  0  0  0  0  0  0
  149.2041  134.6625  154.0017 N   0  0  0  0  0  0  0  0  0  0  0  0
  150.2379  137.2247  153.4732 H   0  0  0  0  0  0  0  0  0  0  0  0
  150.0674  139.4118  154.0002 H   0  0  0  0  0  0  0  0  0  0  0  0
  149.5543  138.9922  155.6116 H   0  0  0  0  0  0  0  0  0  0  0  0
  152.2290  138.4310  155.8509 H   0  0  0  0  0  0  0  0  0  0  0  0
  152.3188  139.6323  154.5894 H   0  0  0  0  0  0  0  0  0  0  0  0
  150.7572  143.2546  158.2341 H   0  0  0  0  0  0  0  0  0  0  0  0
  151.2549  134.9535  153.8296 H   0  0  0  0  0  0  0  0  0  0  0  0
  151.7767  133.3999  155.3873 H   0  0  0  0  0  0  0  0  0  0  0  0
  150.8216  134.1595  156.6533 H   0  0  0  0  0  0  0  0  0  0  0  0
  150.0417  131.7969  155.4064 H   0  0  0  0  0  0  0  0  0  0  0  0
  148.9146  132.9436  156.1294 H   0  0  0  0  0  0  0  0  0  0  0  0
  149.7643  132.8158  153.2027 H   0  0  0  0  0  0  0  0  0  0  0  0
  148.1148  132.8570  153.8429 H   0  0  0  0  0  0  0  0  0  0  0  0
  149.1080  135.0431  153.0711 H   0  0  0  0  0  0  0  0  0  0  0  0
  1  2  2  0  0  0  0
  2  3  1  0  0  0  0
  2 15  1  0  0  0  0
  3  4  1  0  0  0  0
  3 20  1  0  0  0  0
  4  5  1  0  0  0  0
  4 21  1  0  0  0  0
  4 22  1  0  0  0  0
  5  6  1  0  0  0  0
  5 23  1  0  0  0  0
  5 24  1  0  0  0  0
  6 14  1  0  0  0  0
  6  7  2  0  0  0  0
  7  8  1  0  0  0  0
  8  9  1  0  0  0  0
  8 13  2  0  0  0  0
  9 10  1  0  0  0  0
  9 11  1  0  0  0  0
  9 12  1  0  0  0  0
 13 14  1  0  0  0  0
 13 25  1  0  0  0  0
 15 19  1  0  0  0  0
 15 16  1  0  0  0  0
 15 26  1  0  0  0  0
 16 17  1  0  0  0  0
 16 27  1  0  0  0  0
 16 28  1  0  0  0  0
 17 18  1  0  0  0  0
 17 29  1  0  0  0  0
 17 30  1  0  0  0  0
 18 19  1  0  0  0  0
 18 31  1  0  0  0  0
 18 32  1  0  0  0  0
 19 33  1  0  0  0  0
M  END
> <s_m_source_file>
AV-unprocessed.smi

> <i_m_source_file_index>
662

> <i_lp_mmshare_version>
43012

> <i_f3d_flags>
0

> <s_epik_input>
W05IXTFbQ0gyXVtDSDJdW0NIMl1bQ0BIXTFDKD1PKVtOSF1bQ0gyXVtDSDJdYzJuYyhDKEYpKEYpRilbY0hdczI=

> <s_epik_cmdline>
J2VwaWtfcHl0aG9uJywgJy1waCcsICc3LjAnLCAnLXRuJywgJzgnLCAnLW1hJywgJzIwMCcsICctbWV0YWxfYmluZGluZycsICctaW1hZScsICc8aW5maWxlLm1hZT4nLCAnLW9tYWUnLCAnPG91dGZpbGUubWFlPic=

> <r_epik_Ionization_Penalty>
1.64272

> <r_epik_Ionization_Penalty_Charging>
0

> <r_epik_Ionization_Penalty_Neutral>
1.64272

> <r_epik_State_Penalty>
1.74416

> <r_epik_Charging_Adjusted_Penalty>
1.74416

> <i_epik_Tot_Q>
0

> <i_epik_Tot_abs_Q>
0

> <r_epik_Metal_State_Penalty>
1.74416

> <b_epik_Metal_Only>
0

> <s_lp_Force_Field>
OPLS_2005

> <r_lp_Energy>
17.8155

> <b_lp_Chiralities_Consistent>
1

> <s_lp_Variant>
AV-unprocessed.smi:662-4

> <Gold.Version>
5.8.1

> <Gold.Id.Protein>
6NUR|6NUR_protein|mol2

> <Gold.PLP.Fitness>
42.8001

> <Gold.PLP.PLP>
-37.1182

> <Gold.PLP.part.hbond>
-2.7392

> <Gold.PLP.part.metal>
0.0000

> <Gold.PLP.part.buried>
-2.8013

> <Gold.PLP.part.nonpolar>
-28.7610

> <Gold.PLP.part.repulsive>
0.0496

> <Gold.PLP.ligand.clash>
0.0000

> <Gold.PLP.ligand.torsion>
0.5829

> <Gold.PLP.Chemscore.Hbond>
2.2753

> <Gold.PLP.Chemscore.CHOScore>
0.0000

> <Gold.PLP.Chemscore.Metal>
0.0000

> <Gold.Chemscore.Hbonds>
donor molecule, donor type, donor heavy atom, donor atom, acceptor molecule, acceptor atom, score
      L1  H     3    20       P1  7948  0.38
      L1  H    19    33       P1  7948  0.75
      P1  H  7997  8009       L1     7  0.66

> <Gold.PLP.Chemscore.Internal.Correction>
0.0217

> <Gold.Rescore>
     Score         DG    S(hbond)    S(metal)    S(lipo)     H(rot)  DE(clash)    DE(int)     intcor
     15.24     -16.57       2.20        0.00      73.79       1.91       0.74       0.60       ----

> <Gold.Chemscore.Fitness>
15.2363

> <Gold.Chemscore.DG>
-16.5747

> <Gold.Chemscore.ZeroCoef>
-5.4800

> <Gold.Chemscore.Hbond>
2.2005

> <Gold.Chemscore.Metal>
0.0000

> <Gold.Chemscore.Lipo>
73.7886

> <Gold.Chemscore.Internal_Hbond>
0.0000

> <Gold.Chemscore.DEClash>
0.7429

> <Gold.Chemscore.DEInternal>
0.5954

> <Gold.Chemscore.Rot>
1.9095

> <Gold.Chemscore.Internal.Correction>
   9.000000E+99

> <Gold.Chemscore.Hbonds>
donor molecule, donor type, donor heavy atom, donor atom, acceptor molecule, acceptor atom, score
      L1  H     3    20       P1  7948  0.06
      L1  H    19    33       P1  7948  0.09
      P1  H  7997  8009       L1     7  0.28

> <Gold.Chemscore.Hbond.Weighted>
-7.3498

> <Gold.Chemscore.Metal.Weighted>
-0.0000

> <Gold.Chemscore.Lipo.Weighted>
-8.6333

> <Gold.Chemscore.Internal_Hbond.Weighted>
0.0000

> <Gold.Chemscore.DEClash.Weighted>
0.7429

> <Gold.Chemscore.DEInternal.Weighted>
0.5954

> <Gold.Chemscore.Rot.Weighted>
4.8883

> <Gold.Chemscore.Internal.Correction.Weighted>
   9.000000E+99

> <Gold.Protein.RotatedTorsions>
[ 6907 6896 6895 6894 ] final  174.26 input  -60.11 | X-H torsion
[ 7974 7965 7964 7962 ] final  132.15 input  175.53 | X-H torsion
[ 8008 7997 7996 7995 ] final -178.42 input   59.86 | X-H torsion
[ 10167 10162 10161 10158 ] final -121.17 input  -65.29 | X-H torsion
[ 10718 10713 10712 10709 ] final   99.34 input   66.30 | X-H torsion
[ 10763 10752 10751 10750 ] final  -54.57 input  -60.55 | X-H torsion
[ 11005 11000 10999 10996 ] final   24.76 input  -57.11 | X-H torsion

> <Gold.Protein.ActiveResidues>
 VAL166  LYS551  ARG553  GLY616  TRP617  ASP618  TYR619  PRO620  LYS621  CYS622 
 ASP623  PHE694  ASN695  SER759  ASP760  ASP761  ALA762  ILE779  LEU786  VAL792 
 PHE793  MET794  SER795  GLU796  ALA797  LYS798  CYS799  TRP800  GLU811  SER814 

> <Gold.Protein.RotatedAtoms>
  151.7551  133.3330  159.3402 H   0  0  0  0  0  0  0  0  0  0  0  0  # atno 6907 bound_to 6896
  150.7520  134.6156  159.6118 H   0  0  0  0  0  0  0  0  0  0  0  0  # atno 6908 bound_to 6896
  152.3442  134.7095  160.0306 H   0  0  0  0  0  0  0  0  0  0  0  0  # atno 6909 bound_to 6896
  144.9998  139.4323  143.5298 H   0  0  0  0  0  0  0  0  0  0  0  0  # atno 7974 bound_to 7965
  156.0186  140.1256  157.0381 H   0  0  0  0  0  0  0  0  0  0  0  0  # atno 8008 bound_to 7997
  154.4302  140.1073  156.6001 H   0  0  0  0  0  0  0  0  0  0  0  0  # atno 8009 bound_to 7997
  155.5978  140.3470  155.4587 H   0  0  0  0  0  0  0  0  0  0  0  0  # atno 8010 bound_to 7997
  140.0279  143.5277  152.2190 H   0  0  0  0  0  0  0  0  0  0  0  0  # atno 10167 bound_to 10162
  157.6878  131.0667  150.4934 H   0  0  0  0  0  0  0  0  0  0  0  0  # atno 10718 bound_to 10713
  154.1770  135.6450  153.5024 H   0  0  0  0  0  0  0  0  0  0  0  0  # atno 10763 bound_to 10752
  153.0069  135.5397  154.6554 H   0  0  0  0  0  0  0  0  0  0  0  0  # atno 10764 bound_to 10752
  154.5908  135.2934  155.0610 H   0  0  0  0  0  0  0  0  0  0  0  0  # atno 10765 bound_to 10752
  140.3552  134.2186  155.7676 H   0  0  0  0  0  0  0  0  0  0  0  0  # atno 11005 bound_to 11000
  146.3449  139.9379  142.8745 LP  0  0  0  0  0  0  0  0  0  0  0  0  # atno 17320 bound_to 7965
  145.2169  140.9919  143.4068 LP  0  0  0  0  0  0  0  0  0  0  0  0  # atno 17321 bound_to 7965
  139.6095  144.7605  151.2984 LP  0  0  0  0  0  0  0  0  0  0  0  0  # atno 17342 bound_to 10162
  140.7314  143.6851  150.7968 LP  0  0  0  0  0  0  0  0  0  0  0  0  # atno 17343 bound_to 10162
  156.5259  130.4173  149.6226 LP  0  0  0  0  0  0  0  0  0  0  0  0  # atno 17370 bound_to 10713
  156.3112  130.7230  151.2123 LP  0  0  0  0  0  0  0  0  0  0  0  0  # atno 17371 bound_to 10713
  141.2000  133.7997  157.0507 LP  0  0  0  0  0  0  0  0  0  0  0  0  # atno 17394 bound_to 11000
  140.0671  134.9723  157.1404 LP  0  0  0  0  0  0  0  0  0  0  0  0  # atno 17395 bound_to 11000

$$$$
