#       Name:                AV-unprocessed.smi:189
#       Creating user name   scv26
#       Creation time:       Thu Mar 26 19:30:41 2020


#       File generated by GOLD software.
#

@<TRIPOS>MOLECULE
AV-unprocessed.smi:189
    61    65     1
SMALL
NO_CHARGES


@<TRIPOS>ATOM
      1 ****        -2.6387  -0.2651   3.3486 C.3            1 S1                 0.0000
      2 ****        -2.8544   0.6140   2.1083 C.3            1 S1                 0.0000
      3 ****        -4.3135   0.6180   1.5913 C.3            1 S1                 0.0000
      4 ****        -4.1808   0.1754   0.1340 C.3            1 S1                 0.0000
      5 ****        -5.1596   0.7342  -0.9054 C.3            1 S1                 0.0000
      6 ****        -4.7651   0.2065  -2.3019 C.3            1 S1                 0.0000
      7 ****        -3.2809   0.4799  -2.6419 C.3            1 S1                 0.0000
      8 ****        -2.3198  -0.0091  -1.5374 C.3            1 S1                 0.0000
      9 ****        -2.7590   0.5958  -0.1950 C.3            1 S1                 0.0000
     10 ****        -2.0192   0.1827   0.9832 N.3            1 S1                 0.0000
     11 ****        -0.7223   0.5640   1.0142 C.ar           1 S1                 0.0000
     12 ****        -0.3891   1.8787   1.1058 N.ar           1 S1                 0.0000
     13 ****         0.8975   2.2398   1.1271 C.ar           1 S1                 0.0000
     14 ****         1.9837   1.4656   1.0646 N.ar           1 S1                 0.0000
     15 ****         1.6484   0.1468   0.9632 C.ar           1 S1                 0.0000
     16 ****         0.3293  -0.3844   0.9334 C.ar           1 S1                 0.0000
     17 ****         0.3716  -1.7681   0.8277 N.2            1 S1                 0.0000
     18 ****         1.6475  -2.0414   0.7978 C.2            1 S1                 0.0000
     19 ****         2.4863  -0.9507   0.8649 N.pl3          1 S1                 0.0000
     20 ****         3.9414  -0.9702   0.8524 C.3            1 S1                 0.0000
     21 ****         4.5495  -1.1252  -0.5627 C.3            1 S1                 0.0000
     22 ****         4.1680  -2.3829  -1.0908 O.3            1 S1                 0.0000
     23 ****         6.0770  -1.0325  -0.5550 C.3            1 S1                 0.0000
     24 ****         6.3590   0.3092  -1.2203 C.3            1 S1                 0.0000
     25 ****         5.3239   0.4016  -2.1824 O.3            1 S1                 0.0000
     26 ****         4.1252  -0.0146  -1.5445 C.3            1 S1                 0.0000
     27 ****        -3.2796   0.0553   4.1701 H              1 S1                 0.0000
     28 ****        -1.6064  -0.2117   3.6952 H              1 S1                 0.0000
     29 ****        -2.8654  -1.3102   3.1350 H              1 S1                 0.0000
     30 ****        -2.5992   1.6402   2.3771 H              1 S1                 0.0000
     31 ****        -4.9678  -0.0495   2.1530 H              1 S1                 0.0000
     32 ****        -4.7285   1.6247   1.6566 H              1 S1                 0.0000
     33 ****        -4.2384  -0.9152   0.1144 H              1 S1                 0.0000
     34 ****        -6.1809   0.4384  -0.6640 H              1 S1                 0.0000
     35 ****        -5.1350   1.8246  -0.8975 H              1 S1                 0.0000
     36 ****        -4.9467  -0.8683  -2.3419 H              1 S1                 0.0000
     37 ****        -5.4078   0.6528  -3.0613 H              1 S1                 0.0000
     38 ****        -3.0249   0.0090  -3.5913 H              1 S1                 0.0000
     39 ****        -3.1414   1.5521  -2.7859 H              1 S1                 0.0000
     40 ****        -2.3327  -1.0986  -1.4839 H              1 S1                 0.0000
     41 ****        -1.2968   0.2837  -1.7760 H              1 S1                 0.0000
     42 ****        -2.7134   1.6847  -0.2693 H              1 S1                 0.0000
     43 ****         1.0833   3.3010   1.2030 H              1 S1                 0.0000
     44 ****         2.0156  -3.0542   0.7208 H              1 S1                 0.0000
     45 ****         4.3002  -0.0491   1.3137 H              1 S1                 0.0000
     46 ****         4.2752  -1.7832   1.4988 H              1 S1                 0.0000
     47 ****         4.5321  -2.4642  -1.9593 H              1 S1                 0.0000
     48 ****         6.5120  -1.0988   0.4430 H              1 S1                 0.0000
     49 ****         6.5216  -1.8267  -1.1575 H              1 S1                 0.0000
     50 ****         6.2732   1.1286  -0.5046 H              1 S1                 0.0000
     51 ****         7.3457   0.3525  -1.6818 H              1 S1                 0.0000
     52 ****         3.3759  -0.3336  -2.2701 H              1 S1                 0.0000
     53 ****         3.7221   0.8480  -1.0140 H              1 S1                 0.0000
     54 ****        -1.8808  -0.8074   1.0079 LP             1 S1                 0.0000
     55 ****        -1.1054   2.5745   1.1571 LP             1 S1                 0.0000
     56 ****         2.9228   1.8085   1.0890 LP             1 S1                 0.0000
     57 ****        -0.3967  -2.4067   0.7845 LP             1 S1                 0.0000
     58 ****         3.1708  -2.4421  -1.1357 LP             1 S1                 0.0000
     59 ****         4.5195  -3.1150  -0.5073 LP             1 S1                 0.0000
     60 ****         5.5238  -0.1944  -2.9601 LP             1 S1                 0.0000
     61 ****         5.2339   1.3454  -2.5003 LP             1 S1                 0.0000
@<TRIPOS>BOND
    1    1    2 1     
    2    1   27 1     
    3    1   28 1     
    4    1   29 1     
    5    2   10 1     
    6    2    3 1     
    7    2   30 1     
    8    3    4 1     
    9    3   31 1     
   10    3   32 1     
   11    4    9 1     
   12    4    5 1     
   13    4   33 1     
   14    5    6 1     
   15    5   34 1     
   16    5   35 1     
   17    6    7 1     
   18    6   36 1     
   19    6   37 1     
   20    7    8 1     
   21    7   38 1     
   22    7   39 1     
   23    8    9 1     
   24    8   40 1     
   25    8   41 1     
   26    9   10 1     
   27    9   42 1     
   28   10   11 1     
   29   11   16 ar    
   30   11   12 ar    
   31   12   13 ar    
   32   13   14 ar    
   33   13   43 1     
   34   14   15 ar    
   35   15   19 1     
   36   15   16 ar    
   37   16   17 1     
   38   17   18 2     
   39   18   19 1     
   40   18   44 1     
   41   19   20 1     
   42   20   21 1     
   43   20   45 1     
   44   20   46 1     
   45   21   26 1     
   46   21   22 1     
   47   21   23 1     
   48   22   47 1     
   49   23   24 1     
   50   23   48 1     
   51   23   49 1     
   52   24   25 1     
   53   24   50 1     
   54   24   51 1     
   55   25   26 1     
   56   26   52 1     
   57   26   53 1     
   58   10   54 1     
   59   12   55 1     
   60   14   56 1     
   61   17   57 1     
   62   22   58 1     
   63   22   59 1     
   64   25   60 1     
   65   25   61 1     
@<TRIPOS>SUBSTRUCTURE
      1 S1             1
@<TRIPOS>SET
LONE_PAIRS      STATIC     ATOMS    <user>   **** ""
8 54 55 56 57 58 59 60 61
DONOR_HYDROGENS      STATIC     ATOMS    <user>   **** ""
1 47
ATOM$BLUE        STATIC     ATOMS    COLORGROUP SYSTEM
8 54 55 56 57 58 59 60 61
ATOM$RED        STATIC     ATOMS    COLORGROUP SYSTEM
1 47
