AV-unprocessed.smi:794|AV-procd|sdf|3760|dock6
  -GOLD-   22720 1193D 1   1.00000     0.00000
 Structure written by MMmdl.
 41 43  0  0  0  0  0  0  0  0  1 V2000
  146.5111  137.0784  163.0765 C   0  0  0  0  0  0  0  0  0  0  0  0
  147.1825  136.3866  161.9297 C   0  0  0  0  0  0  0  0  0  0  0  0
  147.5477  137.1220  160.7981 N   0  0  0  0  0  0  0  0  0  0  0  0
  148.1322  136.3617  159.8666 C   0  0  0  0  0  0  0  0  0  0  0  0
  148.6075  136.8456  158.6196 N   0  0  0  0  0  0  0  0  0  0  0  0
  149.8763  136.8952  158.1776 C   0  0  0  0  0  0  0  0  0  0  0  0
  150.8676  136.5428  158.8171 O   0  0  0  0  0  0  0  0  0  0  0  0
  149.9359  137.3750  156.9268 N   0  0  0  0  0  0  0  0  0  0  0  0
  151.1628  137.5636  156.1508 C   0  0  2  0  0  0  0  0  0  0  0  0
  152.0324  138.6691  156.7881 C   0  0  1  0  0  0  0  0  0  0  0  0
  153.4580  138.5818  156.2136 C   0  0  0  0  0  0  0  0  0  0  0  0
  153.2692  139.0922  154.7725 C   0  0  0  0  0  0  0  0  0  0  0  0
  151.7607  139.4066  154.7141 C   0  0  2  0  0  0  0  0  0  0  0  0
  151.5071  139.9340  156.1204 C   0  0  0  0  0  0  0  0  0  0  0  0
  150.9585  138.0820  154.6939 C   0  0  2  0  0  0  0  0  0  0  0  0
  149.4952  138.2610  154.2285 C   0  0  0  0  0  0  0  0  0  0  0  0
  148.8222  137.0195  154.2279 O   0  0  0  0  0  0  0  0  0  0  0  0
  148.2739  134.6731  160.3238 S   0  0  0  0  0  0  0  0  0  0  0  0
  147.5039  135.0513  161.8450 C   0  0  0  0  0  0  0  0  0  0  0  0
  147.2622  133.9890  162.8651 C   0  0  0  0  0  0  0  0  0  0  0  0
  145.5683  136.5933  163.3305 H   0  0  0  0  0  0  0  0  0  0  0  0
  146.2912  138.1215  162.8474 H   0  0  0  0  0  0  0  0  0  0  0  0
  147.1409  137.0630  163.9663 H   0  0  0  0  0  0  0  0  0  0  0  0
  147.8968  137.1770  157.9843 H   0  0  0  0  0  0  0  0  0  0  0  0
  149.0720  137.6403  156.4769 H   0  0  0  0  0  0  0  0  0  0  0  0
  151.7188  136.6240  156.1432 H   0  0  0  0  0  0  0  0  0  0  0  0
  152.0102  138.6799  157.8786 H   0  0  0  0  0  0  0  0  0  0  0  0
  154.1392  139.2324  156.7635 H   0  0  0  0  0  0  0  0  0  0  0  0
  153.8619  137.5694  156.2489 H   0  0  0  0  0  0  0  0  0  0  0  0
  153.8601  139.9941  154.6064 H   0  0  0  0  0  0  0  0  0  0  0  0
  153.5701  138.3560  154.0264 H   0  0  0  0  0  0  0  0  0  0  0  0
  151.5015  140.0992  153.9129 H   0  0  0  0  0  0  0  0  0  0  0  0
  150.4555  140.1327  156.3311 H   0  0  0  0  0  0  0  0  0  0  0  0
  152.0914  140.8241  156.3600 H   0  0  0  0  0  0  0  0  0  0  0  0
  151.4315  137.3812  154.0038 H   0  0  0  0  0  0  0  0  0  0  0  0
  148.9569  138.9241  154.9058 H   0  0  0  0  0  0  0  0  0  0  0  0
  149.4406  138.6980  153.2314 H   0  0  0  0  0  0  0  0  0  0  0  0
  148.8817  136.6457  153.3619 H   0  0  0  0  0  0  0  0  0  0  0  0
  147.5240  134.3418  163.8628 H   0  0  0  0  0  0  0  0  0  0  0  0
  147.8588  133.1000  162.6586 H   0  0  0  0  0  0  0  0  0  0  0  0
  146.2124  133.6958  162.8749 H   0  0  0  0  0  0  0  0  0  0  0  0
  1  2  1  0  0  0  0
  1 21  1  0  0  0  0
  1 22  1  0  0  0  0
  1 23  1  0  0  0  0
  2 19  2  0  0  0  0
  2  3  1  0  0  0  0
  3  4  2  0  0  0  0
  4  5  1  0  0  0  0
  4 18  1  0  0  0  0
  5  6  1  0  0  0  0
  5 24  1  0  0  0  0
  6  7  2  0  0  0  0
  6  8  1  0  0  0  0
  8  9  1  0  0  0  0
  8 25  1  0  0  0  0
  9 15  1  0  0  0  0
  9 10  1  0  0  0  0
  9 26  1  0  0  0  0
 10 14  1  0  0  0  0
 10 11  1  0  0  0  0
 10 27  1  0  0  0  0
 11 12  1  0  0  0  0
 11 28  1  0  0  0  0
 11 29  1  0  0  0  0
 12 13  1  0  0  0  0
 12 30  1  0  0  0  0
 12 31  1  0  0  0  0
 13 14  1  0  0  0  0
 13 15  1  0  0  0  0
 13 32  1  0  0  0  0
 14 33  1  0  0  0  0
 14 34  1  0  0  0  0
 15 16  1  0  0  0  0
 15 35  1  0  0  0  0
 16 17  1  0  0  0  0
 16 36  1  0  0  0  0
 16 37  1  0  0  0  0
 17 38  1  0  0  0  0
 18 19  1  0  0  0  0
 19 20  1  0  0  0  0
 20 39  1  0  0  0  0
 20 40  1  0  0  0  0
 20 41  1  0  0  0  0
M  END
> <s_m_source_file>
AV-unprocessed.smi

> <i_m_source_file_index>
794

> <i_lp_mmshare_version>
43012

> <i_f3d_flags>
0

> <s_epik_input>
W0NIM11jMW5jKHNjMVtDSDNdKVtOSF1DKD1PKVtOSF1bQ0BIXShbQ0BASF0yMylbQ0BIXShbQ0gyXVtPSF0pW0NAQEhdKFtDSDJdMylbQ0gyXVtDSDJdMg==

> <s_epik_cmdline>
J2VwaWtfcHl0aG9uJywgJy1waCcsICc3LjAnLCAnLXRuJywgJzgnLCAnLW1hJywgJzIwMCcsICctbWV0YWxfYmluZGluZycsICctaW1hZScsICc8aW5maWxlLm1hZT4nLCAnLW9tYWUnLCAnPG91dGZpbGUubWFlPic=

> <r_lp_tautomer_probability>
0.999

> <r_epik_Ionization_Penalty>
0.000713029

> <r_epik_Ionization_Penalty_Charging>
0

> <r_epik_Ionization_Penalty_Neutral>
0.000713029

> <r_epik_State_Penalty>
0.000177984

> <r_epik_Charging_Adjusted_Penalty>
0.000177984

> <i_epik_Tot_Q>
0

> <i_epik_Tot_abs_Q>
0

> <r_epik_Metal_State_Penalty>
-0

> <b_epik_Metal_Only>
0

> <s_lp_Force_Field>
OPLS_2005

> <r_lp_Energy>
48.2777

> <b_lp_Chiralities_Consistent>
1

> <s_lp_Variant>
AV-unprocessed.smi:794-5

> <Gold.Version>
5.8.1

> <Gold.Id.Protein>
6NUR|6NUR_protein|mol2

> <Gold.PLP.Fitness>
43.0707

> <Gold.PLP.PLP>
-33.8903

> <Gold.PLP.part.hbond>
-4.0000

> <Gold.PLP.part.metal>
0.0000

> <Gold.PLP.part.buried>
-0.1914

> <Gold.PLP.part.nonpolar>
-30.6346

> <Gold.PLP.part.repulsive>
0.1418

> <Gold.PLP.ligand.clash>
0.0000

> <Gold.PLP.ligand.torsion>
0.6431

> <Gold.PLP.Chemscore.Hbond>
3.4840

> <Gold.PLP.Chemscore.CHOScore>
0.0000

> <Gold.PLP.Chemscore.Metal>
0.0000

> <Gold.Chemscore.Hbonds>
donor molecule, donor type, donor heavy atom, donor atom, acceptor molecule, acceptor atom, score
      L1  H    17    38       P1  7948  1.00
      P1  H  6896  6908       L1     7  0.94
      P1  H  6931  6943       L1     3  0.37
      P1  H  6934  6947       L1     3  1.00

> <Gold.PLP.Chemscore.Internal.Correction>
0.0145

> <Gold.Rescore>
     Score         DG    S(hbond)    S(metal)    S(lipo)     H(rot)  DE(clash)    DE(int)     intcor
     18.62     -20.79       2.75        0.00      91.27       1.78       0.19       1.99       ----

> <Gold.Chemscore.Fitness>
18.6163

> <Gold.Chemscore.DG>
-20.7878

> <Gold.Chemscore.ZeroCoef>
-5.4800

> <Gold.Chemscore.Hbond>
2.7501

> <Gold.Chemscore.Metal>
0.0000

> <Gold.Chemscore.Lipo>
91.2720

> <Gold.Chemscore.Internal_Hbond>
0.0000

> <Gold.Chemscore.DEClash>
0.1853

> <Gold.Chemscore.DEInternal>
1.9862

> <Gold.Chemscore.Rot>
1.7798

> <Gold.Chemscore.Internal.Correction>
   9.000000E+99

> <Gold.Chemscore.Hbonds>
donor molecule, donor type, donor heavy atom, donor atom, acceptor molecule, acceptor atom, score
      L1  H    17    38       P1  7948  0.94
      P1  H  6896  6908       L1     7  0.91
      P1  H  6931  6943       L1     3  0.02
      P1  H  6934  6947       L1     3  0.83

> <Gold.Chemscore.Hbond.Weighted>
-9.1852

> <Gold.Chemscore.Metal.Weighted>
-0.0000

> <Gold.Chemscore.Lipo.Weighted>
-10.6788

> <Gold.Chemscore.Internal_Hbond.Weighted>
0.0000

> <Gold.Chemscore.DEClash.Weighted>
0.1853

> <Gold.Chemscore.DEInternal.Weighted>
1.9862

> <Gold.Chemscore.Rot.Weighted>
4.5562

> <Gold.Chemscore.Internal.Correction.Weighted>
   9.000000E+99

> <Gold.Protein.RotatedTorsions>
[ 6907 6896 6895 6894 ] final -157.06 input  -60.11 | X-H torsion
[ 7974 7965 7964 7962 ] final  104.79 input  175.53 | X-H torsion
[ 8008 7997 7996 7995 ] final  -27.96 input   59.86 | X-H torsion
[ 10167 10162 10161 10158 ] final -133.85 input  -65.29 | X-H torsion
[ 10718 10713 10712 10709 ] final   88.80 input   66.30 | X-H torsion
[ 10763 10752 10751 10750 ] final  -59.75 input  -60.55 | X-H torsion
[ 11005 11000 10999 10996 ] final -167.17 input  -57.11 | X-H torsion

> <Gold.Protein.ActiveResidues>
 VAL166  LYS551  ARG553  GLY616  TRP617  ASP618  TYR619  PRO620  LYS621  CYS622 
 ASP623  PHE694  ASN695  SER759  ASP760  ASP761  ALA762  ILE779  LEU786  VAL792 
 PHE793  MET794  SER795  GLU796  ALA797  LYS798  CYS799  TRP800  GLU811  SER814 

> <Gold.Protein.RotatedAtoms>
  151.2972  133.4139  159.2636 H   0  0  0  0  0  0  0  0  0  0  0  0  # atno 6907 bound_to 6896
  151.0227  134.9481  159.8078 H   0  0  0  0  0  0  0  0  0  0  0  0  # atno 6908 bound_to 6896
  152.5328  134.2934  159.9104 H   0  0  0  0  0  0  0  0  0  0  0  0  # atno 6909 bound_to 6896
  145.3281  139.2494  143.3675 H   0  0  0  0  0  0  0  0  0  0  0  0  # atno 7974 bound_to 7965
  154.4353  140.1858  156.1014 H   0  0  0  0  0  0  0  0  0  0  0  0  # atno 8008 bound_to 7997
  156.0289  140.3332  155.7092 H   0  0  0  0  0  0  0  0  0  0  0  0  # atno 8009 bound_to 7997
  155.5868  140.0627  157.2760 H   0  0  0  0  0  0  0  0  0  0  0  0  # atno 8010 bound_to 7997
  139.8940  143.6688  152.2607 H   0  0  0  0  0  0  0  0  0  0  0  0  # atno 10167 bound_to 10162
  157.6951  131.0309  150.3330 H   0  0  0  0  0  0  0  0  0  0  0  0  # atno 10718 bound_to 10713
  154.2585  135.6312  153.5266 H   0  0  0  0  0  0  0  0  0  0  0  0  # atno 10763 bound_to 10752
  152.9900  135.5582  154.5730 H   0  0  0  0  0  0  0  0  0  0  0  0  # atno 10764 bound_to 10752
  154.5273  135.2886  155.1186 H   0  0  0  0  0  0  0  0  0  0  0  0  # atno 10765 bound_to 10752
  140.5562  134.5378  157.5133 H   0  0  0  0  0  0  0  0  0  0  0  0  # atno 11005 bound_to 11000
  146.3056  140.3853  142.8688 LP  0  0  0  0  0  0  0  0  0  0  0  0  # atno 17320 bound_to 7965
  144.8885  140.7494  143.5941 LP  0  0  0  0  0  0  0  0  0  0  0  0  # atno 17321 bound_to 7965
  139.7084  144.7624  151.1154 LP  0  0  0  0  0  0  0  0  0  0  0  0  # atno 17342 bound_to 10162
  140.7721  143.5363  150.9364 LP  0  0  0  0  0  0  0  0  0  0  0  0  # atno 17343 bound_to 10162
  156.3801  130.3879  149.7108 LP  0  0  0  0  0  0  0  0  0  0  0  0  # atno 17370 bound_to 10713
  156.4493  130.7899  151.2920 LP  0  0  0  0  0  0  0  0  0  0  0  0  # atno 17371 bound_to 10713
  139.9430  134.7752  156.0631 LP  0  0  0  0  0  0  0  0  0  0  0  0  # atno 17394 bound_to 11000
  141.1142  133.6633  156.3052 LP  0  0  0  0  0  0  0  0  0  0  0  0  # atno 17395 bound_to 11000

$$$$
