AV-unprocessed.smi:2221|AV-procd|sdf|8980|dock2
  -GOLD-   2272012193D 1   1.00000     0.00000
 Structure written by MMmdl.
 54 55  0  0  0  0  0  0  0  0  3 V2000
  152.2022  145.2019  160.2580 C   0  0  0  0  0  0  0  0  0  0  0  0
  152.0944  143.9055  159.4827 C   0  0  0  0  0  0  0  0  0  0  0  0
  152.8094  142.7627  159.8884 C   0  0  0  0  0  0  0  0  0  0  0  0
  152.6735  141.5870  159.1249 C   0  0  0  0  0  0  0  0  0  0  0  0
  153.4133  140.3211  159.5037 C   0  0  0  0  0  0  0  0  0  0  0  0
  151.8932  141.5084  158.0255 N   0  0  0  0  0  0  0  0  0  0  0  0
  151.1968  142.6025  157.6278 C   0  0  0  0  0  0  0  0  0  0  0  0
  150.3525  142.6241  156.4861 N   0  0  0  0  0  0  0  0  0  0  0  0
  149.6686  141.6016  155.9441 C   0  0  0  0  0  0  0  0  0  0  0  0
  149.6207  140.4573  156.3965 O   0  0  0  0  0  0  0  0  0  0  0  0
  149.0451  141.9720  154.8155 N   0  0  0  0  0  0  0  0  0  0  0  0
  148.2319  141.1006  153.9688 C   0  0  0  0  0  0  0  0  0  0  0  0
  148.8156  139.6764  153.8521 C   0  0  0  0  0  0  0  0  0  0  0  0
  147.8884  138.7275  153.1844 N   0  3  2  0  0  0  0  0  0  0  0  0
  147.2472  139.2888  151.9730 C   0  0  0  0  0  0  0  0  0  0  0  0
  146.4612  138.2026  151.2195 C   0  0  0  0  0  0  0  0  0  0  0  0
  145.3889  137.5239  152.1090 C   0  0  1  0  0  0  0  0  0  0  0  0
  144.6780  136.4103  151.4016 N   0  3  0  0  0  0  0  0  0  0  0  0
  145.5868  135.3387  150.9223 C   0  0  0  0  0  0  0  0  0  0  0  0
  143.5556  135.8225  152.1751 C   0  0  0  0  0  0  0  0  0  0  0  0
  146.0789  137.0340  153.4061 C   0  0  0  0  0  0  0  0  0  0  0  0
  146.8778  138.1486  154.1023 C   0  0  0  0  0  0  0  0  0  0  0  0
  151.2790  143.8221  158.3359 C   0  0  0  0  0  0  0  0  0  0  0  0
  152.5093  145.0173  161.2879 H   0  0  0  0  0  0  0  0  0  0  0  0
  151.2424  145.7189  160.2789 H   0  0  0  0  0  0  0  0  0  0  0  0
  152.9373  145.8586  159.7925 H   0  0  0  0  0  0  0  0  0  0  0  0
  153.4451  142.7876  160.7616 H   0  0  0  0  0  0  0  0  0  0  0  0
  154.0553  140.4818  160.3703 H   0  0  0  0  0  0  0  0  0  0  0  0
  154.0375  139.9838  158.6760 H   0  0  0  0  0  0  0  0  0  0  0  0
  152.7056  139.5279  159.7467 H   0  0  0  0  0  0  0  0  0  0  0  0
  150.2823  143.5150  156.0165 H   0  0  0  0  0  0  0  0  0  0  0  0
  149.1343  142.9338  154.5197 H   0  0  0  0  0  0  0  0  0  0  0  0
  147.2018  141.0761  154.3267 H   0  0  0  0  0  0  0  0  0  0  0  0
  148.1902  141.5518  152.9771 H   0  0  0  0  0  0  0  0  0  0  0  0
  149.7705  139.6947  153.3249 H   0  0  0  0  0  0  0  0  0  0  0  0
  149.0344  139.3233  154.8609 H   0  0  0  0  0  0  0  0  0  0  0  0
  146.5891  140.1131  152.2526 H   0  0  0  0  0  0  0  0  0  0  0  0
  148.0090  139.6997  151.3092 H   0  0  0  0  0  0  0  0  0  0  0  0
  146.0053  138.6750  150.3500 H   0  0  0  0  0  0  0  0  0  0  0  0
  147.1562  137.4515  150.8404 H   0  0  0  0  0  0  0  0  0  0  0  0
  144.6456  138.2772  152.3762 H   0  0  0  0  0  0  0  0  0  0  0  0
  146.1750  134.9269  151.7435 H   0  0  0  0  0  0  0  0  0  0  0  0
  146.2679  135.6983  150.1524 H   0  0  0  0  0  0  0  0  0  0  0  0
  145.0234  134.5214  150.4703 H   0  0  0  0  0  0  0  0  0  0  0  0
  143.8901  135.4843  153.1566 H   0  0  0  0  0  0  0  0  0  0  0  0
  143.1252  134.9675  151.6527 H   0  0  0  0  0  0  0  0  0  0  0  0
  142.7422  136.5352  152.3077 H   0  0  0  0  0  0  0  0  0  0  0  0
  145.3479  136.6606  154.1219 H   0  0  0  0  0  0  0  0  0  0  0  0
  146.7450  136.2003  153.1776 H   0  0  0  0  0  0  0  0  0  0  0  0
  147.3664  137.7374  154.9854 H   0  0  0  0  0  0  0  0  0  0  0  0
  146.2052  138.9339  154.4514 H   0  0  0  0  0  0  0  0  0  0  0  0
  150.7233  144.6880  158.0051 H   0  0  0  0  0  0  0  0  0  0  0  0
  144.2604  136.8127  150.5743 H   0  0  0  0  0  0  0  0  0  0  0  0
  148.4653  137.9611  152.8660 H   0  0  0  0  0  0  0  0  0  0  0  0
  1  2  1  0  0  0  0
  1 24  1  0  0  0  0
  1 25  1  0  0  0  0
  1 26  1  0  0  0  0
  2 23  1  0  0  0  0
  2  3  2  0  0  0  0
  3  4  1  0  0  0  0
  3 27  1  0  0  0  0
  4  5  1  0  0  0  0
  4  6  2  0  0  0  0
  5 28  1  0  0  0  0
  5 29  1  0  0  0  0
  5 30  1  0  0  0  0
  6  7  1  0  0  0  0
  7  8  1  0  0  0  0
  7 23  2  0  0  0  0
  8  9  1  0  0  0  0
  8 31  1  0  0  0  0
  9 10  2  0  0  0  0
  9 11  1  0  0  0  0
 11 12  1  0  0  0  0
 11 32  1  0  0  0  0
 12 13  1  0  0  0  0
 12 33  1  0  0  0  0
 12 34  1  0  0  0  0
 13 14  1  0  0  0  0
 13 35  1  0  0  0  0
 13 36  1  0  0  0  0
 14 22  1  0  0  0  0
 14 15  1  0  0  0  0
 14 54  1  0  0  0  0
 15 16  1  0  0  0  0
 15 37  1  0  0  0  0
 15 38  1  0  0  0  0
 16 17  1  0  0  0  0
 16 39  1  0  0  0  0
 16 40  1  0  0  0  0
 17 18  1  0  0  0  0
 17 21  1  0  0  0  0
 17 41  1  0  0  0  0
 18 19  1  0  0  0  0
 18 20  1  0  0  0  0
 18 53  1  0  0  0  0
 19 42  1  0  0  0  0
 19 43  1  0  0  0  0
 19 44  1  0  0  0  0
 20 45  1  0  0  0  0
 20 46  1  0  0  0  0
 20 47  1  0  0  0  0
 21 22  1  0  0  0  0
 21 48  1  0  0  0  0
 21 49  1  0  0  0  0
 22 50  1  0  0  0  0
 22 51  1  0  0  0  0
 23 52  1  0  0  0  0
M  CHG  1  14   1
M  CHG  1  18   1
M  END
> <s_m_source_file>
AV-unprocessed.smi

> <i_m_source_file_index>
2221

> <i_lp_mmshare_version>
43012

> <i_f3d_flags>
0

> <s_epik_input>
W0NIM11jMVtjSF1jKFtDSDNdKW5jKFtjSF0xKVtOSF1DKD1PKVtOSF1bQ0gyXVtDSDJdTjJbQ0gyXVtDSDJdW0NIXShOKFtDSDNdKVtDSDNdKVtDSDJdW0NIMl0y

> <s_epik_cmdline>
J2VwaWtfcHl0aG9uJywgJy1waCcsICc3LjAnLCAnLXRuJywgJzgnLCAnLW1hJywgJzIwMCcsICctbWV0YWxfYmluZGluZycsICctaW1hZScsICc8aW5maWxlLm1hZT4nLCAnLW9tYWUnLCAnPG91dGZpbGUubWFlPic=

> <r_epik_Ionization_Penalty>
0.206417

> <r_epik_Ionization_Penalty_Charging>
0.206231

> <r_epik_Ionization_Penalty_Neutral>
0.00018626

> <r_epik_State_Penalty>
0.176025

> <r_epik_Charging_Adjusted_Penalty>
0.382256

> <i_epik_Tot_Q>
2

> <i_epik_Tot_abs_Q>
2

> <r_epik_Metal_State_Penalty>
0.176034

> <b_epik_Metal_Only>
0

> <s_lp_Force_Field>
OPLS_2005

> <r_lp_Energy>
36.2622

> <b_lp_Chiralities_Consistent>
1

> <s_lp_Variant>
AV-unprocessed.smi:2221-1

> <Gold.Version>
5.8.1

> <Gold.Id.Protein>
6NUR|6NUR_protein|mol2

> <Gold.PLP.Fitness>
55.1863

> <Gold.PLP.PLP>
-42.5787

> <Gold.PLP.part.hbond>
-5.0000

> <Gold.PLP.part.metal>
0.0000

> <Gold.PLP.part.buried>
3.6185

> <Gold.PLP.part.nonpolar>
-41.8284

> <Gold.PLP.part.repulsive>
0.3334

> <Gold.PLP.ligand.clash>
0.0000

> <Gold.PLP.ligand.torsion>
0.5492

> <Gold.PLP.Chemscore.Hbond>
4.5436

> <Gold.PLP.Chemscore.CHOScore>
0.0000

> <Gold.PLP.Chemscore.Metal>
0.0000

> <Gold.Chemscore.Hbonds>
donor molecule, donor type, donor heavy atom, donor atom, acceptor molecule, acceptor atom, score
      L1  H     8    31       P1  8028  0.72
      L1  H    11    32       P1  8028  0.48
      L1  H    14    54       P1  7948  1.95
      L1  H    18    53       P1 10171  0.80

> <Gold.PLP.Chemscore.Internal.Correction>
0.0752

> <Gold.Rescore>
     Score         DG    S(hbond)    S(metal)    S(lipo)     H(rot)  DE(clash)    DE(int)     intcor
     20.17     -26.40       3.40        0.00     118.59       1.68       3.31       2.92       ----

> <Gold.Chemscore.Fitness>
20.1689

> <Gold.Chemscore.DG>
-26.4013

> <Gold.Chemscore.ZeroCoef>
-5.4800

> <Gold.Chemscore.Hbond>
3.3972

> <Gold.Chemscore.Metal>
0.0000

> <Gold.Chemscore.Lipo>
118.5933

> <Gold.Chemscore.Internal_Hbond>
0.0000

> <Gold.Chemscore.DEClash>
3.3131

> <Gold.Chemscore.DEInternal>
2.9193

> <Gold.Chemscore.Rot>
1.6800

> <Gold.Chemscore.Internal.Correction>
   9.000000E+99

> <Gold.Chemscore.Hbonds>
donor molecule, donor type, donor heavy atom, donor atom, acceptor molecule, acceptor atom, score
      L1  H     8    31       P1  8028  0.72
      L1  H    11    32       P1  8028  0.47
      L1  H    14    54       P1  7948  0.92
      L1  H    18    53       P1 10171  0.78

> <Gold.Chemscore.Hbond.Weighted>
-11.3468

> <Gold.Chemscore.Metal.Weighted>
-0.0000

> <Gold.Chemscore.Lipo.Weighted>
-13.8754

> <Gold.Chemscore.Internal_Hbond.Weighted>
0.0000

> <Gold.Chemscore.DEClash.Weighted>
3.3131

> <Gold.Chemscore.DEInternal.Weighted>
2.9193

> <Gold.Chemscore.Rot.Weighted>
4.3009

> <Gold.Chemscore.Internal.Correction.Weighted>
   9.000000E+99

> <Gold.Protein.RotatedTorsions>
[ 6907 6896 6895 6894 ] final  133.59 input  -60.11 | X-H torsion
[ 7974 7965 7964 7962 ] final  -46.65 input  175.53 | X-H torsion
[ 8008 7997 7996 7995 ] final   69.30 input   59.86 | X-H torsion
[ 10167 10162 10161 10158 ] final -109.31 input  -65.29 | X-H torsion
[ 10718 10713 10712 10709 ] final  142.23 input   66.30 | X-H torsion
[ 10763 10752 10751 10750 ] final -161.35 input  -60.55 | X-H torsion
[ 11005 11000 10999 10996 ] final  -40.31 input  -57.11 | X-H torsion

> <Gold.Protein.ActiveResidues>
 VAL166  LYS551  ARG553  GLY616  TRP617  ASP618  TYR619  PRO620  LYS621  CYS622 
 ASP623  PHE694  ASN695  SER759  ASP760  ASP761  ALA762  ILE779  LEU786  VAL792 
 PHE793  MET794  SER795  GLU796  ALA797  LYS798  CYS799  TRP800  GLU811  SER814 

> <Gold.Protein.RotatedAtoms>
  152.3203  133.5847  159.5739 H   0  0  0  0  0  0  0  0  0  0  0  0  # atno 6907 bound_to 6896
  150.7368  134.0021  159.3650 H   0  0  0  0  0  0  0  0  0  0  0  0  # atno 6908 bound_to 6896
  151.7906  135.0737  160.0437 H   0  0  0  0  0  0  0  0  0  0  0  0  # atno 6909 bound_to 6896
  145.9698  140.7395  142.9416 H   0  0  0  0  0  0  0  0  0  0  0  0  # atno 7974 bound_to 7965
  155.7215  140.3493  155.5018 H   0  0  0  0  0  0  0  0  0  0  0  0  # atno 8008 bound_to 7997
  155.9265  140.1076  157.1187 H   0  0  0  0  0  0  0  0  0  0  0  0  # atno 8009 bound_to 7997
  154.4078  140.1239  156.4734 H   0  0  0  0  0  0  0  0  0  0  0  0  # atno 8010 bound_to 7997
  140.1567  143.4154  152.1455 H   0  0  0  0  0  0  0  0  0  0  0  0  # atno 10167 bound_to 10162
  157.3830  131.0994  151.0721 H   0  0  0  0  0  0  0  0  0  0  0  0  # atno 10718 bound_to 10713
  154.7311  135.3046  154.8889 H   0  0  0  0  0  0  0  0  0  0  0  0  # atno 10763 bound_to 10752
  153.9732  135.6739  153.4752 H   0  0  0  0  0  0  0  0  0  0  0  0  # atno 10764 bound_to 10752
  153.0919  135.4955  154.8627 H   0  0  0  0  0  0  0  0  0  0  0  0  # atno 10765 bound_to 10752
  141.0165  133.6883  156.2304 H   0  0  0  0  0  0  0  0  0  0  0  0  # atno 11005 bound_to 11000
  144.6834  140.2729  143.7303 LP  0  0  0  0  0  0  0  0  0  0  0  0  # atno 17320 bound_to 7965
  145.7923  139.1931  143.2096 LP  0  0  0  0  0  0  0  0  0  0  0  0  # atno 17321 bound_to 7965
  139.5400  144.7247  151.4765 LP  0  0  0  0  0  0  0  0  0  0  0  0  # atno 17342 bound_to 10162
  140.6669  143.8379  150.6952 LP  0  0  0  0  0  0  0  0  0  0  0  0  # atno 17343 bound_to 10162
  157.1783  130.6298  149.5663 LP  0  0  0  0  0  0  0  0  0  0  0  0  # atno 17370 bound_to 10713
  155.9780  130.4762  150.6628 LP  0  0  0  0  0  0  0  0  0  0  0  0  # atno 17371 bound_to 10713
  140.6645  134.4932  157.5585 LP  0  0  0  0  0  0  0  0  0  0  0  0  # atno 17394 bound_to 11000
  139.9120  134.8324  156.1495 LP  0  0  0  0  0  0  0  0  0  0  0  0  # atno 17395 bound_to 11000

$$$$
