#       Name:                AV-unprocessed.smi:1697
#       Creating user name   scv26
#       Creation time:       Fri Mar 27 07:58:52 2020


#       File generated by GOLD software.
#

@<TRIPOS>MOLECULE
AV-unprocessed.smi:1697
    59    61     1
SMALL
NO_CHARGES


@<TRIPOS>ATOM
      1 ****        -5.8741   4.0324  -0.1159 C.3            1 S1                 0.0000
      2 ****        -5.5596   2.5427  -0.2699 C.3            1 S1                 0.0000
      3 ****        -4.1524   2.3638  -0.2051 O.3            1 S1                 0.0000
      4 ****        -3.7199   1.0214  -0.3895 C.3            1 S1                 0.0000
      5 ****        -3.9240   0.1782   0.8840 C.3            1 S1                 0.0000
      6 ****        -3.2810  -1.2093   0.7197 C.3            1 S1                 0.0000
      7 ****        -1.8534  -1.1402   0.4055 N.3            1 S1                 0.0000
      8 ****        -1.2784  -2.4851   0.3298 C.3            1 S1                 0.0000
      9 ****         0.2591  -2.5490   0.2386 C.3            1 S1                 0.0000
     10 ****         0.6299  -3.9036   0.0803 O.3            1 S1                 0.0000
     11 ****         0.9557  -1.9777   1.4895 C.3            1 S1                 0.0000
     12 ****         2.4007  -1.9700   1.3551 N.pl3          1 S1                 0.0000
     13 ****         3.2764  -2.8539   1.8709 C.2            1 S1                 0.0000
     14 ****         4.5657  -2.6532   1.6125 N.2            1 S1                 0.0000
     15 ****         4.5209  -1.5022   0.8439 C.ar           1 S1                 0.0000
     16 ****         5.5600  -0.7573   0.2441 C.ar           1 S1                 0.0000
     17 ****         5.2771   0.4053  -0.5083 C.ar           1 S1                 0.0000
     18 ****         6.4253   1.1766  -1.1348 C.3            1 S1                 0.0000
     19 ****         3.9365   0.8395  -0.6690 C.ar           1 S1                 0.0000
     20 ****         3.6083   2.0879  -1.4688 C.3            1 S1                 0.0000
     21 ****         2.8865   0.1052  -0.0796 C.ar           1 S1                 0.0000
     22 ****         3.1812  -1.0492   0.6665 C.ar           1 S1                 0.0000
     23 ****        -1.6562  -0.3754  -0.8299 C.3            1 S1                 0.0000
     24 ****        -2.2239   1.0508  -0.7386 C.3            1 S1                 0.0000
     25 ****        -6.9483   4.2103  -0.1670 H              1 S1                 0.0000
     26 ****        -5.4003   4.6164  -0.9053 H              1 S1                 0.0000
     27 ****        -5.5172   4.4109   0.8424 H              1 S1                 0.0000
     28 ****        -6.0591   1.9806   0.5188 H              1 S1                 0.0000
     29 ****        -5.9422   2.1830  -1.2260 H              1 S1                 0.0000
     30 ****        -4.2578   0.5682  -1.2245 H              1 S1                 0.0000
     31 ****        -3.4795   0.6879   1.7399 H              1 S1                 0.0000
     32 ****        -4.9842   0.0606   1.1058 H              1 S1                 0.0000
     33 ****        -3.4264  -1.7725   1.6422 H              1 S1                 0.0000
     34 ****        -3.8050  -1.7609  -0.0624 H              1 S1                 0.0000
     35 ****        -1.5824  -3.0510   1.2117 H              1 S1                 0.0000
     36 ****        -1.7111  -3.0108  -0.5231 H              1 S1                 0.0000
     37 ****         0.6081  -2.0257  -0.6509 H              1 S1                 0.0000
     38 ****         1.5678  -3.9452  -0.0286 H              1 S1                 0.0000
     39 ****         0.6321  -0.9517   1.6694 H              1 S1                 0.0000
     40 ****         0.6851  -2.5496   2.3784 H              1 S1                 0.0000
     41 ****         2.9485  -3.6947   2.4650 H              1 S1                 0.0000
     42 ****         6.5808  -1.0877   0.3678 H              1 S1                 0.0000
     43 ****         6.4907   2.1762  -0.7050 H              1 S1                 0.0000
     44 ****         6.2828   1.2704  -2.2115 H              1 S1                 0.0000
     45 ****         7.3797   0.6769  -0.9670 H              1 S1                 0.0000
     46 ****         2.5411   2.3096  -1.4392 H              1 S1                 0.0000
     47 ****         3.8954   1.9582  -2.5124 H              1 S1                 0.0000
     48 ****         4.1392   2.9512  -1.0671 H              1 S1                 0.0000
     49 ****         1.8604   0.4219  -0.1955 H              1 S1                 0.0000
     50 ****        -0.5949  -0.2954  -1.0597 H              1 S1                 0.0000
     51 ****        -2.1169  -0.8994  -1.6687 H              1 S1                 0.0000
     52 ****        -2.0695   1.5754  -1.6819 H              1 S1                 0.0000
     53 ****        -1.6769   1.6105   0.0214 H              1 S1                 0.0000
     54 ****        -3.8393   2.6723   0.6931 LP             1 S1                 0.0000
     55 ****        -3.7327   2.9277  -0.9162 LP             1 S1                 0.0000
     56 ****        -1.3698  -0.6615   1.1383 LP             1 S1                 0.0000
     57 ****         0.1789  -4.2852  -0.7265 LP             1 S1                 0.0000
     58 ****         0.3605  -4.4245   0.8904 LP             1 S1                 0.0000
     59 ****         5.3585  -3.1917   1.8981 LP             1 S1                 0.0000
@<TRIPOS>BOND
    1    1    2 1     
    2    1   25 1     
    3    1   26 1     
    4    1   27 1     
    5    2    3 1     
    6    2   28 1     
    7    2   29 1     
    8    3    4 1     
    9    4   24 1     
   10    4    5 1     
   11    4   30 1     
   12    5    6 1     
   13    5   31 1     
   14    5   32 1     
   15    6    7 1     
   16    6   33 1     
   17    6   34 1     
   18    7    8 1     
   19    7   23 1     
   20    8    9 1     
   21    8   35 1     
   22    8   36 1     
   23    9   10 1     
   24    9   11 1     
   25    9   37 1     
   26   10   38 1     
   27   11   12 1     
   28   11   39 1     
   29   11   40 1     
   30   12   22 1     
   31   12   13 1     
   32   13   14 2     
   33   13   41 1     
   34   14   15 1     
   35   15   22 ar    
   36   15   16 ar    
   37   16   17 ar    
   38   16   42 1     
   39   17   18 1     
   40   17   19 ar    
   41   18   43 1     
   42   18   44 1     
   43   18   45 1     
   44   19   20 1     
   45   19   21 ar    
   46   20   46 1     
   47   20   47 1     
   48   20   48 1     
   49   21   22 ar    
   50   21   49 1     
   51   23   24 1     
   52   23   50 1     
   53   23   51 1     
   54   24   52 1     
   55   24   53 1     
   56    3   54 1     
   57    3   55 1     
   58    7   56 1     
   59   10   57 1     
   60   10   58 1     
   61   14   59 1     
@<TRIPOS>SUBSTRUCTURE
      1 S1             1
@<TRIPOS>SET
LONE_PAIRS      STATIC     ATOMS    <user>   **** ""
6 54 55 56 57 58 59
DONOR_HYDROGENS      STATIC     ATOMS    <user>   **** ""
1 38
ATOM$BLUE        STATIC     ATOMS    COLORGROUP SYSTEM
6 54 55 56 57 58 59
ATOM$RED        STATIC     ATOMS    COLORGROUP SYSTEM
1 38
