#       Name:                AV-unprocessed.smi:2547
#       Creating user name   scv26
#       Creation time:       Fri Mar 27 14:05:10 2020


#       File generated by GOLD software.
#

@<TRIPOS>MOLECULE
AV-unprocessed.smi:2547
    47    48     1
SMALL
NO_CHARGES


@<TRIPOS>ATOM
      1 ****        -6.2362   2.7235  -0.2206 C.3            1 S1                 0.0000
      2 ****        -4.9941   1.9259  -0.1357 N.4            1 S1                 1.0000
      3 ****        -4.6485   1.5658   1.2620 C.3            1 S1                 0.0000
      4 ****        -3.4256   0.6339   1.3074 C.3            1 S1                 0.0000
      5 ****        -2.2194   1.2658   0.5933 C.3            1 S1                 0.0000
      6 ****        -1.1006   0.3274   0.5817 N.am           1 S1                 0.0000
      7 ****         0.1911   0.6704   0.4712 C.2            1 S1                 0.0000
      8 ****         0.5764   1.8340   0.3593 O.2            1 S1                 0.0000
      9 ****         0.9872  -0.4128   0.4769 N.am           1 S1                 0.0000
     10 ****         2.4032  -0.4579   0.3797 C.ar           1 S1                 0.0000
     11 ****         3.2616   0.5907   0.7880 C.ar           1 S1                 0.0000
     12 ****         4.6549   0.4308   0.6620 C.ar           1 S1                 0.0000
     13 ****         5.1715  -0.7712   0.1398 C.ar           1 S1                 0.0000
     14 ****         4.2850  -1.8060  -0.2454 C.ar           1 S1                 0.0000
     15 ****         4.7217  -3.0408  -0.7723 N.pl3          1 S1                 0.0000
     16 ****         6.1481  -3.3182  -0.8818 C.3            1 S1                 0.0000
     17 ****         3.7436  -4.0634  -1.1265 C.3            1 S1                 0.0000
     18 ****         2.9528  -1.5964  -0.1002 N.pl3          1 S1                 1.0000
     19 ****        -2.6184   1.6624  -0.8406 C.3            1 S1                 0.0000
     20 ****        -3.8587   2.5718  -0.8402 C.3            1 S1                 0.0000
     21 ****        -6.1218   3.6817   0.2880 H              1 S1                 0.0000
     22 ****        -7.0685   2.1892   0.2388 H              1 S1                 0.0000
     23 ****        -6.4999   2.9170  -1.2609 H              1 S1                 0.0000
     24 ****        -4.4508   2.4728   1.8357 H              1 S1                 0.0000
     25 ****        -5.4993   1.0722   1.7334 H              1 S1                 0.0000
     26 ****        -3.1720   0.4105   2.3444 H              1 S1                 0.0000
     27 ****        -3.6788  -0.3185   0.8387 H              1 S1                 0.0000
     28 ****        -1.9286   2.1631   1.1436 H              1 S1                 0.0000
     29 ****        -1.3273  -0.6530   0.6656 H              1 S1                 0.0000
     30 ****         0.5213  -1.3083   0.4858 H              1 S1                 0.0000
     31 ****         2.8778   1.5092   1.2061 H              1 S1                 0.0000
     32 ****         5.3225   1.2229   0.9675 H              1 S1                 0.0000
     33 ****         6.2419  -0.8794   0.0474 H              1 S1                 0.0000
     34 ****         6.6266  -3.2566   0.0961 H              1 S1                 0.0000
     35 ****         6.6278  -2.6035  -1.5512 H              1 S1                 0.0000
     36 ****         6.3285  -4.3173  -1.2786 H              1 S1                 0.0000
     37 ****         3.0536  -3.6892  -1.8836 H              1 S1                 0.0000
     38 ****         3.1684  -4.3636  -0.2502 H              1 S1                 0.0000
     39 ****         4.2275  -4.9535  -1.5291 H              1 S1                 0.0000
     40 ****        -1.7917   2.1729  -1.3363 H              1 S1                 0.0000
     41 ****        -2.8257   0.7673  -1.4294 H              1 S1                 0.0000
     42 ****        -4.1453   2.7948  -1.8686 H              1 S1                 0.0000
     43 ****        -3.6255   3.5244  -0.3617 H              1 S1                 0.0000
     44 ****        -5.1778   1.0589  -0.6205 H              1 S1                 0.0000
     45 ****         2.3225  -2.3479  -0.3797 H              1 S1                 0.0000
     46 ****        -0.0876   2.5816   0.3474 LP             1 S1                 0.0000
     47 ****         1.5534   2.0317   0.2803 LP             1 S1                 0.0000
@<TRIPOS>BOND
    1    1    2 1     
    2    1   21 1     
    3    1   22 1     
    4    1   23 1     
    5    2   20 1     
    6    2    3 1     
    7    2   44 1     
    8    3    4 1     
    9    3   24 1     
   10    3   25 1     
   11    4    5 1     
   12    4   26 1     
   13    4   27 1     
   14    5    6 1     
   15    5   19 1     
   16    5   28 1     
   17    6    7 am    
   18    6   29 1     
   19    7    8 2     
   20    7    9 am    
   21    9   10 1     
   22    9   30 1     
   23   10   18 ar    
   24   10   11 ar    
   25   11   12 ar    
   26   11   31 1     
   27   12   13 ar    
   28   12   32 1     
   29   13   14 ar    
   30   13   33 1     
   31   14   15 1     
   32   14   18 ar    
   33   15   16 1     
   34   15   17 1     
   35   16   34 1     
   36   16   35 1     
   37   16   36 1     
   38   17   37 1     
   39   17   38 1     
   40   17   39 1     
   41   18   45 1     
   42   19   20 1     
   43   19   40 1     
   44   19   41 1     
   45   20   42 1     
   46   20   43 1     
   47    8   46 1     
   48    8   47 1     
@<TRIPOS>SUBSTRUCTURE
      1 S1             1
@<TRIPOS>SET
LONE_PAIRS      STATIC     ATOMS    <user>   **** ""
2 46 47
DONOR_HYDROGENS      STATIC     ATOMS    <user>   **** ""
4 44 29 30 45
ATOM$BLUE        STATIC     ATOMS    COLORGROUP SYSTEM
2 46 47
ATOM$RED        STATIC     ATOMS    COLORGROUP SYSTEM
4 44 29 30 45
