AV-unprocessed.smi:2850|AV-procd|sdf|10967|dock9
  -GOLD-   2272015423D 1   1.00000     0.00000
 Structure written by MMmdl.
 45 46  0  0  0  0  0  0  0  0  2 V2000
  153.8835  141.2132  162.0856 C   0  0  0  0  0  0  0  0  0  0  0  0
  152.8254  142.6613  161.8080 S   0  0  0  0  0  0  0  0  0  0  0  0
  152.2357  142.5655  160.1451 C   0  0  0  0  0  0  0  0  0  0  0  0
  152.4025  143.6468  159.2615 C   0  0  0  0  0  0  0  0  0  0  0  0
  151.9120  143.4843  157.9539 C   0  0  0  0  0  0  0  0  0  0  0  0
  151.2929  142.2591  157.6330 C   0  0  0  0  0  0  0  0  0  0  0  0
  150.8078  142.0674  156.3309 N   0  0  0  0  0  0  0  0  0  0  0  0
  150.9460  140.7913  155.6368 C   0  0  0  0  0  0  0  0  0  0  0  0
  149.6268  140.2930  155.0175 C   0  0  2  0  0  0  0  0  0  0  0  0
  149.7992  139.0032  154.1861 C   0  0  0  0  0  0  0  0  0  0  0  0
  148.5151  138.5927  153.5678 N   0  3  1  0  0  0  0  0  0  0  0  0
  147.5717  137.9579  154.5286 C   0  0  0  0  0  0  0  0  0  0  0  0
  146.0976  138.0492  154.0808 C   0  0  0  0  0  0  0  0  0  0  0  0
  145.1902  137.3002  155.0684 C   0  0  0  0  0  0  0  0  0  0  0  0
  145.8961  137.5123  152.6540 C   0  0  0  0  0  0  0  0  0  0  0  0
  147.9408  139.7135  152.7803 C   0  0  0  0  0  0  0  0  0  0  0  0
  147.8607  141.0083  153.6129 C   0  0  0  0  0  0  0  0  0  0  0  0
  149.1399  141.3155  154.1553 O   0  0  0  0  0  0  0  0  0  0  0  0
  151.1612  141.2627  158.5451 N   0  0  0  0  0  0  0  0  0  0  0  0
  151.6304  141.4101  159.7887 N   0  0  0  0  0  0  0  0  0  0  0  0
  154.2959  141.2389  163.0941 H   0  0  0  0  0  0  0  0  0  0  0  0
  154.7102  141.2038  161.3751 H   0  0  0  0  0  0  0  0  0  0  0  0
  153.3125  140.2915  161.9713 H   0  0  0  0  0  0  0  0  0  0  0  0
  152.8896  144.5598  159.5702 H   0  0  0  0  0  0  0  0  0  0  0  0
  152.0121  144.2739  157.2235 H   0  0  0  0  0  0  0  0  0  0  0  0
  150.3474  142.8301  155.8551 H   0  0  0  0  0  0  0  0  0  0  0  0
  151.7115  140.8839  154.8654 H   0  0  0  0  0  0  0  0  0  0  0  0
  151.3206  140.0548  156.3481 H   0  0  0  0  0  0  0  0  0  0  0  0
  148.8964  140.1316  155.8109 H   0  0  0  0  0  0  0  0  0  0  0  0
  150.5263  139.1747  153.3911 H   0  0  0  0  0  0  0  0  0  0  0  0
  150.1994  138.1909  154.7939 H   0  0  0  0  0  0  0  0  0  0  0  0
  147.8256  136.9028  154.6422 H   0  0  0  0  0  0  0  0  0  0  0  0
  147.6943  138.4004  155.5172 H   0  0  0  0  0  0  0  0  0  0  0  0
  145.7826  139.0922  154.0933 H   0  0  0  0  0  0  0  0  0  0  0  0
  145.4430  136.2404  155.1149 H   0  0  0  0  0  0  0  0  0  0  0  0
  144.1418  137.3790  154.7790 H   0  0  0  0  0  0  0  0  0  0  0  0
  145.2832  137.7085  156.0753 H   0  0  0  0  0  0  0  0  0  0  0  0
  146.1918  136.4655  152.5777 H   0  0  0  0  0  0  0  0  0  0  0  0
  146.4798  138.0779  151.9275 H   0  0  0  0  0  0  0  0  0  0  0  0
  144.8502  137.5834  152.3539 H   0  0  0  0  0  0  0  0  0  0  0  0
  148.5867  139.8853  151.9183 H   0  0  0  0  0  0  0  0  0  0  0  0
  146.9622  139.4558  152.3777 H   0  0  0  0  0  0  0  0  0  0  0  0
  147.5406  141.8366  152.9808 H   0  0  0  0  0  0  0  0  0  0  0  0
  147.1238  140.9254  154.4128 H   0  0  0  0  0  0  0  0  0  0  0  0
  148.7476  137.8639  152.9082 H   0  0  0  0  0  0  0  0  0  0  0  0
  1  2  1  0  0  0  0
  1 21  1  0  0  0  0
  1 22  1  0  0  0  0
  1 23  1  0  0  0  0
  2  3  1  0  0  0  0
  3 20  1  0  0  0  0
  3  4  2  0  0  0  0
  4  5  1  0  0  0  0
  4 24  1  0  0  0  0
  5  6  2  0  0  0  0
  5 25  1  0  0  0  0
  6  7  1  0  0  0  0
  6 19  1  0  0  0  0
  7  8  1  0  0  0  0
  7 26  1  0  0  0  0
  8  9  1  0  0  0  0
  8 27  1  0  0  0  0
  8 28  1  0  0  0  0
  9 18  1  0  0  0  0
  9 10  1  0  0  0  0
  9 29  1  0  0  0  0
 10 11  1  0  0  0  0
 10 30  1  0  0  0  0
 10 31  1  0  0  0  0
 11 12  1  0  0  0  0
 11 16  1  0  0  0  0
 11 45  1  0  0  0  0
 12 13  1  0  0  0  0
 12 32  1  0  0  0  0
 12 33  1  0  0  0  0
 13 14  1  0  0  0  0
 13 15  1  0  0  0  0
 13 34  1  0  0  0  0
 14 35  1  0  0  0  0
 14 36  1  0  0  0  0
 14 37  1  0  0  0  0
 15 38  1  0  0  0  0
 15 39  1  0  0  0  0
 15 40  1  0  0  0  0
 16 17  1  0  0  0  0
 16 41  1  0  0  0  0
 16 42  1  0  0  0  0
 17 18  1  0  0  0  0
 17 43  1  0  0  0  0
 17 44  1  0  0  0  0
 19 20  2  0  0  0  0
M  CHG  1  11   1
M  END
> <s_m_source_file>
AV-unprocessed.smi

> <i_m_source_file_index>
2850

> <i_lp_mmshare_version>
43012

> <i_f3d_flags>
0

> <s_epik_input>
W0NIM11TYzFbY0hdW2NIXWMobm4xKVtOSF1bQ0gyXVtDQEBIXTJbQ0gyXU4oW0NIMl1bQ0gyXU8yKVtDSDJdW0NIXShbQ0gzXSlbQ0gzXQ==

> <s_epik_cmdline>
J2VwaWtfcHl0aG9uJywgJy1waCcsICc3LjAnLCAnLXRuJywgJzgnLCAnLW1hJywgJzIwMCcsICctbWV0YWxfYmluZGluZycsICctaW1hZScsICc8aW5maWxlLm1hZT4nLCAnLW9tYWUnLCAnPG91dGZpbGUubWFlPic=

> <r_lp_tautomer_probability>
0.999978

> <r_epik_Ionization_Penalty>
0.0874875

> <r_epik_Ionization_Penalty_Charging>
0.0831532

> <r_epik_Ionization_Penalty_Neutral>
0.00433433

> <r_epik_State_Penalty>
0.0738301

> <r_epik_Charging_Adjusted_Penalty>
0.156983

> <i_epik_Tot_Q>
1

> <i_epik_Tot_abs_Q>
1

> <r_epik_Metal_State_Penalty>
0.073888

> <b_epik_Metal_Only>
0

> <s_lp_Force_Field>
OPLS_2005

> <r_lp_Energy>
26.7302

> <b_lp_Chiralities_Consistent>
1

> <s_lp_Variant>
AV-unprocessed.smi:2850-3

> <Gold.Version>
5.8.1

> <Gold.Id.Protein>
6NUR|6NUR_protein|mol2

> <Gold.PLP.Fitness>
49.1793

> <Gold.PLP.PLP>
-39.8844

> <Gold.PLP.part.hbond>
-5.0409

> <Gold.PLP.part.metal>
0.0000

> <Gold.PLP.part.buried>
1.8817

> <Gold.PLP.part.nonpolar>
-35.9791

> <Gold.PLP.part.repulsive>
0.3489

> <Gold.PLP.ligand.clash>
0.0000

> <Gold.PLP.ligand.torsion>
0.7451

> <Gold.PLP.Chemscore.Hbond>
3.5559

> <Gold.PLP.Chemscore.CHOScore>
0.0000

> <Gold.PLP.Chemscore.Metal>
0.0000

> <Gold.Chemscore.Hbonds>
donor molecule, donor type, donor heavy atom, donor atom, acceptor molecule, acceptor atom, score
      L1  H     7    26       P1  8028  0.10
      L1  H    11    45       P1  7948  2.00
      P1  H  8011  8017       L1    18  0.27

> <Gold.PLP.Chemscore.Internal.Correction>
0.1176

> <Gold.Rescore>
     Score         DG    S(hbond)    S(metal)    S(lipo)     H(rot)  DE(clash)    DE(int)     intcor
     18.78     -21.66       2.40        0.00     104.75       1.60       2.06       0.82       ----

> <Gold.Chemscore.Fitness>
18.7782

> <Gold.Chemscore.DG>
-21.6639

> <Gold.Chemscore.ZeroCoef>
-5.4800

> <Gold.Chemscore.Hbond>
2.4027

> <Gold.Chemscore.Metal>
0.0000

> <Gold.Chemscore.Lipo>
104.7491

> <Gold.Chemscore.Internal_Hbond>
0.0000

> <Gold.Chemscore.DEClash>
2.0640

> <Gold.Chemscore.DEInternal>
0.8217

> <Gold.Chemscore.Rot>
1.6003

> <Gold.Chemscore.Internal.Correction>
   9.000000E+99

> <Gold.Chemscore.Hbonds>
donor molecule, donor type, donor heavy atom, donor atom, acceptor molecule, acceptor atom, score
      L1  H     7    26       P1  8028  0.13
      L1  H    11    45       P1  7948  1.00
      P1  H  8011  8017       L1    18  0.03

> <Gold.Chemscore.Hbond.Weighted>
-8.0251

> <Gold.Chemscore.Metal.Weighted>
-0.0000

> <Gold.Chemscore.Lipo.Weighted>
-12.2556

> <Gold.Chemscore.Internal_Hbond.Weighted>
0.0000

> <Gold.Chemscore.DEClash.Weighted>
2.0640

> <Gold.Chemscore.DEInternal.Weighted>
0.8217

> <Gold.Chemscore.Rot.Weighted>
4.0968

> <Gold.Chemscore.Internal.Correction.Weighted>
   9.000000E+99

> <Gold.Protein.RotatedTorsions>
[ 6907 6896 6895 6894 ] final -124.48 input  -60.11 | X-H torsion
[ 7974 7965 7964 7962 ] final  -25.00 input  175.53 | X-H torsion
[ 8008 7997 7996 7995 ] final   82.62 input   59.86 | X-H torsion
[ 10167 10162 10161 10158 ] final  103.08 input  -65.29 | X-H torsion
[ 10718 10713 10712 10709 ] final   41.06 input   66.30 | X-H torsion
[ 10763 10752 10751 10750 ] final  110.37 input  -60.55 | X-H torsion
[ 11005 11000 10999 10996 ] final  -21.95 input  -57.11 | X-H torsion

> <Gold.Protein.ActiveResidues>
 VAL166  LYS551  ARG553  GLY616  TRP617  ASP618  TYR619  PRO620  LYS621  CYS622 
 ASP623  PHE694  ASN695  SER759  ASP760  ASP761  ALA762  ILE779  LEU786  VAL792 
 PHE793  MET794  SER795  GLU796  ALA797  LYS798  CYS799  TRP800  GLU811  SER814 

> <Gold.Protein.RotatedAtoms>
  150.8772  133.7422  159.2942 H   0  0  0  0  0  0  0  0  0  0  0  0  # atno 6907 bound_to 6896
  151.5014  135.1060  159.9839 H   0  0  0  0  0  0  0  0  0  0  0  0  # atno 6908 bound_to 6896
  152.4736  133.8040  159.7024 H   0  0  0  0  0  0  0  0  0  0  0  0  # atno 6909 bound_to 6896
  146.1519  140.4827  142.8607 H   0  0  0  0  0  0  0  0  0  0  0  0  # atno 7974 bound_to 7965
  155.9130  140.3426  155.6113 H   0  0  0  0  0  0  0  0  0  0  0  0  # atno 8008 bound_to 7997
  155.7365  140.0802  157.2284 H   0  0  0  0  0  0  0  0  0  0  0  0  # atno 8009 bound_to 7997
  154.4058  140.1578  156.2555 H   0  0  0  0  0  0  0  0  0  0  0  0  # atno 8010 bound_to 7997
  139.7293  144.7040  151.0747 H   0  0  0  0  0  0  0  0  0  0  0  0  # atno 10167 bound_to 10162
  157.3893  130.7797  149.7256 H   0  0  0  0  0  0  0  0  0  0  0  0  # atno 10718 bound_to 10713
  153.4481  135.3750  155.2267 H   0  0  0  0  0  0  0  0  0  0  0  0  # atno 10763 bound_to 10752
  154.8755  135.3879  154.4072 H   0  0  0  0  0  0  0  0  0  0  0  0  # atno 10764 bound_to 10752
  153.4627  135.7087  153.6104 H   0  0  0  0  0  0  0  0  0  0  0  0  # atno 10765 bound_to 10752
  140.8610  133.7788  156.0075 H   0  0  0  0  0  0  0  0  0  0  0  0  # atno 11005 bound_to 11000
  144.7915  140.6040  143.6538 LP  0  0  0  0  0  0  0  0  0  0  0  0  # atno 17320 bound_to 7965
  145.4802  139.1496  143.3766 LP  0  0  0  0  0  0  0  0  0  0  0  0  # atno 17321 bound_to 7965
  140.7768  143.5063  150.9708 LP  0  0  0  0  0  0  0  0  0  0  0  0  # atno 17342 bound_to 10162
  139.8751  143.7142  152.3162 LP  0  0  0  0  0  0  0  0  0  0  0  0  # atno 17343 bound_to 10162
  155.9794  130.4040  150.3588 LP  0  0  0  0  0  0  0  0  0  0  0  0  # atno 17370 bound_to 10713
  157.1702  131.0367  151.2799 LP  0  0  0  0  0  0  0  0  0  0  0  0  # atno 17371 bound_to 10713
  140.8683  134.2758  157.5203 LP  0  0  0  0  0  0  0  0  0  0  0  0  # atno 17394 bound_to 11000
  139.8707  134.9554  156.4204 LP  0  0  0  0  0  0  0  0  0  0  0  0  # atno 17395 bound_to 11000

$$$$
