AV-unprocessed.smi:2849|AV-procd|sdf|10962|dock9
  -GOLD-   2272015413D 1   1.00000     0.00000
 Structure written by MMmdl.
 56 59  0  0  0  0  0  0  0  0  3 V2000
  145.6305  133.2702  155.4012 C   0  0  0  0  0  0  0  0  0  0  0  0
  144.6544  134.0044  154.5611 N   0  3  2  0  0  0  0  0  0  0  0  0
  145.0662  134.1981  153.1493 C   0  0  1  0  0  0  0  0  0  0  0  0
  143.8195  134.5637  152.3095 C   0  0  0  0  0  0  0  0  0  0  0  0
  143.0162  135.7561  152.8688 C   0  0  0  0  0  0  0  0  0  0  0  0
  142.8815  135.7084  154.4049 C   0  0  0  0  0  0  0  0  0  0  0  0
  144.1785  135.2868  155.1345 C   0  0  2  0  0  0  0  0  0  0  0  0
  145.3020  136.3545  155.1362 C   0  0  0  0  0  0  0  0  0  0  0  0
  146.0159  136.5412  153.7770 C   0  0  1  0  0  0  0  0  0  0  0  0
  147.3061  137.1955  153.9935 N   0  0  0  0  0  0  0  0  0  0  0  0
  147.5122  138.3137  154.7054 C   0  0  0  0  0  0  0  0  0  0  0  0
  146.6161  138.9361  155.2749 O   0  0  0  0  0  0  0  0  0  0  0  0
  148.8091  138.6667  154.6903 N   0  0  0  0  0  0  0  0  0  0  0  0
  149.4370  139.7443  155.3716 C   0  0  0  0  0  0  0  0  0  0  0  0
  150.6903  139.5036  155.9748 C   0  0  0  0  0  0  0  0  0  0  0  0
  151.3372  140.5382  156.6810 C   0  0  0  0  0  0  0  0  0  0  0  0
  150.7125  141.8026  156.7866 C   0  0  0  0  0  0  0  0  0  0  0  0
  151.2703  142.8960  157.4641 N   0  0  0  0  0  0  0  0  0  0  0  0
  150.3593  143.6278  158.3290 C   0  0  0  0  0  0  0  0  0  0  0  0
  151.2525  144.4622  159.2499 C   0  0  0  0  0  0  0  0  0  0  0  0
  152.6067  143.7432  159.2422 C   0  0  0  0  0  0  0  0  0  0  0  0
  152.4247  142.5643  158.2818 C   0  0  0  0  0  0  0  0  0  0  0  0
  149.5095  141.9912  156.2019 N   0  3  0  0  0  0  0  0  0  0  0  0
  148.8575  141.0290  155.5139 C   0  0  0  0  0  0  0  0  0  0  0  0
  146.2409  135.2018  153.0380 C   0  0  0  0  0  0  0  0  0  0  0  0
  146.5631  133.8191  155.5279 H   0  0  0  0  0  0  0  0  0  0  0  0
  145.8655  132.3040  154.9542 H   0  0  0  0  0  0  0  0  0  0  0  0
  145.2128  133.0818  156.3906 H   0  0  0  0  0  0  0  0  0  0  0  0
  145.4225  133.2386  152.7712 H   0  0  0  0  0  0  0  0  0  0  0  0
  144.1002  134.7551  151.2732 H   0  0  0  0  0  0  0  0  0  0  0  0
  143.1615  133.6941  152.2826 H   0  0  0  0  0  0  0  0  0  0  0  0
  143.4630  136.6959  152.5559 H   0  0  0  0  0  0  0  0  0  0  0  0
  142.0231  135.7665  152.4185 H   0  0  0  0  0  0  0  0  0  0  0  0
  142.5270  136.6693  154.7798 H   0  0  0  0  0  0  0  0  0  0  0  0
  142.1020  134.9873  154.6544 H   0  0  0  0  0  0  0  0  0  0  0  0
  143.9022  135.1052  156.1742 H   0  0  0  0  0  0  0  0  0  0  0  0
  144.9057  137.3112  155.4784 H   0  0  0  0  0  0  0  0  0  0  0  0
  146.0393  136.0663  155.8864 H   0  0  0  0  0  0  0  0  0  0  0  0
  145.3977  137.1819  153.1540 H   0  0  0  0  0  0  0  0  0  0  0  0
  148.1082  136.7630  153.5588 H   0  0  0  0  0  0  0  0  0  0  0  0
  149.4138  138.1160  154.0986 H   0  0  0  0  0  0  0  0  0  0  0  0
  151.1601  138.5341  155.8944 H   0  0  0  0  0  0  0  0  0  0  0  0
  152.3019  140.3563  157.1319 H   0  0  0  0  0  0  0  0  0  0  0  0
  149.6878  144.2588  157.7457 H   0  0  0  0  0  0  0  0  0  0  0  0
  149.7489  142.9446  158.9203 H   0  0  0  0  0  0  0  0  0  0  0  0
  151.3675  145.4715  158.8526 H   0  0  0  0  0  0  0  0  0  0  0  0
  150.8312  144.5464  160.2521 H   0  0  0  0  0  0  0  0  0  0  0  0
  153.3835  144.4165  158.8777 H   0  0  0  0  0  0  0  0  0  0  0  0
  152.9007  143.4047  160.2360 H   0  0  0  0  0  0  0  0  0  0  0  0
  152.2438  141.6461  158.8425 H   0  0  0  0  0  0  0  0  0  0  0  0
  153.3101  142.4118  157.6638 H   0  0  0  0  0  0  0  0  0  0  0  0
  147.8963  141.3250  155.1216 H   0  0  0  0  0  0  0  0  0  0  0  0
  147.1330  134.7211  153.4418 H   0  0  0  0  0  0  0  0  0  0  0  0
  146.4696  135.3934  151.9888 H   0  0  0  0  0  0  0  0  0  0  0  0
  143.8429  133.4037  154.5273 H   0  0  0  0  0  0  0  0  0  0  0  0
  149.0672  142.9066  156.2881 H   0  0  0  0  0  0  0  0  0  0  0  0
  1  2  1  0  0  0  0
  1 26  1  0  0  0  0
  1 27  1  0  0  0  0
  1 28  1  0  0  0  0
  2  7  1  0  0  0  0
  2  3  1  0  0  0  0
  2 55  1  0  0  0  0
  3 25  1  0  0  0  0
  3  4  1  0  0  0  0
  3 29  1  0  0  0  0
  4  5  1  0  0  0  0
  4 30  1  0  0  0  0
  4 31  1  0  0  0  0
  5  6  1  0  0  0  0
  5 32  1  0  0  0  0
  5 33  1  0  0  0  0
  6  7  1  0  0  0  0
  6 34  1  0  0  0  0
  6 35  1  0  0  0  0
  7  8  1  0  0  0  0
  7 36  1  0  0  0  0
  8  9  1  0  0  0  0
  8 37  1  0  0  0  0
  8 38  1  0  0  0  0
  9 10  1  0  0  0  0
  9 25  1  0  0  0  0
  9 39  1  0  0  0  0
 10 11  1  0  0  0  0
 10 40  1  0  0  0  0
 11 12  2  0  0  0  0
 11 13  1  0  0  0  0
 13 14  1  0  0  0  0
 13 41  1  0  0  0  0
 14 24  1  0  0  0  0
 14 15  2  0  0  0  0
 15 16  1  0  0  0  0
 15 42  1  0  0  0  0
 16 17  2  0  0  0  0
 16 43  1  0  0  0  0
 17 18  1  0  0  0  0
 17 23  1  0  0  0  0
 18 22  1  0  0  0  0
 18 19  1  0  0  0  0
 19 20  1  0  0  0  0
 19 44  1  0  0  0  0
 19 45  1  0  0  0  0
 20 21  1  0  0  0  0
 20 46  1  0  0  0  0
 20 47  1  0  0  0  0
 21 22  1  0  0  0  0
 21 48  1  0  0  0  0
 21 49  1  0  0  0  0
 22 50  1  0  0  0  0
 22 51  1  0  0  0  0
 23 24  2  0  0  0  0
 23 56  1  0  0  0  0
 24 52  1  0  0  0  0
 25 53  1  0  0  0  0
 25 54  1  0  0  0  0
M  CHG  1   2   1
M  CHG  1  23   1
M  END
> <s_m_source_file>
AV-unprocessed.smi

> <i_m_source_file_index>
2849

> <i_lp_mmshare_version>
43012

> <i_f3d_flags>
0

> <s_epik_input>
W0NIMl0xW0NIMl1bQ0gyXVtDQEhdKE4oW0NIM10pW0NIXTEyKVtDSDJdW0NASF0oW0NIMl0yKVtOSF1DKD1PKVtOSF1jM1tjSF1bY0hdYyhuW2NIXTMpTjRbQ0gyXVtDSDJdW0NIMl1bQ0gyXTQ=

> <s_epik_cmdline>
J2VwaWtfcHl0aG9uJywgJy1waCcsICc3LjAnLCAnLXRuJywgJzgnLCAnLW1hJywgJzIwMCcsICctbWV0YWxfYmluZGluZycsICctaW1hZScsICc8aW5maWxlLm1hZT4nLCAnLW9tYWUnLCAnPG91dGZpbGUubWFlPic=

> <r_lp_tautomer_probability>
0.999994

> <r_epik_Ionization_Penalty>
1.2404

> <r_epik_Ionization_Penalty_Charging>
1.24038

> <r_epik_Ionization_Penalty_Neutral>
1.86921e-05

> <r_epik_State_Penalty>
1.30821

> <r_epik_Charging_Adjusted_Penalty>
2.54859

> <i_epik_Tot_Q>
2

> <i_epik_Tot_abs_Q>
2

> <r_epik_Metal_State_Penalty>
1.37823

> <b_epik_Metal_Only>
0

> <s_lp_Force_Field>
OPLS_2005

> <r_lp_Energy>
73.3774

> <b_lp_Chiralities_Consistent>
1

> <s_lp_Variant>
AV-unprocessed.smi:2849-6

> <Gold.Version>
5.8.1

> <Gold.Id.Protein>
6NUR|6NUR_protein|mol2

> <Gold.PLP.Fitness>
42.9619

> <Gold.PLP.PLP>
-29.5473

> <Gold.PLP.part.hbond>
-3.0000

> <Gold.PLP.part.metal>
0.0000

> <Gold.PLP.part.buried>
-4.9718

> <Gold.PLP.part.nonpolar>
-22.1882

> <Gold.PLP.part.repulsive>
0.2211

> <Gold.PLP.ligand.clash>
0.0000

> <Gold.PLP.ligand.torsion>
0.6945

> <Gold.PLP.Chemscore.Hbond>
4.9280

> <Gold.PLP.Chemscore.CHOScore>
0.0000

> <Gold.PLP.Chemscore.Metal>
0.0000

> <Gold.Chemscore.Hbonds>
donor molecule, donor type, donor heavy atom, donor atom, acceptor molecule, acceptor atom, score
      L1  H     2    55       P1 10957  1.98
      L1  H    10    40       P1  7948  0.93
      L1  H    23    56       P1  8028  1.98

> <Gold.PLP.Chemscore.Internal.Correction>
0.0197

> <Gold.Rescore>
     Score         DG    S(hbond)    S(metal)    S(lipo)     H(rot)  DE(clash)    DE(int)     intcor
     19.10     -21.76       2.78        0.00      85.88       1.19       0.20       2.47       ----

> <Gold.Chemscore.Fitness>
19.0993

> <Gold.Chemscore.DG>
-21.7603

> <Gold.Chemscore.ZeroCoef>
-5.4800

> <Gold.Chemscore.Hbond>
2.7764

> <Gold.Chemscore.Metal>
0.0000

> <Gold.Chemscore.Lipo>
85.8815

> <Gold.Chemscore.Internal_Hbond>
0.0000

> <Gold.Chemscore.DEClash>
0.1958

> <Gold.Chemscore.DEInternal>
2.4652

> <Gold.Chemscore.Rot>
1.1879

> <Gold.Chemscore.Internal.Correction>
   9.000000E+99

> <Gold.Chemscore.Hbonds>
donor molecule, donor type, donor heavy atom, donor atom, acceptor molecule, acceptor atom, score
      L1  H     2    55       P1 10957  0.92
      L1  H    10    40       P1  7948  0.88
      L1  H    23    56       P1  8028  0.93

> <Gold.Chemscore.Hbond.Weighted>
-9.2732

> <Gold.Chemscore.Metal.Weighted>
-0.0000

> <Gold.Chemscore.Lipo.Weighted>
-10.0481

> <Gold.Chemscore.Internal_Hbond.Weighted>
0.0000

> <Gold.Chemscore.DEClash.Weighted>
0.1958

> <Gold.Chemscore.DEInternal.Weighted>
2.4652

> <Gold.Chemscore.Rot.Weighted>
3.0410

> <Gold.Chemscore.Internal.Correction.Weighted>
   9.000000E+99

> <Gold.Protein.RotatedTorsions>
[ 6907 6896 6895 6894 ] final -164.62 input  -60.11 | X-H torsion
[ 7974 7965 7964 7962 ] final  124.36 input  175.53 | X-H torsion
[ 8008 7997 7996 7995 ] final  120.93 input   59.86 | X-H torsion
[ 10167 10162 10161 10158 ] final  -90.25 input  -65.29 | X-H torsion
[ 10718 10713 10712 10709 ] final   11.06 input   66.30 | X-H torsion
[ 10763 10752 10751 10750 ] final -101.48 input  -60.55 | X-H torsion
[ 11005 11000 10999 10996 ] final    4.47 input  -57.11 | X-H torsion

> <Gold.Protein.ActiveResidues>
 VAL166  LYS551  ARG553  GLY616  TRP617  ASP618  TYR619  PRO620  LYS621  CYS622 
 ASP623  PHE694  ASN695  SER759  ASP760  ASP761  ALA762  ILE779  LEU786  VAL792 
 PHE793  MET794  SER795  GLU796  ALA797  LYS798  CYS799  TRP800  GLU811  SER814 

> <Gold.Protein.RotatedAtoms>
  151.4148  133.3716  159.2748 H   0  0  0  0  0  0  0  0  0  0  0  0  # atno 6907 bound_to 6896
  150.9337  134.8752  159.7578 H   0  0  0  0  0  0  0  0  0  0  0  0  # atno 6908 bound_to 6896
  152.5040  134.4094  159.9495 H   0  0  0  0  0  0  0  0  0  0  0  0  # atno 6909 bound_to 6896
  145.0853  139.3626  143.4888 H   0  0  0  0  0  0  0  0  0  0  0  0  # atno 7974 bound_to 7965
  156.2664  140.2820  156.1227 H   0  0  0  0  0  0  0  0  0  0  0  0  # atno 8008 bound_to 7997
  155.1138  140.0391  157.2749 H   0  0  0  0  0  0  0  0  0  0  0  0  # atno 8009 bound_to 7997
  154.6722  140.2590  155.7001 H   0  0  0  0  0  0  0  0  0  0  0  0  # atno 8010 bound_to 7997
  140.3568  143.2863  151.9662 H   0  0  0  0  0  0  0  0  0  0  0  0  # atno 10167 bound_to 10162
  156.9901  130.6039  149.5685 H   0  0  0  0  0  0  0  0  0  0  0  0  # atno 10718 bound_to 10713
  154.7661  135.4896  153.9557 H   0  0  0  0  0  0  0  0  0  0  0  0  # atno 10763 bound_to 10752
  153.1309  135.6752  153.9187 H   0  0  0  0  0  0  0  0  0  0  0  0  # atno 10764 bound_to 10752
  153.8890  135.3123  155.3425 H   0  0  0  0  0  0  0  0  0  0  0  0  # atno 10765 bound_to 10752
  140.5816  134.0008  155.8050 H   0  0  0  0  0  0  0  0  0  0  0  0  # atno 11005 bound_to 11000
  146.3531  140.0663  142.8626 LP  0  0  0  0  0  0  0  0  0  0  0  0  # atno 17320 bound_to 7965
  145.1129  140.9416  143.4645 LP  0  0  0  0  0  0  0  0  0  0  0  0  # atno 17321 bound_to 7965
  139.4819  144.6028  151.7575 LP  0  0  0  0  0  0  0  0  0  0  0  0  # atno 17342 bound_to 10162
  140.5166  144.0943  150.6010 LP  0  0  0  0  0  0  0  0  0  0  0  0  # atno 17343 bound_to 10162
  156.0210  130.5305  150.8276 LP  0  0  0  0  0  0  0  0  0  0  0  0  # atno 17370 bound_to 10713
  157.5465  131.0942  150.9756 LP  0  0  0  0  0  0  0  0  0  0  0  0  # atno 17371 bound_to 10713
  141.0993  133.9794  157.3107 LP  0  0  0  0  0  0  0  0  0  0  0  0  # atno 17394 bound_to 11000
  139.9315  135.0199  156.8415 LP  0  0  0  0  0  0  0  0  0  0  0  0  # atno 17395 bound_to 11000

$$$$
