AV-unprocessed.smi:765|AV-procd|sdf|3648|dock7
  -GOLD-   22720 1 53D 1   1.00000     0.00000
 Structure written by MMmdl.
 39 40  0  0  0  0  0  0  0  0  1 V2000
  148.0004  138.6247  155.3899 C   0  0  0  0  0  0  0  0  0  0  0  0
  149.4224  138.4078  155.9268 C   0  0  1  0  0  0  0  0  0  0  0  0
  150.4684  138.5187  154.8032 C   0  0  0  0  0  0  0  0  0  0  0  0
  151.8941  138.3222  155.3371 C   0  0  0  0  0  0  0  0  0  0  0  0
  152.2001  139.3089  156.4753 C   0  0  0  0  0  0  0  0  0  0  0  0
  151.1772  139.2025  157.6332 C   0  0  1  0  0  0  0  0  0  0  0  0
  151.2645  137.8804  158.2859 C   0  0  0  0  0  0  0  0  0  0  0  0
  151.3339  136.8440  158.7960 N   0  0  0  0  0  0  0  0  0  0  0  0
  151.4075  140.2814  158.5960 N   0  0  0  0  0  0  0  0  0  0  0  0
  152.5838  140.6530  159.1297 C   0  0  0  0  0  0  0  0  0  0  0  0
  153.6482  140.0886  158.8764 O   0  0  0  0  0  0  0  0  0  0  0  0
  152.5394  141.8519  160.0905 C   0  0  1  0  0  0  0  0  0  0  0  0
  153.8296  142.0024  160.9224 C   0  0  0  0  0  0  0  0  0  0  0  0
  152.2093  143.0709  159.3608 N   0  0  0  0  0  0  0  0  0  0  0  0
  152.1731  144.3641  159.8420 C   0  0  0  0  0  0  0  0  0  0  0  0
  151.7731  145.1734  158.8177 C   0  0  0  0  0  0  0  0  0  0  0  0
  151.5734  144.2731  157.7346 C   0  0  0  0  0  0  0  0  0  0  0  0
  151.8265  143.0173  158.0636 N   0  0  0  0  0  0  0  0  0  0  0  0
  149.7539  139.3982  157.0620 C   0  0  0  0  0  0  0  0  0  0  0  0
  147.8844  139.6219  154.9639 H   0  0  0  0  0  0  0  0  0  0  0  0
  147.2597  138.5132  156.1822 H   0  0  0  0  0  0  0  0  0  0  0  0
  147.7604  137.9005  154.6109 H   0  0  0  0  0  0  0  0  0  0  0  0
  149.4655  137.3952  156.3302 H   0  0  0  0  0  0  0  0  0  0  0  0
  150.2640  137.7800  154.0273 H   0  0  0  0  0  0  0  0  0  0  0  0
  150.3932  139.4963  154.3251 H   0  0  0  0  0  0  0  0  0  0  0  0
  152.0172  137.2979  155.6907 H   0  0  0  0  0  0  0  0  0  0  0  0
  152.6133  138.4564  154.5285 H   0  0  0  0  0  0  0  0  0  0  0  0
  153.2116  139.1275  156.8402 H   0  0  0  0  0  0  0  0  0  0  0  0
  152.1992  140.3242  156.0754 H   0  0  0  0  0  0  0  0  0  0  0  0
  150.5920  140.8095  158.8704 H   0  0  0  0  0  0  0  0  0  0  0  0
  151.7255  141.6693  160.7942 H   0  0  0  0  0  0  0  0  0  0  0  0
  154.0304  141.1009  161.5020 H   0  0  0  0  0  0  0  0  0  0  0  0
  153.7422  142.8298  161.6271 H   0  0  0  0  0  0  0  0  0  0  0  0
  154.7025  142.1933  160.2967 H   0  0  0  0  0  0  0  0  0  0  0  0
  152.4320  144.5988  160.8640 H   0  0  0  0  0  0  0  0  0  0  0  0
  151.6393  146.2446  158.8397 H   0  0  0  0  0  0  0  0  0  0  0  0
  151.2502  144.4921  156.7276 H   0  0  0  0  0  0  0  0  0  0  0  0
  149.6466  140.4176  156.6865 H   0  0  0  0  0  0  0  0  0  0  0  0
  149.0205  139.2926  157.8631 H   0  0  0  0  0  0  0  0  0  0  0  0
  1  2  1  0  0  0  0
  1 20  1  0  0  0  0
  1 21  1  0  0  0  0
  1 22  1  0  0  0  0
  2 19  1  0  0  0  0
  2  3  1  0  0  0  0
  2 23  1  0  0  0  0
  3  4  1  0  0  0  0
  3 24  1  0  0  0  0
  3 25  1  0  0  0  0
  4  5  1  0  0  0  0
  4 26  1  0  0  0  0
  4 27  1  0  0  0  0
  5  6  1  0  0  0  0
  5 28  1  0  0  0  0
  5 29  1  0  0  0  0
  6  7  1  0  0  0  0
  6  9  1  0  0  0  0
  6 19  1  0  0  0  0
  7  8  3  0  0  0  0
  9 10  1  0  0  0  0
  9 30  1  0  0  0  0
 10 11  2  0  0  0  0
 10 12  1  0  0  0  0
 12 13  1  0  0  0  0
 12 14  1  0  0  0  0
 12 31  1  0  0  0  0
 13 32  1  0  0  0  0
 13 33  1  0  0  0  0
 13 34  1  0  0  0  0
 14 18  1  0  0  0  0
 14 15  1  0  0  0  0
 15 16  2  0  0  0  0
 15 35  1  0  0  0  0
 16 17  1  0  0  0  0
 16 36  1  0  0  0  0
 17 18  2  0  0  0  0
 17 37  1  0  0  0  0
 19 38  1  0  0  0  0
 19 39  1  0  0  0  0
M  END
> <s_m_source_file>
AV-unprocessed.smi

> <i_m_source_file_index>
765

> <i_lp_mmshare_version>
43012

> <i_f3d_flags>
0

> <s_epik_input>
W0NIM11bQ0BASF0oW0NIMl0xKVtDSDJdW0NIMl1bQ0gyXVtDQEBdMShDI04pW05IXUMoPU8pW0NASF0oW0NIM10pbjJbY0hdW2NIXVtjSF1uMg==

> <s_epik_cmdline>
J2VwaWtfcHl0aG9uJywgJy1waCcsICc3LjAnLCAnLXRuJywgJzgnLCAnLW1hJywgJzIwMCcsICctbWV0YWxfYmluZGluZycsICctaW1hZScsICc8aW5maWxlLm1hZT4nLCAnLW9tYWUnLCAnPG91dGZpbGUubWFlPic=

> <r_lp_tautomer_probability>
1

> <r_epik_Ionization_Penalty>
2.71142e-05

> <r_epik_Ionization_Penalty_Charging>
0

> <r_epik_Ionization_Penalty_Neutral>
2.71142e-05

> <r_epik_State_Penalty>
-0

> <r_epik_Charging_Adjusted_Penalty>
0

> <i_epik_Tot_Q>
0

> <i_epik_Tot_abs_Q>
0

> <r_epik_Metal_State_Penalty>
-0

> <b_epik_Metal_Only>
0

> <s_lp_Force_Field>
OPLS_2005

> <r_lp_Energy>
11.5189

> <b_lp_Chiralities_Consistent>
1

> <s_lp_Variant>
AV-unprocessed.smi:765-6

> <Gold.Version>
5.8.1

> <Gold.Id.Protein>
6NUR|6NUR_protein|mol2

> <Gold.PLP.Fitness>
44.8593

> <Gold.PLP.PLP>
-37.6321

> <Gold.PLP.part.hbond>
-2.0000

> <Gold.PLP.part.metal>
0.0000

> <Gold.PLP.part.buried>
-4.8351

> <Gold.PLP.part.nonpolar>
-31.5740

> <Gold.PLP.part.repulsive>
0.1910

> <Gold.PLP.ligand.clash>
0.0000

> <Gold.PLP.ligand.torsion>
0.6848

> <Gold.PLP.Chemscore.Hbond>
1.9440

> <Gold.PLP.Chemscore.CHOScore>
0.8880

> <Gold.PLP.Chemscore.Metal>
0.0000

> <Gold.Chemscore.Hbonds>
donor molecule, donor type, donor heavy atom, donor atom, acceptor molecule, acceptor atom, score
      P1  H  6896  6907       L1     8  0.94
      P1  H  7997  8009       L1    11  1.00
      L1  C    17    37       P1  8028  0.90

> <Gold.PLP.Chemscore.Internal.Correction>
0.1008

> <Gold.Rescore>
     Score         DG    S(hbond)    S(metal)    S(lipo)     H(rot)  DE(clash)    DE(int)     intcor
     15.09     -18.31       1.87        0.00      87.21       1.42       0.13       3.09       ----

> <Gold.Chemscore.Fitness>
15.0878

> <Gold.Chemscore.DG>
-18.3102

> <Gold.Chemscore.ZeroCoef>
-5.4800

> <Gold.Chemscore.Hbond>
1.8735

> <Gold.Chemscore.Metal>
0.0000

> <Gold.Chemscore.Lipo>
87.2104

> <Gold.Chemscore.Internal_Hbond>
0.0000

> <Gold.Chemscore.DEClash>
0.1274

> <Gold.Chemscore.DEInternal>
3.0950

> <Gold.Chemscore.Rot>
1.4183

> <Gold.Chemscore.Internal.Correction>
   9.000000E+99

> <Gold.Chemscore.Hbonds>
donor molecule, donor type, donor heavy atom, donor atom, acceptor molecule, acceptor atom, score
      P1  H  6896  6907       L1     8  0.85
      P1  H  7997  8009       L1    11  0.88

> <Gold.Chemscore.Hbond.Weighted>
-6.2575

> <Gold.Chemscore.Metal.Weighted>
-0.0000

> <Gold.Chemscore.Lipo.Weighted>
-10.2036

> <Gold.Chemscore.Internal_Hbond.Weighted>
0.0000

> <Gold.Chemscore.DEClash.Weighted>
0.1274

> <Gold.Chemscore.DEInternal.Weighted>
3.0950

> <Gold.Chemscore.Rot.Weighted>
3.6309

> <Gold.Chemscore.Internal.Correction.Weighted>
   9.000000E+99

> <Gold.Protein.RotatedTorsions>
[ 6907 6896 6895 6894 ] final  -12.19 input  -60.11 | X-H torsion
[ 7974 7965 7964 7962 ] final  -36.47 input  175.53 | X-H torsion
[ 8008 7997 7996 7995 ] final  140.72 input   59.86 | X-H torsion
[ 10167 10162 10161 10158 ] final   38.00 input  -65.29 | X-H torsion
[ 10718 10713 10712 10709 ] final   35.19 input   66.30 | X-H torsion
[ 10763 10752 10751 10750 ] final -133.22 input  -60.55 | X-H torsion
[ 11005 11000 10999 10996 ] final -108.91 input  -57.11 | X-H torsion

> <Gold.Protein.ActiveResidues>
 VAL166  LYS551  ARG553  GLY616  TRP617  ASP618  TYR619  PRO620  LYS621  CYS622 
 ASP623  PHE694  ASN695  SER759  ASP760  ASP761  ALA762  ILE779  LEU786  VAL792 
 PHE793  MET794  SER795  GLU796  ALA797  LYS798  CYS799  TRP800  GLU811  SER814 

> <Gold.Protein.RotatedAtoms>
  151.3745  135.0928  159.9475 H   0  0  0  0  0  0  0  0  0  0  0  0  # atno 6907 bound_to 6896
  152.5126  133.9132  159.7509 H   0  0  0  0  0  0  0  0  0  0  0  0  # atno 6908 bound_to 6896
  150.9553  133.6449  159.2793 H   0  0  0  0  0  0  0  0  0  0  0  0  # atno 6909 bound_to 6896
  146.0659  140.6282  142.8975 H   0  0  0  0  0  0  0  0  0  0  0  0  # atno 7974 bound_to 7965
  156.2975  140.2334  156.4447 H   0  0  0  0  0  0  0  0  0  0  0  0  # atno 8008 bound_to 7997
  154.8154  140.0440  157.1393 H   0  0  0  0  0  0  0  0  0  0  0  0  # atno 8009 bound_to 7997
  154.9375  140.3025  155.5140 H   0  0  0  0  0  0  0  0  0  0  0  0  # atno 8010 bound_to 7997
  140.3978  144.1765  150.6132 H   0  0  0  0  0  0  0  0  0  0  0  0  # atno 10167 bound_to 10162
  157.3196  130.7441  149.6777 H   0  0  0  0  0  0  0  0  0  0  0  0  # atno 10718 bound_to 10713
  154.8735  135.3773  154.4537 H   0  0  0  0  0  0  0  0  0  0  0  0  # atno 10763 bound_to 10752
  153.5211  135.7029  153.5736 H   0  0  0  0  0  0  0  0  0  0  0  0  # atno 10764 bound_to 10752
  153.3982  135.3955  155.1935 H   0  0  0  0  0  0  0  0  0  0  0  0  # atno 10765 bound_to 10752
  141.0876  133.9111  157.2149 H   0  0  0  0  0  0  0  0  0  0  0  0  # atno 11005 bound_to 11000
  144.7202  140.4347  143.7014 LP  0  0  0  0  0  0  0  0  0  0  0  0  # atno 17320 bound_to 7965
  145.6478  139.1560  143.2879 LP  0  0  0  0  0  0  0  0  0  0  0  0  # atno 17321 bound_to 7965
  140.4772  143.2392  151.9007 LP  0  0  0  0  0  0  0  0  0  0  0  0  # atno 17342 bound_to 10162
  139.4786  144.5308  151.8669 LP  0  0  0  0  0  0  0  0  0  0  0  0  # atno 17343 bound_to 10162
  155.9684  130.4227  150.4528 LP  0  0  0  0  0  0  0  0  0  0  0  0  # atno 17370 bound_to 10713
  157.2541  131.0553  151.2361 LP  0  0  0  0  0  0  0  0  0  0  0  0  # atno 17371 bound_to 10713
  139.9697  135.0132  156.9479 LP  0  0  0  0  0  0  0  0  0  0  0  0  # atno 17394 bound_to 11000
  140.5326  134.0798  155.7320 LP  0  0  0  0  0  0  0  0  0  0  0  0  # atno 17395 bound_to 11000

$$$$
