AV-unprocessed.smi:301|AV-procd|sdf|2270|dock1
  -GOLD-   2262022163D 1   1.00000     0.00000
 Structure written by MMmdl.
 32 33  0  0  0  0  0  0  0  0  1 V2000
  151.2956  144.5673  158.3538 C   0  0  0  0  0  0  0  0  0  0  0  0
  151.9686  143.8308  159.4610 C   0  0  0  0  0  0  0  0  0  0  0  0
  152.6864  142.7195  159.2797 N   0  0  0  0  0  0  0  0  0  0  0  0
  153.2078  142.2119  160.4749 C   0  0  0  0  0  0  0  0  0  0  0  0
  154.0409  140.9626  160.4584 C   0  0  0  0  0  0  0  0  0  0  0  0
  153.2262  139.7736  159.9402 C   0  0  0  0  0  0  0  0  0  0  0  0
  153.4731  138.6329  160.3335 O   0  0  0  0  0  0  0  0  0  0  0  0
  152.2508  140.0533  159.0619 N   0  0  0  0  0  0  0  0  0  0  0  0
  151.3525  139.0708  158.4662 C   0  0  0  0  0  0  0  0  0  0  0  0
  151.2528  139.2453  156.9416 C   0  0  2  0  0  0  0  0  0  0  0  0
  150.2865  138.2740  156.2719 C   0  0  0  0  0  0  0  0  0  0  0  0
  150.7577  138.3174  154.8341 C   0  0  0  0  0  0  0  0  0  0  0  0
  152.2673  138.5278  154.9727 C   0  0  0  0  0  0  0  0  0  0  0  0
  152.4949  138.9484  156.3163 O   0  0  0  0  0  0  0  0  0  0  0  0
  152.8796  142.9710  161.5715 C   0  0  0  0  0  0  0  0  0  0  0  0
  151.8923  144.3411  161.1429 S   0  0  0  0  0  0  0  0  0  0  0  0
  151.6269  144.1920  157.3850 H   0  0  0  0  0  0  0  0  0  0  0  0
  151.5310  145.6299  158.4149 H   0  0  0  0  0  0  0  0  0  0  0  0
  150.2152  144.4419  158.4272 H   0  0  0  0  0  0  0  0  0  0  0  0
  154.9152  141.0869  159.8185 H   0  0  0  0  0  0  0  0  0  0  0  0
  154.4212  140.7498  161.4586 H   0  0  0  0  0  0  0  0  0  0  0  0
  152.1096  141.0178  158.7986 H   0  0  0  0  0  0  0  0  0  0  0  0
  151.7227  138.0737  158.7067 H   0  0  0  0  0  0  0  0  0  0  0  0
  150.3639  139.1519  158.9213 H   0  0  0  0  0  0  0  0  0  0  0  0
  150.9688  140.2678  156.6860 H   0  0  0  0  0  0  0  0  0  0  0  0
  150.4109  137.2683  156.6764 H   0  0  0  0  0  0  0  0  0  0  0  0
  149.2420  138.5645  156.3879 H   0  0  0  0  0  0  0  0  0  0  0  0
  150.5031  137.4162  154.2755 H   0  0  0  0  0  0  0  0  0  0  0  0
  150.3085  139.1704  154.3234 H   0  0  0  0  0  0  0  0  0  0  0  0
  152.8147  137.6020  154.7939 H   0  0  0  0  0  0  0  0  0  0  0  0
  152.6301  139.2767  154.2680 H   0  0  0  0  0  0  0  0  0  0  0  0
  153.1543  142.8047  162.6025 H   0  0  0  0  0  0  0  0  0  0  0  0
  1  2  1  0  0  0  0
  1 17  1  0  0  0  0
  1 18  1  0  0  0  0
  1 19  1  0  0  0  0
  2 16  1  0  0  0  0
  2  3  2  0  0  0  0
  3  4  1  0  0  0  0
  4  5  1  0  0  0  0
  4 15  2  0  0  0  0
  5  6  1  0  0  0  0
  5 20  1  0  0  0  0
  5 21  1  0  0  0  0
  6  7  2  0  0  0  0
  6  8  1  0  0  0  0
  8  9  1  0  0  0  0
  8 22  1  0  0  0  0
  9 10  1  0  0  0  0
  9 23  1  0  0  0  0
  9 24  1  0  0  0  0
 10 14  1  0  0  0  0
 10 11  1  0  0  0  0
 10 25  1  0  0  0  0
 11 12  1  0  0  0  0
 11 26  1  0  0  0  0
 11 27  1  0  0  0  0
 12 13  1  0  0  0  0
 12 28  1  0  0  0  0
 12 29  1  0  0  0  0
 13 14  1  0  0  0  0
 13 30  1  0  0  0  0
 13 31  1  0  0  0  0
 15 16  1  0  0  0  0
 15 32  1  0  0  0  0
M  END
> <s_m_source_file>
AV-unprocessed.smi

> <i_m_source_file_index>
301

> <i_lp_mmshare_version>
43012

> <i_f3d_flags>
0

> <s_epik_input>
W0NIM11jMW5jKFtjSF1zMSlbQ0gyXUMoPU8pW05IXVtDSDJdW0NAQEhdMltDSDJdW0NIMl1bQ0gyXU8y

> <s_epik_cmdline>
J2VwaWtfcHl0aG9uJywgJy1waCcsICc3LjAnLCAnLXRuJywgJzgnLCAnLW1hJywgJzIwMCcsICctbWV0YWxfYmluZGluZycsICctaW1hZScsICc8aW5maWxlLm1hZT4nLCAnLW9tYWUnLCAnPG91dGZpbGUubWFlPic=

> <r_lp_tautomer_probability>
1

> <r_epik_Ionization_Penalty>
6.06873e-05

> <r_epik_Ionization_Penalty_Charging>
0

> <r_epik_Ionization_Penalty_Neutral>
6.06873e-05

> <r_epik_State_Penalty>
-0

> <r_epik_Charging_Adjusted_Penalty>
0

> <i_epik_Tot_Q>
0

> <i_epik_Tot_abs_Q>
0

> <r_epik_Metal_State_Penalty>
-0

> <b_epik_Metal_Only>
0

> <s_lp_Force_Field>
OPLS_2005

> <r_lp_Energy>
15.97

> <b_lp_Chiralities_Consistent>
1

> <s_lp_Variant>
AV-unprocessed.smi:301-1

> <Gold.Version>
5.8.1

> <Gold.Id.Protein>
6NUR|6NUR_protein|mol2

> <Gold.PLP.Fitness>
41.5866

> <Gold.PLP.PLP>
-39.4790

> <Gold.PLP.part.hbond>
-1.0000

> <Gold.PLP.part.metal>
0.0000

> <Gold.PLP.part.buried>
-6.3232

> <Gold.PLP.part.nonpolar>
-31.6329

> <Gold.PLP.part.repulsive>
0.1121

> <Gold.PLP.ligand.clash>
0.0000

> <Gold.PLP.ligand.torsion>
0.4526

> <Gold.PLP.Chemscore.Hbond>
1.0000

> <Gold.PLP.Chemscore.CHOScore>
0.0000

> <Gold.PLP.Chemscore.Metal>
0.0000

> <Gold.Chemscore.Hbonds>
donor molecule, donor type, donor heavy atom, donor atom, acceptor molecule, acceptor atom, score
      P1  H  7997  8008       L1    14  0.62

> <Gold.PLP.Chemscore.Internal.Correction>
0.0128

> <Gold.Rescore>
     Score         DG    S(hbond)    S(metal)    S(lipo)     H(rot)  DE(clash)    DE(int)     intcor
     16.48     -16.95       0.94        0.00     104.19       1.51       0.01       0.46       ----

> <Gold.Chemscore.Fitness>
16.4828

> <Gold.Chemscore.DG>
-16.9528

> <Gold.Chemscore.ZeroCoef>
-5.4800

> <Gold.Chemscore.Hbond>
0.9430

> <Gold.Chemscore.Metal>
0.0000

> <Gold.Chemscore.Lipo>
104.1906

> <Gold.Chemscore.Internal_Hbond>
0.0000

> <Gold.Chemscore.DEClash>
0.0081

> <Gold.Chemscore.DEInternal>
0.4619

> <Gold.Chemscore.Rot>
1.5106

> <Gold.Chemscore.Internal.Correction>
   9.000000E+99

> <Gold.Chemscore.Hbonds>
donor molecule, donor type, donor heavy atom, donor atom, acceptor molecule, acceptor atom, score
      P1  H  7997  8008       L1    14  0.38

> <Gold.Chemscore.Hbond.Weighted>
-3.1495

> <Gold.Chemscore.Metal.Weighted>
-0.0000

> <Gold.Chemscore.Lipo.Weighted>
-12.1903

> <Gold.Chemscore.Internal_Hbond.Weighted>
0.0000

> <Gold.Chemscore.DEClash.Weighted>
0.0081

> <Gold.Chemscore.DEInternal.Weighted>
0.4619

> <Gold.Chemscore.Rot.Weighted>
3.8670

> <Gold.Chemscore.Internal.Correction.Weighted>
   9.000000E+99

> <Gold.Protein.RotatedTorsions>
[ 6907 6896 6895 6894 ] final  179.26 input  -60.11 | X-H torsion
[ 7974 7965 7964 7962 ] final  -82.19 input  175.53 | X-H torsion
[ 8008 7997 7996 7995 ] final  -41.54 input   59.86 | X-H torsion
[ 10167 10162 10161 10158 ] final  -15.98 input  -65.29 | X-H torsion
[ 10718 10713 10712 10709 ] final   52.52 input   66.30 | X-H torsion
[ 10763 10752 10751 10750 ] final   85.06 input  -60.55 | X-H torsion
[ 11005 11000 10999 10996 ] final -150.02 input  -57.11 | X-H torsion

> <Gold.Protein.ActiveResidues>
 VAL166  LYS551  ARG553  GLY616  TRP617  ASP618  TYR619  PRO620  LYS621  CYS622 
 ASP623  PHE694  ASN695  SER759  ASP760  ASP761  ALA762  ILE779  LEU786  VAL792 
 PHE793  MET794  SER795  GLU796  ALA797  LYS798  CYS799  TRP800  GLU811  SER814 

> <Gold.Protein.RotatedAtoms>
  151.6745  133.3313  159.3204 H   0  0  0  0  0  0  0  0  0  0  0  0  # atno 6907 bound_to 6896
  150.7852  134.6834  159.6466 H   0  0  0  0  0  0  0  0  0  0  0  0  # atno 6908 bound_to 6896
  152.3920  134.6430  160.0156 H   0  0  0  0  0  0  0  0  0  0  0  0  # atno 6909 bound_to 6896
  145.5366  140.9515  143.1574 H   0  0  0  0  0  0  0  0  0  0  0  0  # atno 7974 bound_to 7965
  154.4003  140.1497  156.3207 H   0  0  0  0  0  0  0  0  0  0  0  0  # atno 8008 bound_to 7997
  155.8532  140.3457  155.5685 H   0  0  0  0  0  0  0  0  0  0  0  0  # atno 8009 bound_to 7997
  155.7962  140.0863  157.1973 H   0  0  0  0  0  0  0  0  0  0  0  0  # atno 8010 bound_to 7997
  140.7227  143.5163  150.9688 H   0  0  0  0  0  0  0  0  0  0  0  0  # atno 10167 bound_to 10162
  157.5082  130.8483  149.8402 H   0  0  0  0  0  0  0  0  0  0  0  0  # atno 10718 bound_to 10713
  153.1440  135.4631  154.9538 H   0  0  0  0  0  0  0  0  0  0  0  0  # atno 10763 bound_to 10752
  154.7770  135.3176  154.8073 H   0  0  0  0  0  0  0  0  0  0  0  0  # atno 10764 bound_to 10752
  153.8590  135.6914  153.4839 H   0  0  0  0  0  0  0  0  0  0  0  0  # atno 10765 bound_to 10752
  140.7446  134.3475  157.5140 H   0  0  0  0  0  0  0  0  0  0  0  0  # atno 11005 bound_to 11000
  144.7598  139.6984  143.7239 LP  0  0  0  0  0  0  0  0  0  0  0  0  # atno 17320 bound_to 7965
  146.2009  139.5303  142.9744 LP  0  0  0  0  0  0  0  0  0  0  0  0  # atno 17321 bound_to 7965
  139.8879  143.6990  152.3149 LP  0  0  0  0  0  0  0  0  0  0  0  0  # atno 17342 bound_to 10162
  139.7296  144.7585  151.0824 LP  0  0  0  0  0  0  0  0  0  0  0  0  # atno 17343 bound_to 10162
  156.0272  130.3776  150.1789 LP  0  0  0  0  0  0  0  0  0  0  0  0  # atno 17370 bound_to 10713
  156.9979  130.9913  151.3398 LP  0  0  0  0  0  0  0  0  0  0  0  0  # atno 17371 bound_to 10713
  139.8799  134.9103  156.3010 LP  0  0  0  0  0  0  0  0  0  0  0  0  # atno 17394 bound_to 11000
  140.9806  133.7270  156.0666 LP  0  0  0  0  0  0  0  0  0  0  0  0  # atno 17395 bound_to 11000

$$$$
