#       Name:                AV-unprocessed.smi:859
#       Creating user name   scv26
#       Creation time:       Fri Mar 27 01:43:48 2020


#       File generated by GOLD software.
#

@<TRIPOS>MOLECULE
AV-unprocessed.smi:859
    38    39     1
SMALL
NO_CHARGES


@<TRIPOS>ATOM
      1 ****         0.8999   1.4590   0.3840 O.2            1 S1                 0.0000
      2 ****         0.5155   0.3755   0.8254 C.2            1 S1                 0.0000
      3 ****         1.3522  -0.5924   1.2315 N.am           1 S1                 0.0000
      4 ****         2.8089  -0.5368   1.1474 C.3            1 S1                 0.0000
      5 ****         3.3366  -1.2524  -0.1103 C.3            1 S1                 0.0000
      6 ****         2.9403  -0.5889  -1.3391 N.pl3          1 S1                 0.0000
      7 ****         1.9389  -0.9809  -2.2181 C.2            1 S1                 0.0000
      8 ****         1.9146  -0.0464  -3.2285 C.2            1 S1                 0.0000
      9 ****         2.8920   0.9188  -2.9978 N.2            1 S1                 0.0000
     10 ****         3.4583   0.5309  -1.8623 C.2            1 S1                 0.0000
     11 ****        -0.9842   0.0629   0.9064 C.3            1 S1                 0.0000
     12 ****        -1.6035   0.0125  -0.5072 C.3            1 S1                 0.0000
     13 ****        -3.1118  -0.2787  -0.4502 C.3            1 S1                 0.0000
     14 ****        -3.8434   0.7476   0.4291 C.3            1 S1                 0.0000
     15 ****        -3.2329   0.8079   1.8382 C.3            1 S1                 0.0000
     16 ****        -1.7241   1.0992   1.7796 C.3            1 S1                 0.0000
     17 ****         0.9488  -1.4478   1.5854 H              1 S1                 0.0000
     18 ****         3.1703   0.4924   1.1845 H              1 S1                 0.0000
     19 ****         3.2089  -1.0284   2.0342 H              1 S1                 0.0000
     20 ****         4.4260  -1.2933  -0.0836 H              1 S1                 0.0000
     21 ****         2.9859  -2.2849  -0.1375 H              1 S1                 0.0000
     22 ****         1.3378  -1.8626  -2.0520 H              1 S1                 0.0000
     23 ****         1.2746   0.0048  -4.0969 H              1 S1                 0.0000
     24 ****         4.2654   1.0774  -1.3969 H              1 S1                 0.0000
     25 ****        -1.1073  -0.9190   1.3671 H              1 S1                 0.0000
     26 ****        -1.4413   0.9601  -1.0237 H              1 S1                 0.0000
     27 ****        -1.1079  -0.7519  -1.1075 H              1 S1                 0.0000
     28 ****        -3.5298  -0.2700  -1.4573 H              1 S1                 0.0000
     29 ****        -3.2770  -1.2821  -0.0556 H              1 S1                 0.0000
     30 ****        -3.7864   1.7326  -0.0358 H              1 S1                 0.0000
     31 ****        -4.9024   0.4959   0.4925 H              1 S1                 0.0000
     32 ****        -3.7360   1.5747   2.4279 H              1 S1                 0.0000
     33 ****        -3.4037  -0.1391   2.3517 H              1 S1                 0.0000
     34 ****        -1.3140   1.1003   2.7904 H              1 S1                 0.0000
     35 ****        -1.5707   2.1043   1.3833 H              1 S1                 0.0000
     36 ****         1.8787   1.6517   0.3146 LP             1 S1                 0.0000
     37 ****         0.2333   2.1460   0.0950 LP             1 S1                 0.0000
     38 ****         3.1148   1.7172  -3.5570 LP             1 S1                 0.0000
@<TRIPOS>BOND
    1    1    2 2     
    2    2    3 am    
    3    2   11 1     
    4    3    4 1     
    5    3   17 1     
    6    4    5 1     
    7    4   18 1     
    8    4   19 1     
    9    5    6 1     
   10    5   20 1     
   11    5   21 1     
   12    6   10 1     
   13    6    7 1     
   14    7    8 2     
   15    7   22 1     
   16    8    9 1     
   17    8   23 1     
   18    9   10 2     
   19   10   24 1     
   20   11   16 1     
   21   11   12 1     
   22   11   25 1     
   23   12   13 1     
   24   12   26 1     
   25   12   27 1     
   26   13   14 1     
   27   13   28 1     
   28   13   29 1     
   29   14   15 1     
   30   14   30 1     
   31   14   31 1     
   32   15   16 1     
   33   15   32 1     
   34   15   33 1     
   35   16   34 1     
   36   16   35 1     
   37    1   36 1     
   38    1   37 1     
   39    9   38 1     
@<TRIPOS>SUBSTRUCTURE
      1 S1             1
@<TRIPOS>SET
LONE_PAIRS      STATIC     ATOMS    <user>   **** ""
3 36 37 38
DONOR_HYDROGENS      STATIC     ATOMS    <user>   **** ""
1 17
ATOM$BLUE        STATIC     ATOMS    COLORGROUP SYSTEM
3 36 37 38
ATOM$RED        STATIC     ATOMS    COLORGROUP SYSTEM
1 17
