AV-unprocessed.smi:1482|AV-procd|sdf|5988|dock4
  -GOLD-   22720 6 83D 1   1.00000     0.00000
 Structure written by MMmdl.
 36 37  0  0  0  0  0  0  0  0  1 V2000
  145.8456  143.7698  161.6458 C   0  0  0  0  0  0  0  0  0  0  0  0
  145.6041  143.3486  160.3147 O   0  0  0  0  0  0  0  0  0  0  0  0
  146.7991  143.2121  159.5642 C   0  0  0  0  0  0  0  0  0  0  0  0
  146.5021  142.4186  158.2891 C   0  0  0  0  0  0  0  0  0  0  0  0
  147.7383  142.0892  157.6640 O   0  0  0  0  0  0  0  0  0  0  0  0
  147.7340  141.7208  156.3331 C   0  0  0  0  0  0  0  0  0  0  0  0
  146.5399  141.6261  155.6950 N   0  0  0  0  0  0  0  0  0  0  0  0
  146.5307  141.2777  154.3916 C   0  0  0  0  0  0  0  0  0  0  0  0
  147.7004  141.0054  153.6580 C   0  0  0  0  0  0  0  0  0  0  0  0
  148.9389  141.1012  154.3185 C   0  0  0  0  0  0  0  0  0  0  0  0
  148.9647  141.4634  155.6819 C   0  0  0  0  0  0  0  0  0  0  0  0
  150.2957  141.5774  156.4123 C   0  0  0  0  0  0  0  0  0  0  0  0
  150.5682  142.9281  156.8898 N   0  0  0  0  0  0  0  0  0  0  0  0
  151.2631  143.2242  157.9988 C   0  0  0  0  0  0  0  0  0  0  0  0
  151.7525  142.3645  158.7332 O   0  0  0  0  0  0  0  0  0  0  0  0
  151.3886  144.6893  158.2618 C   0  0  0  0  0  0  0  0  0  0  0  0
  152.1719  145.1186  159.4859 C   0  0  0  0  0  0  0  0  0  0  0  0
  150.6699  145.2513  159.4716 C   0  0  0  0  0  0  0  0  0  0  0  0
  144.8992  143.8612  162.1786 H   0  0  0  0  0  0  0  0  0  0  0  0
  146.3399  144.7419  161.6689 H   0  0  0  0  0  0  0  0  0  0  0  0
  146.4649  143.0493  162.1811 H   0  0  0  0  0  0  0  0  0  0  0  0
  147.1961  144.1954  159.3070 H   0  0  0  0  0  0  0  0  0  0  0  0
  147.5554  142.6948  160.1563 H   0  0  0  0  0  0  0  0  0  0  0  0
  145.9518  141.5102  158.5401 H   0  0  0  0  0  0  0  0  0  0  0  0
  145.8826  143.0180  157.6201 H   0  0  0  0  0  0  0  0  0  0  0  0
  145.5616  141.2150  153.9192 H   0  0  0  0  0  0  0  0  0  0  0  0
  147.6485  140.7312  152.6149 H   0  0  0  0  0  0  0  0  0  0  0  0
  149.8563  140.9000  153.7851 H   0  0  0  0  0  0  0  0  0  0  0  0
  150.3631  140.8732  157.2423 H   0  0  0  0  0  0  0  0  0  0  0  0
  151.0891  141.2989  155.7186 H   0  0  0  0  0  0  0  0  0  0  0  0
  150.2022  143.6916  156.3398 H   0  0  0  0  0  0  0  0  0  0  0  0
  151.4519  145.3367  157.3883 H   0  0  0  0  0  0  0  0  0  0  0  0
  152.5997  144.3496  160.1270 H   0  0  0  0  0  0  0  0  0  0  0  0
  152.7663  146.0257  159.3982 H   0  0  0  0  0  0  0  0  0  0  0  0
  150.2455  146.2483  159.3737 H   0  0  0  0  0  0  0  0  0  0  0  0
  150.1022  144.5707  160.1038 H   0  0  0  0  0  0  0  0  0  0  0  0
  1  2  1  0  0  0  0
  1 19  1  0  0  0  0
  1 20  1  0  0  0  0
  1 21  1  0  0  0  0
  2  3  1  0  0  0  0
  3  4  1  0  0  0  0
  3 22  1  0  0  0  0
  3 23  1  0  0  0  0
  4  5  1  0  0  0  0
  4 24  1  0  0  0  0
  4 25  1  0  0  0  0
  5  6  1  0  0  0  0
  6 11  1  0  0  0  0
  6  7  2  0  0  0  0
  7  8  1  0  0  0  0
  8  9  2  0  0  0  0
  8 26  1  0  0  0  0
  9 10  1  0  0  0  0
  9 27  1  0  0  0  0
 10 11  2  0  0  0  0
 10 28  1  0  0  0  0
 11 12  1  0  0  0  0
 12 13  1  0  0  0  0
 12 29  1  0  0  0  0
 12 30  1  0  0  0  0
 13 14  1  0  0  0  0
 13 31  1  0  0  0  0
 14 15  2  0  0  0  0
 14 16  1  0  0  0  0
 16 18  1  0  0  0  0
 16 17  1  0  0  0  0
 16 32  1  0  0  0  0
 17 18  1  0  0  0  0
 17 33  1  0  0  0  0
 17 34  1  0  0  0  0
 18 35  1  0  0  0  0
 18 36  1  0  0  0  0
M  END
> <s_m_source_file>
AV-unprocessed.smi

> <i_m_source_file_index>
1482

> <i_lp_mmshare_version>
43012

> <i_f3d_flags>
0

> <s_epik_input>
W0NIM11PW0NIMl1bQ0gyXU9jMW5bY0hdW2NIXVtjSF1jMVtDSDJdW05IXUMoPU8pW0NIXTJbQ0gyXVtDSDJdMg==

> <s_epik_cmdline>
J2VwaWtfcHl0aG9uJywgJy1waCcsICc3LjAnLCAnLXRuJywgJzgnLCAnLW1hJywgJzIwMCcsICctbWV0YWxfYmluZGluZycsICctaW1hZScsICc8aW5maWxlLm1hZT4nLCAnLW9tYWUnLCAnPG91dGZpbGUubWFlPic=

> <r_lp_tautomer_probability>
1

> <r_epik_Ionization_Penalty>
6.12052e-05

> <r_epik_Ionization_Penalty_Charging>
0

> <r_epik_Ionization_Penalty_Neutral>
6.12052e-05

> <r_epik_State_Penalty>
-0

> <r_epik_Charging_Adjusted_Penalty>
0

> <i_epik_Tot_Q>
0

> <i_epik_Tot_abs_Q>
0

> <r_epik_Metal_State_Penalty>
-0

> <b_epik_Metal_Only>
0

> <s_lp_Force_Field>
OPLS_2005

> <r_lp_Energy>
6.94905

> <b_lp_Chiralities_Consistent>
1

> <s_lp_Variant>
AV-unprocessed.smi:1482-1

> <Gold.Version>
5.8.1

> <Gold.Id.Protein>
6NUR|6NUR_protein|mol2

> <Gold.PLP.Fitness>
40.5948

> <Gold.PLP.PLP>
-35.2276

> <Gold.PLP.part.hbond>
-1.0000

> <Gold.PLP.part.metal>
0.0000

> <Gold.PLP.part.buried>
-6.4427

> <Gold.PLP.part.nonpolar>
-29.0711

> <Gold.PLP.part.repulsive>
0.3089

> <Gold.PLP.ligand.clash>
0.0000

> <Gold.PLP.ligand.torsion>
0.4208

> <Gold.PLP.Chemscore.Hbond>
1.0000

> <Gold.PLP.Chemscore.CHOScore>
1.0000

> <Gold.PLP.Chemscore.Metal>
0.0000

> <Gold.Chemscore.Hbonds>
donor molecule, donor type, donor heavy atom, donor atom, acceptor molecule, acceptor atom, score
      L1  H    13    31       P1  8028  1.00
      L1  C     8    26       P1 10175  1.00

> <Gold.PLP.Chemscore.Internal.Correction>
0.2089

> <Gold.Rescore>
     Score         DG    S(hbond)    S(metal)    S(lipo)     H(rot)  DE(clash)    DE(int)     intcor
     12.40     -12.76       0.99        0.00      82.28       2.21       0.02       0.34       ----

> <Gold.Chemscore.Fitness>
12.3961

> <Gold.Chemscore.DG>
-12.7591

> <Gold.Chemscore.ZeroCoef>
-5.4800

> <Gold.Chemscore.Hbond>
0.9937

> <Gold.Chemscore.Metal>
0.0000

> <Gold.Chemscore.Lipo>
82.2768

> <Gold.Chemscore.Internal_Hbond>
0.0000

> <Gold.Chemscore.DEClash>
0.0222

> <Gold.Chemscore.DEInternal>
0.3408

> <Gold.Chemscore.Rot>
2.2134

> <Gold.Chemscore.Internal.Correction>
   9.000000E+99

> <Gold.Chemscore.Hbonds>
donor molecule, donor type, donor heavy atom, donor atom, acceptor molecule, acceptor atom, score
      L1  H    13    31       P1  8028  0.98

> <Gold.Chemscore.Hbond.Weighted>
-3.3190

> <Gold.Chemscore.Metal.Weighted>
-0.0000

> <Gold.Chemscore.Lipo.Weighted>
-9.6264

> <Gold.Chemscore.Internal_Hbond.Weighted>
0.0000

> <Gold.Chemscore.DEClash.Weighted>
0.0222

> <Gold.Chemscore.DEInternal.Weighted>
0.3408

> <Gold.Chemscore.Rot.Weighted>
5.6663

> <Gold.Chemscore.Internal.Correction.Weighted>
   9.000000E+99

> <Gold.Protein.RotatedTorsions>
[ 6907 6896 6895 6894 ] final  -51.65 input  -60.11 | X-H torsion
[ 7974 7965 7964 7962 ] final  -57.95 input  175.53 | X-H torsion
[ 8008 7997 7996 7995 ] final  -74.29 input   59.86 | X-H torsion
[ 10167 10162 10161 10158 ] final -115.96 input  -65.29 | X-H torsion
[ 10718 10713 10712 10709 ] final  151.39 input   66.30 | X-H torsion
[ 10763 10752 10751 10750 ] final -167.52 input  -60.55 | X-H torsion
[ 11005 11000 10999 10996 ] final  168.16 input  -57.11 | X-H torsion

> <Gold.Protein.ActiveResidues>
 VAL166  LYS551  ARG553  GLY616  TRP617  ASP618  TYR619  PRO620  LYS621  CYS622 
 ASP623  PHE694  ASN695  SER759  ASP760  ASP761  ALA762  ILE779  LEU786  VAL792 
 PHE793  MET794  SER795  GLU796  ALA797  LYS798  CYS799  TRP800  GLU811  SER814 

> <Gold.Protein.RotatedAtoms>
  150.8591  134.7938  159.7068 H   0  0  0  0  0  0  0  0  0  0  0  0  # atno 6907 bound_to 6896
  152.4634  134.5129  159.9769 H   0  0  0  0  0  0  0  0  0  0  0  0  # atno 6908 bound_to 6896
  151.5236  133.3423  159.2941 H   0  0  0  0  0  0  0  0  0  0  0  0  # atno 6909 bound_to 6896
  145.8451  140.8391  143.0014 H   0  0  0  0  0  0  0  0  0  0  0  0  # atno 7974 bound_to 7965
  154.5318  140.0764  156.8358 H   0  0  0  0  0  0  0  0  0  0  0  0  # atno 8008 bound_to 7997
  155.3359  140.3404  155.4221 H   0  0  0  0  0  0  0  0  0  0  0  0  # atno 8009 bound_to 7997
  156.1789  140.1645  156.8298 H   0  0  0  0  0  0  0  0  0  0  0  0  # atno 8010 bound_to 7997
  140.0844  143.4757  152.1907 H   0  0  0  0  0  0  0  0  0  0  0  0  # atno 10167 bound_to 10162
  157.2713  131.0817  151.1598 H   0  0  0  0  0  0  0  0  0  0  0  0  # atno 10718 bound_to 10713
  154.6723  135.2941  154.9725 H   0  0  0  0  0  0  0  0  0  0  0  0  # atno 10763 bound_to 10752
  154.0748  135.6613  153.4833 H   0  0  0  0  0  0  0  0  0  0  0  0  # atno 10764 bound_to 10752
  153.0494  135.5183  154.7725 H   0  0  0  0  0  0  0  0  0  0  0  0  # atno 10765 bound_to 10752
  140.2843  134.7725  157.3785 H   0  0  0  0  0  0  0  0  0  0  0  0  # atno 11005 bound_to 11000
  144.6731  140.0869  143.7467 LP  0  0  0  0  0  0  0  0  0  0  0  0  # atno 17320 bound_to 7965
  145.9421  139.2676  143.1262 LP  0  0  0  0  0  0  0  0  0  0  0  0  # atno 17321 bound_to 7965
  139.5761  144.7488  151.3763 LP  0  0  0  0  0  0  0  0  0  0  0  0  # atno 17342 bound_to 10162
  140.7061  143.7510  150.7484 LP  0  0  0  0  0  0  0  0  0  0  0  0  # atno 17343 bound_to 10162
  157.3068  130.6870  149.6194 LP  0  0  0  0  0  0  0  0  0  0  0  0  # atno 17370 bound_to 10713
  155.9663  130.4375  150.5179 LP  0  0  0  0  0  0  0  0  0  0  0  0  # atno 17371 bound_to 10713
  140.1254  134.5165  155.8149 LP  0  0  0  0  0  0  0  0  0  0  0  0  # atno 17394 bound_to 11000
  141.2157  133.6771  156.6942 LP  0  0  0  0  0  0  0  0  0  0  0  0  # atno 17395 bound_to 11000

$$$$
