#       Name:                AV-unprocessed.smi:2030
#       Creating user name   scv26
#       Creation time:       Fri Mar 27 10:49:35 2020


#       File generated by GOLD software.
#

@<TRIPOS>MOLECULE
AV-unprocessed.smi:2030
    41    42     1
SMALL
NO_CHARGES


@<TRIPOS>ATOM
      1 ****        -4.4244  -2.2438   1.4457 C.3            1 S1                 0.0000
      2 ****        -4.1238  -0.9372   0.8638 N.am           1 S1                 0.0000
      3 ****        -2.7798  -0.6346   0.7813 N.2            1 S1                 0.0000
      4 ****        -2.3589   0.5594   0.5024 C.2            1 S1                 0.0000
      5 ****        -0.8986   0.8383   0.4393 C.2            1 S1                 0.0000
      6 ****        -0.4755   1.9782   0.2439 O.2            1 S1                 0.0000
      7 ****        -0.0867  -0.2218   0.6067 N.am           1 S1                 0.0000
      8 ****         1.3701  -0.1719   0.5872 C.3            1 S1                 0.0000
      9 ****         1.9159  -0.1157  -0.8493 C.3            1 S1                 0.0000
     10 ****         3.4306  -0.0642  -0.8857 C.ar           1 S1                 0.0000
     11 ****         4.2163  -1.2088  -1.1421 C.ar           1 S1                 0.0000
     12 ****         5.6219  -1.0901  -1.1554 C.ar           1 S1                 0.0000
     13 ****         6.2109   0.1683  -0.9127 C.ar           1 S1                 0.0000
     14 ****         5.3783   1.2780  -0.6616 C.ar           1 S1                 0.0000
     15 ****         4.0360   1.1237  -0.6562 N.pl3          1 S1                 1.0000
     16 ****        -3.3440   1.6882   0.2701 C.3            1 S1                 0.0000
     17 ****        -4.7010   1.1748  -0.2509 C.3            1 S1                 0.0000
     18 ****        -5.1238  -0.1334   0.4236 C.2            1 S1                 0.0000
     19 ****        -6.3187  -0.4138   0.5171 O.2            1 S1                 0.0000
     20 ****        -4.9454  -2.8750   0.7243 H              1 S1                 0.0000
     21 ****        -5.0593  -2.1357   2.3262 H              1 S1                 0.0000
     22 ****        -3.5212  -2.7725   1.7548 H              1 S1                 0.0000
     23 ****        -0.5138  -1.1236   0.7653 H              1 S1                 0.0000
     24 ****         1.7185   0.6854   1.1657 H              1 S1                 0.0000
     25 ****         1.7463  -1.0614   1.0932 H              1 S1                 0.0000
     26 ****         1.5732  -0.9846  -1.4128 H              1 S1                 0.0000
     27 ****         1.5267   0.7601  -1.3700 H              1 S1                 0.0000
     28 ****         3.7504  -2.1664  -1.3248 H              1 S1                 0.0000
     29 ****         6.2405  -1.9542  -1.3490 H              1 S1                 0.0000
     30 ****         7.2852   0.2804  -0.9184 H              1 S1                 0.0000
     31 ****         5.7424   2.2761  -0.4657 H              1 S1                 0.0000
     32 ****        -3.4872   2.2375   1.2013 H              1 S1                 0.0000
     33 ****        -2.9476   2.4040  -0.4510 H              1 S1                 0.0000
     34 ****        -5.4718   1.9339  -0.1142 H              1 S1                 0.0000
     35 ****        -4.6340   0.9839  -1.3226 H              1 S1                 0.0000
     36 ****         3.4525   1.9402  -0.4706 H              1 S1                 0.0000
     37 ****        -2.1095  -1.3592   0.9417 LP             1 S1                 0.0000
     38 ****        -1.1170   2.7359   0.1244 LP             1 S1                 0.0000
     39 ****         0.5095   2.1460   0.2048 LP             1 S1                 0.0000
     40 ****        -6.5983  -1.2772   0.9373 LP             1 S1                 0.0000
     41 ****        -7.0098   0.2217   0.1730 LP             1 S1                 0.0000
@<TRIPOS>BOND
    1    1    2 1     
    2    1   20 1     
    3    1   21 1     
    4    1   22 1     
    5    2   18 am    
    6    2    3 1     
    7    3    4 2     
    8    4    5 1     
    9    4   16 1     
   10    5    6 2     
   11    5    7 am    
   12    7    8 1     
   13    7   23 1     
   14    8    9 1     
   15    8   24 1     
   16    8   25 1     
   17    9   10 1     
   18    9   26 1     
   19    9   27 1     
   20   10   15 ar    
   21   10   11 ar    
   22   11   12 ar    
   23   11   28 1     
   24   12   13 ar    
   25   12   29 1     
   26   13   14 ar    
   27   13   30 1     
   28   14   15 ar    
   29   14   31 1     
   30   15   36 1     
   31   16   17 1     
   32   16   32 1     
   33   16   33 1     
   34   17   18 1     
   35   17   34 1     
   36   17   35 1     
   37   18   19 2     
   38    3   37 1     
   39    6   38 1     
   40    6   39 1     
   41   19   40 1     
   42   19   41 1     
@<TRIPOS>SUBSTRUCTURE
      1 S1             1
@<TRIPOS>SET
LONE_PAIRS      STATIC     ATOMS    <user>   **** ""
5 37 38 39 40 41
DONOR_HYDROGENS      STATIC     ATOMS    <user>   **** ""
2 23 36
ATOM$BLUE        STATIC     ATOMS    COLORGROUP SYSTEM
5 37 38 39 40 41
ATOM$RED        STATIC     ATOMS    COLORGROUP SYSTEM
2 23 36
