AV-unprocessed.smi:1787|AV-procd|sdf|7209|dock2
  -GOLD-   22720 8453D 1   1.00000     0.00000
 Structure written by MMmdl.
 45 47  0  0  0  0  0  0  0  0  2 V2000
  150.1088  141.9970  155.5028 O   0  0  0  0  0  0  0  0  0  0  0  0
  150.6530  141.0148  156.0040 C   0  0  0  0  0  0  0  0  0  0  0  0
  150.5973  139.7893  155.4636 N   0  0  0  0  0  0  0  0  0  0  0  0
  149.9198  139.4285  154.2178 C   0  0  0  0  0  0  0  0  0  0  0  0
  148.4698  138.8906  154.4332 C   0  0  2  0  0  0  0  0  0  0  0  0
  148.5346  137.3884  154.5640 N   0  3  0  0  0  0  0  0  0  0  0  0
  149.5855  136.8893  155.4951 C   0  0  0  0  0  0  0  0  0  0  0  0
  149.7288  135.3641  155.3837 C   0  0  0  0  0  0  0  0  0  0  0  0
  148.4807  134.7586  155.6877 O   0  0  0  0  0  0  0  0  0  0  0  0
  147.4751  135.1412  154.7607 C   0  0  0  0  0  0  0  0  0  0  0  0
  147.2568  136.6645  154.8050 C   0  0  0  0  0  0  0  0  0  0  0  0
  147.5533  139.3821  153.2764 C   0  0  0  0  0  0  0  0  0  0  0  0
  147.3331  140.8888  153.4396 C   0  0  0  0  0  0  0  0  0  0  0  0
  147.2698  141.2226  155.2160 S   0  0  0  0  0  0  0  0  0  0  0  0
  147.8362  139.5608  155.6754 C   0  0  0  0  0  0  0  0  0  0  0  0
  151.3595  141.0053  157.1471 N   0  0  0  0  0  0  0  0  0  0  0  0
  151.6488  142.0702  158.0453 C   0  0  0  0  0  0  0  0  0  0  0  0
  152.3126  141.9310  159.2897 C   0  0  0  0  0  0  0  0  0  0  0  0
  152.5303  143.0785  160.0766 C   0  0  0  0  0  0  0  0  0  0  0  0
  152.0784  144.3221  159.5951 C   0  0  0  0  0  0  0  0  0  0  0  0
  151.4465  144.4706  158.4123 N   0  0  0  0  0  0  0  0  0  0  0  0
  151.2413  143.3667  157.6635 C   0  0  0  0  0  0  0  0  0  0  0  0
  151.0763  139.0421  155.9453 H   0  0  0  0  0  0  0  0  0  0  0  0
  149.9297  140.2767  153.5329 H   0  0  0  0  0  0  0  0  0  0  0  0
  150.5440  138.6827  153.7271 H   0  0  0  0  0  0  0  0  0  0  0  0
  150.5484  137.3501  155.2804 H   0  0  0  0  0  0  0  0  0  0  0  0
  149.3325  137.1446  156.5246 H   0  0  0  0  0  0  0  0  0  0  0  0
  150.0642  135.0695  154.3881 H   0  0  0  0  0  0  0  0  0  0  0  0
  150.4765  135.0050  156.0910 H   0  0  0  0  0  0  0  0  0  0  0  0
  147.7539  134.8203  153.7555 H   0  0  0  0  0  0  0  0  0  0  0  0
  146.5496  134.6230  155.0118 H   0  0  0  0  0  0  0  0  0  0  0  0
  146.8378  136.9613  155.7673 H   0  0  0  0  0  0  0  0  0  0  0  0
  146.5242  136.8996  154.0340 H   0  0  0  0  0  0  0  0  0  0  0  0
  147.9397  139.1342  152.2875 H   0  0  0  0  0  0  0  0  0  0  0  0
  146.5619  138.9360  153.3492 H   0  0  0  0  0  0  0  0  0  0  0  0
  148.1596  141.4507  153.0045 H   0  0  0  0  0  0  0  0  0  0  0  0
  146.4177  141.2220  152.9500 H   0  0  0  0  0  0  0  0  0  0  0  0
  146.9544  139.0062  155.9985 H   0  0  0  0  0  0  0  0  0  0  0  0
  148.5187  139.6142  156.5243 H   0  0  0  0  0  0  0  0  0  0  0  0
  151.7453  140.1113  157.4146 H   0  0  0  0  0  0  0  0  0  0  0  0
  152.6606  140.9820  159.6637 H   0  0  0  0  0  0  0  0  0  0  0  0
  153.0325  143.0070  161.0301 H   0  0  0  0  0  0  0  0  0  0  0  0
  152.2286  145.2210  160.1744 H   0  0  0  0  0  0  0  0  0  0  0  0
  150.7323  143.5253  156.7238 H   0  0  0  0  0  0  0  0  0  0  0  0
  148.8251  137.0759  153.6481 H   0  0  0  0  0  0  0  0  0  0  0  0
  1  2  2  0  0  0  0
  2  3  1  0  0  0  0
  2 16  1  0  0  0  0
  3  4  1  0  0  0  0
  3 23  1  0  0  0  0
  4  5  1  0  0  0  0
  4 24  1  0  0  0  0
  4 25  1  0  0  0  0
  5 15  1  0  0  0  0
  5  6  1  0  0  0  0
  5 12  1  0  0  0  0
  6 11  1  0  0  0  0
  6  7  1  0  0  0  0
  6 45  1  0  0  0  0
  7  8  1  0  0  0  0
  7 26  1  0  0  0  0
  7 27  1  0  0  0  0
  8  9  1  0  0  0  0
  8 28  1  0  0  0  0
  8 29  1  0  0  0  0
  9 10  1  0  0  0  0
 10 11  1  0  0  0  0
 10 30  1  0  0  0  0
 10 31  1  0  0  0  0
 11 32  1  0  0  0  0
 11 33  1  0  0  0  0
 12 13  1  0  0  0  0
 12 34  1  0  0  0  0
 12 35  1  0  0  0  0
 13 14  1  0  0  0  0
 13 36  1  0  0  0  0
 13 37  1  0  0  0  0
 14 15  1  0  0  0  0
 15 38  1  0  0  0  0
 15 39  1  0  0  0  0
 16 17  1  0  0  0  0
 16 40  1  0  0  0  0
 17 22  1  0  0  0  0
 17 18  2  0  0  0  0
 18 19  1  0  0  0  0
 18 41  1  0  0  0  0
 19 20  2  0  0  0  0
 19 42  1  0  0  0  0
 20 21  1  0  0  0  0
 20 43  1  0  0  0  0
 21 22  2  0  0  0  0
 22 44  1  0  0  0  0
M  CHG  1   6   1
M  END
> <s_m_source_file>
AV-unprocessed.smi

> <i_m_source_file_index>
1787

> <i_lp_mmshare_version>
43012

> <i_f3d_flags>
0

> <s_epik_input>
W2NIXTFuW2NIXVtjSF1bY0hdYzFbTkhdQyg9TylbTkhdW0NIMl1bQ0BdMihbQ0gyXVtDSDJdU1tDSDJdMilOM1tDSDJdW0NIMl1PW0NIMl1bQ0gyXTM=

> <s_epik_cmdline>
J2VwaWtfcHl0aG9uJywgJy1waCcsICc3LjAnLCAnLXRuJywgJzgnLCAnLW1hJywgJzIwMCcsICctbWV0YWxfYmluZGluZycsICctaW1hZScsICc8aW5maWxlLm1hZT4nLCAnLW9tYWUnLCAnPG91dGZpbGUubWFlPic=

> <r_epik_Ionization_Penalty>
2.03633

> <r_epik_Ionization_Penalty_Charging>
2.03219

> <r_epik_Ionization_Penalty_Neutral>
0.00414252

> <r_epik_State_Penalty>
2.16328

> <r_epik_Charging_Adjusted_Penalty>
4.19546

> <i_epik_Tot_Q>
1

> <i_epik_Tot_abs_Q>
1

> <r_epik_Metal_State_Penalty>
2.16381

> <b_epik_Metal_Only>
0

> <s_lp_Force_Field>
OPLS_2005

> <r_lp_Energy>
44.9439

> <b_lp_Chiralities_Consistent>
1

> <s_lp_Variant>
AV-unprocessed.smi:1787-4

> <Gold.Version>
5.8.1

> <Gold.Id.Protein>
6NUR|6NUR_protein|mol2

> <Gold.PLP.Fitness>
39.7959

> <Gold.PLP.PLP>
-32.5066

> <Gold.PLP.part.hbond>
-1.1962

> <Gold.PLP.part.metal>
0.0000

> <Gold.PLP.part.buried>
-2.3347

> <Gold.PLP.part.nonpolar>
-29.5931

> <Gold.PLP.part.repulsive>
1.0357

> <Gold.PLP.ligand.clash>
0.0000

> <Gold.PLP.ligand.torsion>
0.9327

> <Gold.PLP.Chemscore.Hbond>
2.0000

> <Gold.PLP.Chemscore.CHOScore>
1.0000

> <Gold.PLP.Chemscore.Metal>
0.0000

> <Gold.Chemscore.Hbonds>
donor molecule, donor type, donor heavy atom, donor atom, acceptor molecule, acceptor atom, score
      L1  H     6    45       P1  7948  2.00
      L1  C    22    44       P1  8028  1.00

> <Gold.PLP.Chemscore.Internal.Correction>
0.1548

> <Gold.Rescore>
     Score         DG    S(hbond)    S(metal)    S(lipo)     H(rot)  DE(clash)    DE(int)     intcor
     12.91     -16.22       0.95        0.00      97.10       1.49       0.14       3.17       ----

> <Gold.Chemscore.Fitness>
12.9146

> <Gold.Chemscore.DG>
-16.2221

> <Gold.Chemscore.ZeroCoef>
-5.4800

> <Gold.Chemscore.Hbond>
0.9538

> <Gold.Chemscore.Metal>
0.0000

> <Gold.Chemscore.Lipo>
97.0994

> <Gold.Chemscore.Internal_Hbond>
0.0000

> <Gold.Chemscore.DEClash>
0.1361

> <Gold.Chemscore.DEInternal>
3.1714

> <Gold.Chemscore.Rot>
1.4860

> <Gold.Chemscore.Internal.Correction>
   9.000000E+99

> <Gold.Chemscore.Hbonds>
donor molecule, donor type, donor heavy atom, donor atom, acceptor molecule, acceptor atom, score
      L1  H     6    45       P1  7948  0.98

> <Gold.Chemscore.Hbond.Weighted>
-3.1857

> <Gold.Chemscore.Metal.Weighted>
-0.0000

> <Gold.Chemscore.Lipo.Weighted>
-11.3606

> <Gold.Chemscore.Internal_Hbond.Weighted>
0.0000

> <Gold.Chemscore.DEClash.Weighted>
0.1361

> <Gold.Chemscore.DEInternal.Weighted>
3.1714

> <Gold.Chemscore.Rot.Weighted>
3.8042

> <Gold.Chemscore.Internal.Correction.Weighted>
   9.000000E+99

> <Gold.Protein.RotatedTorsions>
[ 6907 6896 6895 6894 ] final  104.94 input  -60.11 | X-H torsion
[ 7974 7965 7964 7962 ] final  -22.03 input  175.53 | X-H torsion
[ 8008 7997 7996 7995 ] final   29.53 input   59.86 | X-H torsion
[ 10167 10162 10161 10158 ] final  -89.77 input  -65.29 | X-H torsion
[ 10718 10713 10712 10709 ] final -100.93 input   66.30 | X-H torsion
[ 10763 10752 10751 10750 ] final   52.07 input  -60.55 | X-H torsion
[ 11005 11000 10999 10996 ] final -129.86 input  -57.11 | X-H torsion

> <Gold.Protein.ActiveResidues>
 VAL166  LYS551  ARG553  GLY616  TRP617  ASP618  TYR619  PRO620  LYS621  CYS622 
 ASP623  PHE694  ASN695  SER759  ASP760  ASP761  ALA762  ILE779  LEU786  VAL792 
 PHE793  MET794  SER795  GLU796  ALA797  LYS798  CYS799  TRP800  GLU811  SER814 

> <Gold.Protein.RotatedAtoms>
  152.5247  133.9602  159.7713 H   0  0  0  0  0  0  0  0  0  0  0  0  # atno 6907 bound_to 6896
  150.9895  133.6156  159.2717 H   0  0  0  0  0  0  0  0  0  0  0  0  # atno 6908 bound_to 6896
  151.3305  135.0846  159.9390 H   0  0  0  0  0  0  0  0  0  0  0  0  # atno 6909 bound_to 6896
  146.1699  140.4422  142.8536 H   0  0  0  0  0  0  0  0  0  0  0  0  # atno 7974 bound_to 7965
  155.0760  140.3205  155.4616 H   0  0  0  0  0  0  0  0  0  0  0  0  # atno 8008 bound_to 7997
  156.2779  140.2103  156.5833 H   0  0  0  0  0  0  0  0  0  0  0  0  # atno 8009 bound_to 7997
  154.7017  140.0506  157.0451 H   0  0  0  0  0  0  0  0  0  0  0  0  # atno 8010 bound_to 7997
  140.3615  143.2839  151.9609 H   0  0  0  0  0  0  0  0  0  0  0  0  # atno 10167 bound_to 10162
  156.0178  130.5350  150.6889 H   0  0  0  0  0  0  0  0  0  0  0  0  # atno 10718 bound_to 10713
  152.9787  135.5825  154.4518 H   0  0  0  0  0  0  0  0  0  0  0  0  # atno 10763 bound_to 10752
  154.4106  135.2770  155.2041 H   0  0  0  0  0  0  0  0  0  0  0  0  # atno 10764 bound_to 10752
  154.3833  135.6142  153.5857 H   0  0  0  0  0  0  0  0  0  0  0  0  # atno 10765 bound_to 10752
  140.9395  134.1212  157.4163 H   0  0  0  0  0  0  0  0  0  0  0  0  # atno 11005 bound_to 11000
  144.8148  140.6448  143.6392 LP  0  0  0  0  0  0  0  0  0  0  0  0  # atno 17320 bound_to 7965
  145.4367  139.1541  143.3992 LP  0  0  0  0  0  0  0  0  0  0  0  0  # atno 17321 bound_to 7965
  139.4813  144.5988  151.7642 LP  0  0  0  0  0  0  0  0  0  0  0  0  # atno 17342 bound_to 10162
  140.5122  144.1007  150.5998 LP  0  0  0  0  0  0  0  0  0  0  0  0  # atno 17343 bound_to 10162
  157.4575  131.0879  151.0781 LP  0  0  0  0  0  0  0  0  0  0  0  0  # atno 17370 bound_to 10713
  157.1279  130.6089  149.5522 LP  0  0  0  0  0  0  0  0  0  0  0  0  # atno 17371 bound_to 10713
  139.8816  135.0032  156.6171 LP  0  0  0  0  0  0  0  0  0  0  0  0  # atno 17394 bound_to 11000
  140.7753  133.8704  155.8524 LP  0  0  0  0  0  0  0  0  0  0  0  0  # atno 17395 bound_to 11000

$$$$
