AV-unprocessed.smi:1545|AV-procd|sdf|6215|dock3
  -GOLD-   22720 6383D 1   1.00000     0.00000
 Structure written by MMmdl.
 42 44  0  0  0  0  0  0  0  0  2 V2000
  147.6890  140.7446  153.4437 O   0  0  0  0  0  0  0  0  0  0  0  0
  148.4146  140.2145  154.5316 C   0  0  0  0  0  0  0  0  0  0  0  0
  149.3830  141.2697  155.0813 C   0  0  0  0  0  0  0  0  0  0  0  0
  150.1463  140.7630  156.2102 N   0  0  0  0  0  0  0  0  0  0  0  0
  150.5746  141.6572  157.1969 C   0  0  0  0  0  0  0  0  0  0  0  0
  150.1918  142.9564  157.3172 N   0  3  0  0  0  0  0  0  0  0  0  0
  150.8511  143.5089  158.4189 C   0  0  0  0  0  0  0  0  0  0  0  0
  150.8042  144.7919  158.9556 C   0  0  0  0  0  0  0  0  0  0  0  0
  151.6077  145.0342  160.0891 C   0  0  0  0  0  0  0  0  0  0  0  0
  152.4164  144.0230  160.6477 C   0  0  0  0  0  0  0  0  0  0  0  0
  152.4574  142.7248  160.0980 C   0  0  0  0  0  0  0  0  0  0  0  0
  151.6607  142.4909  158.9780 C   0  0  0  0  0  0  0  0  0  0  0  0
  151.4556  141.3547  158.1859 N   0  0  0  0  0  0  0  0  0  0  0  0
  152.1734  140.1090  158.4958 C   0  0  0  0  0  0  0  0  0  0  0  0
  151.6079  139.3986  159.7415 C   0  0  1  0  0  0  0  0  0  0  0  0
  150.8387  138.2962  159.3082 O   0  0  0  0  0  0  0  0  0  0  0  0
  152.7038  138.9937  160.7174 C   0  0  0  0  0  0  0  0  0  0  0  0
  153.6309  139.9454  161.1971 C   0  0  0  0  0  0  0  0  0  0  0  0
  154.6241  139.5653  162.1203 C   0  0  0  0  0  0  0  0  0  0  0  0
  154.6930  138.2339  162.5733 C   0  0  0  0  0  0  0  0  0  0  0  0
  153.7687  137.2823  162.1025 C   0  0  0  0  0  0  0  0  0  0  0  0
  153.8285  136.0036  162.5436 F   0  0  0  0  0  0  0  0  0  0  0  0
  152.7787  137.6606  161.1753 C   0  0  0  0  0  0  0  0  0  0  0  0
  148.2323  140.7035  152.6713 H   0  0  0  0  0  0  0  0  0  0  0  0
  147.6934  139.9433  155.3028 H   0  0  0  0  0  0  0  0  0  0  0  0
  148.9321  139.2995  154.2399 H   0  0  0  0  0  0  0  0  0  0  0  0
  150.0487  141.6330  154.2969 H   0  0  0  0  0  0  0  0  0  0  0  0
  148.8075  142.1268  155.4328 H   0  0  0  0  0  0  0  0  0  0  0  0
  150.5441  139.8357  156.1599 H   0  0  0  0  0  0  0  0  0  0  0  0
  150.1867  145.5695  158.5302 H   0  0  0  0  0  0  0  0  0  0  0  0
  151.6039  146.0164  160.5392 H   0  0  0  0  0  0  0  0  0  0  0  0
  153.0184  144.2476  161.5163 H   0  0  0  0  0  0  0  0  0  0  0  0
  153.0809  141.9577  160.5331 H   0  0  0  0  0  0  0  0  0  0  0  0
  152.1228  139.4616  157.6195 H   0  0  0  0  0  0  0  0  0  0  0  0
  153.2274  140.3525  158.6358 H   0  0  0  0  0  0  0  0  0  0  0  0
  150.9183  140.0700  160.2545 H   0  0  0  0  0  0  0  0  0  0  0  0
  149.9243  138.5000  159.4339 H   0  0  0  0  0  0  0  0  0  0  0  0
  153.5795  140.9718  160.8644 H   0  0  0  0  0  0  0  0  0  0  0  0
  155.3292  140.2965  162.4868 H   0  0  0  0  0  0  0  0  0  0  0  0
  155.4512  137.9443  163.2857 H   0  0  0  0  0  0  0  0  0  0  0  0
  152.0687  136.9256  160.8252 H   0  0  0  0  0  0  0  0  0  0  0  0
  149.5413  143.4229  156.6985 H   0  0  0  0  0  0  0  0  0  0  0  0
  1  2  1  0  0  0  0
  1 24  1  0  0  0  0
  2  3  1  0  0  0  0
  2 25  1  0  0  0  0
  2 26  1  0  0  0  0
  3  4  1  0  0  0  0
  3 27  1  0  0  0  0
  3 28  1  0  0  0  0
  4  5  1  0  0  0  0
  4 29  1  0  0  0  0
  5 13  1  0  0  0  0
  5  6  2  0  0  0  0
  6  7  1  0  0  0  0
  6 42  1  0  0  0  0
  7 12  2  0  0  0  0
  7  8  1  0  0  0  0
  8  9  2  0  0  0  0
  8 30  1  0  0  0  0
  9 10  1  0  0  0  0
  9 31  1  0  0  0  0
 10 11  2  0  0  0  0
 10 32  1  0  0  0  0
 11 12  1  0  0  0  0
 11 33  1  0  0  0  0
 12 13  1  0  0  0  0
 13 14  1  0  0  0  0
 14 15  1  0  0  0  0
 14 34  1  0  0  0  0
 14 35  1  0  0  0  0
 15 16  1  0  0  0  0
 15 17  1  0  0  0  0
 15 36  1  0  0  0  0
 16 37  1  0  0  0  0
 17 23  1  0  0  0  0
 17 18  2  0  0  0  0
 18 19  1  0  0  0  0
 18 38  1  0  0  0  0
 19 20  2  0  0  0  0
 19 39  1  0  0  0  0
 20 21  1  0  0  0  0
 20 40  1  0  0  0  0
 21 22  1  0  0  0  0
 21 23  2  0  0  0  0
 23 41  1  0  0  0  0
M  CHG  1   6   1
M  END
> <s_m_source_file>
AV-unprocessed.smi

> <i_m_source_file_index>
1545

> <i_lp_mmshare_version>
43012

> <i_f3d_flags>
0

> <s_epik_input>
W09IXVtDSDJdW0NIMl1bTkhdYyhuMSluKGMoYzEyKVtjSF1bY0hdW2NIXVtjSF0yKVtDSDJdW0NASF0oW09IXSljM1tjSF1bY0hdW2NIXWMoRilbY0hdMw==

> <s_epik_cmdline>
J2VwaWtfcHl0aG9uJywgJy1waCcsICc3LjAnLCAnLXRuJywgJzgnLCAnLW1hJywgJzIwMCcsICctbWV0YWxfYmluZGluZycsICctaW1hZScsICc8aW5maWxlLm1hZT4nLCAnLW9tYWUnLCAnPG91dGZpbGUubWFlPic=

> <r_epik_Ionization_Penalty>
0.0688114

> <r_epik_Ionization_Penalty_Charging>
0.0688055

> <r_epik_Ionization_Penalty_Neutral>
5.85933e-06

> <r_epik_State_Penalty>
0.0602293

> <r_epik_Charging_Adjusted_Penalty>
0.129035

> <i_epik_Tot_Q>
1

> <i_epik_Tot_abs_Q>
1

> <r_epik_Metal_State_Penalty>
2.77411

> <b_epik_Metal_Only>
0

> <s_lp_Force_Field>
OPLS_2005

> <r_lp_Energy>
23.1511

> <b_lp_Chiralities_Consistent>
1

> <s_lp_Variant>
AV-unprocessed.smi:1545-2

> <Gold.Version>
5.8.1

> <Gold.Id.Protein>
6NUR|6NUR_protein|mol2

> <Gold.PLP.Fitness>
51.8815

> <Gold.PLP.PLP>
-44.9898

> <Gold.PLP.part.hbond>
-2.0000

> <Gold.PLP.part.metal>
0.0000

> <Gold.PLP.part.buried>
-5.1785

> <Gold.PLP.part.nonpolar>
-37.2956

> <Gold.PLP.part.repulsive>
0.1076

> <Gold.PLP.ligand.clash>
0.0000

> <Gold.PLP.ligand.torsion>
1.0734

> <Gold.PLP.Chemscore.Hbond>
3.0000

> <Gold.PLP.Chemscore.CHOScore>
0.0000

> <Gold.PLP.Chemscore.Metal>
0.0000

> <Gold.Chemscore.Hbonds>
donor molecule, donor type, donor heavy atom, donor atom, acceptor molecule, acceptor atom, score
      L1  H     1    24       P1  7957  0.73
      L1  H     6    42       P1  8028  2.00

> <Gold.PLP.Chemscore.Internal.Correction>
0.0385

> <Gold.Rescore>
     Score         DG    S(hbond)    S(metal)    S(lipo)     H(rot)  DE(clash)    DE(int)     intcor
     18.54     -19.68       1.99        0.00     133.49       3.15       0.23       0.91       ----

> <Gold.Chemscore.Fitness>
18.5397

> <Gold.Chemscore.DG>
-19.6803

> <Gold.Chemscore.ZeroCoef>
-5.4800

> <Gold.Chemscore.Hbond>
1.9901

> <Gold.Chemscore.Metal>
0.0000

> <Gold.Chemscore.Lipo>
133.4927

> <Gold.Chemscore.Internal_Hbond>
0.0000

> <Gold.Chemscore.DEClash>
0.2328

> <Gold.Chemscore.DEInternal>
0.9079

> <Gold.Chemscore.Rot>
3.1505

> <Gold.Chemscore.Internal.Correction>
   9.000000E+99

> <Gold.Chemscore.Hbonds>
donor molecule, donor type, donor heavy atom, donor atom, acceptor molecule, acceptor atom, score
      L1  H     1    24       P1  7957  0.73
      L1  H     6    42       P1  8028  0.99

> <Gold.Chemscore.Hbond.Weighted>
-6.6469

> <Gold.Chemscore.Metal.Weighted>
-0.0000

> <Gold.Chemscore.Lipo.Weighted>
-15.6186

> <Gold.Chemscore.Internal_Hbond.Weighted>
0.0000

> <Gold.Chemscore.DEClash.Weighted>
0.2328

> <Gold.Chemscore.DEInternal.Weighted>
0.9079

> <Gold.Chemscore.Rot.Weighted>
8.0652

> <Gold.Chemscore.Internal.Correction.Weighted>
   9.000000E+99

> <Gold.Protein.RotatedTorsions>
[ 6907 6896 6895 6894 ] final   73.47 input  -60.11 | X-H torsion
[ 7974 7965 7964 7962 ] final -126.22 input  175.53 | X-H torsion
[ 8008 7997 7996 7995 ] final -117.73 input   59.86 | X-H torsion
[ 10167 10162 10161 10158 ] final  143.21 input  -65.29 | X-H torsion
[ 10718 10713 10712 10709 ] final -120.36 input   66.30 | X-H torsion
[ 10763 10752 10751 10750 ] final  142.87 input  -60.55 | X-H torsion
[ 11005 11000 10999 10996 ] final  134.71 input  -57.11 | X-H torsion

> <Gold.Protein.ActiveResidues>
 VAL166  LYS551  ARG553  GLY616  TRP617  ASP618  TYR619  PRO620  LYS621  CYS622 
 ASP623  PHE694  ASN695  SER759  ASP760  ASP761  ALA762  ILE779  LEU786  VAL792 
 PHE793  MET794  SER795  GLU796  ALA797  LYS798  CYS799  TRP800  GLU811  SER814 

> <Gold.Protein.RotatedAtoms>
  152.4925  134.4417  159.9545 H   0  0  0  0  0  0  0  0  0  0  0  0  # atno 6907 bound_to 6896
  151.4402  133.3639  159.2788 H   0  0  0  0  0  0  0  0  0  0  0  0  # atno 6908 bound_to 6896
  150.9093  134.8533  159.7474 H   0  0  0  0  0  0  0  0  0  0  0  0  # atno 6909 bound_to 6896
  144.9895  140.7718  143.4563 H   0  0  0  0  0  0  0  0  0  0  0  0  # atno 7974 bound_to 7965
  155.0884  140.0395  157.2661 H   0  0  0  0  0  0  0  0  0  0  0  0  # atno 8008 bound_to 7997
  154.6851  140.2641  155.6843 H   0  0  0  0  0  0  0  0  0  0  0  0  # atno 8009 bound_to 7997
  156.2709  140.2770  156.1410 H   0  0  0  0  0  0  0  0  0  0  0  0  # atno 8010 bound_to 7997
  139.4975  144.6055  151.6387 H   0  0  0  0  0  0  0  0  0  0  0  0  # atno 10167 bound_to 10162
  156.1252  130.6354  150.9531 H   0  0  0  0  0  0  0  0  0  0  0  0  # atno 10718 bound_to 10713
  153.9630  135.2958  155.3432 H   0  0  0  0  0  0  0  0  0  0  0  0  # atno 10763 bound_to 10752
  154.7364  135.5044  153.9052 H   0  0  0  0  0  0  0  0  0  0  0  0  # atno 10764 bound_to 10752
  153.0937  135.6715  153.9914 H   0  0  0  0  0  0  0  0  0  0  0  0  # atno 10765 bound_to 10752
  139.9932  134.9507  156.9905 H   0  0  0  0  0  0  0  0  0  0  0  0  # atno 11005 bound_to 11000
  145.2306  139.2116  143.5044 LP  0  0  0  0  0  0  0  0  0  0  0  0  # atno 17320 bound_to 7965
  146.3428  140.2183  142.8591 LP  0  0  0  0  0  0  0  0  0  0  0  0  # atno 17321 bound_to 7965
  140.5716  144.0099  150.6220 LP  0  0  0  0  0  0  0  0  0  0  0  0  # atno 17342 bound_to 10162
  140.3218  143.3132  152.0776 LP  0  0  0  0  0  0  0  0  0  0  0  0  # atno 17343 bound_to 10162
  157.6434  131.0907  150.8204 LP  0  0  0  0  0  0  0  0  0  0  0  0  # atno 17370 bound_to 10713
  156.8295  130.5011  149.5333 LP  0  0  0  0  0  0  0  0  0  0  0  0  # atno 17371 bound_to 10713
  140.4867  134.1234  155.7226 LP  0  0  0  0  0  0  0  0  0  0  0  0  # atno 17394 bound_to 11000
  141.1583  133.8840  157.1917 LP  0  0  0  0  0  0  0  0  0  0  0  0  # atno 17395 bound_to 11000

$$$$
