#       Name:                AV-unprocessed.smi:1072
#       Creating user name   scv26
#       Creation time:       Fri Mar 27 03:20:15 2020


#       File generated by GOLD software.
#

@<TRIPOS>MOLECULE
AV-unprocessed.smi:1072
    51    52     1
SMALL
NO_CHARGES


@<TRIPOS>ATOM
      1 ****        -3.7862   5.7838   0.2021 C.3            1 S1                 0.0000
      2 ****        -3.1847   4.4011   0.0665 C.2            1 S1                 0.0000
      3 ****        -2.6953   3.9334  -1.0344 N.2            1 S1                 0.0000
      4 ****        -2.1620   2.6370  -1.0372 C.2            1 S1                 0.0000
      5 ****        -1.6004   2.1618  -2.3664 C.3            1 S1                 0.0000
      6 ****        -2.1516   1.8646   0.0887 C.2            1 S1                 0.0000
      7 ****        -1.5728   0.4507   0.1162 C.3            1 S1                 0.0000
      8 ****        -0.0479   0.3587   0.2101 C.2            1 S1                 0.0000
      9 ****         0.5872   1.2275   0.8075 O.2            1 S1                 0.0000
     10 ****         0.5148  -0.6996  -0.3990 N.am           1 S1                 0.0000
     11 ****         1.9402  -1.0404  -0.5170 C.3            1 S1                 0.0000
     12 ****         2.6734   0.0616  -1.3120 C.3            1 S1                 0.0000
     13 ****         2.6033  -1.2360   0.8724 C.3            1 S1                 0.0000
     14 ****         2.0121  -2.4224   1.6546 C.3            1 S1                 0.0000
     15 ****         2.1185  -3.7327   0.8540 C.3            1 S1                 0.0000
     16 ****         1.5211  -4.9147   1.6300 C.3            1 S1                 0.0000
     17 ****         1.4578  -3.5710  -0.5270 C.3            1 S1                 0.0000
     18 ****         2.0410  -2.3721  -1.2996 C.3            1 S1                 0.0000
     19 ****        -2.7133   2.4088   1.3402 C.2            1 S1                 0.0000
     20 ****        -2.7493   1.8036   2.4104 O.2            1 S1                 0.0000
     21 ****        -3.2050   3.6648   1.2500 N.am           1 S1                 0.0000
     22 ****        -3.5994   4.0823   2.0803 H              1 S1                 0.0000
     23 ****        -3.0377   6.5418  -0.0295 H              1 S1                 0.0000
     24 ****        -4.1560   5.9658   1.2119 H              1 S1                 0.0000
     25 ****        -4.6186   5.9007  -0.4919 H              1 S1                 0.0000
     26 ****        -2.1624   1.3032  -2.7337 H              1 S1                 0.0000
     27 ****        -0.5539   1.8748  -2.2631 H              1 S1                 0.0000
     28 ****        -1.6557   2.9459  -3.1224 H              1 S1                 0.0000
     29 ****        -1.9977  -0.1245   0.9394 H              1 S1                 0.0000
     30 ****        -1.9016  -0.0694  -0.7843 H              1 S1                 0.0000
     31 ****        -0.1188  -1.3431  -0.8503 H              1 S1                 0.0000
     32 ****         3.7139  -0.2095  -1.4928 H              1 S1                 0.0000
     33 ****         2.6809   1.0140  -0.7820 H              1 S1                 0.0000
     34 ****         2.2057   0.2286  -2.2831 H              1 S1                 0.0000
     35 ****         3.6717  -1.4097   0.7367 H              1 S1                 0.0000
     36 ****         2.5331  -0.3302   1.4741 H              1 S1                 0.0000
     37 ****         2.5355  -2.5257   2.6058 H              1 S1                 0.0000
     38 ****         0.9691  -2.2202   1.9015 H              1 S1                 0.0000
     39 ****         3.1770  -3.9448   0.6963 H              1 S1                 0.0000
     40 ****         0.4601  -4.7619   1.8297 H              1 S1                 0.0000
     41 ****         2.0243  -5.0490   2.5880 H              1 S1                 0.0000
     42 ****         1.6244  -5.8447   1.0704 H              1 S1                 0.0000
     43 ****         1.5967  -4.4805  -1.1125 H              1 S1                 0.0000
     44 ****         0.3804  -3.4482  -0.4088 H              1 S1                 0.0000
     45 ****         1.5387  -2.2814  -2.2638 H              1 S1                 0.0000
     46 ****         3.0874  -2.5819  -1.5266 H              1 S1                 0.0000
     47 ****        -2.6970   4.4856  -1.8681 LP             1 S1                 0.0000
     48 ****         0.1069   1.9948   1.2324 LP             1 S1                 0.0000
     49 ****         1.5835   1.1660   0.8680 LP             1 S1                 0.0000
     50 ****        -2.3810   0.8760   2.4729 LP             1 S1                 0.0000
     51 ****        -3.1468   2.2392   3.2180 LP             1 S1                 0.0000
@<TRIPOS>BOND
    1    1    2 1     
    2    1   23 1     
    3    1   24 1     
    4    1   25 1     
    5    2   21 1     
    6    2    3 2     
    7    3    4 1     
    8    4    5 1     
    9    4    6 2     
   10    5   26 1     
   11    5   27 1     
   12    5   28 1     
   13    6    7 1     
   14    6   19 1     
   15    7    8 1     
   16    7   29 1     
   17    7   30 1     
   18    8    9 2     
   19    8   10 am    
   20   10   11 1     
   21   10   31 1     
   22   11   18 1     
   23   11   12 1     
   24   11   13 1     
   25   12   32 1     
   26   12   33 1     
   27   12   34 1     
   28   13   14 1     
   29   13   35 1     
   30   13   36 1     
   31   14   15 1     
   32   14   37 1     
   33   14   38 1     
   34   15   16 1     
   35   15   17 1     
   36   15   39 1     
   37   16   40 1     
   38   16   41 1     
   39   16   42 1     
   40   17   18 1     
   41   17   43 1     
   42   17   44 1     
   43   18   45 1     
   44   18   46 1     
   45   19   20 2     
   46   19   21 am    
   47   21   22 1     
   48    3   47 1     
   49    9   48 1     
   50    9   49 1     
   51   20   50 1     
   52   20   51 1     
@<TRIPOS>SUBSTRUCTURE
      1 S1             1
@<TRIPOS>SET
LONE_PAIRS      STATIC     ATOMS    <user>   **** ""
5 47 48 49 50 51
DONOR_HYDROGENS      STATIC     ATOMS    <user>   **** ""
2 31 22
ATOM$BLUE        STATIC     ATOMS    COLORGROUP SYSTEM
5 47 48 49 50 51
ATOM$RED        STATIC     ATOMS    COLORGROUP SYSTEM
2 31 22
