AV-unprocessed.smi:2151|AV-procd|sdf|8761|dock6
  -GOLD-   2272011543D 1   1.00000     0.00000
 Structure written by MMmdl.
 39 40  0  0  0  0  0  0  0  0  1 V2000
  146.1781  142.1028  153.9180 C   0  0  0  0  0  0  0  0  0  0  0  0
  146.7094  141.7013  155.3029 C   0  0  1  0  0  0  0  0  0  0  0  0
  148.1530  141.9274  155.3306 N   0  0  0  0  0  0  0  0  0  0  0  0
  149.0732  141.0502  155.7606 C   0  0  0  0  0  0  0  0  0  0  0  0
  148.7915  139.9258  156.1780 O   0  0  0  0  0  0  0  0  0  0  0  0
  150.5283  141.5390  155.7244 C   0  0  0  0  0  0  0  0  0  0  0  0
  151.1245  141.7022  157.0610 N   0  0  0  0  0  0  0  0  0  0  0  0
  150.9530  142.9520  157.6880 C   0  0  0  0  0  0  0  0  0  0  0  0
  151.4464  143.2338  158.9090 C   0  0  0  0  0  0  0  0  0  0  0  0
  151.1862  144.5700  159.5872 C   0  0  0  0  0  0  0  0  0  0  0  0
  151.7078  145.5757  158.8842 F   0  0  0  0  0  0  0  0  0  0  0  0
  149.8742  144.7747  159.6947 F   0  0  0  0  0  0  0  0  0  0  0  0
  151.7119  144.5986  160.8126 F   0  0  0  0  0  0  0  0  0  0  0  0
  152.1552  142.1622  159.5809 C   0  0  0  0  0  0  0  0  0  0  0  0
  152.3150  140.9561  159.0017 C   0  0  0  0  0  0  0  0  0  0  0  0
  151.7831  140.6695  157.6673 C   0  0  0  0  0  0  0  0  0  0  0  0
  151.9198  139.5703  157.1297 O   0  0  0  0  0  0  0  0  0  0  0  0
  146.0313  142.4904  156.4432 C   0  0  1  0  0  0  0  0  0  0  0  0
  144.5058  142.3886  156.4696 C   0  0  0  0  0  0  0  0  0  0  0  0
  144.2006  142.7358  157.9086 C   0  0  0  0  0  0  0  0  0  0  0  0
  145.3554  142.0668  158.6487 C   0  0  0  0  0  0  0  0  0  0  0  0
  146.4316  141.9892  157.7174 O   0  0  0  0  0  0  0  0  0  0  0  0
  145.1131  141.8906  153.8235 H   0  0  0  0  0  0  0  0  0  0  0  0
  146.6888  141.5510  153.1280 H   0  0  0  0  0  0  0  0  0  0  0  0
  146.3241  143.1669  153.7292 H   0  0  0  0  0  0  0  0  0  0  0  0
  146.5021  140.6383  155.4392 H   0  0  0  0  0  0  0  0  0  0  0  0
  148.4756  142.8290  155.0107 H   0  0  0  0  0  0  0  0  0  0  0  0
  151.1207  140.8482  155.1214 H   0  0  0  0  0  0  0  0  0  0  0  0
  150.5581  142.4858  155.1829 H   0  0  0  0  0  0  0  0  0  0  0  0
  150.3786  143.6654  157.1147 H   0  0  0  0  0  0  0  0  0  0  0  0
  152.5677  142.3291  160.5650 H   0  0  0  0  0  0  0  0  0  0  0  0
  152.8494  140.1812  159.5315 H   0  0  0  0  0  0  0  0  0  0  0  0
  146.3179  143.5425  156.3964 H   0  0  0  0  0  0  0  0  0  0  0  0
  144.0203  143.0583  155.7594 H   0  0  0  0  0  0  0  0  0  0  0  0
  144.1842  141.3683  156.2554 H   0  0  0  0  0  0  0  0  0  0  0  0
  144.2422  143.8171  158.0476 H   0  0  0  0  0  0  0  0  0  0  0  0
  143.2220  142.3860  158.2385 H   0  0  0  0  0  0  0  0  0  0  0  0
  145.6452  142.6188  159.5429 H   0  0  0  0  0  0  0  0  0  0  0  0
  145.0855  141.0540  158.9489 H   0  0  0  0  0  0  0  0  0  0  0  0
  1  2  1  0  0  0  0
  1 23  1  0  0  0  0
  1 24  1  0  0  0  0
  1 25  1  0  0  0  0
  2  3  1  0  0  0  0
  2 18  1  0  0  0  0
  2 26  1  0  0  0  0
  3  4  1  0  0  0  0
  3 27  1  0  0  0  0
  4  5  2  0  0  0  0
  4  6  1  0  0  0  0
  6  7  1  0  0  0  0
  6 28  1  0  0  0  0
  6 29  1  0  0  0  0
  7 16  1  0  0  0  0
  7  8  1  0  0  0  0
  8  9  2  0  0  0  0
  8 30  1  0  0  0  0
  9 10  1  0  0  0  0
  9 14  1  0  0  0  0
 10 11  1  0  0  0  0
 10 12  1  0  0  0  0
 10 13  1  0  0  0  0
 14 15  2  0  0  0  0
 14 31  1  0  0  0  0
 15 16  1  0  0  0  0
 15 32  1  0  0  0  0
 16 17  2  0  0  0  0
 18 22  1  0  0  0  0
 18 19  1  0  0  0  0
 18 33  1  0  0  0  0
 19 20  1  0  0  0  0
 19 34  1  0  0  0  0
 19 35  1  0  0  0  0
 20 21  1  0  0  0  0
 20 36  1  0  0  0  0
 20 37  1  0  0  0  0
 21 22  1  0  0  0  0
 21 38  1  0  0  0  0
 21 39  1  0  0  0  0
M  END
> <s_m_source_file>
AV-unprocessed.smi

> <i_m_source_file_index>
2151

> <i_lp_mmshare_version>
43012

> <i_f3d_flags>
0

> <s_epik_input>
TzFbQ0gyXVtDSDJdW0NIMl1bQ0BIXTFbQ0BIXShbQ0gzXSlbTkhdQyg9TylbQ0gyXW4yW2NIXWMoQyhGKShGKUYpW2NIXVtjSF1jMj1P

> <s_epik_cmdline>
J2VwaWtfcHl0aG9uJywgJy1waCcsICc3LjAnLCAnLXRuJywgJzgnLCAnLW1hJywgJzIwMCcsICctbWV0YWxfYmluZGluZycsICctaW1hZScsICc8aW5maWxlLm1hZT4nLCAnLW9tYWUnLCAnPG91dGZpbGUubWFlPic=

> <r_lp_tautomer_probability>
1

> <r_epik_Ionization_Penalty>
4.20109e-08

> <r_epik_Ionization_Penalty_Charging>
1.89977e-08

> <r_epik_Ionization_Penalty_Neutral>
2.30132e-08

> <r_epik_State_Penalty>
-0

> <r_epik_Charging_Adjusted_Penalty>
1.89977e-08

> <i_epik_Tot_Q>
0

> <i_epik_Tot_abs_Q>
0

> <r_epik_Metal_State_Penalty>
-0

> <b_epik_Metal_Only>
0

> <s_lp_Force_Field>
OPLS_2005

> <r_lp_Energy>
30.384

> <b_lp_Chiralities_Consistent>
1

> <s_lp_Variant>
AV-unprocessed.smi:2151-4

> <Gold.Version>
5.8.1

> <Gold.Id.Protein>
6NUR|6NUR_protein|mol2

> <Gold.PLP.Fitness>
46.7376

> <Gold.PLP.PLP>
-42.6441

> <Gold.PLP.part.hbond>
-1.0000

> <Gold.PLP.part.metal>
0.0000

> <Gold.PLP.part.buried>
-7.0787

> <Gold.PLP.part.nonpolar>
-34.5849

> <Gold.PLP.part.repulsive>
0.2671

> <Gold.PLP.ligand.clash>
0.0000

> <Gold.PLP.ligand.torsion>
0.6118

> <Gold.PLP.Chemscore.Hbond>
0.7520

> <Gold.PLP.Chemscore.CHOScore>
1.0000

> <Gold.PLP.Chemscore.Metal>
0.0000

> <Gold.Chemscore.Hbonds>
donor molecule, donor type, donor heavy atom, donor atom, acceptor molecule, acceptor atom, score
      L1  H     3    27       P1  8028  0.86
      L1  C     8    30       P1  8028  1.00

> <Gold.PLP.Chemscore.Internal.Correction>
0.0610

> <Gold.Rescore>
     Score         DG    S(hbond)    S(metal)    S(lipo)     H(rot)  DE(clash)    DE(int)     intcor
     11.75     -12.40       0.93        0.00      72.58       1.82       0.02       0.63       ----

> <Gold.Chemscore.Fitness>
11.7522

> <Gold.Chemscore.DG>
-12.4023

> <Gold.Chemscore.ZeroCoef>
-5.4800

> <Gold.Chemscore.Hbond>
0.9271

> <Gold.Chemscore.Metal>
0.0000

> <Gold.Chemscore.Lipo>
72.5816

> <Gold.Chemscore.Internal_Hbond>
0.0000

> <Gold.Chemscore.DEClash>
0.0188

> <Gold.Chemscore.DEInternal>
0.6313

> <Gold.Chemscore.Rot>
1.8228

> <Gold.Chemscore.Internal.Correction>
   9.000000E+99

> <Gold.Chemscore.Hbonds>
donor molecule, donor type, donor heavy atom, donor atom, acceptor molecule, acceptor atom, score
      L1  H     3    27       P1  8028  0.80

> <Gold.Chemscore.Hbond.Weighted>
-3.0967

> <Gold.Chemscore.Metal.Weighted>
-0.0000

> <Gold.Chemscore.Lipo.Weighted>
-8.4920

> <Gold.Chemscore.Internal_Hbond.Weighted>
0.0000

> <Gold.Chemscore.DEClash.Weighted>
0.0188

> <Gold.Chemscore.DEInternal.Weighted>
0.6313

> <Gold.Chemscore.Rot.Weighted>
4.6665

> <Gold.Chemscore.Internal.Correction.Weighted>
   9.000000E+99

> <Gold.Protein.RotatedTorsions>
[ 6907 6896 6895 6894 ] final   46.57 input  -60.11 | X-H torsion
[ 7974 7965 7964 7962 ] final   -0.45 input  175.53 | X-H torsion
[ 8008 7997 7996 7995 ] final  158.83 input   59.86 | X-H torsion
[ 10167 10162 10161 10158 ] final -154.23 input  -65.29 | X-H torsion
[ 10718 10713 10712 10709 ] final  124.12 input   66.30 | X-H torsion
[ 10763 10752 10751 10750 ] final  173.51 input  -60.55 | X-H torsion
[ 11005 11000 10999 10996 ] final   -7.89 input  -57.11 | X-H torsion

> <Gold.Protein.ActiveResidues>
 VAL166  LYS551  ARG553  GLY616  TRP617  ASP618  TYR619  PRO620  LYS621  CYS622 
 ASP623  PHE694  ASN695  SER759  ASP760  ASP761  ALA762  ILE779  LEU786  VAL792 
 PHE793  MET794  SER795  GLU796  ALA797  LYS798  CYS799  TRP800  GLU811  SER814 

> <Gold.Protein.RotatedAtoms>
  152.2579  134.8065  160.0435 H   0  0  0  0  0  0  0  0  0  0  0  0  # atno 6907 bound_to 6896
  151.8721  133.3473  159.3746 H   0  0  0  0  0  0  0  0  0  0  0  0  # atno 6908 bound_to 6896
  150.7106  134.5029  159.5614 H   0  0  0  0  0  0  0  0  0  0  0  0  # atno 6909 bound_to 6896
  146.2427  140.1271  142.8339 H   0  0  0  0  0  0  0  0  0  0  0  0  # atno 7974 bound_to 7965
  156.2278  140.1847  156.7320 H   0  0  0  0  0  0  0  0  0  0  0  0  # atno 8008 bound_to 7997
  154.5970  140.0642  156.9345 H   0  0  0  0  0  0  0  0  0  0  0  0  # atno 8009 bound_to 7997
  155.2239  140.3309  155.4314 H   0  0  0  0  0  0  0  0  0  0  0  0  # atno 8010 bound_to 7997
  139.7031  143.9231  152.2437 H   0  0  0  0  0  0  0  0  0  0  0  0  # atno 10167 bound_to 10162
  157.5610  131.1089  150.8538 H   0  0  0  0  0  0  0  0  0  0  0  0  # atno 10718 bound_to 10713
  154.4411  135.2762  155.1847 H   0  0  0  0  0  0  0  0  0  0  0  0  # atno 10763 bound_to 10752
  154.3713  135.6108  153.5745 H   0  0  0  0  0  0  0  0  0  0  0  0  # atno 10764 bound_to 10752
  152.9841  135.5858  154.4738 H   0  0  0  0  0  0  0  0  0  0  0  0  # atno 10765 bound_to 10752
  140.7176  133.8855  155.8797 H   0  0  0  0  0  0  0  0  0  0  0  0  # atno 11005 bound_to 11000
  145.0357  140.8906  143.5082 LP  0  0  0  0  0  0  0  0  0  0  0  0  # atno 17320 bound_to 7965
  145.1343  139.2612  143.5523 LP  0  0  0  0  0  0  0  0  0  0  0  0  # atno 17321 bound_to 7965
  139.9079  144.6874  150.8594 LP  0  0  0  0  0  0  0  0  0  0  0  0  # atno 17342 bound_to 10162
  140.7714  143.3465  151.2100 LP  0  0  0  0  0  0  0  0  0  0  0  0  # atno 17343 bound_to 10162
  156.9035  130.5255  149.5282 LP  0  0  0  0  0  0  0  0  0  0  0  0  # atno 17370 bound_to 10713
  156.0663  130.5705  150.9295 LP  0  0  0  0  0  0  0  0  0  0  0  0  # atno 17371 bound_to 10713
  141.0031  134.1123  157.4298 LP  0  0  0  0  0  0  0  0  0  0  0  0  # atno 17394 bound_to 11000
  139.8856  135.0074  156.6444 LP  0  0  0  0  0  0  0  0  0  0  0  0  # atno 17395 bound_to 11000

$$$$
