AV-unprocessed.smi:2736|AV-procd|sdf|10545|dock8
  -GOLD-   2272014593D 1   1.00000     0.00000
 Structure written by MMmdl.
 38 40  0  0  0  0  0  0  0  0  1 V2000
  154.5309  140.0121  160.6650 C   0  0  0  0  0  0  0  0  0  0  0  0
  153.6822  141.1968  160.4386 N   0  0  0  0  0  0  0  0  0  0  0  0
  153.1198  141.3635  159.2003 C   0  0  0  0  0  0  0  0  0  0  0  0
  153.2660  140.5954  158.2494 O   0  0  0  0  0  0  0  0  0  0  0  0
  152.2969  142.5692  159.0806 C   0  0  0  0  0  0  0  0  0  0  0  0
  152.1067  143.4375  160.1028 C   0  0  0  0  0  0  0  0  0  0  0  0
  151.2836  144.4924  159.7251 N   0  0  0  0  0  0  0  0  0  0  0  0
  151.0164  144.1935  158.4528 C   0  0  0  0  0  0  0  0  0  0  0  0
  151.5859  143.0620  157.9884 N   0  0  0  0  0  0  0  0  0  0  0  0
  151.4588  142.5187  156.6440 C   0  0  0  0  0  0  0  0  0  0  0  0
  150.1351  141.7564  156.4269 C   0  0  2  0  0  0  0  0  0  0  0  0
  149.5336  141.4815  157.6788 O   0  0  0  0  0  0  0  0  0  0  0  0
  150.3594  140.4893  155.6049 C   0  0  0  0  0  0  0  0  0  0  0  0
  151.6408  139.8908  155.5953 C   0  0  0  0  0  0  0  0  0  0  0  0
  151.8861  138.7268  154.8430 C   0  0  0  0  0  0  0  0  0  0  0  0
  150.8511  138.1486  154.0871 C   0  0  0  0  0  0  0  0  0  0  0  0
  149.5743  138.7393  154.0818 C   0  0  0  0  0  0  0  0  0  0  0  0
  149.3226  139.9059  154.8319 C   0  0  0  0  0  0  0  0  0  0  0  0
  147.7356  140.5887  154.7692 Cl  0  0  0  0  0  0  0  0  0  0  0  0
  152.7349  143.1725  161.3450 N   0  0  0  0  0  0  0  0  0  0  0  0
  152.5108  144.1361  162.4267 C   0  0  0  0  0  0  0  0  0  0  0  0
  153.5209  142.0577  161.5117 C   0  0  0  0  0  0  0  0  0  0  0  0
  154.0699  141.8302  162.5932 O   0  0  0  0  0  0  0  0  0  0  0  0
  154.6268  139.3445  159.8079 H   0  0  0  0  0  0  0  0  0  0  0  0
  154.1326  139.4085  161.4822 H   0  0  0  0  0  0  0  0  0  0  0  0
  155.5432  140.3166  160.9354 H   0  0  0  0  0  0  0  0  0  0  0  0
  150.3895  144.8212  157.8365 H   0  0  0  0  0  0  0  0  0  0  0  0
  151.5544  143.3340  155.9268 H   0  0  0  0  0  0  0  0  0  0  0  0
  152.3066  141.8565  156.4621 H   0  0  0  0  0  0  0  0  0  0  0  0
  149.4322  142.4089  155.9113 H   0  0  0  0  0  0  0  0  0  0  0  0
  148.5951  141.4901  157.5679 H   0  0  0  0  0  0  0  0  0  0  0  0
  152.4482  140.3263  156.1657 H   0  0  0  0  0  0  0  0  0  0  0  0
  152.8693  138.2793  154.8449 H   0  0  0  0  0  0  0  0  0  0  0  0
  151.0368  137.2554  153.5090 H   0  0  0  0  0  0  0  0  0  0  0  0
  148.7834  138.2951  153.4956 H   0  0  0  0  0  0  0  0  0  0  0  0
  153.0019  143.8826  163.3665 H   0  0  0  0  0  0  0  0  0  0  0  0
  151.4434  144.2203  162.6326 H   0  0  0  0  0  0  0  0  0  0  0  0
  152.8719  145.1206  162.1278 H   0  0  0  0  0  0  0  0  0  0  0  0
  1  2  1  0  0  0  0
  1 24  1  0  0  0  0
  1 25  1  0  0  0  0
  1 26  1  0  0  0  0
  2 22  1  0  0  0  0
  2  3  1  0  0  0  0
  3  4  2  0  0  0  0
  3  5  1  0  0  0  0
  5  9  1  0  0  0  0
  5  6  2  0  0  0  0
  6  7  1  0  0  0  0
  6 20  1  0  0  0  0
  7  8  2  0  0  0  0
  8  9  1  0  0  0  0
  8 27  1  0  0  0  0
  9 10  1  0  0  0  0
 10 11  1  0  0  0  0
 10 28  1  0  0  0  0
 10 29  1  0  0  0  0
 11 12  1  0  0  0  0
 11 13  1  0  0  0  0
 11 30  1  0  0  0  0
 12 31  1  0  0  0  0
 13 18  1  0  0  0  0
 13 14  2  0  0  0  0
 14 15  1  0  0  0  0
 14 32  1  0  0  0  0
 15 16  2  0  0  0  0
 15 33  1  0  0  0  0
 16 17  1  0  0  0  0
 16 34  1  0  0  0  0
 17 18  2  0  0  0  0
 17 35  1  0  0  0  0
 18 19  1  0  0  0  0
 20 21  1  0  0  0  0
 20 22  1  0  0  0  0
 21 36  1  0  0  0  0
 21 37  1  0  0  0  0
 21 38  1  0  0  0  0
 22 23  2  0  0  0  0
M  END
> <s_m_source_file>
AV-unprocessed.smi

> <i_m_source_file_index>
2736

> <i_lp_mmshare_version>
43012

> <i_f3d_flags>
0

> <s_epik_input>
Tz1jMW4oW0NIM10pYyg9TyluKFtDSDNdKWMoYzEyKW5bY0hdbjJbQ0gyXVtDQEhdKFtPSF0pYzNbY0hdW2NIXVtjSF1bY0hdYzNDbA==

> <s_epik_cmdline>
J2VwaWtfcHl0aG9uJywgJy1waCcsICc3LjAnLCAnLXRuJywgJzgnLCAnLW1hJywgJzIwMCcsICctbWV0YWxfYmluZGluZycsICctaW1hZScsICc8aW5maWxlLm1hZT4nLCAnLW9tYWUnLCAnPG91dGZpbGUubWFlPic=

> <r_lp_tautomer_probability>
1

> <r_epik_Ionization_Penalty>
1.63404e-06

> <r_epik_Ionization_Penalty_Charging>
3.74189e-09

> <r_epik_Ionization_Penalty_Neutral>
1.63029e-06

> <r_epik_State_Penalty>
-0

> <r_epik_Charging_Adjusted_Penalty>
3.74189e-09

> <i_epik_Tot_Q>
0

> <i_epik_Tot_abs_Q>
0

> <r_epik_Metal_State_Penalty>
-0

> <b_epik_Metal_Only>
0

> <s_lp_Force_Field>
OPLS_2005

> <r_lp_Energy>
36.4155

> <b_lp_Chiralities_Consistent>
1

> <s_lp_Variant>
AV-unprocessed.smi:2736-1

> <Gold.Version>
5.8.1

> <Gold.Id.Protein>
6NUR|6NUR_protein|mol2

> <Gold.PLP.Fitness>
51.3773

> <Gold.PLP.PLP>
-49.7136

> <Gold.PLP.part.hbond>
-2.0000

> <Gold.PLP.part.metal>
0.0000

> <Gold.PLP.part.buried>
-2.4365

> <Gold.PLP.part.nonpolar>
-45.6154

> <Gold.PLP.part.repulsive>
0.1032

> <Gold.PLP.ligand.clash>
0.0000

> <Gold.PLP.ligand.torsion>
1.5356

> <Gold.PLP.Chemscore.Hbond>
0.7360

> <Gold.PLP.Chemscore.CHOScore>
0.8368

> <Gold.PLP.Chemscore.Metal>
0.0000

> <Gold.Chemscore.Hbonds>
donor molecule, donor type, donor heavy atom, donor atom, acceptor molecule, acceptor atom, score
      P1  H  7997  8009       L1     4  0.72
      L1  C     8    27       P1  8028  0.65
      L1  C     8    27       P1  8029  0.16

> <Gold.PLP.Chemscore.Internal.Correction>
0.0166

> <Gold.Rescore>
     Score         DG    S(hbond)    S(metal)    S(lipo)     H(rot)  DE(clash)    DE(int)     intcor
     10.45     -13.87       0.79        0.00      96.04       2.15       1.98       1.45       ----

> <Gold.Chemscore.Fitness>
10.4493

> <Gold.Chemscore.DG>
-13.8746

> <Gold.Chemscore.ZeroCoef>
-5.4800

> <Gold.Chemscore.Hbond>
0.7949

> <Gold.Chemscore.Metal>
0.0000

> <Gold.Chemscore.Lipo>
96.0431

> <Gold.Chemscore.Internal_Hbond>
0.0000

> <Gold.Chemscore.DEClash>
1.9773

> <Gold.Chemscore.DEInternal>
1.4480

> <Gold.Chemscore.Rot>
2.1474

> <Gold.Chemscore.Internal.Correction>
   9.000000E+99

> <Gold.Chemscore.Hbonds>
donor molecule, donor type, donor heavy atom, donor atom, acceptor molecule, acceptor atom, score
      P1  H  7997  8009       L1     4  0.72

> <Gold.Chemscore.Hbond.Weighted>
-2.6549

> <Gold.Chemscore.Metal.Weighted>
-0.0000

> <Gold.Chemscore.Lipo.Weighted>
-11.2370

> <Gold.Chemscore.Internal_Hbond.Weighted>
0.0000

> <Gold.Chemscore.DEClash.Weighted>
1.9773

> <Gold.Chemscore.DEInternal.Weighted>
1.4480

> <Gold.Chemscore.Rot.Weighted>
5.4974

> <Gold.Chemscore.Internal.Correction.Weighted>
   9.000000E+99

> <Gold.Protein.RotatedTorsions>
[ 6907 6896 6895 6894 ] final -131.27 input  -60.11 | X-H torsion
[ 7974 7965 7964 7962 ] final  -10.10 input  175.53 | X-H torsion
[ 8008 7997 7996 7995 ] final  152.02 input   59.86 | X-H torsion
[ 10167 10162 10161 10158 ] final  109.83 input  -65.29 | X-H torsion
[ 10718 10713 10712 10709 ] final  -16.91 input   66.30 | X-H torsion
[ 10763 10752 10751 10750 ] final -131.86 input  -60.55 | X-H torsion
[ 11005 11000 10999 10996 ] final  168.50 input  -57.11 | X-H torsion

> <Gold.Protein.ActiveResidues>
 VAL166  LYS551  ARG553  GLY616  TRP617  ASP618  TYR619  PRO620  LYS621  CYS622 
 ASP623  PHE694  ASN695  SER759  ASP760  ASP761  ALA762  ILE779  LEU786  VAL792 
 PHE793  MET794  SER795  GLU796  ALA797  LYS798  CYS799  TRP800  GLU811  SER814 

> <Gold.Protein.RotatedAtoms>
  150.9491  133.6570  159.2775 H   0  0  0  0  0  0  0  0  0  0  0  0  # atno 6907 bound_to 6896
  151.3932  135.0958  159.9542 H   0  0  0  0  0  0  0  0  0  0  0  0  # atno 6908 bound_to 6896
  152.5102  133.9000  159.7491 H   0  0  0  0  0  0  0  0  0  0  0  0  # atno 6909 bound_to 6896
  146.2231  140.2714  142.8357 H   0  0  0  0  0  0  0  0  0  0  0  0  # atno 7974 bound_to 7965
  156.2648  140.2032  156.6267 H   0  0  0  0  0  0  0  0  0  0  0  0  # atno 8008 bound_to 7997
  154.6714  140.0549  157.0194 H   0  0  0  0  0  0  0  0  0  0  0  0  # atno 8009 bound_to 7997
  155.1131  140.3217  155.4519 H   0  0  0  0  0  0  0  0  0  0  0  0  # atno 8010 bound_to 7997
  139.6736  144.7124  151.1643 H   0  0  0  0  0  0  0  0  0  0  0  0  # atno 10167 bound_to 10162
  156.5809  130.4774  149.6321 H   0  0  0  0  0  0  0  0  0  0  0  0  # atno 10718 bound_to 10713
  154.8748  135.3816  154.4315 H   0  0  0  0  0  0  0  0  0  0  0  0  # atno 10763 bound_to 10752
  153.5009  135.7030  153.5837 H   0  0  0  0  0  0  0  0  0  0  0  0  # atno 10764 bound_to 10752
  153.4170  135.3911  155.2053 H   0  0  0  0  0  0  0  0  0  0  0  0  # atno 10765 bound_to 10752
  140.2879  134.7697  157.3813 H   0  0  0  0  0  0  0  0  0  0  0  0  # atno 11005 bound_to 11000
  144.9265  140.7927  143.5716 LP  0  0  0  0  0  0  0  0  0  0  0  0  # atno 17320 bound_to 7965
  145.2654  139.1975  143.4869 LP  0  0  0  0  0  0  0  0  0  0  0  0  # atno 17321 bound_to 7965
  140.7627  143.5807  150.8898 LP  0  0  0  0  0  0  0  0  0  0  0  0  # atno 17342 bound_to 10162
  139.9474  143.6312  152.3038 LP  0  0  0  0  0  0  0  0  0  0  0  0  # atno 17343 bound_to 10162
  156.2632  130.6974  151.1749 LP  0  0  0  0  0  0  0  0  0  0  0  0  # atno 17370 bound_to 10713
  157.7327  131.0598  150.5617 LP  0  0  0  0  0  0  0  0  0  0  0  0  # atno 17371 bound_to 10713
  140.1223  134.5204  155.8173 LP  0  0  0  0  0  0  0  0  0  0  0  0  # atno 17394 bound_to 11000
  141.2151  133.6760  156.6888 LP  0  0  0  0  0  0  0  0  0  0  0  0  # atno 17395 bound_to 11000

$$$$
