AV-unprocessed.smi:2706|AV-procd|sdf|10452|dock1
  -GOLD-   2272014493D 1   1.00000     0.00000
 Structure written by MMmdl.
 43 46  0  0  0  0  0  0  0  0  1 V2000
  144.5395  142.9996  157.0615 C   0  0  0  0  0  0  0  0  0  0  0  0
  145.9657  142.7084  156.9557 N   0  0  0  0  0  0  0  0  0  0  0  0
  146.7522  143.1018  158.1192 C   0  0  0  0  0  0  0  0  0  0  0  0
  146.5612  142.1423  155.8270 C   0  0  0  0  0  0  0  0  0  0  0  0
  145.8269  141.8256  154.7369 C   0  0  0  0  0  0  0  0  0  0  0  0
  146.4652  141.2458  153.5731 C   0  0  0  0  0  0  0  0  0  0  0  0
  147.7902  141.0019  153.5525 C   0  0  0  0  0  0  0  0  0  0  0  0
  148.6196  141.3069  154.7031 C   0  0  0  0  0  0  0  0  0  0  0  0
  149.9020  141.0759  154.6664 N   0  0  0  0  0  0  0  0  0  0  0  0
  150.7413  141.2385  155.7685 C   0  0  0  0  0  0  0  0  0  0  0  0
  151.5915  140.4057  156.0814 O   0  0  0  0  0  0  0  0  0  0  0  0
  150.4956  142.3123  156.5478 N   0  0  0  0  0  0  0  0  0  0  0  0
  151.2032  142.6655  157.7355 C   0  0  2  0  0  0  0  0  0  0  0  0
  150.5713  143.7073  158.6347 C   0  0  1  0  0  0  0  0  0  0  0  0
  151.0076  144.0870  160.0478 C   0  0  1  0  0  0  0  0  0  0  0  0
  152.0822  143.1170  160.5822 C   0  0  0  0  0  0  0  0  0  0  0  0
  153.3157  143.4815  159.7259 C   0  0  0  0  0  0  0  0  0  0  0  0
  152.7722  144.6070  158.8219 C   0  0  2  0  0  0  0  0  0  0  0  0
  151.8479  145.3345  159.7935 C   0  0  0  0  0  0  0  0  0  0  0  0
  151.7844  144.0634  157.7923 C   0  0  1  0  0  0  0  0  0  0  0  0
  147.9351  141.8876  155.7881 N   0  0  0  0  0  0  0  0  0  0  0  0
  143.9682  142.0728  157.1193 H   0  0  0  0  0  0  0  0  0  0  0  0
  144.1990  143.5611  156.1912 H   0  0  0  0  0  0  0  0  0  0  0  0
  144.3051  143.5953  157.9440 H   0  0  0  0  0  0  0  0  0  0  0  0
  147.2299  144.0656  157.9420 H   0  0  0  0  0  0  0  0  0  0  0  0
  147.5298  142.3677  158.3288 H   0  0  0  0  0  0  0  0  0  0  0  0
  146.1379  143.1841  159.0163 H   0  0  0  0  0  0  0  0  0  0  0  0
  144.7607  141.9922  154.7038 H   0  0  0  0  0  0  0  0  0  0  0  0
  145.8681  141.0089  152.7050 H   0  0  0  0  0  0  0  0  0  0  0  0
  148.2092  140.5702  152.6548 H   0  0  0  0  0  0  0  0  0  0  0  0
  149.7458  142.9289  156.2698 H   0  0  0  0  0  0  0  0  0  0  0  0
  151.7743  141.8687  158.2056 H   0  0  0  0  0  0  0  0  0  0  0  0
  149.6294  144.1493  158.3139 H   0  0  0  0  0  0  0  0  0  0  0  0
  150.1597  144.2319  160.7179 H   0  0  0  0  0  0  0  0  0  0  0  0
  152.2825  143.3066  161.6376 H   0  0  0  0  0  0  0  0  0  0  0  0
  151.7887  142.0713  160.4875 H   0  0  0  0  0  0  0  0  0  0  0  0
  154.1223  143.8519  160.3598 H   0  0  0  0  0  0  0  0  0  0  0  0
  153.7075  142.6381  159.1566 H   0  0  0  0  0  0  0  0  0  0  0  0
  153.5435  145.2287  158.3664 H   0  0  0  0  0  0  0  0  0  0  0  0
  151.2859  146.1455  159.3270 H   0  0  0  0  0  0  0  0  0  0  0  0
  152.3541  145.7137  160.6833 H   0  0  0  0  0  0  0  0  0  0  0  0
  151.5894  144.7299  156.9540 H   0  0  0  0  0  0  0  0  0  0  0  0
  148.4442  142.1548  156.6182 H   0  0  0  0  0  0  0  0  0  0  0  0
  1  2  1  0  0  0  0
  1 22  1  0  0  0  0
  1 23  1  0  0  0  0
  1 24  1  0  0  0  0
  2  3  1  0  0  0  0
  2  4  1  0  0  0  0
  3 25  1  0  0  0  0
  3 26  1  0  0  0  0
  3 27  1  0  0  0  0
  4 21  1  0  0  0  0
  4  5  2  0  0  0  0
  5  6  1  0  0  0  0
  5 28  1  0  0  0  0
  6  7  2  0  0  0  0
  6 29  1  0  0  0  0
  7  8  1  0  0  0  0
  7 30  1  0  0  0  0
  8  9  2  0  0  0  0
  8 21  1  0  0  0  0
  9 10  1  0  0  0  0
 10 11  2  0  0  0  0
 10 12  1  0  0  0  0
 12 13  1  0  0  0  0
 12 31  1  0  0  0  0
 13 20  1  0  0  0  0
 13 14  1  0  0  0  0
 13 32  1  0  0  0  0
 14 20  1  0  0  0  0
 14 15  1  0  0  0  0
 14 33  1  0  0  0  0
 15 19  1  0  0  0  0
 15 16  1  0  0  0  0
 15 34  1  0  0  0  0
 16 17  1  0  0  0  0
 16 35  1  0  0  0  0
 16 36  1  0  0  0  0
 17 18  1  0  0  0  0
 17 37  1  0  0  0  0
 17 38  1  0  0  0  0
 18 19  1  0  0  0  0
 18 20  1  0  0  0  0
 18 39  1  0  0  0  0
 19 40  1  0  0  0  0
 19 41  1  0  0  0  0
 20 42  1  0  0  0  0
 21 43  1  0  0  0  0
M  END
> <s_m_source_file>
AV-unprocessed.smi

> <i_m_source_file_index>
2706

> <i_lp_mmshare_version>
43012

> <i_f3d_flags>
0

> <s_epik_input>
W0NIM11OKFtDSDNdKWMxW2NIXVtjSF1bY0hdYyhuMSlbTkhdQyg9TylbTkhdW0NASF0yW0NAQEhdM1tDQEBIXShbQ0gyXTQpW0NIMl1bQ0gyXVtDQEBIXTRbQ0BIXTIz

> <s_epik_cmdline>
J2VwaWtfcHl0aG9uJywgJy1waCcsICc3LjAnLCAnLXRuJywgJzgnLCAnLW1hJywgJzIwMCcsICctbWV0YWxfYmluZGluZycsICctaW1hZScsICc8aW5maWxlLm1hZT4nLCAnLW9tYWUnLCAnPG91dGZpbGUubWFlPic=

> <r_lp_tautomer_probability>
0.999994

> <r_epik_Ionization_Penalty>
2.07242

> <r_epik_Ionization_Penalty_Charging>
2.07242

> <r_epik_Ionization_Penalty_Neutral>
9.73808e-07

> <r_epik_State_Penalty>
3.96009

> <r_epik_Charging_Adjusted_Penalty>
6.03251

> <i_epik_Tot_Q>
0

> <i_epik_Tot_abs_Q>
0

> <r_epik_Metal_State_Penalty>
3.98849

> <b_epik_Metal_Only>
1

> <s_lp_Force_Field>
OPLS_2005

> <r_lp_Energy>
91.2091

> <b_lp_Chiralities_Consistent>
1

> <s_lp_Variant>
AV-unprocessed.smi:2706-9

> <Gold.Version>
5.8.1

> <Gold.Id.Protein>
6NUR|6NUR_protein|mol2

> <Gold.PLP.Fitness>
47.1807

> <Gold.PLP.PLP>
-44.4336

> <Gold.PLP.part.hbond>
-3.0000

> <Gold.PLP.part.metal>
0.0000

> <Gold.PLP.part.buried>
-2.8796

> <Gold.PLP.part.nonpolar>
-37.4140

> <Gold.PLP.part.repulsive>
0.2579

> <Gold.PLP.ligand.clash>
0.0000

> <Gold.PLP.ligand.torsion>
0.4425

> <Gold.PLP.Chemscore.Hbond>
1.1966

> <Gold.PLP.Chemscore.CHOScore>
0.0000

> <Gold.PLP.Chemscore.Metal>
0.0000

> <Gold.Chemscore.Hbonds>
donor molecule, donor type, donor heavy atom, donor atom, acceptor molecule, acceptor atom, score
      L1  H    12    31       P1  8028  0.88
      P1  H  7989  7998       L1     9  0.21

> <Gold.PLP.Chemscore.Internal.Correction>
0.0423

> <Gold.Rescore>
     Score         DG    S(hbond)    S(metal)    S(lipo)     H(rot)  DE(clash)    DE(int)     intcor
     17.15     -19.36       0.99        0.00     112.33       1.00       0.24       1.98       ----

> <Gold.Chemscore.Fitness>
17.1480

> <Gold.Chemscore.DG>
-19.3630

> <Gold.Chemscore.ZeroCoef>
-5.4800

> <Gold.Chemscore.Hbond>
0.9882

> <Gold.Chemscore.Metal>
0.0000

> <Gold.Chemscore.Lipo>
112.3284

> <Gold.Chemscore.Internal_Hbond>
0.0000

> <Gold.Chemscore.DEClash>
0.2365

> <Gold.Chemscore.DEInternal>
1.9785

> <Gold.Chemscore.Rot>
1.0000

> <Gold.Chemscore.Internal.Correction>
   9.000000E+99

> <Gold.Chemscore.Hbonds>
donor molecule, donor type, donor heavy atom, donor atom, acceptor molecule, acceptor atom, score
      L1  H    12    31       P1  8028  0.84
      P1  H  7989  7998       L1     9  0.01

> <Gold.Chemscore.Hbond.Weighted>
-3.3006

> <Gold.Chemscore.Metal.Weighted>
-0.0000

> <Gold.Chemscore.Lipo.Weighted>
-13.1424

> <Gold.Chemscore.Internal_Hbond.Weighted>
0.0000

> <Gold.Chemscore.DEClash.Weighted>
0.2365

> <Gold.Chemscore.DEInternal.Weighted>
1.9785

> <Gold.Chemscore.Rot.Weighted>
2.5600

> <Gold.Chemscore.Internal.Correction.Weighted>
   9.000000E+99

> <Gold.Protein.RotatedTorsions>
[ 6907 6896 6895 6894 ] final -164.85 input  -60.11 | X-H torsion
[ 7974 7965 7964 7962 ] final  -40.39 input  175.53 | X-H torsion
[ 8008 7997 7996 7995 ] final  -26.02 input   59.86 | X-H torsion
[ 10167 10162 10161 10158 ] final  -68.75 input  -65.29 | X-H torsion
[ 10718 10713 10712 10709 ] final  -84.79 input   66.30 | X-H torsion
[ 10763 10752 10751 10750 ] final   45.45 input  -60.55 | X-H torsion
[ 11005 11000 10999 10996 ] final  175.04 input  -57.11 | X-H torsion

> <Gold.Protein.ActiveResidues>
 VAL166  LYS551  ARG553  GLY616  TRP617  ASP618  TYR619  PRO620  LYS621  CYS622 
 ASP623  PHE694  ASN695  SER759  ASP760  ASP761  ALA762  ILE779  LEU786  VAL792 
 PHE793  MET794  SER795  GLU796  ALA797  LYS798  CYS799  TRP800  GLU811  SER814 

> <Gold.Protein.RotatedAtoms>
  151.4183  133.3706  159.2752 H   0  0  0  0  0  0  0  0  0  0  0  0  # atno 6907 bound_to 6896
  150.9312  134.8728  159.7563 H   0  0  0  0  0  0  0  0  0  0  0  0  # atno 6908 bound_to 6896
  152.5029  134.4128  159.9506 H   0  0  0  0  0  0  0  0  0  0  0  0  # atno 6909 bound_to 6896
  146.0309  140.6733  142.9133 H   0  0  0  0  0  0  0  0  0  0  0  0  # atno 7974 bound_to 7965
  154.4446  140.1911  156.0710 H   0  0  0  0  0  0  0  0  0  0  0  0  # atno 8008 bound_to 7997
  156.0511  140.3308  155.7326 H   0  0  0  0  0  0  0  0  0  0  0  0  # atno 8009 bound_to 7997
  155.5555  140.0599  157.2831 H   0  0  0  0  0  0  0  0  0  0  0  0  # atno 8010 bound_to 7997
  140.5484  143.2312  151.6959 H   0  0  0  0  0  0  0  0  0  0  0  0  # atno 10167 bound_to 10162
  156.0003  130.4709  150.4463 H   0  0  0  0  0  0  0  0  0  0  0  0  # atno 10718 bound_to 10713
  152.9824  135.6039  154.3439 H   0  0  0  0  0  0  0  0  0  0  0  0  # atno 10763 bound_to 10752
  154.3133  135.2771  155.2557 H   0  0  0  0  0  0  0  0  0  0  0  0  # atno 10764 bound_to 10752
  154.4756  135.5930  153.6408 H   0  0  0  0  0  0  0  0  0  0  0  0  # atno 10765 bound_to 10752
  140.3579  134.7138  157.4312 H   0  0  0  0  0  0  0  0  0  0  0  0  # atno 11005 bound_to 11000
  144.7030  140.3733  143.7141 LP  0  0  0  0  0  0  0  0  0  0  0  0  # atno 17320 bound_to 7965
  145.7043  139.1669  143.2575 LP  0  0  0  0  0  0  0  0  0  0  0  0  # atno 17321 bound_to 7965
  139.5017  144.3858  152.0330 LP  0  0  0  0  0  0  0  0  0  0  0  0  # atno 17342 bound_to 10162
  140.2973  144.3686  150.6070 LP  0  0  0  0  0  0  0  0  0  0  0  0  # atno 17343 bound_to 10162
  157.2500  131.0544  151.2385 LP  0  0  0  0  0  0  0  0  0  0  0  0  # atno 17370 bound_to 10713
  157.3538  130.7096  149.6457 LP  0  0  0  0  0  0  0  0  0  0  0  0  # atno 17371 bound_to 10713
  140.0650  134.5942  155.8705 LP  0  0  0  0  0  0  0  0  0  0  0  0  # atno 17394 bound_to 11000
  141.1993  133.6606  156.5836 LP  0  0  0  0  0  0  0  0  0  0  0  0  # atno 17395 bound_to 11000

$$$$
