AV-unprocessed.smi:1620|AV-procd|sdf|6492|dock4
  -GOLD-   22720 7153D 1   1.00000     0.00000
 Structure written by MMmdl.
 40 40  0  0  0  0  0  0  0  0  1 V2000
  144.5977  137.4687  162.1700 C   0  0  0  0  0  0  0  0  0  0  0  0
  145.3230  136.1659  161.7814 C   0  0  0  0  0  0  0  0  0  0  0  0
  144.9018  135.0390  162.7419 C   0  0  0  0  0  0  0  0  0  0  0  0
  146.8690  136.3333  161.7152 C   0  0  1  0  0  0  0  0  0  0  0  0
  147.5547  136.4758  163.0911 C   0  0  0  0  0  0  0  0  0  0  0  0
  147.5174  135.2587  160.9188 N   0  0  0  0  0  0  0  0  0  0  0  0
  147.3487  133.8935  161.4348 C   0  0  0  0  0  0  0  0  0  0  0  0
  148.3219  135.4455  159.8380 C   0  0  0  0  0  0  0  0  0  0  0  0
  148.8071  134.5063  159.2047 O   0  0  0  0  0  0  0  0  0  0  0  0
  148.4791  136.7324  159.4718 N   0  0  0  0  0  0  0  0  0  0  0  0
  149.2397  137.2459  158.3913 C   0  0  0  0  0  0  0  0  0  0  0  0
  149.7770  138.5580  158.3359 C   0  0  0  0  0  0  0  0  0  0  0  0
  150.4379  138.7581  157.2060 N   0  0  0  0  0  0  0  0  0  0  0  0
  150.3339  137.5886  156.5254 N   0  0  0  0  0  0  0  0  0  0  0  0
  150.9508  137.4604  155.2168 C   0  0  0  0  0  0  0  0  0  0  0  0
  150.5727  138.6309  154.3069 C   0  0  0  0  0  0  0  0  0  0  0  0
  149.8384  138.3517  153.2265 N   0  0  0  0  0  0  0  0  0  0  0  0
  150.9351  139.7735  154.5783 O   0  0  0  0  0  0  0  0  0  0  0  0
  149.6087  136.6419  157.2226 C   0  0  0  0  0  0  0  0  0  0  0  0
  144.9313  137.8330  163.1421 H   0  0  0  0  0  0  0  0  0  0  0  0
  143.5196  137.3158  162.2267 H   0  0  0  0  0  0  0  0  0  0  0  0
  144.7660  138.2603  161.4400 H   0  0  0  0  0  0  0  0  0  0  0  0
  144.9640  135.8857  160.7908 H   0  0  0  0  0  0  0  0  0  0  0  0
  145.2707  135.2194  163.7521 H   0  0  0  0  0  0  0  0  0  0  0  0
  145.2750  134.0686  162.4160 H   0  0  0  0  0  0  0  0  0  0  0  0
  143.8161  134.9561  162.7974 H   0  0  0  0  0  0  0  0  0  0  0  0
  147.0421  137.3019  161.2467 H   0  0  0  0  0  0  0  0  0  0  0  0
  147.2609  137.3995  163.5889 H   0  0  0  0  0  0  0  0  0  0  0  0
  148.6396  136.5076  162.9844 H   0  0  0  0  0  0  0  0  0  0  0  0
  147.3093  135.6528  163.7622 H   0  0  0  0  0  0  0  0  0  0  0  0
  147.1461  133.1879  160.6273 H   0  0  0  0  0  0  0  0  0  0  0  0
  146.5182  133.8078  162.1344 H   0  0  0  0  0  0  0  0  0  0  0  0
  148.2532  133.5693  161.9510 H   0  0  0  0  0  0  0  0  0  0  0  0
  148.0078  137.4195  160.0420 H   0  0  0  0  0  0  0  0  0  0  0  0
  149.7113  139.3551  159.0617 H   0  0  0  0  0  0  0  0  0  0  0  0
  152.0353  137.4056  155.3247 H   0  0  0  0  0  0  0  0  0  0  0  0
  150.6255  136.5205  154.7690 H   0  0  0  0  0  0  0  0  0  0  0  0
  149.5571  139.0955  152.6038 H   0  0  0  0  0  0  0  0  0  0  0  0
  149.5585  137.3992  153.0423 H   0  0  0  0  0  0  0  0  0  0  0  0
  149.4274  135.6539  156.8258 H   0  0  0  0  0  0  0  0  0  0  0  0
  1  2  1  0  0  0  0
  1 20  1  0  0  0  0
  1 21  1  0  0  0  0
  1 22  1  0  0  0  0
  2  3  1  0  0  0  0
  2  4  1  0  0  0  0
  2 23  1  0  0  0  0
  3 24  1  0  0  0  0
  3 25  1  0  0  0  0
  3 26  1  0  0  0  0
  4  5  1  0  0  0  0
  4  6  1  0  0  0  0
  4 27  1  0  0  0  0
  5 28  1  0  0  0  0
  5 29  1  0  0  0  0
  5 30  1  0  0  0  0
  6  7  1  0  0  0  0
  6  8  1  0  0  0  0
  7 31  1  0  0  0  0
  7 32  1  0  0  0  0
  7 33  1  0  0  0  0
  8  9  2  0  0  0  0
  8 10  1  0  0  0  0
 10 11  1  0  0  0  0
 10 34  1  0  0  0  0
 11 19  2  0  0  0  0
 11 12  1  0  0  0  0
 12 13  2  0  0  0  0
 12 35  1  0  0  0  0
 13 14  1  0  0  0  0
 14 15  1  0  0  0  0
 14 19  1  0  0  0  0
 15 16  1  0  0  0  0
 15 36  1  0  0  0  0
 15 37  1  0  0  0  0
 16 17  1  0  0  0  0
 16 18  2  0  0  0  0
 17 38  1  0  0  0  0
 17 39  1  0  0  0  0
 19 40  1  0  0  0  0
M  END
> <s_m_source_file>
AV-unprocessed.smi

> <i_m_source_file_index>
1620

> <i_lp_mmshare_version>
43012

> <i_f3d_flags>
0

> <s_epik_input>
W0NIM11bQ0hdKFtDSDNdKVtDQEhdKFtDSDNdKU4oW0NIM10pQyg9TylbTkhdYzFbY0hdbm4oW2NIXTEpW0NIMl1DKD1PKVtOSDJd

> <s_epik_cmdline>
J2VwaWtfcHl0aG9uJywgJy1waCcsICc3LjAnLCAnLXRuJywgJzgnLCAnLW1hJywgJzIwMCcsICctbWV0YWxfYmluZGluZycsICctaW1hZScsICc8aW5maWxlLm1hZT4nLCAnLW9tYWUnLCAnPG91dGZpbGUubWFlPic=

> <r_lp_tautomer_probability>
1

> <r_epik_Ionization_Penalty>
4.85642e-05

> <r_epik_Ionization_Penalty_Charging>
0

> <r_epik_Ionization_Penalty_Neutral>
4.85642e-05

> <r_epik_State_Penalty>
-0

> <r_epik_Charging_Adjusted_Penalty>
0

> <i_epik_Tot_Q>
0

> <i_epik_Tot_abs_Q>
0

> <r_epik_Metal_State_Penalty>
-0

> <b_epik_Metal_Only>
0

> <s_lp_Force_Field>
OPLS_2005

> <r_lp_Energy>
32.9866

> <b_lp_Chiralities_Consistent>
1

> <s_lp_Variant>
AV-unprocessed.smi:1620-2

> <Gold.Version>
5.8.1

> <Gold.Id.Protein>
6NUR|6NUR_protein|mol2

> <Gold.PLP.Fitness>
42.8165

> <Gold.PLP.PLP>
-31.7762

> <Gold.PLP.part.hbond>
-4.0986

> <Gold.PLP.part.metal>
0.0000

> <Gold.PLP.part.buried>
-6.0447

> <Gold.PLP.part.nonpolar>
-22.3855

> <Gold.PLP.part.repulsive>
0.3678

> <Gold.PLP.ligand.clash>
0.0000

> <Gold.PLP.ligand.torsion>
0.5659

> <Gold.PLP.Chemscore.Hbond>
3.9920

> <Gold.PLP.Chemscore.CHOScore>
0.0000

> <Gold.PLP.Chemscore.Metal>
0.0000

> <Gold.Chemscore.Hbonds>
donor molecule, donor type, donor heavy atom, donor atom, acceptor molecule, acceptor atom, score
      L1  H    17    38       P1  7957  1.00
      L1  H    17    39       P1  7948  0.93
      P1  H  6896  6908       L1     9  0.98
      P1  H  7989  7998       L1    18  1.00

> <Gold.PLP.Chemscore.Internal.Correction>
0.1961

> <Gold.Rescore>
     Score         DG    S(hbond)    S(metal)    S(lipo)     H(rot)  DE(clash)    DE(int)     intcor
     15.43     -18.47       3.54        0.00      55.96       2.10       0.00       3.04       ----

> <Gold.Chemscore.Fitness>
15.4261

> <Gold.Chemscore.DG>
-18.4696

> <Gold.Chemscore.ZeroCoef>
-5.4800

> <Gold.Chemscore.Hbond>
3.5412

> <Gold.Chemscore.Metal>
0.0000

> <Gold.Chemscore.Lipo>
55.9643

> <Gold.Chemscore.Internal_Hbond>
0.0000

> <Gold.Chemscore.DEClash>
0.0009

> <Gold.Chemscore.DEInternal>
3.0426

> <Gold.Chemscore.Rot>
2.1039

> <Gold.Chemscore.Internal.Correction>
   9.000000E+99

> <Gold.Chemscore.Hbonds>
donor molecule, donor type, donor heavy atom, donor atom, acceptor molecule, acceptor atom, score
      L1  H    17    38       P1  7957  0.93
      L1  H    17    39       P1  7948  0.70
      P1  H  6896  6908       L1     9  0.91
      P1  H  7989  7998       L1    18  1.00

> <Gold.Chemscore.Hbond.Weighted>
-11.8278

> <Gold.Chemscore.Metal.Weighted>
-0.0000

> <Gold.Chemscore.Lipo.Weighted>
-6.5478

> <Gold.Chemscore.Internal_Hbond.Weighted>
0.0000

> <Gold.Chemscore.DEClash.Weighted>
0.0009

> <Gold.Chemscore.DEInternal.Weighted>
3.0426

> <Gold.Chemscore.Rot.Weighted>
5.3860

> <Gold.Chemscore.Internal.Correction.Weighted>
   9.000000E+99

> <Gold.Protein.RotatedTorsions>
[ 6907 6896 6895 6894 ] final  139.35 input  -60.11 | X-H torsion
[ 7974 7965 7964 7962 ] final    7.25 input  175.53 | X-H torsion
[ 8008 7997 7996 7995 ] final   67.71 input   59.86 | X-H torsion
[ 10167 10162 10161 10158 ] final   58.94 input  -65.29 | X-H torsion
[ 10718 10713 10712 10709 ] final   19.44 input   66.30 | X-H torsion
[ 10763 10752 10751 10750 ] final  164.90 input  -60.55 | X-H torsion
[ 11005 11000 10999 10996 ] final  -76.75 input  -57.11 | X-H torsion

> <Gold.Protein.ActiveResidues>
 VAL166  LYS551  ARG553  GLY616  TRP617  ASP618  TYR619  PRO620  LYS621  CYS622 
 ASP623  PHE694  ASN695  SER759  ASP760  ASP761  ALA762  ILE779  LEU786  VAL792 
 PHE793  MET794  SER795  GLU796  ALA797  LYS798  CYS799  TRP800  GLU811  SER814 

> <Gold.Protein.RotatedAtoms>
  152.2560  133.5256  159.5353 H   0  0  0  0  0  0  0  0  0  0  0  0  # atno 6907 bound_to 6896
  150.7109  134.0895  159.3935 H   0  0  0  0  0  0  0  0  0  0  0  0  # atno 6908 bound_to 6896
  151.8814  135.0452  160.0540 H   0  0  0  0  0  0  0  0  0  0  0  0  # atno 6909 bound_to 6896
  146.2428  140.0112  142.8406 H   0  0  0  0  0  0  0  0  0  0  0  0  # atno 7974 bound_to 7965
  155.6971  140.3495  155.4917 H   0  0  0  0  0  0  0  0  0  0  0  0  # atno 8008 bound_to 7997
  155.9473  140.1112  157.1028 H   0  0  0  0  0  0  0  0  0  0  0  0  # atno 8009 bound_to 7997
  154.4114  140.1201  156.4992 H   0  0  0  0  0  0  0  0  0  0  0  0  # atno 8010 bound_to 7997
  140.1818  144.4174  150.6612 H   0  0  0  0  0  0  0  0  0  0  0  0  # atno 10167 bound_to 10162
  157.1105  130.6506  149.5896 H   0  0  0  0  0  0  0  0  0  0  0  0  # atno 10718 bound_to 10713
  154.3160  135.2756  155.2543 H   0  0  0  0  0  0  0  0  0  0  0  0  # atno 10763 bound_to 10752
  154.4917  135.5831  153.6468 H   0  0  0  0  0  0  0  0  0  0  0  0  # atno 10764 bound_to 10752
  152.9882  135.6136  154.3340 H   0  0  0  0  0  0  0  0  0  0  0  0  # atno 10765 bound_to 10752
  141.1656  133.6996  156.7717 H   0  0  0  0  0  0  0  0  0  0  0  0  # atno 11005 bound_to 11000
  145.1326  140.9526  143.4535 LP  0  0  0  0  0  0  0  0  0  0  0  0  # atno 17320 bound_to 7965
  145.0372  139.3290  143.5994 LP  0  0  0  0  0  0  0  0  0  0  0  0  # atno 17321 bound_to 7965
  140.6515  143.2226  151.6067 LP  0  0  0  0  0  0  0  0  0  0  0  0  # atno 17342 bound_to 10162
  139.5293  144.2964  152.1110 LP  0  0  0  0  0  0  0  0  0  0  0  0  # atno 17343 bound_to 10162
  155.9852  130.4880  150.7018 LP  0  0  0  0  0  0  0  0  0  0  0  0  # atno 17370 bound_to 10713
  157.4563  131.0878  151.0793 LP  0  0  0  0  0  0  0  0  0  0  0  0  # atno 17371 bound_to 10713
  140.2459  134.8578  157.3620 LP  0  0  0  0  0  0  0  0  0  0  0  0  # atno 17394 bound_to 11000
  140.1750  134.4561  155.7807 LP  0  0  0  0  0  0  0  0  0  0  0  0  # atno 17395 bound_to 11000

$$$$
