AV-unprocessed.smi:2781|AV-procd|sdf|10718|dock5
  -GOLD-   2272015153D 1   1.00000     0.00000
 Structure written by MMmdl.
 35 38  0  0  0  0  0  0  0  0  1 V2000
  147.3353  143.7207  161.0759 O   0  0  0  0  0  0  0  0  0  0  0  0
  147.3712  144.3500  160.0180 C   0  0  0  0  0  0  0  0  0  0  0  0
  146.3163  144.9417  159.4299 N   0  0  0  0  0  0  0  0  0  0  0  0
  144.9680  144.9790  159.8752 C   0  0  0  0  0  0  0  0  0  0  0  0
  144.1620  145.9641  159.2600 C   0  0  0  0  0  0  0  0  0  0  0  0
  142.8084  146.0834  159.6312 C   0  0  0  0  0  0  0  0  0  0  0  0
  142.2971  145.2133  160.6102 C   0  0  0  0  0  0  0  0  0  0  0  0
  141.0026  145.2907  161.0000 F   0  0  0  0  0  0  0  0  0  0  0  0
  143.1656  144.2609  161.1744 C   0  0  0  0  0  0  0  0  0  0  0  0
  144.4629  144.1451  160.8188 N   0  0  0  0  0  0  0  0  0  0  0  0
  148.4883  144.5308  159.2997 N   0  0  0  0  0  0  0  0  0  0  0  0
  149.7824  144.0327  159.6379 C   0  0  2  0  0  0  0  0  0  0  0  0
  150.9671  144.9191  159.3128 C   0  0  1  0  0  0  0  0  0  0  0  0
  152.4113  144.7286  159.7704 C   0  0  1  0  0  0  0  0  0  0  0  0
  152.5226  143.6057  160.8225 C   0  0  0  0  0  0  0  0  0  0  0  0
  152.2516  142.3363  159.9847 C   0  0  0  0  0  0  0  0  0  0  0  0
  152.0232  142.9123  158.5720 C   0  0  2  0  0  0  0  0  0  0  0  0
  153.0405  144.0489  158.5583 C   0  0  0  0  0  0  0  0  0  0  0  0
  150.7006  143.6708  158.4886 C   0  0  1  0  0  0  0  0  0  0  0  0
  146.4992  145.4217  158.5613 H   0  0  0  0  0  0  0  0  0  0  0  0
  144.5725  146.6240  158.5096 H   0  0  0  0  0  0  0  0  0  0  0  0
  142.1755  146.8292  159.1731 H   0  0  0  0  0  0  0  0  0  0  0  0
  142.8119  143.5746  161.9295 H   0  0  0  0  0  0  0  0  0  0  0  0
  148.4198  145.0618  158.4438 H   0  0  0  0  0  0  0  0  0  0  0  0
  149.8401  143.4259  160.5381 H   0  0  0  0  0  0  0  0  0  0  0  0
  150.7690  145.8656  158.8122 H   0  0  0  0  0  0  0  0  0  0  0  0
  152.8787  145.6681  160.0661 H   0  0  0  0  0  0  0  0  0  0  0  0
  153.5269  143.5733  161.2472 H   0  0  0  0  0  0  0  0  0  0  0  0
  151.8218  143.7328  161.6480 H   0  0  0  0  0  0  0  0  0  0  0  0
  153.1228  141.6801  159.9967 H   0  0  0  0  0  0  0  0  0  0  0  0
  151.4005  141.7577  160.3448 H   0  0  0  0  0  0  0  0  0  0  0  0
  152.1339  142.1844  157.7678 H   0  0  0  0  0  0  0  0  0  0  0  0
  152.9967  144.6560  157.6522 H   0  0  0  0  0  0  0  0  0  0  0  0
  154.0690  143.7209  158.7215 H   0  0  0  0  0  0  0  0  0  0  0  0
  150.3383  143.8445  157.4767 H   0  0  0  0  0  0  0  0  0  0  0  0
  1  2  2  0  0  0  0
  2  3  1  0  0  0  0
  2 11  1  0  0  0  0
  3  4  1  0  0  0  0
  3 20  1  0  0  0  0
  4 10  1  0  0  0  0
  4  5  2  0  0  0  0
  5  6  1  0  0  0  0
  5 21  1  0  0  0  0
  6  7  2  0  0  0  0
  6 22  1  0  0  0  0
  7  8  1  0  0  0  0
  7  9  1  0  0  0  0
  9 10  2  0  0  0  0
  9 23  1  0  0  0  0
 11 12  1  0  0  0  0
 11 24  1  0  0  0  0
 12 19  1  0  0  0  0
 12 13  1  0  0  0  0
 12 25  1  0  0  0  0
 13 19  1  0  0  0  0
 13 14  1  0  0  0  0
 13 26  1  0  0  0  0
 14 18  1  0  0  0  0
 14 15  1  0  0  0  0
 14 27  1  0  0  0  0
 15 16  1  0  0  0  0
 15 28  1  0  0  0  0
 15 29  1  0  0  0  0
 16 17  1  0  0  0  0
 16 30  1  0  0  0  0
 16 31  1  0  0  0  0
 17 18  1  0  0  0  0
 17 19  1  0  0  0  0
 17 32  1  0  0  0  0
 18 33  1  0  0  0  0
 18 34  1  0  0  0  0
 19 35  1  0  0  0  0
M  END
> <s_m_source_file>
AV-unprocessed.smi

> <i_m_source_file_index>
2781

> <i_lp_mmshare_version>
43012

> <i_f3d_flags>
0

> <s_epik_input>
bjFbY0hdYyhGKVtjSF1bY0hdYzFbTkhdQyg9TylbTkhdW0NASF0yW0NAQEhdM1tDQEhdKFtDSDJdNClbQ0gyXVtDSDJdW0NASF00W0NASF0yMw==

> <s_epik_cmdline>
J2VwaWtfcHl0aG9uJywgJy1waCcsICc3LjAnLCAnLXRuJywgJzgnLCAnLW1hJywgJzIwMCcsICctbWV0YWxfYmluZGluZycsICctaW1hZScsICc8aW5maWxlLm1hZT4nLCAnLW9tYWUnLCAnPG91dGZpbGUubWFlPic=

> <r_lp_tautomer_probability>
1

> <r_epik_Ionization_Penalty>
4.05776e-05

> <r_epik_Ionization_Penalty_Charging>
0

> <r_epik_Ionization_Penalty_Neutral>
4.05776e-05

> <r_epik_State_Penalty>
-0

> <r_epik_Charging_Adjusted_Penalty>
0

> <i_epik_Tot_Q>
0

> <i_epik_Tot_abs_Q>
0

> <r_epik_Metal_State_Penalty>
-0

> <b_epik_Metal_Only>
0

> <s_lp_Force_Field>
OPLS_2005

> <r_lp_Energy>
79.6255

> <b_lp_Chiralities_Consistent>
1

> <s_lp_Variant>
AV-unprocessed.smi:2781-2

> <Gold.Version>
5.8.1

> <Gold.Id.Protein>
6NUR|6NUR_protein|mol2

> <Gold.PLP.Fitness>
44.4630

> <Gold.PLP.PLP>
-36.4682

> <Gold.PLP.part.hbond>
-3.0000

> <Gold.PLP.part.metal>
0.0000

> <Gold.PLP.part.buried>
-6.0575

> <Gold.PLP.part.nonpolar>
-28.0372

> <Gold.PLP.part.repulsive>
0.3305

> <Gold.PLP.ligand.clash>
0.0000

> <Gold.PLP.ligand.torsion>
0.4129

> <Gold.PLP.Chemscore.Hbond>
2.9280

> <Gold.PLP.Chemscore.CHOScore>
0.0000

> <Gold.PLP.Chemscore.Metal>
0.0000

> <Gold.Chemscore.Hbonds>
donor molecule, donor type, donor heavy atom, donor atom, acceptor molecule, acceptor atom, score
      L1  H     3    20       P1  8029  0.93
      L1  H    11    24       P1  8029  1.00
      P1  H  6933  6944       L1     1  1.00

> <Gold.PLP.Chemscore.Internal.Correction>
0.0365

> <Gold.Rescore>
     Score         DG    S(hbond)    S(metal)    S(lipo)     H(rot)  DE(clash)    DE(int)     intcor
     23.45     -25.25       2.88        0.00     108.55       1.00       0.15       1.65       ----

> <Gold.Chemscore.Fitness>
23.4456

> <Gold.Chemscore.DG>
-25.2509

> <Gold.Chemscore.ZeroCoef>
-5.4800

> <Gold.Chemscore.Hbond>
2.8834

> <Gold.Chemscore.Metal>
0.0000

> <Gold.Chemscore.Lipo>
108.5513

> <Gold.Chemscore.Internal_Hbond>
0.0000

> <Gold.Chemscore.DEClash>
0.1544

> <Gold.Chemscore.DEInternal>
1.6509

> <Gold.Chemscore.Rot>
1.0000

> <Gold.Chemscore.Internal.Correction>
   9.000000E+99

> <Gold.Chemscore.Hbonds>
donor molecule, donor type, donor heavy atom, donor atom, acceptor molecule, acceptor atom, score
      L1  H     3    20       P1  8029  0.90
      L1  H    11    24       P1  8029  0.94
      P1  H  6933  6944       L1     1  0.99

> <Gold.Chemscore.Hbond.Weighted>
-9.6304

> <Gold.Chemscore.Metal.Weighted>
-0.0000

> <Gold.Chemscore.Lipo.Weighted>
-12.7005

> <Gold.Chemscore.Internal_Hbond.Weighted>
0.0000

> <Gold.Chemscore.DEClash.Weighted>
0.1544

> <Gold.Chemscore.DEInternal.Weighted>
1.6509

> <Gold.Chemscore.Rot.Weighted>
2.5600

> <Gold.Chemscore.Internal.Correction.Weighted>
   9.000000E+99

> <Gold.Protein.RotatedTorsions>
[ 6907 6896 6895 6894 ] final  120.74 input  -60.11 | X-H torsion
[ 7974 7965 7964 7962 ] final  132.75 input  175.53 | X-H torsion
[ 8008 7997 7996 7995 ] final  140.07 input   59.86 | X-H torsion
[ 10167 10162 10161 10158 ] final   14.79 input  -65.29 | X-H torsion
[ 10718 10713 10712 10709 ] final  -68.95 input   66.30 | X-H torsion
[ 10763 10752 10751 10750 ] final  -54.67 input  -60.55 | X-H torsion
[ 11005 11000 10999 10996 ] final  -16.36 input  -57.11 | X-H torsion

> <Gold.Protein.ActiveResidues>
 VAL166  LYS551  ARG553  GLY616  TRP617  ASP618  TYR619  PRO620  LYS621  CYS622 
 ASP623  PHE694  ASN695  SER759  ASP760  ASP761  ALA762  ILE779  LEU786  VAL792 
 PHE793  MET794  SER795  GLU796  ALA797  LYS798  CYS799  TRP800  GLU811  SER814 

> <Gold.Protein.RotatedAtoms>
  152.4375  133.7388  159.6628 H   0  0  0  0  0  0  0  0  0  0  0  0  # atno 6907 bound_to 6896
  150.8261  133.8159  159.3124 H   0  0  0  0  0  0  0  0  0  0  0  0  # atno 6908 bound_to 6896
  151.5826  135.1060  160.0072 H   0  0  0  0  0  0  0  0  0  0  0  0  # atno 6909 bound_to 6896
  144.9936  139.4382  143.5327 H   0  0  0  0  0  0  0  0  0  0  0  0  # atno 7974 bound_to 7965
  156.2983  140.2351  156.4340 H   0  0  0  0  0  0  0  0  0  0  0  0  # atno 8008 bound_to 7997
  154.8245  140.0436  157.1454 H   0  0  0  0  0  0  0  0  0  0  0  0  # atno 8009 bound_to 7997
  154.9278  140.3012  155.5187 H   0  0  0  0  0  0  0  0  0  0  0  0  # atno 8010 bound_to 7997
  140.5911  143.8793  150.6875 H   0  0  0  0  0  0  0  0  0  0  0  0  # atno 10167 bound_to 10162
  156.0479  130.4304  150.2076 H   0  0  0  0  0  0  0  0  0  0  0  0  # atno 10718 bound_to 10713
  154.1785  135.6447  153.5028 H   0  0  0  0  0  0  0  0  0  0  0  0  # atno 10763 bound_to 10752
  153.0065  135.5400  154.6539 H   0  0  0  0  0  0  0  0  0  0  0  0  # atno 10764 bound_to 10752
  154.5897  135.2933  155.0621 H   0  0  0  0  0  0  0  0  0  0  0  0  # atno 10765 bound_to 10752
  140.8060  133.8177  155.9516 H   0  0  0  0  0  0  0  0  0  0  0  0  # atno 11005 bound_to 11000
  146.3437  139.9282  142.8757 LP  0  0  0  0  0  0  0  0  0  0  0  0  # atno 17320 bound_to 7965
  145.2251  140.9951  143.4023 LP  0  0  0  0  0  0  0  0  0  0  0  0  # atno 17321 bound_to 7965
  140.2316  143.3731  152.1561 LP  0  0  0  0  0  0  0  0  0  0  0  0  # atno 17342 bound_to 10162
  139.5228  144.7064  151.5342 LP  0  0  0  0  0  0  0  0  0  0  0  0  # atno 17343 bound_to 10162
  157.0163  130.9966  151.3352 LP  0  0  0  0  0  0  0  0  0  0  0  0  # atno 17370 bound_to 10713
  157.5375  130.8098  149.7989 LP  0  0  0  0  0  0  0  0  0  0  0  0  # atno 17371 bound_to 10713
  140.9247  134.2098  157.4904 LP  0  0  0  0  0  0  0  0  0  0  0  0  # atno 17394 bound_to 11000
  139.8718  134.9807  156.5087 LP  0  0  0  0  0  0  0  0  0  0  0  0  # atno 17395 bound_to 11000

$$$$
