AV-unprocessed.smi:942|AV-procd|sdf|4226|dock7
  -GOLD-   22720 2133D 1   1.00000     0.00000
 Structure written by MMmdl.
 42 44  0  0  0  0  0  0  0  0  1 V2000
  153.0458  139.6803  156.7755 O   0  0  0  0  0  0  0  0  0  0  0  0
  151.9540  140.2449  156.8499 C   0  0  0  0  0  0  0  0  0  0  0  0
  150.9651  140.0626  155.9622 N   0  0  0  0  0  0  0  0  0  0  0  0
  151.0363  139.2359  154.7555 C   0  0  1  0  0  0  0  0  0  0  0  0
  151.6316  137.8534  155.0934 C   0  0  0  0  0  0  0  0  0  0  0  0
  150.5064  136.8261  154.8998 C   0  0  0  0  0  0  0  0  0  0  0  0
  149.2129  137.6383  154.8611 C   0  0  0  0  0  0  0  0  0  0  0  0
  149.6334  138.9450  154.1804 C   0  0  1  0  0  0  0  0  0  0  0  0
  148.6845  140.0491  154.2976 N   0  0  0  0  0  0  0  0  0  0  0  0
  148.9055  141.4097  154.1031 C   0  0  0  0  0  0  0  0  0  0  0  0
  147.7054  142.0427  154.3335 C   0  0  0  0  0  0  0  0  0  0  0  0
  146.7395  141.1040  154.6843 N   0  0  0  0  0  0  0  0  0  0  0  0
  147.3940  139.9511  154.6501 C   0  0  0  0  0  0  0  0  0  0  0  0
  151.6678  141.2299  157.9907 C   0  0  0  0  0  0  0  0  0  0  0  0
  151.2915  142.6196  157.4338 C   0  0  0  0  0  0  0  0  0  0  0  0
  151.0138  143.6202  158.5678 C   0  0  0  0  0  0  0  0  0  0  0  0
  152.2098  143.7205  159.5281 C   0  0  0  0  0  0  0  0  0  0  0  0
  152.5961  142.3399  160.0821 C   0  0  0  0  0  0  0  0  0  0  0  0
  152.8752  141.3426  158.9459 C   0  0  0  0  0  0  0  0  0  0  0  0
  150.1044  140.5697  156.1096 H   0  0  0  0  0  0  0  0  0  0  0  0
  151.6400  139.7285  153.9912 H   0  0  0  0  0  0  0  0  0  0  0  0
  152.4756  137.6200  154.4433 H   0  0  0  0  0  0  0  0  0  0  0  0
  152.0049  137.8197  156.1180 H   0  0  0  0  0  0  0  0  0  0  0  0
  150.6415  136.3128  153.9469 H   0  0  0  0  0  0  0  0  0  0  0  0
  150.4957  136.0673  155.6826 H   0  0  0  0  0  0  0  0  0  0  0  0
  148.4118  137.1235  154.3299 H   0  0  0  0  0  0  0  0  0  0  0  0
  148.8789  137.8245  155.8829 H   0  0  0  0  0  0  0  0  0  0  0  0
  149.7442  138.7369  153.1148 H   0  0  0  0  0  0  0  0  0  0  0  0
  149.8661  141.8135  153.8207 H   0  0  0  0  0  0  0  0  0  0  0  0
  147.4669  143.0948  154.2796 H   0  0  0  0  0  0  0  0  0  0  0  0
  146.9201  139.0073  154.8773 H   0  0  0  0  0  0  0  0  0  0  0  0
  150.8178  140.8539  158.5634 H   0  0  0  0  0  0  0  0  0  0  0  0
  152.0963  143.0050  156.8057 H   0  0  0  0  0  0  0  0  0  0  0  0
  150.4116  142.5419  156.7933 H   0  0  0  0  0  0  0  0  0  0  0  0
  150.7895  144.6021  158.1500 H   0  0  0  0  0  0  0  0  0  0  0  0
  150.1260  143.3095  159.1200 H   0  0  0  0  0  0  0  0  0  0  0  0
  153.0626  144.1554  159.0050 H   0  0  0  0  0  0  0  0  0  0  0  0
  151.9722  144.3977  160.3488 H   0  0  0  0  0  0  0  0  0  0  0  0
  153.4741  142.4284  160.7225 H   0  0  0  0  0  0  0  0  0  0  0  0
  151.7910  141.9602  160.7123 H   0  0  0  0  0  0  0  0  0  0  0  0
  153.1122  140.3656  159.3690 H   0  0  0  0  0  0  0  0  0  0  0  0
  153.7620  141.6649  158.3975 H   0  0  0  0  0  0  0  0  0  0  0  0
  1  2  2  0  0  0  0
  2  3  1  0  0  0  0
  2 14  1  0  0  0  0
  3  4  1  0  0  0  0
  3 20  1  0  0  0  0
  4  8  1  0  0  0  0
  4  5  1  0  0  0  0
  4 21  1  0  0  0  0
  5  6  1  0  0  0  0
  5 22  1  0  0  0  0
  5 23  1  0  0  0  0
  6  7  1  0  0  0  0
  6 24  1  0  0  0  0
  6 25  1  0  0  0  0
  7  8  1  0  0  0  0
  7 26  1  0  0  0  0
  7 27  1  0  0  0  0
  8  9  1  0  0  0  0
  8 28  1  0  0  0  0
  9 13  1  0  0  0  0
  9 10  1  0  0  0  0
 10 11  2  0  0  0  0
 10 29  1  0  0  0  0
 11 12  1  0  0  0  0
 11 30  1  0  0  0  0
 12 13  2  0  0  0  0
 13 31  1  0  0  0  0
 14 19  1  0  0  0  0
 14 15  1  0  0  0  0
 14 32  1  0  0  0  0
 15 16  1  0  0  0  0
 15 33  1  0  0  0  0
 15 34  1  0  0  0  0
 16 17  1  0  0  0  0
 16 35  1  0  0  0  0
 16 36  1  0  0  0  0
 17 18  1  0  0  0  0
 17 37  1  0  0  0  0
 17 38  1  0  0  0  0
 18 19  1  0  0  0  0
 18 39  1  0  0  0  0
 18 40  1  0  0  0  0
 19 41  1  0  0  0  0
 19 42  1  0  0  0  0
M  END
> <s_m_source_file>
AV-unprocessed.smi

> <i_m_source_file_index>
942

> <i_lp_mmshare_version>
43012

> <i_f3d_flags>
0

> <s_epik_input>
W0NIMl0xW0NIMl1bQ0gyXVtDSDJdW0NIMl1bQ0hdMUMoPU8pW05IXVtDQEBIXTJbQ0gyXVtDSDJdW0NIMl1bQ0BIXTJuM1tjSF1bY0hdbltjSF0z

> <s_epik_cmdline>
J2VwaWtfcHl0aG9uJywgJy1waCcsICc3LjAnLCAnLXRuJywgJzgnLCAnLW1hJywgJzIwMCcsICctbWV0YWxfYmluZGluZycsICctaW1hZScsICc8aW5maWxlLm1hZT4nLCAnLW9tYWUnLCAnPG91dGZpbGUubWFlPic=

> <r_lp_tautomer_probability>
1

> <r_epik_Ionization_Penalty>
0.778458

> <r_epik_Ionization_Penalty_Charging>
0.778458

> <r_epik_Ionization_Penalty_Neutral>
2.79355e-08

> <r_epik_State_Penalty>
0.807804

> <r_epik_Charging_Adjusted_Penalty>
1.58626

> <i_epik_Tot_Q>
0

> <i_epik_Tot_abs_Q>
0

> <r_epik_Metal_State_Penalty>
0.343007

> <b_epik_Metal_Only>
0

> <s_lp_Force_Field>
OPLS_2005

> <r_lp_Energy>
33.2342

> <b_lp_Chiralities_Consistent>
1

> <s_lp_Variant>
AV-unprocessed.smi:942-6

> <Gold.Version>
5.8.1

> <Gold.Id.Protein>
6NUR|6NUR_protein|mol2

> <Gold.PLP.Fitness>
42.2424

> <Gold.PLP.PLP>
-38.1171

> <Gold.PLP.part.hbond>
-0.8289

> <Gold.PLP.part.metal>
0.0000

> <Gold.PLP.part.buried>
-3.4502

> <Gold.PLP.part.nonpolar>
-34.4800

> <Gold.PLP.part.repulsive>
0.2075

> <Gold.PLP.ligand.clash>
0.0000

> <Gold.PLP.ligand.torsion>
0.6593

> <Gold.PLP.Chemscore.Hbond>
1.0000

> <Gold.PLP.Chemscore.CHOScore>
0.8061

> <Gold.PLP.Chemscore.Metal>
0.0000

> <Gold.Chemscore.Hbonds>
donor molecule, donor type, donor heavy atom, donor atom, acceptor molecule, acceptor atom, score
      P1  H  7997  8010       L1     1  0.84
      L1  C    11    30       P1  8028  0.79

> <Gold.PLP.Chemscore.Internal.Correction>
0.0256

> <Gold.Rescore>
     Score         DG    S(hbond)    S(metal)    S(lipo)     H(rot)  DE(clash)    DE(int)     intcor
     15.43     -17.01       0.92        0.00     103.64       1.44       0.12       1.46       ----

> <Gold.Chemscore.Fitness>
15.4327

> <Gold.Chemscore.DG>
-17.0063

> <Gold.Chemscore.ZeroCoef>
-5.4800

> <Gold.Chemscore.Hbond>
0.9238

> <Gold.Chemscore.Metal>
0.0000

> <Gold.Chemscore.Lipo>
103.6427

> <Gold.Chemscore.Internal_Hbond>
0.0000

> <Gold.Chemscore.DEClash>
0.1161

> <Gold.Chemscore.DEInternal>
1.4575

> <Gold.Chemscore.Rot>
1.4395

> <Gold.Chemscore.Internal.Correction>
   9.000000E+99

> <Gold.Chemscore.Hbonds>
donor molecule, donor type, donor heavy atom, donor atom, acceptor molecule, acceptor atom, score
      P1  H  7997  8010       L1     1  0.78

> <Gold.Chemscore.Hbond.Weighted>
-3.0853

> <Gold.Chemscore.Metal.Weighted>
-0.0000

> <Gold.Chemscore.Lipo.Weighted>
-12.1262

> <Gold.Chemscore.Internal_Hbond.Weighted>
0.0000

> <Gold.Chemscore.DEClash.Weighted>
0.1161

> <Gold.Chemscore.DEInternal.Weighted>
1.4575

> <Gold.Chemscore.Rot.Weighted>
3.6852

> <Gold.Chemscore.Internal.Correction.Weighted>
   9.000000E+99

> <Gold.Protein.RotatedTorsions>
[ 6907 6896 6895 6894 ] final  -54.47 input  -60.11 | X-H torsion
[ 7974 7965 7964 7962 ] final  156.64 input  175.53 | X-H torsion
[ 8008 7997 7996 7995 ] final   45.20 input   59.86 | X-H torsion
[ 10167 10162 10161 10158 ] final -107.65 input  -65.29 | X-H torsion
[ 10718 10713 10712 10709 ] final  -92.31 input   66.30 | X-H torsion
[ 10763 10752 10751 10750 ] final    9.12 input  -60.55 | X-H torsion
[ 11005 11000 10999 10996 ] final -172.70 input  -57.11 | X-H torsion

> <Gold.Protein.ActiveResidues>
 VAL166  LYS551  ARG553  GLY616  TRP617  ASP618  TYR619  PRO620  LYS621  CYS622 
 ASP623  PHE694  ASN695  SER759  ASP760  ASP761  ALA762  ILE779  LEU786  VAL792 
 PHE793  MET794  SER795  GLU796  ALA797  LYS798  CYS799  TRP800  GLU811  SER814 

> <Gold.Protein.RotatedAtoms>
  150.8335  134.7599  159.6873 H   0  0  0  0  0  0  0  0  0  0  0  0  # atno 6907 bound_to 6896
  152.4436  134.5537  159.9884 H   0  0  0  0  0  0  0  0  0  0  0  0  # atno 6908 bound_to 6896
  151.5693  133.3354  159.3022 H   0  0  0  0  0  0  0  0  0  0  0  0  # atno 6909 bound_to 6896
  144.7951  139.7231  143.6205 H   0  0  0  0  0  0  0  0  0  0  0  0  # atno 7974 bound_to 7965
  155.3320  140.3403  155.4239 H   0  0  0  0  0  0  0  0  0  0  0  0  # atno 8008 bound_to 7997
  156.1857  140.1679  156.8227 H   0  0  0  0  0  0  0  0  0  0  0  0  # atno 8009 bound_to 7997
  154.5383  140.0730  156.8449 H   0  0  0  0  0  0  0  0  0  0  0  0  # atno 8010 bound_to 7997
  140.1747  143.4014  152.1327 H   0  0  0  0  0  0  0  0  0  0  0  0  # atno 10167 bound_to 10162
  156.0001  130.4982  150.5606 H   0  0  0  0  0  0  0  0  0  0  0  0  # atno 10718 bound_to 10713
  153.2175  135.6877  153.8039 H   0  0  0  0  0  0  0  0  0  0  0  0  # atno 10763 bound_to 10752
  153.7250  135.3261  155.3275 H   0  0  0  0  0  0  0  0  0  0  0  0  # atno 10764 bound_to 10752
  154.8253  135.4622  154.1009 H   0  0  0  0  0  0  0  0  0  0  0  0  # atno 10765 bound_to 10752
  140.4941  134.5957  157.4965 H   0  0  0  0  0  0  0  0  0  0  0  0  # atno 11005 bound_to 11000
  146.2216  139.5646  142.9614 LP  0  0  0  0  0  0  0  0  0  0  0  0  # atno 17320 bound_to 7965
  145.5695  141.0396  143.2182 LP  0  0  0  0  0  0  0  0  0  0  0  0  # atno 17321 bound_to 7965
  139.5322  144.7172  151.5015 LP  0  0  0  0  0  0  0  0  0  0  0  0  # atno 17342 bound_to 10162
  140.6559  143.8600  150.6835 LP  0  0  0  0  0  0  0  0  0  0  0  0  # atno 17343 bound_to 10162
  157.3516  131.0734  151.1709 LP  0  0  0  0  0  0  0  0  0  0  0  0  # atno 17370 bound_to 10713
  157.2524  130.6620  149.5937 LP  0  0  0  0  0  0  0  0  0  0  0  0  # atno 17371 bound_to 10713
  139.9752  134.7227  155.9964 LP  0  0  0  0  0  0  0  0  0  0  0  0  # atno 17394 bound_to 11000
  141.1469  133.6554  156.3895 LP  0  0  0  0  0  0  0  0  0  0  0  0  # atno 17395 bound_to 11000

$$$$
