#       Name:                AV-unprocessed.smi:1679
#       Creating user name   scv26
#       Creation time:       Fri Mar 27 07:47:53 2020


#       File generated by GOLD software.
#

@<TRIPOS>MOLECULE
AV-unprocessed.smi:1679
    53    54     1
SMALL
NO_CHARGES


@<TRIPOS>ATOM
      1 ****        -1.0020   0.2914  -3.5804 C.3            1 S1                 0.0000
      2 ****        -1.2611   0.4762  -2.0763 C.3            1 S1                 0.0000
      3 ****        -2.7066   0.9513  -1.8287 C.3            1 S1                 0.0000
      4 ****        -2.9913   1.1503  -0.3333 C.3            1 S1                 0.0000
      5 ****        -2.7129  -0.1373   0.4522 C.3            1 S1                 0.0000
      6 ****        -1.2759  -0.6239   0.2211 C.3            1 S1                 0.0000
      7 ****        -0.9584  -0.8140  -1.2796 C.3            1 S1                 0.0000
      8 ****         0.4276  -1.0898  -1.4364 O.3            1 S1                 0.0000
      9 ****         0.8098  -2.4336  -1.1739 C.3            1 S1                 0.0000
     10 ****         2.3389  -2.4871  -1.0171 C.3            1 S1                 0.0000
     11 ****         2.8148  -1.4989  -0.0542 N.am           1 S1                 0.0000
     12 ****         2.5585  -1.5044   1.2628 C.2            1 S1                 0.0000
     13 ****         1.9700  -2.4198   1.8375 O.2            1 S1                 0.0000
     14 ****         3.0238  -0.2744   2.0480 C.3            1 S1                 0.0000
     15 ****         1.9354   0.7051   2.1708 N.am           1 S1                 0.0000
     16 ****         1.7997   1.7101   1.2228 C.2            1 S1                 0.0000
     17 ****         0.8025   2.6259   1.2418 C.2            1 S1                 0.0000
     18 ****        -0.2073   2.5953   2.2939 C.2            1 S1                 0.0000
     19 ****        -1.1521   3.3748   2.3928 O.2            1 S1                 0.0000
     20 ****        -0.0368   1.5714   3.2294 N.am           1 S1                 0.0000
     21 ****         0.9883   0.6239   3.2154 C.2            1 S1                 0.0000
     22 ****         1.0384  -0.2429   4.0869 O.2            1 S1                 0.0000
     23 ****        -0.7140   1.5081   3.9756 H              1 S1                 0.0000
     24 ****        -1.6376  -0.4893  -3.9988 H              1 S1                 0.0000
     25 ****         0.0347   0.0158  -3.7751 H              1 S1                 0.0000
     26 ****        -1.2020   1.2122  -4.1287 H              1 S1                 0.0000
     27 ****        -0.5895   1.2584  -1.7185 H              1 S1                 0.0000
     28 ****        -2.8876   1.8869  -2.3590 H              1 S1                 0.0000
     29 ****        -3.4095   0.2245  -2.2379 H              1 S1                 0.0000
     30 ****        -2.3714   1.9595   0.0543 H              1 S1                 0.0000
     31 ****        -4.0274   1.4573  -0.1888 H              1 S1                 0.0000
     32 ****        -2.8787   0.0338   1.5163 H              1 S1                 0.0000
     33 ****        -3.4162  -0.9135   0.1481 H              1 S1                 0.0000
     34 ****        -0.5812   0.1002   0.6422 H              1 S1                 0.0000
     35 ****        -1.1229  -1.5482   0.7769 H              1 S1                 0.0000
     36 ****        -1.5543  -1.6327  -1.6877 H              1 S1                 0.0000
     37 ****         0.3375  -2.8185  -0.2712 H              1 S1                 0.0000
     38 ****         0.4863  -3.0739  -1.9953 H              1 S1                 0.0000
     39 ****         2.6595  -3.4863  -0.7193 H              1 S1                 0.0000
     40 ****         2.8136  -2.2757  -1.9754 H              1 S1                 0.0000
     41 ****         3.3124  -0.7057  -0.4320 H              1 S1                 0.0000
     42 ****         3.3856  -0.5880   3.0289 H              1 S1                 0.0000
     43 ****         3.8883   0.1774   1.5580 H              1 S1                 0.0000
     44 ****         2.5204   1.7651   0.4191 H              1 S1                 0.0000
     45 ****         0.7489   3.3815   0.4713 H              1 S1                 0.0000
     46 ****         0.9341  -0.4961  -0.8110 LP             1 S1                 0.0000
     47 ****         0.6814  -0.8743  -2.3793 LP             1 S1                 0.0000
     48 ****         1.6548  -3.2147   1.3192 LP             1 S1                 0.0000
     49 ****         1.8071  -2.3686   2.8228 LP             1 S1                 0.0000
     50 ****        -1.2728   4.1024   1.7175 LP             1 S1                 0.0000
     51 ****        -1.8002   3.2816   3.1487 LP             1 S1                 0.0000
     52 ****         1.7698  -0.9247   4.0725 LP             1 S1                 0.0000
     53 ****         0.3478  -0.2656   4.8098 LP             1 S1                 0.0000
@<TRIPOS>BOND
    1    1    2 1     
    2    1   24 1     
    3    1   25 1     
    4    1   26 1     
    5    2    7 1     
    6    2    3 1     
    7    2   27 1     
    8    3    4 1     
    9    3   28 1     
   10    3   29 1     
   11    4    5 1     
   12    4   30 1     
   13    4   31 1     
   14    5    6 1     
   15    5   32 1     
   16    5   33 1     
   17    6    7 1     
   18    6   34 1     
   19    6   35 1     
   20    7    8 1     
   21    7   36 1     
   22    8    9 1     
   23    9   10 1     
   24    9   37 1     
   25    9   38 1     
   26   10   11 1     
   27   10   39 1     
   28   10   40 1     
   29   11   12 am    
   30   11   41 1     
   31   12   13 2     
   32   12   14 1     
   33   14   15 1     
   34   14   42 1     
   35   14   43 1     
   36   15   21 1     
   37   15   16 1     
   38   16   17 2     
   39   16   44 1     
   40   17   18 1     
   41   17   45 1     
   42   18   19 2     
   43   18   20 1     
   44   20   23 1     
   45   20   21 1     
   46   21   22 2     
   47    8   46 1     
   48    8   47 1     
   49   13   48 1     
   50   13   49 1     
   51   19   50 1     
   52   19   51 1     
   53   22   52 1     
   54   22   53 1     
@<TRIPOS>SUBSTRUCTURE
      1 S1             1
@<TRIPOS>SET
LONE_PAIRS      STATIC     ATOMS    <user>   **** ""
8 46 47 48 49 50 51 52 53
DONOR_HYDROGENS      STATIC     ATOMS    <user>   **** ""
2 41 23
ATOM$BLUE        STATIC     ATOMS    COLORGROUP SYSTEM
8 46 47 48 49 50 51 52 53
ATOM$RED        STATIC     ATOMS    COLORGROUP SYSTEM
2 41 23
