#       Name:                AV-unprocessed.smi:1445
#       Creating user name   scv26
#       Creation time:       Fri Mar 27 05:56:51 2020


#       File generated by GOLD software.
#

@<TRIPOS>MOLECULE
AV-unprocessed.smi:1445
    51    52     1
SMALL
NO_CHARGES


@<TRIPOS>ATOM
      1 ****        -6.8434   0.9237  -0.1191 C.3            1 S1                 0.0000
      2 ****        -5.4557   0.9395   0.1990 O.3            1 S1                 0.0000
      3 ****        -4.8994   2.1152   0.6664 C.ar           1 S1                 0.0000
      4 ****        -5.7020   3.2018   0.7921 N.ar           1 S1                 0.0000
      5 ****        -5.1640   4.3486   1.2543 C.ar           1 S1                 0.0000
      6 ****        -3.8109   4.4720   1.6176 C.ar           1 S1                 0.0000
      7 ****        -2.9760   3.3469   1.4882 C.ar           1 S1                 0.0000
      8 ****        -3.5224   2.1373   0.9924 C.ar           1 S1                 0.0000
      9 ****        -2.7812   0.9323   0.8308 N.am           1 S1                 0.0000
     10 ****        -1.4500   0.7461   0.8186 C.2            1 S1                 0.0000
     11 ****        -0.6005   1.6291   0.9325 O.2            1 S1                 0.0000
     12 ****        -1.1438  -0.5481   0.6487 N.am           1 S1                 0.0000
     13 ****         0.2115  -1.0857   0.6138 C.3            1 S1                 0.0000
     14 ****         0.9060  -0.7970  -0.7318 C.3            1 S1                 0.0000
     15 ****         2.2736  -1.3707  -0.7957 N.4            1 S1                 1.0000
     16 ****         2.7267  -1.5915  -2.1932 C.3            1 S1                 0.0000
     17 ****         4.0715  -2.3347  -2.2275 C.3            1 S1                 0.0000
     18 ****         5.1376  -1.5859  -1.4149 C.3            1 S1                 0.0000
     19 ****         4.6477  -1.2929   0.0154 C.3            1 S1                 0.0000
     20 ****         4.6395  -2.5434   0.9124 C.3            1 S1                 0.0000
     21 ****         3.2742  -0.5908  -0.0165 C.3            1 S1                 0.0000
     22 ****        -7.1229  -0.0707  -0.4663 H              1 S1                 0.0000
     23 ****        -7.0777   1.6301  -0.9167 H              1 S1                 0.0000
     24 ****        -7.4564   1.1530   0.7538 H              1 S1                 0.0000
     25 ****        -5.8334   5.1914   1.3423 H              1 S1                 0.0000
     26 ****        -3.4227   5.4078   1.9915 H              1 S1                 0.0000
     27 ****        -1.9433   3.4377   1.7841 H              1 S1                 0.0000
     28 ****        -3.3423   0.1097   0.6638 H              1 S1                 0.0000
     29 ****        -1.9017  -1.2094   0.5583 H              1 S1                 0.0000
     30 ****         0.7741  -0.6766   1.4533 H              1 S1                 0.0000
     31 ****         0.1523  -2.1622   0.7769 H              1 S1                 0.0000
     32 ****         0.2944  -1.2321  -1.5236 H              1 S1                 0.0000
     33 ****         0.9522   0.2742  -0.9338 H              1 S1                 0.0000
     34 ****         1.9838  -2.1771  -2.7361 H              1 S1                 0.0000
     35 ****         2.8112  -0.6320  -2.7062 H              1 S1                 0.0000
     36 ****         3.9437  -3.3439  -1.8351 H              1 S1                 0.0000
     37 ****         4.4058  -2.4492  -3.2591 H              1 S1                 0.0000
     38 ****         6.0680  -2.1545  -1.3938 H              1 S1                 0.0000
     39 ****         5.3678  -0.6437  -1.9144 H              1 S1                 0.0000
     40 ****         5.3591  -0.5987   0.4649 H              1 S1                 0.0000
     41 ****         3.9377  -3.2973   0.5559 H              1 S1                 0.0000
     42 ****         4.3565  -2.2886   1.9342 H              1 S1                 0.0000
     43 ****         5.6276  -3.0027   0.9530 H              1 S1                 0.0000
     44 ****         3.3775   0.3992  -0.4636 H              1 S1                 0.0000
     45 ****         2.9309  -0.4311   1.0048 H              1 S1                 0.0000
     46 ****         2.2182  -2.2859  -0.3721 H              1 S1                 0.0000
     47 ****        -4.9595   0.6881  -0.6320 LP             1 S1                 0.0000
     48 ****        -5.3057   0.2427   0.9004 LP             1 S1                 0.0000
     49 ****        -6.6704   3.1534   0.5476 LP             1 S1                 0.0000
     50 ****        -0.8819   2.5820   1.0460 LP             1 S1                 0.0000
     51 ****         0.3712   1.3938   0.9115 LP             1 S1                 0.0000
@<TRIPOS>BOND
    1    1    2 1     
    2    1   22 1     
    3    1   23 1     
    4    1   24 1     
    5    2    3 1     
    6    3    8 ar    
    7    3    4 ar    
    8    4    5 ar    
    9    5    6 ar    
   10    5   25 1     
   11    6    7 ar    
   12    6   26 1     
   13    7    8 ar    
   14    7   27 1     
   15    8    9 1     
   16    9   10 am    
   17    9   28 1     
   18   10   11 2     
   19   10   12 am    
   20   12   13 1     
   21   12   29 1     
   22   13   14 1     
   23   13   30 1     
   24   13   31 1     
   25   14   15 1     
   26   14   32 1     
   27   14   33 1     
   28   15   21 1     
   29   15   16 1     
   30   15   46 1     
   31   16   17 1     
   32   16   34 1     
   33   16   35 1     
   34   17   18 1     
   35   17   36 1     
   36   17   37 1     
   37   18   19 1     
   38   18   38 1     
   39   18   39 1     
   40   19   20 1     
   41   19   21 1     
   42   19   40 1     
   43   20   41 1     
   44   20   42 1     
   45   20   43 1     
   46   21   44 1     
   47   21   45 1     
   48    2   47 1     
   49    2   48 1     
   50    4   49 1     
   51   11   50 1     
   52   11   51 1     
@<TRIPOS>SUBSTRUCTURE
      1 S1             1
@<TRIPOS>SET
LONE_PAIRS      STATIC     ATOMS    <user>   **** ""
5 47 48 49 50 51
DONOR_HYDROGENS      STATIC     ATOMS    <user>   **** ""
3 28 29 46
ATOM$BLUE        STATIC     ATOMS    COLORGROUP SYSTEM
5 47 48 49 50 51
ATOM$RED        STATIC     ATOMS    COLORGROUP SYSTEM
3 28 29 46
