AV-unprocessed.smi:2968|AV-procd|sdf|11328|dock6
  -GOLD-   2272016233D 1   1.00000     0.00000
 Structure written by MMmdl.
 45 46  0  0  0  0  0  0  0  0  1 V2000
  153.3333  139.7326  157.8948 O   0  0  0  0  0  0  0  0  0  0  0  0
  151.9390  140.1616  157.7025 S   0  0  0  0  0  0  0  0  0  0  0  0
  151.4626  140.5218  156.3577 O   0  0  0  0  0  0  0  0  0  0  0  0
  150.8674  138.8880  158.3534 C   0  0  0  0  0  0  0  0  0  0  0  0
  149.4909  138.8907  158.0585 C   0  0  0  0  0  0  0  0  0  0  0  0
  148.6945  137.8499  158.5748 C   0  0  0  0  0  0  0  0  0  0  0  0
  149.3090  136.8430  159.3500 C   0  0  0  0  0  0  0  0  0  0  0  0
  148.5225  135.7795  159.8158 N   0  0  0  0  0  0  0  0  0  0  0  0
  147.5592  136.0389  160.8818 C   0  0  0  0  0  0  0  0  0  0  0  0
  148.0385  135.5085  162.2440 C   0  0  0  0  0  0  0  0  0  0  0  0
  146.9977  134.7513  162.8372 O   0  0  0  0  0  0  0  0  0  0  0  0
  146.8108  133.4772  162.2494 C   0  0  0  0  0  0  0  0  0  0  0  0
  145.3363  133.0861  162.4079 C   0  0  0  0  0  0  0  0  0  0  0  0
  145.1498  131.7365  162.0352 O   0  0  0  0  0  0  0  0  0  0  0  0
  150.6322  136.8521  159.6429 N   0  0  0  0  0  0  0  0  0  0  0  0
  151.3941  137.8480  159.1434 C   0  0  0  0  0  0  0  0  0  0  0  0
  151.6473  141.5185  158.7533 N   0  0  0  0  0  0  0  0  0  0  0  0
  152.6329  141.8622  159.7993 C   0  0  0  0  0  0  0  0  0  0  0  0
  153.5264  143.0413  159.3742 C   0  0  0  0  0  0  0  0  0  0  0  0
  152.6849  144.2511  158.9543 C   0  0  0  0  0  0  0  0  0  0  0  0
  151.7153  143.8424  157.8404 C   0  0  0  0  0  0  0  0  0  0  0  0
  150.8348  142.6568  158.2754 C   0  0  0  0  0  0  0  0  0  0  0  0
  149.0515  139.6686  157.4522 H   0  0  0  0  0  0  0  0  0  0  0  0
  147.6364  137.8171  158.3599 H   0  0  0  0  0  0  0  0  0  0  0  0
  148.9747  134.8775  159.8471 H   0  0  0  0  0  0  0  0  0  0  0  0
  147.3086  137.0987  160.9400 H   0  0  0  0  0  0  0  0  0  0  0  0
  146.6380  135.5248  160.6076 H   0  0  0  0  0  0  0  0  0  0  0  0
  148.9086  134.8648  162.1092 H   0  0  0  0  0  0  0  0  0  0  0  0
  148.3421  136.3374  162.8860 H   0  0  0  0  0  0  0  0  0  0  0  0
  147.0638  133.5422  161.1902 H   0  0  0  0  0  0  0  0  0  0  0  0
  147.4639  132.7262  162.6973 H   0  0  0  0  0  0  0  0  0  0  0  0
  144.9899  133.2500  163.4287 H   0  0  0  0  0  0  0  0  0  0  0  0
  144.7179  133.6999  161.7529 H   0  0  0  0  0  0  0  0  0  0  0  0
  145.8556  131.4831  161.4599 H   0  0  0  0  0  0  0  0  0  0  0  0
  152.4450  137.8143  159.3891 H   0  0  0  0  0  0  0  0  0  0  0  0
  152.0913  142.1252  160.7083 H   0  0  0  0  0  0  0  0  0  0  0  0
  153.2432  140.9940  160.0462 H   0  0  0  0  0  0  0  0  0  0  0  0
  154.1874  143.3179  160.1958 H   0  0  0  0  0  0  0  0  0  0  0  0
  154.1735  142.7436  158.5502 H   0  0  0  0  0  0  0  0  0  0  0  0
  152.1276  144.6317  159.8111 H   0  0  0  0  0  0  0  0  0  0  0  0
  153.3311  145.0605  158.6140 H   0  0  0  0  0  0  0  0  0  0  0  0
  151.0843  144.6893  157.5697 H   0  0  0  0  0  0  0  0  0  0  0  0
  152.2780  143.5842  156.9445 H   0  0  0  0  0  0  0  0  0  0  0  0
  150.1874  142.3443  157.4565 H   0  0  0  0  0  0  0  0  0  0  0  0
  150.1756  142.9715  159.0849 H   0  0  0  0  0  0  0  0  0  0  0  0
  1  2  2  0  0  0  0
  2  3  2  0  0  0  0
  2  4  1  0  0  0  0
  2 17  1  0  0  0  0
  4 16  1  0  0  0  0
  4  5  2  0  0  0  0
  5  6  1  0  0  0  0
  5 23  1  0  0  0  0
  6  7  2  0  0  0  0
  6 24  1  0  0  0  0
  7  8  1  0  0  0  0
  7 15  1  0  0  0  0
  8  9  1  0  0  0  0
  8 25  1  0  0  0  0
  9 10  1  0  0  0  0
  9 26  1  0  0  0  0
  9 27  1  0  0  0  0
 10 11  1  0  0  0  0
 10 28  1  0  0  0  0
 10 29  1  0  0  0  0
 11 12  1  0  0  0  0
 12 13  1  0  0  0  0
 12 30  1  0  0  0  0
 12 31  1  0  0  0  0
 13 14  1  0  0  0  0
 13 32  1  0  0  0  0
 13 33  1  0  0  0  0
 14 34  1  0  0  0  0
 15 16  2  0  0  0  0
 16 35  1  0  0  0  0
 17 22  1  0  0  0  0
 17 18  1  0  0  0  0
 18 19  1  0  0  0  0
 18 36  1  0  0  0  0
 18 37  1  0  0  0  0
 19 20  1  0  0  0  0
 19 38  1  0  0  0  0
 19 39  1  0  0  0  0
 20 21  1  0  0  0  0
 20 40  1  0  0  0  0
 20 41  1  0  0  0  0
 21 22  1  0  0  0  0
 21 42  1  0  0  0  0
 21 43  1  0  0  0  0
 22 44  1  0  0  0  0
 22 45  1  0  0  0  0
M  END
> <s_m_source_file>
AV-unprocessed.smi

> <i_m_source_file_index>
2968

> <i_lp_mmshare_version>
43012

> <i_f3d_flags>
0

> <s_epik_input>
W0NIMl0xW0NIMl1bQ0gyXVtDSDJdW0NIMl1OMVMoPU8pKD1PKWMyW2NIXVtjSF1jKG5bY0hdMilbTkhdW0NIMl1bQ0gyXU9bQ0gyXVtDSDJdW09IXQ==

> <s_epik_cmdline>
J2VwaWtfcHl0aG9uJywgJy1waCcsICc3LjAnLCAnLXRuJywgJzgnLCAnLW1hJywgJzIwMCcsICctbWV0YWxfYmluZGluZycsICctaW1hZScsICc8aW5maWxlLm1hZT4nLCAnLW9tYWUnLCAnPG91dGZpbGUubWFlPic=

> <r_lp_tautomer_probability>
1

> <r_epik_Ionization_Penalty>
0.000398056

> <r_epik_Ionization_Penalty_Charging>
0

> <r_epik_Ionization_Penalty_Neutral>
0.000398056

> <r_epik_State_Penalty>
0.00024364

> <r_epik_Charging_Adjusted_Penalty>
0.00024364

> <i_epik_Tot_Q>
0

> <i_epik_Tot_abs_Q>
0

> <r_epik_Metal_State_Penalty>
-0

> <b_epik_Metal_Only>
0

> <s_lp_Force_Field>
OPLS_2005

> <r_lp_Energy>
3.3881

> <b_lp_Chiralities_Consistent>
1

> <s_lp_Variant>
AV-unprocessed.smi:2968-1

> <Gold.Version>
5.8.1

> <Gold.Id.Protein>
6NUR|6NUR_protein|mol2

> <Gold.PLP.Fitness>
48.6128

> <Gold.PLP.PLP>
-45.2832

> <Gold.PLP.part.hbond>
-3.1041

> <Gold.PLP.part.metal>
0.0000

> <Gold.PLP.part.buried>
-7.3494

> <Gold.PLP.part.nonpolar>
-36.3067

> <Gold.PLP.part.repulsive>
0.1536

> <Gold.PLP.ligand.clash>
0.0000

> <Gold.PLP.ligand.torsion>
3.4103

> <Gold.PLP.Chemscore.Hbond>
1.9913

> <Gold.PLP.Chemscore.CHOScore>
0.0000

> <Gold.PLP.Chemscore.Metal>
0.0000

> <Gold.Chemscore.Hbonds>
donor molecule, donor type, donor heavy atom, donor atom, acceptor molecule, acceptor atom, score
      P1  H  6896  6907       L1    15  1.00
      P1  H  7997  8009       L1     1  1.00

> <Gold.PLP.Chemscore.Internal.Correction>
4.1765

> <Gold.Rescore>
     Score         DG    S(hbond)    S(metal)    S(lipo)     H(rot)  DE(clash)    DE(int)     intcor
     13.17     -16.66       1.87        0.00      99.07       2.60       0.00       3.49       ----

> <Gold.Chemscore.Fitness>
13.1678

> <Gold.Chemscore.DG>
-16.6554

> <Gold.Chemscore.ZeroCoef>
-5.4800

> <Gold.Chemscore.Hbond>
1.8689

> <Gold.Chemscore.Metal>
0.0000

> <Gold.Chemscore.Lipo>
99.0730

> <Gold.Chemscore.Internal_Hbond>
0.0000

> <Gold.Chemscore.DEClash>
0.0000

> <Gold.Chemscore.DEInternal>
3.4876

> <Gold.Chemscore.Rot>
2.6009

> <Gold.Chemscore.Internal.Correction>
   9.000000E+99

> <Gold.Chemscore.Hbonds>
donor molecule, donor type, donor heavy atom, donor atom, acceptor molecule, acceptor atom, score
      P1  H  6896  6907       L1    15  0.30
      P1  H  7997  8009       L1     1  0.96

> <Gold.Chemscore.Hbond.Weighted>
-6.2422

> <Gold.Chemscore.Metal.Weighted>
-0.0000

> <Gold.Chemscore.Lipo.Weighted>
-11.5915

> <Gold.Chemscore.Internal_Hbond.Weighted>
0.0000

> <Gold.Chemscore.DEClash.Weighted>
0.0000

> <Gold.Chemscore.DEInternal.Weighted>
3.4876

> <Gold.Chemscore.Rot.Weighted>
6.6583

> <Gold.Chemscore.Internal.Correction.Weighted>
   9.000000E+99

> <Gold.Protein.RotatedTorsions>
[ 6907 6896 6895 6894 ] final  -38.04 input  -60.11 | X-H torsion
[ 7974 7965 7964 7962 ] final   76.35 input  175.53 | X-H torsion
[ 8008 7997 7996 7995 ] final  151.38 input   59.86 | X-H torsion
[ 10167 10162 10161 10158 ] final -107.31 input  -65.29 | X-H torsion
[ 10718 10713 10712 10709 ] final  169.96 input   66.30 | X-H torsion
[ 10763 10752 10751 10750 ] final   16.62 input  -60.55 | X-H torsion
[ 11005 11000 10999 10996 ] final   50.98 input  -57.11 | X-H torsion

> <Gold.Protein.ActiveResidues>
 VAL166  LYS551  ARG553  GLY616  TRP617  ASP618  TYR619  PRO620  LYS621  CYS622 
 ASP623  PHE694  ASN695  SER759  ASP760  ASP761  ALA762  ILE779  LEU786  VAL792 
 PHE793  MET794  SER795  GLU796  ALA797  LYS798  CYS799  TRP800  GLU811  SER814 

> <Gold.Protein.RotatedAtoms>
  151.0073  134.9369  159.7987 H   0  0  0  0  0  0  0  0  0  0  0  0  # atno 6907 bound_to 6896
  152.5293  134.3075  159.9111 H   0  0  0  0  0  0  0  0  0  0  0  0  # atno 6908 bound_to 6896
  151.3081  133.4051  159.2679 H   0  0  0  0  0  0  0  0  0  0  0  0  # atno 6909 bound_to 6896
  145.7040  139.2592  143.1689 H   0  0  0  0  0  0  0  0  0  0  0  0  # atno 7974 bound_to 7965
  156.2676  140.2049  156.6167 H   0  0  0  0  0  0  0  0  0  0  0  0  # atno 8008 bound_to 7997
  154.6789  140.0542  157.0269 H   0  0  0  0  0  0  0  0  0  0  0  0  # atno 8009 bound_to 7997
  155.1029  140.3208  155.4545 H   0  0  0  0  0  0  0  0  0  0  0  0  # atno 8010 bound_to 7997
  140.1783  143.3987  152.1301 H   0  0  0  0  0  0  0  0  0  0  0  0  # atno 10167 bound_to 10162
  157.0150  131.0215  151.2792 H   0  0  0  0  0  0  0  0  0  0  0  0  # atno 10718 bound_to 10713
  153.1414  135.6760  153.9021 H   0  0  0  0  0  0  0  0  0  0  0  0  # atno 10763 bound_to 10752
  153.8476  135.3097  155.3431 H   0  0  0  0  0  0  0  0  0  0  0  0  # atno 10764 bound_to 10752
  154.7790  135.4898  153.9889 H   0  0  0  0  0  0  0  0  0  0  0  0  # atno 10765 bound_to 10752
  140.0971  134.5131  155.8797 H   0  0  0  0  0  0  0  0  0  0  0  0  # atno 11005 bound_to 11000
  146.0772  140.7804  142.9659 LP  0  0  0  0  0  0  0  0  0  0  0  0  # atno 17320 bound_to 7965
  144.6960  140.3433  143.7195 LP  0  0  0  0  0  0  0  0  0  0  0  0  # atno 17321 bound_to 7965
  139.5307  144.7156  151.5066 LP  0  0  0  0  0  0  0  0  0  0  0  0  # atno 17342 bound_to 10162
  140.6537  143.8644  150.6812 LP  0  0  0  0  0  0  0  0  0  0  0  0  # atno 17343 bound_to 10162
  157.5292  130.8047  149.7897 LP  0  0  0  0  0  0  0  0  0  0  0  0  # atno 17370 bound_to 10713
  156.0122  130.3828  150.2226 LP  0  0  0  0  0  0  0  0  0  0  0  0  # atno 17371 bound_to 10713
  141.2095  133.6685  156.6444 LP  0  0  0  0  0  0  0  0  0  0  0  0  # atno 17394 bound_to 11000
  140.3271  134.7960  157.4297 LP  0  0  0  0  0  0  0  0  0  0  0  0  # atno 17395 bound_to 11000

$$$$
