AV-unprocessed.smi:1556|AV-procd|sdf|6269|dock3
  -GOLD-   22720 6463D 1   1.00000     0.00000
 Structure written by MMmdl.
 37 38  0  0  0  0  0  0  0  0  1 V2000
  145.4430  130.3591  151.4128 C   0  0  0  0  0  0  0  0  0  0  0  0
  144.8936  131.6030  150.9179 N   0  0  0  0  0  0  0  0  0  0  0  0
  145.1953  132.8907  151.3050 C   0  0  0  0  0  0  0  0  0  0  0  0
  144.4531  133.7363  150.5296 C   0  0  0  0  0  0  0  0  0  0  0  0
  144.4495  135.2432  150.5222 C   0  0  0  0  0  0  0  0  0  0  0  0
  143.7891  135.8398  151.7815 C   0  0  0  0  0  0  0  0  0  0  0  0
  144.3187  137.1586  152.1136 N   0  0  0  0  0  0  0  0  0  0  0  0
  145.6049  137.4306  152.3870 C   0  0  0  0  0  0  0  0  0  0  0  0
  146.4710  136.5656  152.5011 O   0  0  0  0  0  0  0  0  0  0  0  0
  145.8858  138.7397  152.5163 N   0  0  0  0  0  0  0  0  0  0  0  0
  147.1779  139.3636  152.8105 C   0  0  1  0  0  0  0  0  0  0  0  0
  146.9980  140.8528  153.1608 C   0  0  0  0  0  0  0  0  0  0  0  0
  148.2886  141.3677  153.8086 C   0  0  0  0  0  0  0  0  0  0  0  0
  148.9963  139.9472  154.7240 S   0  0  0  0  0  0  0  0  0  0  0  0
  150.3748  139.7201  154.2650 O   0  0  0  0  0  0  0  0  0  0  0  0
  148.6862  140.0787  156.1556 O   0  0  0  0  0  0  0  0  0  0  0  0
  147.8925  138.6835  153.9927 C   0  0  0  0  0  0  0  0  0  0  0  0
  143.7018  132.8530  149.7030 C   0  0  0  0  0  0  0  0  0  0  0  0
  143.9713  131.5785  149.9342 N   0  0  0  0  0  0  0  0  0  0  0  0
  146.0382  130.5433  152.3076 H   0  0  0  0  0  0  0  0  0  0  0  0
  146.0805  129.9115  150.6496 H   0  0  0  0  0  0  0  0  0  0  0  0
  144.6370  129.6673  151.6595 H   0  0  0  0  0  0  0  0  0  0  0  0
  145.9222  133.0991  152.0761 H   0  0  0  0  0  0  0  0  0  0  0  0
  145.4650  135.6301  150.4359 H   0  0  0  0  0  0  0  0  0  0  0  0
  143.9233  135.6140  149.6416 H   0  0  0  0  0  0  0  0  0  0  0  0
  142.7196  135.9584  151.6058 H   0  0  0  0  0  0  0  0  0  0  0  0
  143.8888  135.1596  152.6288 H   0  0  0  0  0  0  0  0  0  0  0  0
  143.6739  137.9332  152.0540 H   0  0  0  0  0  0  0  0  0  0  0  0
  145.1025  139.3730  152.4419 H   0  0  0  0  0  0  0  0  0  0  0  0
  147.8207  139.3073  151.9301 H   0  0  0  0  0  0  0  0  0  0  0  0
  146.7257  141.4453  152.2866 H   0  0  0  0  0  0  0  0  0  0  0  0
  146.1848  140.9563  153.8810 H   0  0  0  0  0  0  0  0  0  0  0  0
  149.0083  141.6685  153.0470 H   0  0  0  0  0  0  0  0  0  0  0  0
  148.1229  142.2078  154.4831 H   0  0  0  0  0  0  0  0  0  0  0  0
  147.1841  138.3770  154.7629 H   0  0  0  0  0  0  0  0  0  0  0  0
  148.4786  137.8149  153.6933 H   0  0  0  0  0  0  0  0  0  0  0  0
  142.9844  133.1007  148.9345 H   0  0  0  0  0  0  0  0  0  0  0  0
  1  2  1  0  0  0  0
  1 20  1  0  0  0  0
  1 21  1  0  0  0  0
  1 22  1  0  0  0  0
  2 19  1  0  0  0  0
  2  3  1  0  0  0  0
  3  4  2  0  0  0  0
  3 23  1  0  0  0  0
  4  5  1  0  0  0  0
  4 18  1  0  0  0  0
  5  6  1  0  0  0  0
  5 24  1  0  0  0  0
  5 25  1  0  0  0  0
  6  7  1  0  0  0  0
  6 26  1  0  0  0  0
  6 27  1  0  0  0  0
  7  8  1  0  0  0  0
  7 28  1  0  0  0  0
  8  9  2  0  0  0  0
  8 10  1  0  0  0  0
 10 11  1  0  0  0  0
 10 29  1  0  0  0  0
 11 17  1  0  0  0  0
 11 12  1  0  0  0  0
 11 30  1  0  0  0  0
 12 13  1  0  0  0  0
 12 31  1  0  0  0  0
 12 32  1  0  0  0  0
 13 14  1  0  0  0  0
 13 33  1  0  0  0  0
 13 34  1  0  0  0  0
 14 15  2  0  0  0  0
 14 16  2  0  0  0  0
 14 17  1  0  0  0  0
 17 35  1  0  0  0  0
 17 36  1  0  0  0  0
 18 19  2  0  0  0  0
 18 37  1  0  0  0  0
M  END
> <s_m_source_file>
AV-unprocessed.smi

> <i_m_source_file_index>
1556

> <i_lp_mmshare_version>
43012

> <i_f3d_flags>
0

> <s_epik_input>
W0NIM11uMVtjSF1jKFtjSF1uMSlbQ0gyXVtDSDJdW05IXUMoPU8pW05IXVtDQEBIXShbQ0gyXTIpW0NIMl1bQ0gyXVMyKD1PKT1P

> <s_epik_cmdline>
J2VwaWtfcHl0aG9uJywgJy1waCcsICc3LjAnLCAnLXRuJywgJzgnLCAnLW1hJywgJzIwMCcsICctbWV0YWxfYmluZGluZycsICctaW1hZScsICc8aW5maWxlLm1hZT4nLCAnLW9tYWUnLCAnPG91dGZpbGUubWFlPic=

> <r_lp_tautomer_probability>
1

> <r_epik_Ionization_Penalty>
0.000530192

> <r_epik_Ionization_Penalty_Charging>
0

> <r_epik_Ionization_Penalty_Neutral>
0.000530192

> <r_epik_State_Penalty>
-0

> <r_epik_Charging_Adjusted_Penalty>
0

> <i_epik_Tot_Q>
0

> <i_epik_Tot_abs_Q>
0

> <r_epik_Metal_State_Penalty>
-0

> <b_epik_Metal_Only>
0

> <s_lp_Force_Field>
OPLS_2005

> <r_lp_Energy>
7.70197

> <b_lp_Chiralities_Consistent>
1

> <s_lp_Variant>
AV-unprocessed.smi:1556-2

> <Gold.Version>
5.8.1

> <Gold.Id.Protein>
6NUR|6NUR_protein|mol2

> <Gold.PLP.Fitness>
42.7533

> <Gold.PLP.PLP>
-32.9225

> <Gold.PLP.part.hbond>
-4.0000

> <Gold.PLP.part.metal>
0.0000

> <Gold.PLP.part.buried>
-3.9640

> <Gold.PLP.part.nonpolar>
-28.4046

> <Gold.PLP.part.repulsive>
4.0719

> <Gold.PLP.ligand.clash>
0.0000

> <Gold.PLP.ligand.torsion>
0.3989

> <Gold.PLP.Chemscore.Hbond>
2.7369

> <Gold.PLP.Chemscore.CHOScore>
0.8040

> <Gold.PLP.Chemscore.Metal>
0.0000

> <Gold.Chemscore.Hbonds>
donor molecule, donor type, donor heavy atom, donor atom, acceptor molecule, acceptor atom, score
      L1  H     7    28       P1 10171  0.02
      L1  H    10    29       P1 10175  1.00
      P1  H  7989  7998       L1    15  1.00
      P1  H 10785 10796       L1    19  0.74
      L1  C    18    37       P1 10186  0.79

> <Gold.PLP.Chemscore.Internal.Correction>
0.0060

> <Gold.Rescore>
     Score         DG    S(hbond)    S(metal)    S(lipo)     H(rot)  DE(clash)    DE(int)     intcor
     15.51     -18.55       2.71        0.00      74.06       1.82       1.57       1.47       ----

> <Gold.Chemscore.Fitness>
15.5077

> <Gold.Chemscore.DG>
-18.5480

> <Gold.Chemscore.ZeroCoef>
-5.4800

> <Gold.Chemscore.Hbond>
2.7147

> <Gold.Chemscore.Metal>
0.0000

> <Gold.Chemscore.Lipo>
74.0614

> <Gold.Chemscore.Internal_Hbond>
0.0000

> <Gold.Chemscore.DEClash>
1.5749

> <Gold.Chemscore.DEInternal>
1.4654

> <Gold.Chemscore.Rot>
1.8220

> <Gold.Chemscore.Internal.Correction>
   9.000000E+99

> <Gold.Chemscore.Hbonds>
donor molecule, donor type, donor heavy atom, donor atom, acceptor molecule, acceptor atom, score
      L1  H     7    28       P1 10171  0.02
      L1  H    10    29       P1 10175  1.00
      P1  H  7989  7998       L1    15  1.00
      P1  H 10785 10796       L1    19  0.67

> <Gold.Chemscore.Hbond.Weighted>
-9.0670

> <Gold.Chemscore.Metal.Weighted>
-0.0000

> <Gold.Chemscore.Lipo.Weighted>
-8.6652

> <Gold.Chemscore.Internal_Hbond.Weighted>
0.0000

> <Gold.Chemscore.DEClash.Weighted>
1.5749

> <Gold.Chemscore.DEInternal.Weighted>
1.4654

> <Gold.Chemscore.Rot.Weighted>
4.6642

> <Gold.Chemscore.Internal.Correction.Weighted>
   9.000000E+99

> <Gold.Protein.RotatedTorsions>
[ 6907 6896 6895 6894 ] final  -76.26 input  -60.11 | X-H torsion
[ 7974 7965 7964 7962 ] final  134.04 input  175.53 | X-H torsion
[ 8008 7997 7996 7995 ] final -153.61 input   59.86 | X-H torsion
[ 10167 10162 10161 10158 ] final -135.07 input  -65.29 | X-H torsion
[ 10718 10713 10712 10709 ] final -137.49 input   66.30 | X-H torsion
[ 10763 10752 10751 10750 ] final  -13.24 input  -60.55 | X-H torsion
[ 11005 11000 10999 10996 ] final -145.34 input  -57.11 | X-H torsion

> <Gold.Protein.ActiveResidues>
 VAL166  LYS551  ARG553  GLY616  TRP617  ASP618  TYR619  PRO620  LYS621  CYS622 
 ASP623  PHE694  ASN695  SER759  ASP760  ASP761  ALA762  ILE779  LEU786  VAL792 
 PHE793  MET794  SER795  GLU796  ALA797  LYS798  CYS799  TRP800  GLU811  SER814 

> <Gold.Protein.RotatedAtoms>
  150.7033  134.4599  159.5375 H   0  0  0  0  0  0  0  0  0  0  0  0  # atno 6907 bound_to 6896
  152.2276  134.8350  160.0487 H   0  0  0  0  0  0  0  0  0  0  0  0  # atno 6908 bound_to 6896
  151.9178  133.3542  159.3923 H   0  0  0  0  0  0  0  0  0  0  0  0  # atno 6909 bound_to 6896
  144.9804  139.4510  143.5389 H   0  0  0  0  0  0  0  0  0  0  0  0  # atno 7974 bound_to 7965
  155.6734  140.0736  157.2511 H   0  0  0  0  0  0  0  0  0  0  0  0  # atno 8008 bound_to 7997
  154.4119  140.1695  156.1956 H   0  0  0  0  0  0  0  0  0  0  0  0  # atno 8009 bound_to 7997
  155.9597  140.3371  155.6482 H   0  0  0  0  0  0  0  0  0  0  0  0  # atno 8010 bound_to 7997
  139.8816  143.6832  152.2626 H   0  0  0  0  0  0  0  0  0  0  0  0  # atno 10167 bound_to 10162
  156.2887  130.7362  151.1382 H   0  0  0  0  0  0  0  0  0  0  0  0  # atno 10718 bound_to 10713
  153.5104  135.7016  153.5784 H   0  0  0  0  0  0  0  0  0  0  0  0  # atno 10763 bound_to 10752
  153.3876  135.3904  155.1901 H   0  0  0  0  0  0  0  0  0  0  0  0  # atno 10764 bound_to 10752
  154.8703  135.3850  154.4584 H   0  0  0  0  0  0  0  0  0  0  0  0  # atno 10765 bound_to 10752
  140.7933  134.2943  157.5005 H   0  0  0  0  0  0  0  0  0  0  0  0  # atno 11005 bound_to 11000
  146.3406  139.9073  142.8785 LP  0  0  0  0  0  0  0  0  0  0  0  0  # atno 17320 bound_to 7965
  145.2429  141.0016  143.3925 LP  0  0  0  0  0  0  0  0  0  0  0  0  # atno 17321 bound_to 7965
  139.7191  144.7606  151.0985 LP  0  0  0  0  0  0  0  0  0  0  0  0  # atno 17342 bound_to 10162
  140.7743  143.5231  150.9512 LP  0  0  0  0  0  0  0  0  0  0  0  0  # atno 17343 bound_to 10162
  157.7336  131.0589  150.5568 LP  0  0  0  0  0  0  0  0  0  0  0  0  # atno 17370 bound_to 10713
  156.5682  130.4273  149.6031 LP  0  0  0  0  0  0  0  0  0  0  0  0  # atno 17371 bound_to 10713
  139.8729  134.9387  156.3722 LP  0  0  0  0  0  0  0  0  0  0  0  0  # atno 17394 bound_to 11000
  140.9368  133.7542  156.0095 LP  0  0  0  0  0  0  0  0  0  0  0  0  # atno 17395 bound_to 11000

$$$$
