AV-unprocessed.smi:2881|AV-procd|sdf|11064|dock6
  -GOLD-   2272015533D 1   1.00000     0.00000
 Structure written by MMmdl.
 40 42  0  0  0  0  0  0  0  0  1 V2000
  151.7865  145.9822  160.1415 C   0  0  0  0  0  0  0  0  0  0  0  0
  151.8652  144.5836  159.6047 C   0  0  0  0  0  0  0  0  0  0  0  0
  152.0812  143.3742  160.3282 C   0  0  0  0  0  0  0  0  0  0  0  0
  152.0585  142.3987  159.3709 C   0  0  0  0  0  0  0  0  0  0  0  0
  152.2263  140.9139  159.4687 C   0  0  0  0  0  0  0  0  0  0  0  0
  152.5469  140.2569  158.1210 C   0  0  0  0  0  0  0  0  0  0  0  0
  153.5813  139.6079  157.9582 O   0  0  0  0  0  0  0  0  0  0  0  0
  151.6392  140.4514  157.1524 N   0  0  0  0  0  0  0  0  0  0  0  0
  151.7238  139.9411  155.7823 C   0  0  1  0  0  0  0  0  0  0  0  0
  151.5365  138.4041  155.7186 C   0  0  1  0  0  0  0  0  0  0  0  0
  150.2785  137.9571  156.4938 C   0  0  0  0  0  0  0  0  0  0  0  0
  149.1357  138.5024  155.6185 C   0  0  0  0  0  0  0  0  0  0  0  0
  149.8851  139.1407  154.4295 C   0  0  2  0  0  0  0  0  0  0  0  0
  151.0721  138.1963  154.2806 C   0  0  0  0  0  0  0  0  0  0  0  0
  150.5981  140.4521  154.8340 C   0  0  1  0  0  0  0  0  0  0  0  0
  149.6569  141.5695  155.3392 C   0  0  0  0  0  0  0  0  0  0  0  0
  148.9823  142.1765  154.2572 O   0  0  0  0  0  0  0  0  0  0  0  0
  151.8451  143.0434  158.1728 N   0  0  0  0  0  0  0  0  0  0  0  0
  151.7239  144.3773  158.3038 N   0  0  0  0  0  0  0  0  0  0  0  0
  151.7742  142.5911  157.2725 H   0  0  0  0  0  0  0  0  0  0  0  0
  152.0393  146.0116  161.2015 H   0  0  0  0  0  0  0  0  0  0  0  0
  150.7811  146.3888  160.0287 H   0  0  0  0  0  0  0  0  0  0  0  0
  152.4762  146.6446  159.6180 H   0  0  0  0  0  0  0  0  0  0  0  0
  152.2280  143.2434  161.3901 H   0  0  0  0  0  0  0  0  0  0  0  0
  151.3137  140.4649  159.8620 H   0  0  0  0  0  0  0  0  0  0  0  0
  153.0198  140.6803  160.1798 H   0  0  0  0  0  0  0  0  0  0  0  0
  150.8212  140.9987  157.3780 H   0  0  0  0  0  0  0  0  0  0  0  0
  152.6935  140.1906  155.3468 H   0  0  0  0  0  0  0  0  0  0  0  0
  152.4325  137.8464  155.9922 H   0  0  0  0  0  0  0  0  0  0  0  0
  150.2303  136.8684  156.5404 H   0  0  0  0  0  0  0  0  0  0  0  0
  150.2365  138.3223  157.5195 H   0  0  0  0  0  0  0  0  0  0  0  0
  148.5001  137.6846  155.2768 H   0  0  0  0  0  0  0  0  0  0  0  0
  148.4985  139.2065  156.1520 H   0  0  0  0  0  0  0  0  0  0  0  0
  149.2722  139.2411  153.5332 H   0  0  0  0  0  0  0  0  0  0  0  0
  151.8011  138.5253  153.5378 H   0  0  0  0  0  0  0  0  0  0  0  0
  150.7833  137.1666  154.0618 H   0  0  0  0  0  0  0  0  0  0  0  0
  151.0785  140.8329  153.9302 H   0  0  0  0  0  0  0  0  0  0  0  0
  148.9042  141.1470  156.0052 H   0  0  0  0  0  0  0  0  0  0  0  0
  150.1886  142.3336  155.9058 H   0  0  0  0  0  0  0  0  0  0  0  0
  148.7560  143.0612  154.5002 H   0  0  0  0  0  0  0  0  0  0  0  0
  1 21  1  0  0  0  0
  1 22  1  0  0  0  0
  1 23  1  0  0  0  0
  1  2  1  0  0  0  0
  2 19  2  0  0  0  0
  2  3  1  0  0  0  0
  3  4  2  0  0  0  0
  3 24  1  0  0  0  0
  4 18  1  0  0  0  0
  4  5  1  0  0  0  0
  5  6  1  0  0  0  0
  5 25  1  0  0  0  0
  5 26  1  0  0  0  0
  6  7  2  0  0  0  0
  6  8  1  0  0  0  0
  8  9  1  0  0  0  0
  8 27  1  0  0  0  0
  9 15  1  0  0  0  0
  9 10  1  0  0  0  0
  9 28  1  0  0  0  0
 10 14  1  0  0  0  0
 10 11  1  0  0  0  0
 10 29  1  0  0  0  0
 11 12  1  0  0  0  0
 11 30  1  0  0  0  0
 11 31  1  0  0  0  0
 12 13  1  0  0  0  0
 12 32  1  0  0  0  0
 12 33  1  0  0  0  0
 13 14  1  0  0  0  0
 13 15  1  0  0  0  0
 13 34  1  0  0  0  0
 14 35  1  0  0  0  0
 14 36  1  0  0  0  0
 15 16  1  0  0  0  0
 15 37  1  0  0  0  0
 16 17  1  0  0  0  0
 16 38  1  0  0  0  0
 16 39  1  0  0  0  0
 17 40  1  0  0  0  0
 18 19  1  0  0  0  0
 18 20  1  0  0  0  0
M  END
> <s_m_source_file>
AV-unprocessed.smi

> <i_m_source_file_index>
2881

> <i_lp_mmshare_version>
43012

> <i_f3d_flags>
0

> <s_epik_input>
W0NIM11jMVtjSF1jKG5bbkhdMSlbQ0gyXUMoPU8pW05IXVtDQEhdKFtDQEBIXTIzKVtDQEhdKFtDSDJdW09IXSlbQ0BASF0oW0NIMl0zKVtDSDJdW0NIMl0y

> <s_epik_cmdline>
J2VwaWtfcHl0aG9uJywgJy1waCcsICc3LjAnLCAnLXRuJywgJzgnLCAnLW1hJywgJzIwMCcsICctbWV0YWxfYmluZGluZycsICctaW1hZScsICc8aW5maWxlLm1hZT4nLCAnLW9tYWUnLCAnPG91dGZpbGUubWFlPic=

> <r_lp_tautomer_probability>
0.5

> <r_epik_Ionization_Penalty>
0.00013396

> <r_epik_Ionization_Penalty_Charging>
0

> <r_epik_Ionization_Penalty_Neutral>
0.00013396

> <r_epik_State_Penalty>
0.41068

> <r_epik_Charging_Adjusted_Penalty>
0.41068

> <i_epik_Tot_Q>
0

> <i_epik_Tot_abs_Q>
0

> <r_epik_Metal_State_Penalty>
0.41066

> <b_epik_Metal_Only>
0

> <s_lp_Force_Field>
OPLS_2005

> <r_lp_Energy>
49.8973

> <b_lp_Chiralities_Consistent>
1

> <s_lp_Variant>
AV-unprocessed.smi:2881-10

> <Gold.Version>
5.8.1

> <Gold.Id.Protein>
6NUR|6NUR_protein|mol2

> <Gold.PLP.Fitness>
43.2948

> <Gold.PLP.PLP>
-37.2933

> <Gold.PLP.part.hbond>
-3.0000

> <Gold.PLP.part.metal>
0.0000

> <Gold.PLP.part.buried>
-1.1222

> <Gold.PLP.part.nonpolar>
-32.1289

> <Gold.PLP.part.repulsive>
0.2185

> <Gold.PLP.ligand.clash>
0.0000

> <Gold.PLP.ligand.torsion>
0.4372

> <Gold.PLP.Chemscore.Hbond>
2.2870

> <Gold.PLP.Chemscore.CHOScore>
0.0000

> <Gold.PLP.Chemscore.Metal>
0.0000

> <Gold.Chemscore.Hbonds>
donor molecule, donor type, donor heavy atom, donor atom, acceptor molecule, acceptor atom, score
      L1  H    17    40       P1  8028  1.00
      P1  H  7997  8008       L1     7  0.84
      P1  H  8011  8017       L1    17  0.24

> <Gold.PLP.Chemscore.Internal.Correction>
0.0149

> <Gold.Rescore>
     Score         DG    S(hbond)    S(metal)    S(lipo)     H(rot)  DE(clash)    DE(int)     intcor
     15.69     -17.61       2.08        0.00      94.07       2.28       0.14       1.78       ----

> <Gold.Chemscore.Fitness>
15.6944

> <Gold.Chemscore.DG>
-17.6130

> <Gold.Chemscore.ZeroCoef>
-5.4800

> <Gold.Chemscore.Hbond>
2.0816

> <Gold.Chemscore.Metal>
0.0000

> <Gold.Chemscore.Lipo>
94.0653

> <Gold.Chemscore.Internal_Hbond>
0.0000

> <Gold.Chemscore.DEClash>
0.1404

> <Gold.Chemscore.DEInternal>
1.7782

> <Gold.Chemscore.Rot>
2.2755

> <Gold.Chemscore.Internal.Correction>
   9.000000E+99

> <Gold.Chemscore.Hbonds>
donor molecule, donor type, donor heavy atom, donor atom, acceptor molecule, acceptor atom, score
      L1  H    17    40       P1  8028  0.94
      P1  H  7997  8008       L1     7  0.83
      P1  H  8011  8017       L1    17  0.09

> <Gold.Chemscore.Hbond.Weighted>
-6.9526

> <Gold.Chemscore.Metal.Weighted>
-0.0000

> <Gold.Chemscore.Lipo.Weighted>
-11.0056

> <Gold.Chemscore.Internal_Hbond.Weighted>
0.0000

> <Gold.Chemscore.DEClash.Weighted>
0.1404

> <Gold.Chemscore.DEInternal.Weighted>
1.7782

> <Gold.Chemscore.Rot.Weighted>
5.8252

> <Gold.Chemscore.Internal.Correction.Weighted>
   9.000000E+99

> <Gold.Protein.RotatedTorsions>
[ 6907 6896 6895 6894 ] final  124.34 input  -60.11 | X-H torsion
[ 7974 7965 7964 7962 ] final  -83.87 input  175.53 | X-H torsion
[ 8008 7997 7996 7995 ] final  -98.60 input   59.86 | X-H torsion
[ 10167 10162 10161 10158 ] final  -98.66 input  -65.29 | X-H torsion
[ 10718 10713 10712 10709 ] final -109.91 input   66.30 | X-H torsion
[ 10763 10752 10751 10750 ] final   16.89 input  -60.55 | X-H torsion
[ 11005 11000 10999 10996 ] final  -78.06 input  -57.11 | X-H torsion

> <Gold.Protein.ActiveResidues>
 VAL166  LYS551  ARG553  GLY616  TRP617  ASP618  TYR619  PRO620  LYS621  CYS622 
 ASP623  PHE694  ASN695  SER759  ASP760  ASP761  ALA762  ILE779  LEU786  VAL792 
 PHE793  MET794  SER795  GLU796  ALA797  LYS798  CYS799  TRP800  GLU811  SER814 

> <Gold.Protein.RotatedAtoms>
  152.4086  133.6928  159.6377 H   0  0  0  0  0  0  0  0  0  0  0  0  # atno 6907 bound_to 6896
  150.7968  133.8664  159.3255 H   0  0  0  0  0  0  0  0  0  0  0  0  # atno 6908 bound_to 6896
  151.6412  135.1014  160.0193 H   0  0  0  0  0  0  0  0  0  0  0  0  # atno 6909 bound_to 6896
  145.5141  140.9537  143.1691 H   0  0  0  0  0  0  0  0  0  0  0  0  # atno 7974 bound_to 7965
  154.8034  140.0454  157.1290 H   0  0  0  0  0  0  0  0  0  0  0  0  # atno 8008 bound_to 7997
  154.9452  140.3058  155.5081 H   0  0  0  0  0  0  0  0  0  0  0  0  # atno 8009 bound_to 7997
  156.2964  140.2298  156.4525 H   0  0  0  0  0  0  0  0  0  0  0  0  # atno 8010 bound_to 7997
  140.2707  143.3346  152.0538 H   0  0  0  0  0  0  0  0  0  0  0  0  # atno 10167 bound_to 10162
  156.0562  130.5788  150.8165 H   0  0  0  0  0  0  0  0  0  0  0  0  # atno 10718 bound_to 10713
  153.1389  135.6756  153.9059 H   0  0  0  0  0  0  0  0  0  0  0  0  # atno 10763 bound_to 10752
  153.8522  135.3092  155.3434 H   0  0  0  0  0  0  0  0  0  0  0  0  # atno 10764 bound_to 10752
  154.7770  135.4909  153.9849 H   0  0  0  0  0  0  0  0  0  0  0  0  # atno 10765 bound_to 10752
  141.1663  133.7047  156.7914 H   0  0  0  0  0  0  0  0  0  0  0  0  # atno 11005 bound_to 11000
  144.7711  139.6733  143.7194 LP  0  0  0  0  0  0  0  0  0  0  0  0  # atno 17320 bound_to 7965
  146.2148  139.5529  142.9657 LP  0  0  0  0  0  0  0  0  0  0  0  0  # atno 17321 bound_to 7965
  139.4990  144.6658  151.6359 LP  0  0  0  0  0  0  0  0  0  0  0  0  # atno 17342 bound_to 10162
  140.5892  143.9809  150.6314 LP  0  0  0  0  0  0  0  0  0  0  0  0  # atno 17343 bound_to 10162
  157.5534  131.0944  150.9663 LP  0  0  0  0  0  0  0  0  0  0  0  0  # atno 17370 bound_to 10713
  156.9917  130.5566  149.5304 LP  0  0  0  0  0  0  0  0  0  0  0  0  # atno 17371 bound_to 10713
  140.2322  134.8677  157.3488 LP  0  0  0  0  0  0  0  0  0  0  0  0  # atno 17394 bound_to 11000
  140.1879  134.4408  155.7733 LP  0  0  0  0  0  0  0  0  0  0  0  0  # atno 17395 bound_to 11000

$$$$
