AV-unprocessed.smi:798|AV-procd|sdf|3775|dock1
  -GOLD-   22720 1203D 1   1.00000     0.00000
 Structure written by MMmdl.
 34 36  0  0  0  0  0  0  0  0  1 V2000
  147.5447  132.7669  154.4115 O   0  0  0  0  0  0  0  0  0  0  0  0
  147.8227  133.7604  153.7398 C   0  0  0  0  0  0  0  0  0  0  0  0
  148.9279  134.5128  153.8826 N   0  0  0  0  0  0  0  0  0  0  0  0
  149.9837  134.3581  154.8195 C   0  0  0  0  0  0  0  0  0  0  0  0
  150.8159  135.3496  155.1745 N   0  0  0  0  0  0  0  0  0  0  0  0
  151.7592  134.9286  156.1030 N   0  0  0  0  0  0  0  0  0  0  0  0
  151.6017  133.6383  156.4111 C   0  0  0  0  0  0  0  0  0  0  0  0
  150.2855  132.8106  155.5969 S   0  0  0  0  0  0  0  0  0  0  0  0
  147.0383  134.2346  152.7611 N   0  0  0  0  0  0  0  0  0  0  0  0
  145.7676  133.6466  152.3336 C   0  0  2  0  0  0  0  0  0  0  0  0
  146.0177  132.2947  151.6307 C   0  0  1  0  0  0  0  0  0  0  0  0
  144.6899  131.5205  151.5418 C   0  0  0  0  0  0  0  0  0  0  0  0
  143.9133  132.3121  150.4724 C   0  0  0  0  0  0  0  0  0  0  0  0
  144.8985  133.4356  150.0928 C   0  0  2  0  0  0  0  0  0  0  0  0
  146.2337  132.7073  150.1795 C   0  0  0  0  0  0  0  0  0  0  0  0
  144.9872  134.4575  151.2537 C   0  0  2  0  0  0  0  0  0  0  0  0
  145.6073  135.8092  150.8322 C   0  0  0  0  0  0  0  0  0  0  0  0
  145.0903  136.2226  149.5849 O   0  0  0  0  0  0  0  0  0  0  0  0
  149.0223  135.2942  153.2510 H   0  0  0  0  0  0  0  0  0  0  0  0
  152.2657  133.1704  157.1228 H   0  0  0  0  0  0  0  0  0  0  0  0
  147.3448  135.0574  152.2632 H   0  0  0  0  0  0  0  0  0  0  0  0
  145.1415  133.4881  153.2138 H   0  0  0  0  0  0  0  0  0  0  0  0
  146.8263  131.7084  152.0688 H   0  0  0  0  0  0  0  0  0  0  0  0
  144.8596  130.4950  151.2116 H   0  0  0  0  0  0  0  0  0  0  0  0
  144.1637  131.4811  152.4963 H   0  0  0  0  0  0  0  0  0  0  0  0
  143.6982  131.6786  149.6109 H   0  0  0  0  0  0  0  0  0  0  0  0
  142.9642  132.6985  150.8460 H   0  0  0  0  0  0  0  0  0  0  0  0
  144.6828  133.8788  149.1202 H   0  0  0  0  0  0  0  0  0  0  0  0
  147.0979  133.3571  150.0348 H   0  0  0  0  0  0  0  0  0  0  0  0
  146.3093  131.8597  149.4959 H   0  0  0  0  0  0  0  0  0  0  0  0
  143.9850  134.6673  151.6314 H   0  0  0  0  0  0  0  0  0  0  0  0
  145.3658  136.5846  151.5594 H   0  0  0  0  0  0  0  0  0  0  0  0
  146.6938  135.7505  150.7662 H   0  0  0  0  0  0  0  0  0  0  0  0
  144.5770  137.0049  149.7166 H   0  0  0  0  0  0  0  0  0  0  0  0
  1  2  2  0  0  0  0
  2  3  1  0  0  0  0
  2  9  1  0  0  0  0
  3  4  1  0  0  0  0
  3 19  1  0  0  0  0
  4  8  1  0  0  0  0
  4  5  2  0  0  0  0
  5  6  1  0  0  0  0
  6  7  2  0  0  0  0
  7  8  1  0  0  0  0
  7 20  1  0  0  0  0
  9 10  1  0  0  0  0
  9 21  1  0  0  0  0
 10 16  1  0  0  0  0
 10 11  1  0  0  0  0
 10 22  1  0  0  0  0
 11 15  1  0  0  0  0
 11 12  1  0  0  0  0
 11 23  1  0  0  0  0
 12 13  1  0  0  0  0
 12 24  1  0  0  0  0
 12 25  1  0  0  0  0
 13 14  1  0  0  0  0
 13 26  1  0  0  0  0
 13 27  1  0  0  0  0
 14 15  1  0  0  0  0
 14 16  1  0  0  0  0
 14 28  1  0  0  0  0
 15 29  1  0  0  0  0
 15 30  1  0  0  0  0
 16 17  1  0  0  0  0
 16 31  1  0  0  0  0
 17 18  1  0  0  0  0
 17 32  1  0  0  0  0
 17 33  1  0  0  0  0
 18 34  1  0  0  0  0
M  END
> <s_m_source_file>
AV-unprocessed.smi

> <i_m_source_file_index>
798

> <i_lp_mmshare_version>
43012

> <i_f3d_flags>
0

> <s_epik_input>
W0NIMl0xW0NIMl1bQ0BASF0oW0NIMl0yKVtDQEBIXShbQ0gyXVtPSF0pW0NAQEhdKFtDQEhdMTIpW05IXUMoPU8pW05IXWMzbm5bY0hdczM=

> <s_epik_cmdline>
J2VwaWtfcHl0aG9uJywgJy1waCcsICc3LjAnLCAnLXRuJywgJzgnLCAnLW1hJywgJzIwMCcsICctbWV0YWxfYmluZGluZycsICctaW1hZScsICc8aW5maWxlLm1hZT4nLCAnLW9tYWUnLCAnPG91dGZpbGUubWFlPic=

> <r_lp_tautomer_probability>
1

> <r_epik_Ionization_Penalty>
0.000329046

> <r_epik_Ionization_Penalty_Charging>
0

> <r_epik_Ionization_Penalty_Neutral>
0.000329046

> <r_epik_State_Penalty>
-0

> <r_epik_Charging_Adjusted_Penalty>
0

> <i_epik_Tot_Q>
0

> <i_epik_Tot_abs_Q>
0

> <r_epik_Metal_State_Penalty>
0.173433

> <b_epik_Metal_Only>
0

> <s_lp_Force_Field>
OPLS_2005

> <r_lp_Energy>
48.6988

> <b_lp_Chiralities_Consistent>
1

> <s_lp_Variant>
AV-unprocessed.smi:798-7

> <Gold.Version>
5.8.1

> <Gold.Id.Protein>
6NUR|6NUR_protein|mol2

> <Gold.PLP.Fitness>
43.5388

> <Gold.PLP.PLP>
-32.9411

> <Gold.PLP.part.hbond>
-5.2904

> <Gold.PLP.part.metal>
0.0000

> <Gold.PLP.part.buried>
-3.0903

> <Gold.PLP.part.nonpolar>
-23.2408

> <Gold.PLP.part.repulsive>
0.1555

> <Gold.PLP.ligand.clash>
0.0000

> <Gold.PLP.ligand.torsion>
0.3117

> <Gold.PLP.Chemscore.Hbond>
3.7364

> <Gold.PLP.Chemscore.CHOScore>
0.0000

> <Gold.PLP.Chemscore.Metal>
0.0000

> <Gold.Chemscore.Hbonds>
donor molecule, donor type, donor heavy atom, donor atom, acceptor molecule, acceptor atom, score
      L1  H     3    19       P1  7948  1.00
      L1  H     9    21       P1  7948  0.88
      L1  H    18    34       P1 10171  1.00
      P1  H 10752 10764       L1     6  0.82

> <Gold.PLP.Chemscore.Internal.Correction>
0.0118

> <Gold.Rescore>
     Score         DG    S(hbond)    S(metal)    S(lipo)     H(rot)  DE(clash)    DE(int)     intcor
     16.33     -17.99       2.82        0.00      68.83       1.94       0.19       1.47       ----

> <Gold.Chemscore.Fitness>
16.3280

> <Gold.Chemscore.DG>
-17.9858

> <Gold.Chemscore.ZeroCoef>
-5.4800

> <Gold.Chemscore.Hbond>
2.8233

> <Gold.Chemscore.Metal>
0.0000

> <Gold.Chemscore.Lipo>
68.8288

> <Gold.Chemscore.Internal_Hbond>
0.0000

> <Gold.Chemscore.DEClash>
0.1917

> <Gold.Chemscore.DEInternal>
1.4660

> <Gold.Chemscore.Rot>
1.9442

> <Gold.Chemscore.Internal.Correction>
   9.000000E+99

> <Gold.Chemscore.Hbonds>
donor molecule, donor type, donor heavy atom, donor atom, acceptor molecule, acceptor atom, score
      L1  H     3    19       P1  7948  0.39
      L1  H     9    21       P1  7948  0.82
      L1  H    18    34       P1 10171  1.00
      P1  H 10752 10764       L1     6  0.19

> <Gold.Chemscore.Hbond.Weighted>
-9.4298

> <Gold.Chemscore.Metal.Weighted>
-0.0000

> <Gold.Chemscore.Lipo.Weighted>
-8.0530

> <Gold.Chemscore.Internal_Hbond.Weighted>
0.0000

> <Gold.Chemscore.DEClash.Weighted>
0.1917

> <Gold.Chemscore.DEInternal.Weighted>
1.4660

> <Gold.Chemscore.Rot.Weighted>
4.9771

> <Gold.Chemscore.Internal.Correction.Weighted>
   9.000000E+99

> <Gold.Protein.RotatedTorsions>
[ 6907 6896 6895 6894 ] final   90.50 input  -60.11 | X-H torsion
[ 7974 7965 7964 7962 ] final   62.09 input  175.53 | X-H torsion
[ 8008 7997 7996 7995 ] final -159.94 input   59.86 | X-H torsion
[ 10167 10162 10161 10158 ] final   16.16 input  -65.29 | X-H torsion
[ 10718 10713 10712 10709 ] final   48.98 input   66.30 | X-H torsion
[ 10763 10752 10751 10750 ] final  -14.28 input  -60.55 | X-H torsion
[ 11005 11000 10999 10996 ] final -108.16 input  -57.11 | X-H torsion

> <Gold.Protein.ActiveResidues>
 VAL166  LYS551  ARG553  GLY616  TRP617  ASP618  TYR619  PRO620  LYS621  CYS622 
 ASP623  PHE694  ASN695  SER759  ASP760  ASP761  ALA762  ILE779  LEU786  VAL792 
 PHE793  MET794  SER795  GLU796  ALA797  LYS798  CYS799  TRP800  GLU811  SER814 

> <Gold.Protein.RotatedAtoms>
  152.5445  134.1802  159.8632 H   0  0  0  0  0  0  0  0  0  0  0  0  # atno 6907 bound_to 6896
  151.1805  133.4721  159.2601 H   0  0  0  0  0  0  0  0  0  0  0  0  # atno 6908 bound_to 6896
  151.1183  135.0077  159.8582 H   0  0  0  0  0  0  0  0  0  0  0  0  # atno 6909 bound_to 6896
  145.8773  139.3419  143.0727 H   0  0  0  0  0  0  0  0  0  0  0  0  # atno 7974 bound_to 7965
  155.7700  140.0850  157.2113 H   0  0  0  0  0  0  0  0  0  0  0  0  # atno 8008 bound_to 7997
  154.3997  140.1527  156.2988 H   0  0  0  0  0  0  0  0  0  0  0  0  # atno 8009 bound_to 7997
  155.8756  140.3423  155.5854 H   0  0  0  0  0  0  0  0  0  0  0  0  # atno 8010 bound_to 7997
  140.5817  143.8968  150.6795 H   0  0  0  0  0  0  0  0  0  0  0  0  # atno 10167 bound_to 10162
  157.4741  130.8274  149.8020 H   0  0  0  0  0  0  0  0  0  0  0  0  # atno 10718 bound_to 10713
  153.5258  135.7015  153.5708 H   0  0  0  0  0  0  0  0  0  0  0  0  # atno 10763 bound_to 10752
  153.3737  135.3938  155.1807 H   0  0  0  0  0  0  0  0  0  0  0  0  # atno 10764 bound_to 10752
  154.8690  135.3818  154.4751 H   0  0  0  0  0  0  0  0  0  0  0  0  # atno 10765 bound_to 10752
  141.0916  133.9044  157.2061 H   0  0  0  0  0  0  0  0  0  0  0  0  # atno 11005 bound_to 11000
  145.9065  140.9208  143.0476 LP  0  0  0  0  0  0  0  0  0  0  0  0  # atno 17320 bound_to 7965
  144.6726  140.1103  143.7456 LP  0  0  0  0  0  0  0  0  0  0  0  0  # atno 17321 bound_to 7965
  140.2469  143.3622  152.1439 LP  0  0  0  0  0  0  0  0  0  0  0  0  # atno 17342 bound_to 10162
  139.5173  144.6990  151.5547 LP  0  0  0  0  0  0  0  0  0  0  0  0  # atno 17343 bound_to 10162
  156.0088  130.3843  150.2337 LP  0  0  0  0  0  0  0  0  0  0  0  0  # atno 17370 bound_to 10713
  157.0521  131.0065  151.3250 LP  0  0  0  0  0  0  0  0  0  0  0  0  # atno 17371 bound_to 10713
  139.9744  135.0118  156.9593 LP  0  0  0  0  0  0  0  0  0  0  0  0  # atno 17394 bound_to 11000
  140.5238  134.0881  155.7298 LP  0  0  0  0  0  0  0  0  0  0  0  0  # atno 17395 bound_to 11000

$$$$
