AV-unprocessed.smi:910|AV-procd|sdf|4134|dock4
  -GOLD-   22720 2 43D 1   1.00000     0.00000
 Structure written by MMmdl.
 45 46  0  0  0  0  0  0  0  0  2 V2000
  147.0425  136.0170  162.5458 C   0  0  0  0  0  0  0  0  0  0  0  0
  147.8474  135.7953  161.3044 C   0  0  0  0  0  0  0  0  0  0  0  0
  148.3355  136.8468  160.5446 N   0  0  0  0  0  0  0  0  0  0  0  0
  149.0031  136.2858  159.5343 C   0  0  0  0  0  0  0  0  0  0  0  0
  149.6503  136.9367  158.5546 N   0  5  0  0  0  0  0  0  0  0  0  0
  149.4650  138.2672  158.4047 C   0  0  0  0  0  0  0  0  0  0  0  0
  148.4102  138.8811  158.5835 O   0  0  0  0  0  0  0  0  0  0  0  0
  150.5620  138.9230  157.9982 N   0  0  0  0  0  0  0  0  0  0  0  0
  150.6229  140.3299  157.6138 C   0  0  0  0  0  0  0  0  0  0  0  0
  151.8782  141.0031  158.1900 C   0  0  0  0  0  0  0  0  0  0  0  0
  151.4983  142.1961  158.8587 O   0  0  0  0  0  0  0  0  0  0  0  0
  152.5629  143.0907  159.1550 C   0  0  2  0  0  0  0  0  0  0  0  0
  153.6062  142.3040  159.9698 C   0  0  0  0  0  0  0  0  0  0  0  0
  153.0574  141.8762  161.3422 C   0  0  0  0  0  0  0  0  0  0  0  0
  152.5364  143.0832  162.1363 C   0  0  0  0  0  0  0  0  0  0  0  0
  151.4891  143.8704  161.3333 C   0  0  0  0  0  0  0  0  0  0  0  0
  152.0385  144.3061  159.9598 C   0  0  2  0  0  0  0  0  0  0  0  0
  151.0138  145.1467  159.1835 C   0  0  0  0  0  0  0  0  0  0  0  0
  148.9639  134.9241  159.5862 O   0  0  0  0  0  0  0  0  0  0  0  0
  148.2363  134.6270  160.7061 C   0  0  0  0  0  0  0  0  0  0  0  0
  148.0226  133.1899  161.0399 C   0  0  0  0  0  0  0  0  0  0  0  0
  145.9874  136.1534  162.3086 H   0  0  0  0  0  0  0  0  0  0  0  0
  147.3799  136.9036  163.0832 H   0  0  0  0  0  0  0  0  0  0  0  0
  147.1227  135.1693  163.2264 H   0  0  0  0  0  0  0  0  0  0  0  0
  151.4042  138.3806  157.8747 H   0  0  0  0  0  0  0  0  0  0  0  0
  150.5817  140.4462  156.5298 H   0  0  0  0  0  0  0  0  0  0  0  0
  149.7338  140.8191  158.0114 H   0  0  0  0  0  0  0  0  0  0  0  0
  152.3706  140.3386  158.9007 H   0  0  0  0  0  0  0  0  0  0  0  0
  152.5905  141.2069  157.3896 H   0  0  0  0  0  0  0  0  0  0  0  0
  153.0421  143.4374  158.2371 H   0  0  0  0  0  0  0  0  0  0  0  0
  153.9307  141.4264  159.4101 H   0  0  0  0  0  0  0  0  0  0  0  0
  154.4934  142.9218  160.1133 H   0  0  0  0  0  0  0  0  0  0  0  0
  152.2508  141.1545  161.2064 H   0  0  0  0  0  0  0  0  0  0  0  0
  153.8350  141.3651  161.9099 H   0  0  0  0  0  0  0  0  0  0  0  0
  152.1046  142.7488  163.0800 H   0  0  0  0  0  0  0  0  0  0  0  0
  153.3690  143.7394  162.3922 H   0  0  0  0  0  0  0  0  0  0  0  0
  150.5964  143.2586  161.1996 H   0  0  0  0  0  0  0  0  0  0  0  0
  151.1748  144.7445  161.9045 H   0  0  0  0  0  0  0  0  0  0  0  0
  152.8937  144.9574  160.1465 H   0  0  0  0  0  0  0  0  0  0  0  0
  150.0964  144.5880  158.9987 H   0  0  0  0  0  0  0  0  0  0  0  0
  151.4134  145.4661  158.2209 H   0  0  0  0  0  0  0  0  0  0  0  0
  150.7420  146.0429  159.7414 H   0  0  0  0  0  0  0  0  0  0  0  0
  148.5915  132.9128  161.9272 H   0  0  0  0  0  0  0  0  0  0  0  0
  148.3396  132.5455  160.2197 H   0  0  0  0  0  0  0  0  0  0  0  0
  146.9690  132.9924  161.2369 H   0  0  0  0  0  0  0  0  0  0  0  0
  1 22  1  0  0  0  0
  1 23  1  0  0  0  0
  1 24  1  0  0  0  0
  1  2  1  0  0  0  0
  2  3  1  0  0  0  0
  2 20  2  0  0  0  0
  3  4  2  0  0  0  0
  4 19  1  0  0  0  0
  4  5  1  0  0  0  0
  5  6  1  0  0  0  0
  6  8  1  0  0  0  0
  6  7  2  0  0  0  0
  8  9  1  0  0  0  0
  8 25  1  0  0  0  0
  9 10  1  0  0  0  0
  9 26  1  0  0  0  0
  9 27  1  0  0  0  0
 10 11  1  0  0  0  0
 10 28  1  0  0  0  0
 10 29  1  0  0  0  0
 11 12  1  0  0  0  0
 12 17  1  0  0  0  0
 12 13  1  0  0  0  0
 12 30  1  0  0  0  0
 13 14  1  0  0  0  0
 13 31  1  0  0  0  0
 13 32  1  0  0  0  0
 14 15  1  0  0  0  0
 14 33  1  0  0  0  0
 14 34  1  0  0  0  0
 15 16  1  0  0  0  0
 15 35  1  0  0  0  0
 15 36  1  0  0  0  0
 16 17  1  0  0  0  0
 16 37  1  0  0  0  0
 16 38  1  0  0  0  0
 17 18  1  0  0  0  0
 17 39  1  0  0  0  0
 18 40  1  0  0  0  0
 18 41  1  0  0  0  0
 18 42  1  0  0  0  0
 19 20  1  0  0  0  0
 20 21  1  0  0  0  0
 21 43  1  0  0  0  0
 21 44  1  0  0  0  0
 21 45  1  0  0  0  0
M  CHG  1   5  -1
M  END
> <s_m_source_file>
AV-unprocessed.smi

> <i_m_source_file_index>
910

> <i_lp_mmshare_version>
43012

> <i_f3d_flags>
0

> <s_epik_input>
W0NIM11jMW5jKG9jMVtDSDNdKVtOSF1DKD1PKVtOSF1bQ0gyXVtDSDJdT1tDQEBIXTJbQ0gyXVtDSDJdW0NIMl1bQ0gyXVtDQEhdMltDSDNd

> <s_epik_cmdline>
J2VwaWtfcHl0aG9uJywgJy1waCcsICc3LjAnLCAnLXRuJywgJzgnLCAnLW1hJywgJzIwMCcsICctbWV0YWxfYmluZGluZycsICctaW1hZScsICc8aW5maWxlLm1hZT4nLCAnLW9tYWUnLCAnPG91dGZpbGUubWFlPic=

> <r_lp_tautomer_probability>
0.107061

> <r_epik_Ionization_Penalty>
10.1763

> <r_epik_Ionization_Penalty_Charging>
7.13067

> <r_epik_Ionization_Penalty_Neutral>
3.04564

> <r_epik_State_Penalty>
5.57927

> <r_epik_Charging_Adjusted_Penalty>
12.7099

> <i_epik_Tot_Q>
-1

> <i_epik_Tot_abs_Q>
1

> <r_epik_Metal_State_Penalty>
1.52303

> <b_epik_Metal_Only>
1

> <s_lp_Force_Field>
OPLS_2005

> <r_lp_Energy>
5.26856

> <b_lp_Chiralities_Consistent>
1

> <s_lp_Variant>
AV-unprocessed.smi:910-19

> <Gold.Version>
5.8.1

> <Gold.Id.Protein>
6NUR|6NUR_protein|mol2

> <Gold.PLP.Fitness>
53.5065

> <Gold.PLP.PLP>
-48.0071

> <Gold.PLP.part.hbond>
-4.0000

> <Gold.PLP.part.metal>
0.0000

> <Gold.PLP.part.buried>
-5.6925

> <Gold.PLP.part.nonpolar>
-38.7774

> <Gold.PLP.part.repulsive>
0.0878

> <Gold.PLP.ligand.clash>
0.0000

> <Gold.PLP.ligand.torsion>
0.8165

> <Gold.PLP.Chemscore.Hbond>
2.3406

> <Gold.PLP.Chemscore.CHOScore>
0.0000

> <Gold.PLP.Chemscore.Metal>
0.0000

> <Gold.Chemscore.Hbonds>
donor molecule, donor type, donor heavy atom, donor atom, acceptor molecule, acceptor atom, score
      P1  H  6896  6907       L1    19  1.00
      P1  H  6931  6943       L1     3  0.82

> <Gold.PLP.Chemscore.Internal.Correction>
0.1106

> <Gold.Rescore>
     Score         DG    S(hbond)    S(metal)    S(lipo)     H(rot)  DE(clash)    DE(int)     intcor
     17.31     -19.64       1.15        0.00     123.70       1.62       0.02       2.31       ----

> <Gold.Chemscore.Fitness>
17.3138

> <Gold.Chemscore.DG>
-19.6420

> <Gold.Chemscore.ZeroCoef>
-5.4800

> <Gold.Chemscore.Hbond>
1.1463

> <Gold.Chemscore.Metal>
0.0000

> <Gold.Chemscore.Lipo>
123.6989

> <Gold.Chemscore.Internal_Hbond>
0.0000

> <Gold.Chemscore.DEClash>
0.0196

> <Gold.Chemscore.DEInternal>
2.3086

> <Gold.Chemscore.Rot>
1.6169

> <Gold.Chemscore.Internal.Correction>
   9.000000E+99

> <Gold.Chemscore.Hbonds>
donor molecule, donor type, donor heavy atom, donor atom, acceptor molecule, acceptor atom, score
      P1  H  6896  6907       L1    19  0.24
      P1  H  6931  6943       L1     3  0.42
      P1  H  6934  6947       L1     3  0.01

> <Gold.Chemscore.Hbond.Weighted>
-3.8285

> <Gold.Chemscore.Metal.Weighted>
-0.0000

> <Gold.Chemscore.Lipo.Weighted>
-14.4728

> <Gold.Chemscore.Internal_Hbond.Weighted>
0.0000

> <Gold.Chemscore.DEClash.Weighted>
0.0196

> <Gold.Chemscore.DEInternal.Weighted>
2.3086

> <Gold.Chemscore.Rot.Weighted>
4.1393

> <Gold.Chemscore.Internal.Correction.Weighted>
   9.000000E+99

> <Gold.Protein.RotatedTorsions>
[ 6907 6896 6895 6894 ] final  -69.43 input  -60.11 | X-H torsion
[ 7974 7965 7964 7962 ] final -144.77 input  175.53 | X-H torsion
[ 8008 7997 7996 7995 ] final  138.00 input   59.86 | X-H torsion
[ 10167 10162 10161 10158 ] final -119.30 input  -65.29 | X-H torsion
[ 10718 10713 10712 10709 ] final  -61.71 input   66.30 | X-H torsion
[ 10763 10752 10751 10750 ] final  157.09 input  -60.55 | X-H torsion
[ 11005 11000 10999 10996 ] final -174.92 input  -57.11 | X-H torsion

> <Gold.Protein.ActiveResidues>
 VAL166  LYS551  ARG553  GLY616  TRP617  ASP618  TYR619  PRO620  LYS621  CYS622 
 ASP623  PHE694  ASN695  SER759  ASP760  ASP761  ALA762  ILE779  LEU786  VAL792 
 PHE793  MET794  SER795  GLU796  ALA797  LYS798  CYS799  TRP800  GLU811  SER814 

> <Gold.Protein.RotatedAtoms>
  150.7306  134.5597  159.5835 H   0  0  0  0  0  0  0  0  0  0  0  0  # atno 6907 bound_to 6896
  152.3064  134.7547  160.0355 H   0  0  0  0  0  0  0  0  0  0  0  0  # atno 6908 bound_to 6896
  151.8110  133.3346  159.3592 H   0  0  0  0  0  0  0  0  0  0  0  0  # atno 6909 bound_to 6896
  144.8274  140.5668  143.5538 H   0  0  0  0  0  0  0  0  0  0  0  0  # atno 7974 bound_to 7965
  156.3000  140.2405  156.4001 H   0  0  0  0  0  0  0  0  0  0  0  0  # atno 8008 bound_to 7997
  154.8535  140.0423  157.1639 H   0  0  0  0  0  0  0  0  0  0  0  0  # atno 8009 bound_to 7997
  154.8973  140.2972  155.5341 H   0  0  0  0  0  0  0  0  0  0  0  0  # atno 8010 bound_to 7997
  140.0482  143.5086  152.2095 H   0  0  0  0  0  0  0  0  0  0  0  0  # atno 10167 bound_to 10162
  156.0903  130.4201  150.1032 H   0  0  0  0  0  0  0  0  0  0  0  0  # atno 10718 bound_to 10713
  154.1947  135.2793  155.3010 H   0  0  0  0  0  0  0  0  0  0  0  0  # atno 10763 bound_to 10752
  154.5901  135.5562  153.7273 H   0  0  0  0  0  0  0  0  0  0  0  0  # atno 10764 bound_to 10752
  153.0103  135.6366  154.2086 H   0  0  0  0  0  0  0  0  0  0  0  0  # atno 10765 bound_to 10752
  140.4691  134.6182  157.4875 H   0  0  0  0  0  0  0  0  0  0  0  0  # atno 11005 bound_to 11000
  145.4970  139.1485  143.3678 LP  0  0  0  0  0  0  0  0  0  0  0  0  # atno 17320 bound_to 7965
  146.2579  140.5109  142.8866 LP  0  0  0  0  0  0  0  0  0  0  0  0  # atno 17321 bound_to 7965
  139.5970  144.7570  151.3262 LP  0  0  0  0  0  0  0  0  0  0  0  0  # atno 17342 bound_to 10162
  140.7229  143.7085  150.7788 LP  0  0  0  0  0  0  0  0  0  0  0  0  # atno 17343 bound_to 10162
  156.9044  130.9631  151.3572 LP  0  0  0  0  0  0  0  0  0  0  0  0  # atno 17370 bound_to 10713
  157.6051  130.8541  149.8862 LP  0  0  0  0  0  0  0  0  0  0  0  0  # atno 17371 bound_to 10713
  139.9896  134.7006  155.9712 LP  0  0  0  0  0  0  0  0  0  0  0  0  # atno 17394 bound_to 11000
  141.1585  133.6540  156.4241 LP  0  0  0  0  0  0  0  0  0  0  0  0  # atno 17395 bound_to 11000

$$$$
