AV-unprocessed.smi:3018|AV-procd|sdf|11484|dock5
  -GOLD-   2272016423D 1   1.00000     0.00000
 Structure written by MMmdl.
 44 45  0  0  0  0  0  0  0  0  2 V2000
  151.4877  138.4872  155.3514 C   0  0  0  0  0  0  0  0  0  0  0  0
  151.1479  139.4315  156.5112 C   0  0  0  0  0  0  0  0  0  0  0  0
  151.7136  138.9457  157.8586 C   0  0  1  0  0  0  0  0  0  0  0  0
  151.4698  139.9616  158.8301 O   0  0  0  0  0  0  0  0  0  0  0  0
  152.0001  141.2531  158.5435 C   0  0  0  0  0  0  0  0  0  0  0  0
  152.8643  141.6747  159.7442 C   0  0  0  0  0  0  0  0  0  0  0  0
  153.4091  143.1019  159.5706 C   0  0  0  0  0  0  0  0  0  0  0  0
  152.2696  144.1072  159.3398 C   0  0  0  0  0  0  0  0  0  0  0  0
  151.3960  143.6913  158.1456 C   0  0  0  0  0  0  0  0  0  0  0  0
  150.8554  142.2626  158.3199 C   0  0  0  0  0  0  0  0  0  0  0  0
  151.0430  137.6363  158.3008 C   0  0  0  0  0  0  0  0  0  0  0  0
  151.7272  136.6417  158.5418 O   0  0  0  0  0  0  0  0  0  0  0  0
  149.7044  137.6579  158.3989 N   0  0  0  0  0  0  0  0  0  0  0  0
  148.8671  136.5544  158.8635 C   0  0  0  0  0  0  0  0  0  0  0  0
  149.4372  135.8928  160.1345 C   0  0  0  0  0  0  0  0  0  0  0  0
  148.4751  135.9341  161.2939 C   0  0  0  0  0  0  0  0  0  0  0  0
  148.0211  134.9224  161.9353 N   0  0  0  0  0  0  0  0  0  0  0  0
  147.2046  135.4823  162.8425 N   0  0  0  0  0  0  0  0  0  0  0  0
  147.1830  136.8129  162.7366 C   0  0  0  0  0  0  0  0  0  0  0  0
  146.5089  137.5413  163.4617 O   0  0  0  0  0  0  0  0  0  0  0  0
  148.0124  137.1362  161.7285 N   0  5  0  0  0  0  0  0  0  0  0  0
  146.6973  134.9044  163.4964 H   0  0  0  0  0  0  0  0  0  0  0  0
  151.0614  138.8522  154.4168 H   0  0  0  0  0  0  0  0  0  0  0  0
  151.0917  137.4871  155.5293 H   0  0  0  0  0  0  0  0  0  0  0  0
  152.5660  138.4019  155.2141 H   0  0  0  0  0  0  0  0  0  0  0  0
  151.5242  140.4303  156.2852 H   0  0  0  0  0  0  0  0  0  0  0  0
  150.0625  139.5219  156.5797 H   0  0  0  0  0  0  0  0  0  0  0  0
  152.7854  138.7805  157.7401 H   0  0  0  0  0  0  0  0  0  0  0  0
  152.6399  141.2269  157.6605 H   0  0  0  0  0  0  0  0  0  0  0  0
  152.2739  141.6195  160.6599 H   0  0  0  0  0  0  0  0  0  0  0  0
  153.6920  140.9753  159.8678 H   0  0  0  0  0  0  0  0  0  0  0  0
  153.9857  143.3895  160.4500 H   0  0  0  0  0  0  0  0  0  0  0  0
  154.0982  143.1294  158.7253 H   0  0  0  0  0  0  0  0  0  0  0  0
  151.6534  144.1727  160.2373 H   0  0  0  0  0  0  0  0  0  0  0  0
  152.6796  145.1036  159.1725 H   0  0  0  0  0  0  0  0  0  0  0  0
  150.5677  144.3908  158.0304 H   0  0  0  0  0  0  0  0  0  0  0  0
  151.9811  143.7501  157.2270 H   0  0  0  0  0  0  0  0  0  0  0  0
  150.2685  141.9911  157.4429 H   0  0  0  0  0  0  0  0  0  0  0  0
  150.1716  142.2331  159.1693 H   0  0  0  0  0  0  0  0  0  0  0  0
  149.2313  138.5205  158.1739 H   0  0  0  0  0  0  0  0  0  0  0  0
  147.8850  136.9698  159.0895 H   0  0  0  0  0  0  0  0  0  0  0  0
  148.7039  135.8103  158.0816 H   0  0  0  0  0  0  0  0  0  0  0  0
  149.7150  134.8598  159.9215 H   0  0  0  0  0  0  0  0  0  0  0  0
  150.3632  136.3970  160.4139 H   0  0  0  0  0  0  0  0  0  0  0  0
  1  2  1  0  0  0  0
  1 23  1  0  0  0  0
  1 24  1  0  0  0  0
  1 25  1  0  0  0  0
  2  3  1  0  0  0  0
  2 26  1  0  0  0  0
  2 27  1  0  0  0  0
  3  4  1  0  0  0  0
  3 11  1  0  0  0  0
  3 28  1  0  0  0  0
  4  5  1  0  0  0  0
  5 10  1  0  0  0  0
  5  6  1  0  0  0  0
  5 29  1  0  0  0  0
  6  7  1  0  0  0  0
  6 30  1  0  0  0  0
  6 31  1  0  0  0  0
  7  8  1  0  0  0  0
  7 32  1  0  0  0  0
  7 33  1  0  0  0  0
  8  9  1  0  0  0  0
  8 34  1  0  0  0  0
  8 35  1  0  0  0  0
  9 10  1  0  0  0  0
  9 36  1  0  0  0  0
  9 37  1  0  0  0  0
 10 38  1  0  0  0  0
 10 39  1  0  0  0  0
 11 12  2  0  0  0  0
 11 13  1  0  0  0  0
 13 14  1  0  0  0  0
 13 40  1  0  0  0  0
 14 15  1  0  0  0  0
 14 41  1  0  0  0  0
 14 42  1  0  0  0  0
 15 16  1  0  0  0  0
 15 43  1  0  0  0  0
 15 44  1  0  0  0  0
 16 21  1  0  0  0  0
 16 17  2  0  0  0  0
 17 18  1  0  0  0  0
 18 22  1  0  0  0  0
 18 19  1  0  0  0  0
 19 20  2  0  0  0  0
 19 21  1  0  0  0  0
M  CHG  1  21  -1
M  END
> <s_m_source_file>
AV-unprocessed.smi

> <i_m_source_file_index>
3018

> <i_lp_mmshare_version>
43012

> <i_f3d_flags>
0

> <s_epik_input>
W0NIMl0xW0NIMl1bQ0gyXVtDSDJdW0NIMl1bQ0hdMU9bQ0BASF0oW0NIMl1bQ0gzXSlDKD1PKVtOSF1bQ0gyXVtDSDJdYzJuW25IXWMoPU8pW25IXTI=

> <s_epik_cmdline>
J2VwaWtfcHl0aG9uJywgJy1waCcsICc3LjAnLCAnLXRuJywgJzgnLCAnLW1hJywgJzIwMCcsICctbWV0YWxfYmluZGluZycsICctaW1hZScsICc8aW5maWxlLm1hZT4nLCAnLW9tYWUnLCAnPG91dGZpbGUubWFlPic=

> <r_lp_tautomer_probability>
1

> <r_epik_Ionization_Penalty>
13.7173

> <r_epik_Ionization_Penalty_Charging>
13.7173

> <r_epik_Ionization_Penalty_Neutral>
5.37575e-06

> <r_epik_State_Penalty>
4.05785

> <r_epik_Charging_Adjusted_Penalty>
17.7751

> <i_epik_Tot_Q>
-1

> <i_epik_Tot_abs_Q>
1

> <r_epik_Metal_State_Penalty>
0.460256

> <b_epik_Metal_Only>
1

> <s_lp_Force_Field>
OPLS_2005

> <r_lp_Energy>
25.1559

> <b_lp_Chiralities_Consistent>
1

> <s_lp_Variant>
AV-unprocessed.smi:3018-6

> <Gold.Version>
5.8.1

> <Gold.Id.Protein>
6NUR|6NUR_protein|mol2

> <Gold.PLP.Fitness>
46.7821

> <Gold.PLP.PLP>
-36.2823

> <Gold.PLP.part.hbond>
-3.8431

> <Gold.PLP.part.metal>
0.0000

> <Gold.PLP.part.buried>
-4.1149

> <Gold.PLP.part.nonpolar>
-29.8831

> <Gold.PLP.part.repulsive>
0.1939

> <Gold.PLP.ligand.clash>
0.0000

> <Gold.PLP.ligand.torsion>
1.2512

> <Gold.PLP.Chemscore.Hbond>
4.2811

> <Gold.PLP.Chemscore.CHOScore>
0.0000

> <Gold.PLP.Chemscore.Metal>
0.0000

> <Gold.Chemscore.Hbonds>
donor molecule, donor type, donor heavy atom, donor atom, acceptor molecule, acceptor atom, score
      P1  H  6896  6909       L1    12  0.60
      P1  H  6931  6943       L1    21  1.95
      P1  H  6934  6947       L1    21  0.69

> <Gold.PLP.Chemscore.Internal.Correction>
0.1588

> <Gold.Rescore>
     Score         DG    S(hbond)    S(metal)    S(lipo)     H(rot)  DE(clash)    DE(int)     intcor
     11.72     -14.30       1.88        0.00      86.89       2.98       0.00       2.58       ----

> <Gold.Chemscore.Fitness>
11.7246

> <Gold.Chemscore.DG>
-14.3037

> <Gold.Chemscore.ZeroCoef>
-5.4800

> <Gold.Chemscore.Hbond>
1.8801

> <Gold.Chemscore.Metal>
0.0000

> <Gold.Chemscore.Lipo>
86.8882

> <Gold.Chemscore.Internal_Hbond>
0.0000

> <Gold.Chemscore.DEClash>
0.0004

> <Gold.Chemscore.DEInternal>
2.5787

> <Gold.Chemscore.Rot>
2.9772

> <Gold.Chemscore.Internal.Correction>
   9.000000E+99

> <Gold.Chemscore.Hbonds>
donor molecule, donor type, donor heavy atom, donor atom, acceptor molecule, acceptor atom, score
      P1  H  6896  6909       L1    12  0.57
      P1  H  6931  6943       L1    21  0.84
      P1  H  6934  6947       L1    21  0.16

> <Gold.Chemscore.Hbond.Weighted>
-6.2794

> <Gold.Chemscore.Metal.Weighted>
-0.0000

> <Gold.Chemscore.Lipo.Weighted>
-10.1659

> <Gold.Chemscore.Internal_Hbond.Weighted>
0.0000

> <Gold.Chemscore.DEClash.Weighted>
0.0004

> <Gold.Chemscore.DEInternal.Weighted>
2.5787

> <Gold.Chemscore.Rot.Weighted>
7.6216

> <Gold.Chemscore.Internal.Correction.Weighted>
   9.000000E+99

> <Gold.Protein.RotatedTorsions>
[ 6907 6896 6895 6894 ] final  101.75 input  -60.11 | X-H torsion
[ 7974 7965 7964 7962 ] final -103.38 input  175.53 | X-H torsion
[ 8008 7997 7996 7995 ] final  -47.08 input   59.86 | X-H torsion
[ 10167 10162 10161 10158 ] final -175.41 input  -65.29 | X-H torsion
[ 10718 10713 10712 10709 ] final   30.80 input   66.30 | X-H torsion
[ 10763 10752 10751 10750 ] final -100.73 input  -60.55 | X-H torsion
[ 11005 11000 10999 10996 ] final -131.14 input  -57.11 | X-H torsion

> <Gold.Protein.ActiveResidues>
 VAL166  LYS551  ARG553  GLY616  TRP617  ASP618  TYR619  PRO620  LYS621  CYS622 
 ASP623  PHE694  ASN695  SER759  ASP760  ASP761  ALA762  ILE779  LEU786  VAL792 
 PHE793  MET794  SER795  GLU796  ALA797  LYS798  CYS799  TRP800  GLU811  SER814 

> <Gold.Protein.RotatedAtoms>
  152.5341  134.0079  159.7924 H   0  0  0  0  0  0  0  0  0  0  0  0  # atno 6907 bound_to 6896
  151.0286  133.5803  159.2670 H   0  0  0  0  0  0  0  0  0  0  0  0  # atno 6908 bound_to 6896
  151.2816  135.0722  159.9225 H   0  0  0  0  0  0  0  0  0  0  0  0  # atno 6909 bound_to 6896
  145.2567  140.9256  143.3064 H   0  0  0  0  0  0  0  0  0  0  0  0  # atno 7974 bound_to 7965
  154.4013  140.1355  156.4116 H   0  0  0  0  0  0  0  0  0  0  0  0  # atno 8008 bound_to 7997
  155.7728  140.3483  155.5236 H   0  0  0  0  0  0  0  0  0  0  0  0  # atno 8009 bound_to 7997
  155.8750  140.0978  157.1515 H   0  0  0  0  0  0  0  0  0  0  0  0  # atno 8010 bound_to 7997
  139.5582  144.1935  152.1196 H   0  0  0  0  0  0  0  0  0  0  0  0  # atno 10167 bound_to 10162
  157.2643  130.7176  149.6470 H   0  0  0  0  0  0  0  0  0  0  0  0  # atno 10718 bound_to 10713
  154.7602  135.4924  153.9451 H   0  0  0  0  0  0  0  0  0  0  0  0  # atno 10763 bound_to 10752
  153.1243  135.6739  153.9291 H   0  0  0  0  0  0  0  0  0  0  0  0  # atno 10764 bound_to 10752
  153.9014  135.3109  155.3427 H   0  0  0  0  0  0  0  0  0  0  0  0  # atno 10765 bound_to 10752
  140.9285  134.1351  157.4255 H   0  0  0  0  0  0  0  0  0  0  0  0  # atno 11005 bound_to 11000
  144.9455  139.4141  143.6428 LP  0  0  0  0  0  0  0  0  0  0  0  0  # atno 17320 bound_to 7965
  146.3287  139.8436  142.8886 LP  0  0  0  0  0  0  0  0  0  0  0  0  # atno 17321 bound_to 7965
  140.1443  144.5173  150.6725 LP  0  0  0  0  0  0  0  0  0  0  0  0  # atno 17342 bound_to 10162
  140.6859  143.2349  151.5262 LP  0  0  0  0  0  0  0  0  0  0  0  0  # atno 17343 bound_to 10162
  155.9663  130.4388  150.5230 LP  0  0  0  0  0  0  0  0  0  0  0  0  # atno 17370 bound_to 10713
  157.3141  131.0669  151.1979 LP  0  0  0  0  0  0  0  0  0  0  0  0  # atno 17371 bound_to 10713
  139.8791  134.9996  156.5967 LP  0  0  0  0  0  0  0  0  0  0  0  0  # atno 17394 bound_to 11000
  140.7894  133.8594  155.8633 LP  0  0  0  0  0  0  0  0  0  0  0  0  # atno 17395 bound_to 11000

$$$$
