AV-unprocessed.smi:3000|AV-procd|sdf|11430|dock3
  -GOLD-   2272016353D 1   1.00000     0.00000
 Structure written by MMmdl.
 44 45  0  0  0  0  0  0  0  0  1 V2000
  152.1548  140.1616  156.9856 C   0  0  0  0  0  0  0  0  0  0  0  0
  151.4532  139.3896  155.9824 N   0  0  0  0  0  0  0  0  0  0  0  0
  151.0928  138.0576  156.0241 C   0  0  0  0  0  0  0  0  0  0  0  0
  150.4534  137.8117  154.8418 C   0  0  0  0  0  0  0  0  0  0  0  0
  149.8824  136.6058  154.3617 N   0  0  0  0  0  0  0  0  0  0  0  0
  149.7915  135.4327  155.0091 C   0  0  0  0  0  0  0  0  0  0  0  0
  150.1871  135.2337  156.1567 O   0  0  0  0  0  0  0  0  0  0  0  0
  149.2128  134.4998  154.2340 N   0  0  0  0  0  0  0  0  0  0  0  0
  148.9099  133.0946  154.5488 C   0  0  2  0  0  0  0  0  0  0  0  0
  148.0371  133.1712  155.8232 C   0  0  0  0  0  0  0  0  0  0  0  0
  150.2287  132.3681  154.9527 C   0  0  0  0  0  0  0  0  0  0  0  0
  150.0606  131.0043  155.2840 O   0  0  0  0  0  0  0  0  0  0  0  0
  148.1302  132.3831  153.3821 C   0  0  0  0  0  0  0  0  0  0  0  0
  147.1296  133.2978  152.6289 C   0  0  0  0  0  0  0  0  0  0  0  0
  146.5027  132.5785  151.4232 C   0  0  0  0  0  0  0  0  0  0  0  0
  145.8117  131.2745  151.8480 C   0  0  0  0  0  0  0  0  0  0  0  0
  146.7825  130.3570  152.6054 C   0  0  0  0  0  0  0  0  0  0  0  0
  147.4071  131.0806  153.8094 C   0  0  0  0  0  0  0  0  0  0  0  0
  150.4637  139.0415  154.1334 C   0  0  0  0  0  0  0  0  0  0  0  0
  151.0692  139.9913  154.8301 N   0  0  0  0  0  0  0  0  0  0  0  0
  152.5205  139.5039  157.7748 H   0  0  0  0  0  0  0  0  0  0  0  0
  151.4789  140.8979  157.4212 H   0  0  0  0  0  0  0  0  0  0  0  0
  153.0029  140.6765  156.5327 H   0  0  0  0  0  0  0  0  0  0  0  0
  151.3213  137.4269  156.8706 H   0  0  0  0  0  0  0  0  0  0  0  0
  149.5093  136.6389  153.4244 H   0  0  0  0  0  0  0  0  0  0  0  0
  148.9388  134.7974  153.3093 H   0  0  0  0  0  0  0  0  0  0  0  0
  147.7653  132.1846  156.1971 H   0  0  0  0  0  0  0  0  0  0  0  0
  147.1143  133.7275  155.6594 H   0  0  0  0  0  0  0  0  0  0  0  0
  148.5687  133.6744  156.6322 H   0  0  0  0  0  0  0  0  0  0  0  0
  150.9814  132.4555  154.1678 H   0  0  0  0  0  0  0  0  0  0  0  0
  150.6608  132.8418  155.8349 H   0  0  0  0  0  0  0  0  0  0  0  0
  149.3005  130.9201  155.8388 H   0  0  0  0  0  0  0  0  0  0  0  0
  148.8672  132.0824  152.6377 H   0  0  0  0  0  0  0  0  0  0  0  0
  146.3329  133.6209  153.2987 H   0  0  0  0  0  0  0  0  0  0  0  0
  147.6199  134.2038  152.2738 H   0  0  0  0  0  0  0  0  0  0  0  0
  145.7844  133.2353  150.9319 H   0  0  0  0  0  0  0  0  0  0  0  0
  147.2761  132.3608  150.6854 H   0  0  0  0  0  0  0  0  0  0  0  0
  144.9564  131.5052  152.4843 H   0  0  0  0  0  0  0  0  0  0  0  0
  145.4170  130.7590  150.9721 H   0  0  0  0  0  0  0  0  0  0  0  0
  146.2589  129.4616  152.9413 H   0  0  0  0  0  0  0  0  0  0  0  0
  147.5709  130.0192  151.9315 H   0  0  0  0  0  0  0  0  0  0  0  0
  148.0964  130.4004  154.3083 H   0  0  0  0  0  0  0  0  0  0  0  0
  146.6184  131.3021  154.5280 H   0  0  0  0  0  0  0  0  0  0  0  0
  150.0605  139.2727  153.1584 H   0  0  0  0  0  0  0  0  0  0  0  0
  1  2  1  0  0  0  0
  1 21  1  0  0  0  0
  1 22  1  0  0  0  0
  1 23  1  0  0  0  0
  2 20  1  0  0  0  0
  2  3  1  0  0  0  0
  3  4  2  0  0  0  0
  3 24  1  0  0  0  0
  4  5  1  0  0  0  0
  4 19  1  0  0  0  0
  5  6  1  0  0  0  0
  5 25  1  0  0  0  0
  6  7  2  0  0  0  0
  6  8  1  0  0  0  0
  8  9  1  0  0  0  0
  8 26  1  0  0  0  0
  9 10  1  0  0  0  0
  9 11  1  0  0  0  0
  9 13  1  0  0  0  0
 10 27  1  0  0  0  0
 10 28  1  0  0  0  0
 10 29  1  0  0  0  0
 11 12  1  0  0  0  0
 11 30  1  0  0  0  0
 11 31  1  0  0  0  0
 12 32  1  0  0  0  0
 13 18  1  0  0  0  0
 13 14  1  0  0  0  0
 13 33  1  0  0  0  0
 14 15  1  0  0  0  0
 14 34  1  0  0  0  0
 14 35  1  0  0  0  0
 15 16  1  0  0  0  0
 15 36  1  0  0  0  0
 15 37  1  0  0  0  0
 16 17  1  0  0  0  0
 16 38  1  0  0  0  0
 16 39  1  0  0  0  0
 17 18  1  0  0  0  0
 17 40  1  0  0  0  0
 17 41  1  0  0  0  0
 18 42  1  0  0  0  0
 18 43  1  0  0  0  0
 19 20  2  0  0  0  0
 19 44  1  0  0  0  0
M  END
> <s_m_source_file>
AV-unprocessed.smi

> <i_m_source_file_index>
3000

> <i_lp_mmshare_version>
43012

> <i_f3d_flags>
0

> <s_epik_input>
W0NIM11uMVtjSF1jKFtjSF1uMSlbTkhdQyg9TylbTkhdW0NAQF0oW0NIM10pKFtDSDJdW09IXSlbQ0hdMltDSDJdW0NIMl1bQ0gyXVtDSDJdW0NIMl0y

> <s_epik_cmdline>
J2VwaWtfcHl0aG9uJywgJy1waCcsICc3LjAnLCAnLXRuJywgJzgnLCAnLW1hJywgJzIwMCcsICctbWV0YWxfYmluZGluZycsICctaW1hZScsICc8aW5maWxlLm1hZT4nLCAnLW9tYWUnLCAnPG91dGZpbGUubWFlPic=

> <r_lp_tautomer_probability>
1

> <r_epik_Ionization_Penalty>
0.000189471

> <r_epik_Ionization_Penalty_Charging>
0

> <r_epik_Ionization_Penalty_Neutral>
0.000189471

> <r_epik_State_Penalty>
-0

> <r_epik_Charging_Adjusted_Penalty>
0

> <i_epik_Tot_Q>
0

> <i_epik_Tot_abs_Q>
0

> <r_epik_Metal_State_Penalty>
-0

> <b_epik_Metal_Only>
0

> <s_lp_Force_Field>
OPLS_2005

> <r_lp_Energy>
23.0127

> <b_lp_Chiralities_Consistent>
1

> <s_lp_Variant>
AV-unprocessed.smi:3000-2

> <Gold.Version>
5.8.1

> <Gold.Id.Protein>
6NUR|6NUR_protein|mol2

> <Gold.PLP.Fitness>
41.9097

> <Gold.PLP.PLP>
-31.5803

> <Gold.PLP.part.hbond>
-3.4438

> <Gold.PLP.part.metal>
0.0000

> <Gold.PLP.part.buried>
-2.5700

> <Gold.PLP.part.nonpolar>
-24.5046

> <Gold.PLP.part.repulsive>
0.1481

> <Gold.PLP.ligand.clash>
0.0000

> <Gold.PLP.ligand.torsion>
0.5478

> <Gold.PLP.Chemscore.Hbond>
2.7772

> <Gold.PLP.Chemscore.CHOScore>
1.0000

> <Gold.PLP.Chemscore.Metal>
0.0000

> <Gold.Chemscore.Hbonds>
donor molecule, donor type, donor heavy atom, donor atom, acceptor molecule, acceptor atom, score
      L1  H     5    25       P1  7948  1.00
      L1  H     8    26       P1  7948  0.94
      P1  H  7989  7998       L1    20  0.80
      L1  C    19    44       P1  7957  1.00

> <Gold.PLP.Chemscore.Internal.Correction>
0.0935

> <Gold.Rescore>
     Score         DG    S(hbond)    S(metal)    S(lipo)     H(rot)  DE(clash)    DE(int)     intcor
     11.22     -14.29       1.63        0.00      72.84       2.02       0.02       3.05       ----

> <Gold.Chemscore.Fitness>
11.2208

> <Gold.Chemscore.DG>
-14.2925

> <Gold.Chemscore.ZeroCoef>
-5.4800

> <Gold.Chemscore.Hbond>
1.6323

> <Gold.Chemscore.Metal>
0.0000

> <Gold.Chemscore.Lipo>
72.8438

> <Gold.Chemscore.Internal_Hbond>
0.0000

> <Gold.Chemscore.DEClash>
0.0207

> <Gold.Chemscore.DEInternal>
3.0510

> <Gold.Chemscore.Rot>
2.0165

> <Gold.Chemscore.Internal.Correction>
   9.000000E+99

> <Gold.Chemscore.Hbonds>
donor molecule, donor type, donor heavy atom, donor atom, acceptor molecule, acceptor atom, score
      L1  H     5    25       P1  7948  0.74
      L1  H     8    26       P1  7948  0.19
      P1  H  7989  7998       L1    20  0.12

> <Gold.Chemscore.Hbond.Weighted>
-5.4520

> <Gold.Chemscore.Metal.Weighted>
-0.0000

> <Gold.Chemscore.Lipo.Weighted>
-8.5227

> <Gold.Chemscore.Internal_Hbond.Weighted>
0.0000

> <Gold.Chemscore.DEClash.Weighted>
0.0207

> <Gold.Chemscore.DEInternal.Weighted>
3.0510

> <Gold.Chemscore.Rot.Weighted>
5.1622

> <Gold.Chemscore.Internal.Correction.Weighted>
   9.000000E+99

> <Gold.Protein.RotatedTorsions>
[ 6907 6896 6895 6894 ] final  -58.00 input  -60.11 | X-H torsion
[ 7974 7965 7964 7962 ] final -149.48 input  175.53 | X-H torsion
[ 8008 7997 7996 7995 ] final    0.23 input   59.86 | X-H torsion
[ 10167 10162 10161 10158 ] final  -97.43 input  -65.29 | X-H torsion
[ 10718 10713 10712 10709 ] final -125.56 input   66.30 | X-H torsion
[ 10763 10752 10751 10750 ] final  162.90 input  -60.55 | X-H torsion
[ 11005 11000 10999 10996 ] final  -50.55 input  -57.11 | X-H torsion

> <Gold.Protein.ActiveResidues>
 VAL166  LYS551  ARG553  GLY616  TRP617  ASP618  TYR619  PRO620  LYS621  CYS622 
 ASP623  PHE694  ASN695  SER759  ASP760  ASP761  ALA762  ILE779  LEU786  VAL792 
 PHE793  MET794  SER795  GLU796  ALA797  LYS798  CYS799  TRP800  GLU811  SER814 

> <Gold.Protein.RotatedAtoms>
  150.8041  134.7155  159.6627 H   0  0  0  0  0  0  0  0  0  0  0  0  # atno 6907 bound_to 6896
  152.4160  134.6038  160.0017 H   0  0  0  0  0  0  0  0  0  0  0  0  # atno 6908 bound_to 6896
  151.6267  133.3298  159.3136 H   0  0  0  0  0  0  0  0  0  0  0  0  # atno 6909 bound_to 6896
  144.7965  140.5059  143.5736 H   0  0  0  0  0  0  0  0  0  0  0  0  # atno 7974 bound_to 7965
  154.6657  140.2600  155.7060 H   0  0  0  0  0  0  0  0  0  0  0  0  # atno 8008 bound_to 7997
  156.2638  140.2839  156.1069 H   0  0  0  0  0  0  0  0  0  0  0  0  # atno 8009 bound_to 7997
  155.1242  140.0377  157.2748 H   0  0  0  0  0  0  0  0  0  0  0  0  # atno 8010 bound_to 7997
  140.2834  143.3267  152.0418 H   0  0  0  0  0  0  0  0  0  0  0  0  # atno 10167 bound_to 10162
  156.1686  130.6652  151.0149 H   0  0  0  0  0  0  0  0  0  0  0  0  # atno 10718 bound_to 10713
  154.2854  135.2762  155.2678 H   0  0  0  0  0  0  0  0  0  0  0  0  # atno 10763 bound_to 10752
  154.5181  135.5764  153.6662 H   0  0  0  0  0  0  0  0  0  0  0  0  # atno 10764 bound_to 10752
  152.9922  135.6197  154.3016 H   0  0  0  0  0  0  0  0  0  0  0  0  # atno 10765 bound_to 10752
  141.0822  133.6650  156.3748 H   0  0  0  0  0  0  0  0  0  0  0  0  # atno 11005 bound_to 11000
  145.5660  139.1481  143.3315 LP  0  0  0  0  0  0  0  0  0  0  0  0  # atno 17320 bound_to 7965
  146.2235  140.5795  142.9007 LP  0  0  0  0  0  0  0  0  0  0  0  0  # atno 17321 bound_to 7965
  139.4956  144.6575  151.6539 LP  0  0  0  0  0  0  0  0  0  0  0  0  # atno 17342 bound_to 10162
  140.5792  143.9975  150.6259 LP  0  0  0  0  0  0  0  0  0  0  0  0  # atno 17343 bound_to 10162
  157.6786  131.0844  150.7428 LP  0  0  0  0  0  0  0  0  0  0  0  0  # atno 17370 bound_to 10713
  156.7488  130.4762  149.5461 LP  0  0  0  0  0  0  0  0  0  0  0  0  # atno 17371 bound_to 10713
  140.5443  134.6090  157.5389 LP  0  0  0  0  0  0  0  0  0  0  0  0  # atno 17394 bound_to 11000
  139.9637  134.7409  156.0183 LP  0  0  0  0  0  0  0  0  0  0  0  0  # atno 17395 bound_to 11000

$$$$
