AV-unprocessed.smi:193|AV-procd|sdf|1500|dock10
  -GOLD-   2262019323D 1   1.00000     0.00000
 Structure written by MMmdl.
 62 66  0  0  0  0  0  0  0  0  2 V2000
  153.2120  139.9200  160.0423 C   0  0  0  0  0  0  0  0  0  0  0  0
  152.2512  140.7782  159.2035 C   0  0  2  0  0  0  0  0  0  0  0  0
  152.1340  140.1804  157.7855 C   0  0  0  0  0  0  0  0  0  0  0  0
  150.9124  140.5550  157.0693 N   0  0  0  0  0  0  0  0  0  0  0  0
  150.5664  139.8274  155.9747 C   0  0  0  0  0  0  0  0  0  0  0  0
  151.3436  138.7735  155.6088 N   0  0  0  0  0  0  0  0  0  0  0  0
  151.0387  138.0510  154.5270 C   0  0  0  0  0  0  0  0  0  0  0  0
  150.0182  138.2046  153.6820 N   0  0  0  0  0  0  0  0  0  0  0  0
  149.2266  139.2530  154.0472 C   0  0  0  0  0  0  0  0  0  0  0  0
  149.4215  140.1045  155.1718 C   0  0  0  0  0  0  0  0  0  0  0  0
  148.3975  141.0434  155.2341 N   0  0  0  0  0  0  0  0  0  0  0  0
  147.6505  140.7718  154.1993 C   0  0  0  0  0  0  0  0  0  0  0  0
  148.0838  139.7213  153.4225 N   0  0  0  0  0  0  0  0  0  0  0  0
  147.4530  139.2159  152.2125 C   0  0  0  0  0  0  0  0  0  0  0  0
  146.3736  138.1341  152.4696 C   0  0  0  0  0  0  0  0  0  0  0  0
  145.1739  138.7953  152.8315 O   0  0  0  0  0  0  0  0  0  0  0  0
  146.1111  137.3224  151.1851 C   0  0  0  0  0  0  0  0  0  0  0  0
  145.1755  136.1260  151.4340 C   0  0  0  0  0  0  0  0  0  0  0  0
  145.7038  135.3026  152.4667 O   0  0  0  0  0  0  0  0  0  0  0  0
  145.7888  135.9765  153.7161 C   0  0  0  0  0  0  0  0  0  0  0  0
  146.7583  137.1673  153.6116 C   0  0  0  0  0  0  0  0  0  0  0  0
  150.2813  141.8638  157.2380 C   0  0  0  0  0  0  0  0  0  0  0  0
  151.2883  143.0166  157.3392 C   0  0  0  0  0  0  0  0  0  0  0  0
  151.7328  143.2182  158.7389 N   0  3  2  0  0  0  0  0  0  0  0  0
  152.1824  144.6092  158.9832 C   0  0  1  0  0  0  0  0  0  0  0  0
  151.1506  145.4772  159.6693 C   0  0  0  0  0  0  0  0  0  0  0  0
  152.3532  144.9865  160.4445 C   0  0  1  0  0  0  0  0  0  0  0  0
  152.1707  144.0096  161.5919 C   0  0  0  0  0  0  0  0  0  0  0  0
  152.7568  142.2378  159.1757 C   0  0  0  0  0  0  0  0  0  0  0  0
  154.2144  139.9106  159.6127 H   0  0  0  0  0  0  0  0  0  0  0  0
  152.8672  138.8873  160.1048 H   0  0  0  0  0  0  0  0  0  0  0  0
  153.2905  140.2960  161.0630 H   0  0  0  0  0  0  0  0  0  0  0  0
  151.2797  140.7377  159.6990 H   0  0  0  0  0  0  0  0  0  0  0  0
  153.0087  140.4452  157.1896 H   0  0  0  0  0  0  0  0  0  0  0  0
  152.1375  139.0920  157.8665 H   0  0  0  0  0  0  0  0  0  0  0  0
  151.7100  137.2345  154.3046 H   0  0  0  0  0  0  0  0  0  0  0  0
  146.7612  141.3397  153.9669 H   0  0  0  0  0  0  0  0  0  0  0  0
  147.0245  140.0597  151.6695 H   0  0  0  0  0  0  0  0  0  0  0  0
  148.2384  138.8122  151.5719 H   0  0  0  0  0  0  0  0  0  0  0  0
  145.0273  139.5062  152.2264 H   0  0  0  0  0  0  0  0  0  0  0  0
  145.6996  137.9633  150.4040 H   0  0  0  0  0  0  0  0  0  0  0  0
  147.0579  136.9425  150.7988 H   0  0  0  0  0  0  0  0  0  0  0  0
  144.1699  136.4586  151.6957 H   0  0  0  0  0  0  0  0  0  0  0  0
  145.0831  135.5308  150.5255 H   0  0  0  0  0  0  0  0  0  0  0  0
  144.7975  136.3025  154.0348 H   0  0  0  0  0  0  0  0  0  0  0  0
  146.1446  135.2733  154.4693 H   0  0  0  0  0  0  0  0  0  0  0  0
  147.7628  136.7818  153.4323 H   0  0  0  0  0  0  0  0  0  0  0  0
  146.7960  137.6891  154.5683 H   0  0  0  0  0  0  0  0  0  0  0  0
  149.6468  142.0775  156.3778 H   0  0  0  0  0  0  0  0  0  0  0  0
  149.6184  141.8449  158.1037 H   0  0  0  0  0  0  0  0  0  0  0  0
  152.1335  142.8888  156.6609 H   0  0  0  0  0  0  0  0  0  0  0  0
  150.7732  143.9192  157.0085 H   0  0  0  0  0  0  0  0  0  0  0  0
  152.8291  145.0394  158.2202 H   0  0  0  0  0  0  0  0  0  0  0  0
  151.1267  146.5326  159.4057 H   0  0  0  0  0  0  0  0  0  0  0  0
  150.1829  145.0379  159.9058 H   0  0  0  0  0  0  0  0  0  0  0  0
  153.1235  145.7302  160.6402 H   0  0  0  0  0  0  0  0  0  0  0  0
  151.3406  143.3272  161.4075 H   0  0  0  0  0  0  0  0  0  0  0  0
  151.9627  144.5554  162.5122 H   0  0  0  0  0  0  0  0  0  0  0  0
  153.0795  143.4254  161.7369 H   0  0  0  0  0  0  0  0  0  0  0  0
  153.0696  142.5162  160.1826 H   0  0  0  0  0  0  0  0  0  0  0  0
  153.6471  142.3255  158.5507 H   0  0  0  0  0  0  0  0  0  0  0  0
  150.9213  143.0820  159.3246 H   0  0  0  0  0  0  0  0  0  0  0  0
  1  2  1  0  0  0  0
  1 30  1  0  0  0  0
  1 31  1  0  0  0  0
  1 32  1  0  0  0  0
  2 29  1  0  0  0  0
  2  3  1  0  0  0  0
  2 33  1  0  0  0  0
  3  4  1  0  0  0  0
  3 34  1  0  0  0  0
  3 35  1  0  0  0  0
  4  5  1  0  0  0  0
  4 22  1  0  0  0  0
  5 10  1  0  0  0  0
  5  6  2  0  0  0  0
  6  7  1  0  0  0  0
  7  8  2  0  0  0  0
  7 36  1  0  0  0  0
  8  9  1  0  0  0  0
  9 13  1  0  0  0  0
  9 10  2  0  0  0  0
 10 11  1  0  0  0  0
 11 12  2  0  0  0  0
 12 13  1  0  0  0  0
 12 37  1  0  0  0  0
 13 14  1  0  0  0  0
 14 15  1  0  0  0  0
 14 38  1  0  0  0  0
 14 39  1  0  0  0  0
 15 21  1  0  0  0  0
 15 16  1  0  0  0  0
 15 17  1  0  0  0  0
 16 40  1  0  0  0  0
 17 18  1  0  0  0  0
 17 41  1  0  0  0  0
 17 42  1  0  0  0  0
 18 19  1  0  0  0  0
 18 43  1  0  0  0  0
 18 44  1  0  0  0  0
 19 20  1  0  0  0  0
 20 21  1  0  0  0  0
 20 45  1  0  0  0  0
 20 46  1  0  0  0  0
 21 47  1  0  0  0  0
 21 48  1  0  0  0  0
 22 23  1  0  0  0  0
 22 49  1  0  0  0  0
 22 50  1  0  0  0  0
 23 24  1  0  0  0  0
 23 51  1  0  0  0  0
 23 52  1  0  0  0  0
 24 25  1  0  0  0  0
 24 29  1  0  0  0  0
 24 62  1  0  0  0  0
 25 27  1  0  0  0  0
 25 26  1  0  0  0  0
 25 53  1  0  0  0  0
 26 27  1  0  0  0  0
 26 54  1  0  0  0  0
 26 55  1  0  0  0  0
 27 28  1  0  0  0  0
 27 56  1  0  0  0  0
 28 57  1  0  0  0  0
 28 58  1  0  0  0  0
 28 59  1  0  0  0  0
 29 60  1  0  0  0  0
 29 61  1  0  0  0  0
M  CHG  1  24   1
M  END
> <s_m_source_file>
AV-unprocessed.smi

> <i_m_source_file_index>
193

> <i_lp_mmshare_version>
43012

> <i_f3d_flags>
0

> <s_epik_input>
W0NIM11bQ0BASF0xW0NIMl1bQ0BIXTFOKFtDSDJdMilbQ0gyXVtDSDJdTihbQ0gyXVtDQEhdMltDSDNdKWMobltjSF1uMyljKGMzNCluW2NIXW40W0NIMl1DNShbT0hdKVtDSDJdW0NIMl1PW0NIMl1bQ0gyXTU=

> <s_epik_cmdline>
J2VwaWtfcHl0aG9uJywgJy1waCcsICc3LjAnLCAnLXRuJywgJzgnLCAnLW1hJywgJzIwMCcsICctbWV0YWxfYmluZGluZycsICctaW1hZScsICc8aW5maWxlLm1hZT4nLCAnLW9tYWUnLCAnPG91dGZpbGUubWFlPic=

> <r_lp_tautomer_probability>
1

> <r_epik_Ionization_Penalty>
0.0540825

> <r_epik_Ionization_Penalty_Charging>
0.0538476

> <r_epik_Ionization_Penalty_Neutral>
0.000234891

> <r_epik_State_Penalty>
0.0200719

> <r_epik_Charging_Adjusted_Penalty>
0.0739194

> <i_epik_Tot_Q>
1

> <i_epik_Tot_abs_Q>
1

> <r_epik_Metal_State_Penalty>
0.0199414

> <b_epik_Metal_Only>
0

> <s_lp_Force_Field>
OPLS_2005

> <r_lp_Energy>
56.6778

> <b_lp_Chiralities_Consistent>
1

> <s_lp_Variant>
AV-unprocessed.smi:193-5

> <Gold.Version>
5.8.1

> <Gold.Id.Protein>
6NUR|6NUR_protein|mol2

> <Gold.PLP.Fitness>
49.3329

> <Gold.PLP.PLP>
-47.8394

> <Gold.PLP.part.hbond>
-1.0000

> <Gold.PLP.part.metal>
0.0000

> <Gold.PLP.part.buried>
-2.4842

> <Gold.PLP.part.nonpolar>
-47.5043

> <Gold.PLP.part.repulsive>
2.2799

> <Gold.PLP.ligand.clash>
0.0000

> <Gold.PLP.ligand.torsion>
1.4013

> <Gold.PLP.Chemscore.Hbond>
0.9920

> <Gold.PLP.Chemscore.CHOScore>
0.0000

> <Gold.PLP.Chemscore.Metal>
0.0000

> <Gold.Chemscore.Hbonds>
donor molecule, donor type, donor heavy atom, donor atom, acceptor molecule, acceptor atom, score
      L1  H    16    40       P1 10175  0.37

> <Gold.PLP.Chemscore.Internal.Correction>
1.3202

> <Gold.Rescore>
     Score         DG    S(hbond)    S(metal)    S(lipo)     H(rot)  DE(clash)    DE(int)     intcor
     14.06     -18.51       0.98        0.00     125.73       1.93       1.81       2.64       ----

> <Gold.Chemscore.Fitness>
14.0635

> <Gold.Chemscore.DG>
-18.5095

> <Gold.Chemscore.ZeroCoef>
-5.4800

> <Gold.Chemscore.Hbond>
0.9754

> <Gold.Chemscore.Metal>
0.0000

> <Gold.Chemscore.Lipo>
125.7256

> <Gold.Chemscore.Internal_Hbond>
0.0000

> <Gold.Chemscore.DEClash>
1.8056

> <Gold.Chemscore.DEInternal>
2.6404

> <Gold.Chemscore.Rot>
1.9290

> <Gold.Chemscore.Internal.Correction>
   9.000000E+99

> <Gold.Chemscore.Hbonds>
donor molecule, donor type, donor heavy atom, donor atom, acceptor molecule, acceptor atom, score
      L1  H    16    40       P1 10175  0.38

> <Gold.Chemscore.Hbond.Weighted>
-3.2579

> <Gold.Chemscore.Metal.Weighted>
-0.0000

> <Gold.Chemscore.Lipo.Weighted>
-14.7099

> <Gold.Chemscore.Internal_Hbond.Weighted>
0.0000

> <Gold.Chemscore.DEClash.Weighted>
1.8056

> <Gold.Chemscore.DEInternal.Weighted>
2.6404

> <Gold.Chemscore.Rot.Weighted>
4.9383

> <Gold.Chemscore.Internal.Correction.Weighted>
   9.000000E+99

> <Gold.Protein.RotatedTorsions>
[ 6907 6896 6895 6894 ] final  -77.06 input  -60.11 | X-H torsion
[ 7974 7965 7964 7962 ] final   91.93 input  175.53 | X-H torsion
[ 8008 7997 7996 7995 ] final   -0.30 input   59.86 | X-H torsion
[ 10167 10162 10161 10158 ] final  111.53 input  -65.29 | X-H torsion
[ 10718 10713 10712 10709 ] final  -30.32 input   66.30 | X-H torsion
[ 10763 10752 10751 10750 ] final -165.86 input  -60.55 | X-H torsion
[ 11005 11000 10999 10996 ] final  147.09 input  -57.11 | X-H torsion

> <Gold.Protein.ActiveResidues>
 VAL166  LYS551  ARG553  GLY616  TRP617  ASP618  TYR619  PRO620  LYS621  CYS622 
 ASP623  PHE694  ASN695  SER759  ASP760  ASP761  ALA762  ILE779  LEU786  VAL792 
 PHE793  MET794  SER795  GLU796  ALA797  LYS798  CYS799  TRP800  GLU811  SER814 

> <Gold.Protein.RotatedAtoms>
  150.7009  134.4479  159.5322 H   0  0  0  0  0  0  0  0  0  0  0  0  # atno 6907 bound_to 6896
  152.2177  134.8440  160.0499 H   0  0  0  0  0  0  0  0  0  0  0  0  # atno 6908 bound_to 6896
  151.9302  133.3574  159.3965 H   0  0  0  0  0  0  0  0  0  0  0  0  # atno 6909 bound_to 6896
  145.4991  139.2276  143.2787 H   0  0  0  0  0  0  0  0  0  0  0  0  # atno 7974 bound_to 7965
  154.6597  140.2587  155.7123 H   0  0  0  0  0  0  0  0  0  0  0  0  # atno 8008 bound_to 7997
  156.2612  140.2851  156.0985 H   0  0  0  0  0  0  0  0  0  0  0  0  # atno 8009 bound_to 7997
  155.1327  140.0379  157.2769 H   0  0  0  0  0  0  0  0  0  0  0  0  # atno 8010 bound_to 7997
  139.6604  144.7129  151.1876 H   0  0  0  0  0  0  0  0  0  0  0  0  # atno 10167 bound_to 10162
  156.4013  130.4390  149.7321 H   0  0  0  0  0  0  0  0  0  0  0  0  # atno 10718 bound_to 10713
  154.6890  135.2967  154.9506 H   0  0  0  0  0  0  0  0  0  0  0  0  # atno 10763 bound_to 10752
  154.0475  135.6649  153.4800 H   0  0  0  0  0  0  0  0  0  0  0  0  # atno 10764 bound_to 10752
  153.0599  135.5122  154.7973 H   0  0  0  0  0  0  0  0  0  0  0  0  # atno 10765 bound_to 10752
  140.0847  134.9077  157.1556 H   0  0  0  0  0  0  0  0  0  0  0  0  # atno 11005 bound_to 11000
  146.2237  140.5791  142.9006 LP  0  0  0  0  0  0  0  0  0  0  0  0  # atno 17320 bound_to 7965
  144.7790  140.5800  143.6618 LP  0  0  0  0  0  0  0  0  0  0  0  0  # atno 17321 bound_to 7965
  140.7577  143.6003  150.8706 LP  0  0  0  0  0  0  0  0  0  0  0  0  # atno 17342 bound_to 10162
  139.9660  143.6110  152.2988 LP  0  0  0  0  0  0  0  0  0  0  0  0  # atno 17343 bound_to 10162
  156.4336  130.7827  151.2847 LP  0  0  0  0  0  0  0  0  0  0  0  0  # atno 17370 bound_to 10713
  157.7504  131.0146  150.3472 LP  0  0  0  0  0  0  0  0  0  0  0  0  # atno 17371 bound_to 10713
  140.3438  134.2675  155.7208 LP  0  0  0  0  0  0  0  0  0  0  0  0  # atno 17394 bound_to 11000
  141.2058  133.7849  157.0210 LP  0  0  0  0  0  0  0  0  0  0  0  0  # atno 17395 bound_to 11000

$$$$
