AV-unprocessed.smi:35|AV-procd|sdf|259|dock1
  -GOLD-   2262016 23D 1   1.00000     0.00000
 Structure written by MMmdl.
 29 30  0  0  0  0  0  0  0  0  1 V2000
  150.8218  132.1313  156.2643 O   0  0  0  0  0  0  0  0  0  0  0  0
  149.9976  132.2944  155.3672 C   0  0  0  0  0  0  0  0  0  0  0  0
  149.3807  131.1932  154.7672 N   0  0  0  0  0  0  0  0  0  0  0  0
  148.4327  131.2535  153.7439 C   0  0  0  0  0  0  0  0  0  0  0  0
  147.9426  130.2181  153.2949 O   0  0  0  0  0  0  0  0  0  0  0  0
  148.0688  132.5345  153.2723 N   0  0  0  0  0  0  0  0  0  0  0  0
  147.0403  132.6267  152.1602 C   0  0  2  0  0  0  0  0  0  0  0  0
  147.0065  133.9315  151.6577 O   0  0  0  0  0  0  0  0  0  0  0  0
  145.8002  134.5802  152.0520 C   0  0  1  0  0  0  0  0  0  0  0  0
  145.4735  135.7117  151.0664 C   0  0  0  0  0  0  0  0  0  0  0  0
  146.1550  136.8892  151.4425 O   0  0  0  0  0  0  0  0  0  0  0  0
  144.8034  133.4228  152.0151 C   0  0  2  0  0  0  0  0  0  0  0  0
  143.5987  133.7017  152.7046 O   0  0  0  0  0  0  0  0  0  0  0  0
  145.6055  132.2775  152.6249 C   0  0  2  0  0  0  0  0  0  0  0  0
  145.4624  132.2195  154.0368 O   0  0  0  0  0  0  0  0  0  0  0  0
  148.6538  133.6596  153.8416 C   0  0  0  0  0  0  0  0  0  0  0  0
  149.5709  133.5838  154.8348 C   0  0  0  0  0  0  0  0  0  0  0  0
  150.2867  135.3020  155.5124 Br  0  0  0  0  0  0  0  0  0  0  0  0
  149.6409  130.2779  155.1047 H   0  0  0  0  0  0  0  0  0  0  0  0
  147.4061  131.9810  151.3595 H   0  0  0  0  0  0  0  0  0  0  0  0
  145.8877  134.9569  153.0728 H   0  0  0  0  0  0  0  0  0  0  0  0
  145.7281  135.4345  150.0430 H   0  0  0  0  0  0  0  0  0  0  0  0
  144.4058  135.9314  151.0870 H   0  0  0  0  0  0  0  0  0  0  0  0
  147.0695  136.6825  151.5608 H   0  0  0  0  0  0  0  0  0  0  0  0
  144.5676  133.1793  150.9777 H   0  0  0  0  0  0  0  0  0  0  0  0
  143.4134  132.9822  153.2886 H   0  0  0  0  0  0  0  0  0  0  0  0
  145.3100  131.3142  152.2083 H   0  0  0  0  0  0  0  0  0  0  0  0
  144.5505  132.0736  154.2375 H   0  0  0  0  0  0  0  0  0  0  0  0
  148.3812  134.6444  153.4952 H   0  0  0  0  0  0  0  0  0  0  0  0
  1  2  2  0  0  0  0
  2 17  1  0  0  0  0
  2  3  1  0  0  0  0
  3 19  1  0  0  0  0
  3  4  1  0  0  0  0
  4  5  2  0  0  0  0
  4  6  1  0  0  0  0
  6  7  1  0  0  0  0
  6 16  1  0  0  0  0
  7 14  1  0  0  0  0
  7  8  1  0  0  0  0
  7 20  1  0  0  0  0
  8  9  1  0  0  0  0
  9 10  1  0  0  0  0
  9 12  1  0  0  0  0
  9 21  1  0  0  0  0
 10 11  1  0  0  0  0
 10 22  1  0  0  0  0
 10 23  1  0  0  0  0
 11 24  1  0  0  0  0
 12 13  1  0  0  0  0
 12 14  1  0  0  0  0
 12 25  1  0  0  0  0
 13 26  1  0  0  0  0
 14 15  1  0  0  0  0
 14 27  1  0  0  0  0
 15 28  1  0  0  0  0
 16 17  2  0  0  0  0
 16 29  1  0  0  0  0
 17 18  1  0  0  0  0
M  END
> <s_m_source_file>
AV-unprocessed.smi

> <i_m_source_file_index>
35

> <i_lp_mmshare_version>
43012

> <i_f3d_flags>
0

> <s_epik_input>
Tz1jMVtuSF1jKD1PKW4oW2NIXWMxQnIpW0NAQEhdMk9bQ0BASF0oW0NIMl1bT0hdKVtDQEBIXShbT0hdKVtDQEhdMltPSF0=

> <s_epik_cmdline>
J2VwaWtfcHl0aG9uJywgJy1waCcsICc3LjAnLCAnLXRuJywgJzgnLCAnLW1hJywgJzIwMCcsICctbWV0YWxfYmluZGluZycsICctaW1hZScsICc8aW5maWxlLm1hZT4nLCAnLW9tYWUnLCAnPG91dGZpbGUubWFlPic=

> <r_lp_tautomer_probability>
0.999537

> <r_epik_Ionization_Penalty>
0.10812

> <r_epik_Ionization_Penalty_Charging>
0.108119

> <r_epik_Ionization_Penalty_Neutral>
4.93006e-07

> <r_epik_State_Penalty>
0.0979238

> <r_epik_Charging_Adjusted_Penalty>
0.206043

> <i_epik_Tot_Q>
0

> <i_epik_Tot_abs_Q>
0

> <r_epik_Metal_State_Penalty>
3.07911

> <b_epik_Metal_Only>
0

> <s_epik_Chemistry_Notes>
This compound contains an acetal/aminal-like group ( X-CH(R)-Y where X, Y are N, S, or O) that may be acid/base labile, releasing an aldehyde.

> <s_lp_Force_Field>
OPLS_2005

> <r_lp_Energy>
37.6264

> <b_lp_Chiralities_Consistent>
1

> <s_lp_Variant>
AV-unprocessed.smi:35-13

> <Gold.Version>
5.8.1

> <Gold.Id.Protein>
6NUR|6NUR_protein|mol2

> <Gold.PLP.Fitness>
39.2202

> <Gold.PLP.PLP>
-28.1146

> <Gold.PLP.part.hbond>
-3.0631

> <Gold.PLP.part.metal>
0.0000

> <Gold.PLP.part.buried>
-3.8804

> <Gold.PLP.part.nonpolar>
-21.7679

> <Gold.PLP.part.repulsive>
1.0594

> <Gold.PLP.ligand.clash>
0.0000

> <Gold.PLP.ligand.torsion>
0.4783

> <Gold.PLP.Chemscore.Hbond>
2.9913

> <Gold.PLP.Chemscore.CHOScore>
1.0000

> <Gold.PLP.Chemscore.Metal>
0.0000

> <Gold.Chemscore.Hbonds>
donor molecule, donor type, donor heavy atom, donor atom, acceptor molecule, acceptor atom, score
      L1  H    11    24       P1  7948  1.00
      L1  H    13    26       P1 10957  0.93
      L1  H    15    28       P1 10957  0.90
      L1  C    16    29       P1  7948  1.00

> <Gold.PLP.Chemscore.Internal.Correction>
0.0886

> <Gold.Rescore>
     Score         DG    S(hbond)    S(metal)    S(lipo)     H(rot)  DE(clash)    DE(int)     intcor
      9.13      -9.65       2.78        0.00      36.47       3.67       0.02       0.49       ----

> <Gold.Chemscore.Fitness>
9.1340

> <Gold.Chemscore.DG>
-9.6465

> <Gold.Chemscore.ZeroCoef>
-5.4800

> <Gold.Chemscore.Hbond>
2.7828

> <Gold.Chemscore.Metal>
0.0000

> <Gold.Chemscore.Lipo>
36.4739

> <Gold.Chemscore.Internal_Hbond>
0.0000

> <Gold.Chemscore.DEClash>
0.0211

> <Gold.Chemscore.DEInternal>
0.4914

> <Gold.Chemscore.Rot>
3.6701

> <Gold.Chemscore.Internal.Correction>
   9.000000E+99

> <Gold.Chemscore.Hbonds>
donor molecule, donor type, donor heavy atom, donor atom, acceptor molecule, acceptor atom, score
      L1  H    11    24       P1  7948  1.00
      L1  H    13    26       P1 10957  0.66
      L1  H    15    28       P1 10957  0.18

> <Gold.Chemscore.Hbond.Weighted>
-9.2945

> <Gold.Chemscore.Metal.Weighted>
-0.0000

> <Gold.Chemscore.Lipo.Weighted>
-4.2674

> <Gold.Chemscore.Internal_Hbond.Weighted>
0.0000

> <Gold.Chemscore.DEClash.Weighted>
0.0211

> <Gold.Chemscore.DEInternal.Weighted>
0.4914

> <Gold.Chemscore.Rot.Weighted>
9.3955

> <Gold.Chemscore.Internal.Correction.Weighted>
   9.000000E+99

> <Gold.Protein.RotatedTorsions>
[ 6907 6896 6895 6894 ] final   10.45 input  -60.11 | X-H torsion
[ 7974 7965 7964 7962 ] final  -62.02 input  175.53 | X-H torsion
[ 8008 7997 7996 7995 ] final  147.86 input   59.86 | X-H torsion
[ 10167 10162 10161 10158 ] final  163.42 input  -65.29 | X-H torsion
[ 10718 10713 10712 10709 ] final  -46.33 input   66.30 | X-H torsion
[ 10763 10752 10751 10750 ] final  105.55 input  -60.55 | X-H torsion
[ 11005 11000 10999 10996 ] final   28.96 input  -57.11 | X-H torsion

> <Gold.Protein.ActiveResidues>
 VAL166  LYS551  ARG553  GLY616  TRP617  ASP618  TYR619  PRO620  LYS621  CYS622 
 ASP623  PHE694  ASN695  SER759  ASP760  ASP761  ALA762  ILE779  LEU786  VAL792 
 PHE793  MET794  SER795  GLU796  ALA797  LYS798  CYS799  TRP800  GLU811  SER814 

> <Gold.Protein.RotatedAtoms>
  151.7384  135.0859  160.0311 H   0  0  0  0  0  0  0  0  0  0  0  0  # atno 6907 bound_to 6896
  152.3496  133.6159  159.5943 H   0  0  0  0  0  0  0  0  0  0  0  0  # atno 6908 bound_to 6896
  150.7531  133.9512  159.3528 H   0  0  0  0  0  0  0  0  0  0  0  0  # atno 6909 bound_to 6896
  145.7963  140.8680  143.0254 H   0  0  0  0  0  0  0  0  0  0  0  0  # atno 7974 bound_to 7965
  156.2811  140.2144  156.5605 H   0  0  0  0  0  0  0  0  0  0  0  0  # atno 8008 bound_to 7997
  154.7217  140.0503  157.0668 H   0  0  0  0  0  0  0  0  0  0  0  0  # atno 8009 bound_to 7997
  155.0470  140.3152  155.4708 H   0  0  0  0  0  0  0  0  0  0  0  0  # atno 8010 bound_to 7997
  139.4873  144.4339  151.9037 H   0  0  0  0  0  0  0  0  0  0  0  0  # atno 10167 bound_to 10162
  156.2194  130.4165  149.9012 H   0  0  0  0  0  0  0  0  0  0  0  0  # atno 10718 bound_to 10713
  153.3809  135.3906  155.1856 H   0  0  0  0  0  0  0  0  0  0  0  0  # atno 10763 bound_to 10752
  154.8707  135.3725  154.4858 H   0  0  0  0  0  0  0  0  0  0  0  0  # atno 10764 bound_to 10752
  153.5335  135.7085  153.5733 H   0  0  0  0  0  0  0  0  0  0  0  0  # atno 10765 bound_to 10752
  140.3100  134.2660  155.7736 H   0  0  0  0  0  0  0  0  0  0  0  0  # atno 11005 bound_to 11000
  144.6774  140.0196  143.7484 LP  0  0  0  0  0  0  0  0  0  0  0  0  # atno 17320 bound_to 7965
  145.9924  139.3025  143.0977 LP  0  0  0  0  0  0  0  0  0  0  0  0  # atno 17321 bound_to 7965
  140.3788  144.2763  150.5911 LP  0  0  0  0  0  0  0  0  0  0  0  0  # atno 17342 bound_to 10162
  140.5253  143.2256  151.8325 LP  0  0  0  0  0  0  0  0  0  0  0  0  # atno 17343 bound_to 10162
  156.6664  130.8802  151.3555 LP  0  0  0  0  0  0  0  0  0  0  0  0  # atno 17370 bound_to 10713
  157.7080  130.9407  150.0993 LP  0  0  0  0  0  0  0  0  0  0  0  0  # atno 17371 bound_to 10713
  141.2110  133.7702  156.9893 LP  0  0  0  0  0  0  0  0  0  0  0  0  # atno 17394 bound_to 11000
  140.1033  134.9522  157.1956 LP  0  0  0  0  0  0  0  0  0  0  0  0  # atno 17395 bound_to 11000

$$$$
