AV-unprocessed.smi:561|AV-procd|sdf|2938|dock2
  -GOLD-   2262023433D 1   1.00000     0.00000
 Structure written by MMmdl.
 36 37  0  0  0  0  0  0  0  0  1 V2000
  144.6930  135.0010  153.3125 C   0  0  0  0  0  0  0  0  0  0  0  0
  145.5578  135.5137  152.1533 C   0  0  2  0  0  0  0  0  0  0  0  0
  146.2716  134.3548  151.4270 C   0  0  0  0  0  0  0  0  0  0  0  0
  145.3431  133.4222  150.8142 N   0  0  0  0  0  0  0  0  0  0  0  0
  143.9769  133.5968  150.6340 C   0  0  0  0  0  0  0  0  0  0  0  0
  143.5121  132.4540  150.0238 C   0  0  0  0  0  0  0  0  0  0  0  0
  144.5689  131.5709  149.8148 N   0  0  0  0  0  0  0  0  0  0  0  0
  145.6204  132.2133  150.3069 C   0  0  0  0  0  0  0  0  0  0  0  0
  146.5317  136.4723  152.6734 N   0  0  0  0  0  0  0  0  0  0  0  0
  146.2432  137.6351  153.2879 C   0  0  0  0  0  0  0  0  0  0  0  0
  145.0922  138.0072  153.5179 O   0  0  0  0  0  0  0  0  0  0  0  0
  147.4092  138.4761  153.6666 C   0  0  0  0  0  0  0  0  0  0  0  0
  148.5100  137.9181  154.0636 N   0  0  0  0  0  0  0  0  0  0  0  0
  149.6237  138.6576  154.4058 N   0  0  0  0  0  0  0  0  0  0  0  0
  150.8522  137.8808  154.5604 C   0  0  0  0  0  0  0  0  0  0  0  0
  149.6249  139.9973  154.6172 C   0  0  0  0  0  0  0  0  0  0  0  0
  150.6321  140.6440  154.9051 O   0  0  0  0  0  0  0  0  0  0  0  0
  148.2711  140.7055  154.5127 C   0  0  0  0  0  0  0  0  0  0  0  0
  147.3083  139.9839  153.5491 C   0  0  0  0  0  0  0  0  0  0  0  0
  143.9386  134.2983  152.9575 H   0  0  0  0  0  0  0  0  0  0  0  0
  144.1710  135.8215  153.8059 H   0  0  0  0  0  0  0  0  0  0  0  0
  145.2965  134.4898  154.0633 H   0  0  0  0  0  0  0  0  0  0  0  0
  144.8880  136.0069  151.4464 H   0  0  0  0  0  0  0  0  0  0  0  0
  146.9415  134.7395  150.6567 H   0  0  0  0  0  0  0  0  0  0  0  0
  146.8918  133.7967  152.1297 H   0  0  0  0  0  0  0  0  0  0  0  0
  143.4623  134.4914  150.9523 H   0  0  0  0  0  0  0  0  0  0  0  0
  142.5065  132.2017  149.7212 H   0  0  0  0  0  0  0  0  0  0  0  0
  146.6150  131.7920  150.3040 H   0  0  0  0  0  0  0  0  0  0  0  0
  147.5065  136.2509  152.5288 H   0  0  0  0  0  0  0  0  0  0  0  0
  151.2579  137.9965  155.5667 H   0  0  0  0  0  0  0  0  0  0  0  0
  151.6075  138.2143  153.8473 H   0  0  0  0  0  0  0  0  0  0  0  0
  150.6876  136.8150  154.3923 H   0  0  0  0  0  0  0  0  0  0  0  0
  147.8375  140.7320  155.5131 H   0  0  0  0  0  0  0  0  0  0  0  0
  148.4114  141.7418  154.2034 H   0  0  0  0  0  0  0  0  0  0  0  0
  147.5206  140.2786  152.5208 H   0  0  0  0  0  0  0  0  0  0  0  0
  146.2925  140.3195  153.7617 H   0  0  0  0  0  0  0  0  0  0  0  0
  1  2  1  0  0  0  0
  1 20  1  0  0  0  0
  1 21  1  0  0  0  0
  1 22  1  0  0  0  0
  2  3  1  0  0  0  0
  2  9  1  0  0  0  0
  2 23  1  0  0  0  0
  3  4  1  0  0  0  0
  3 24  1  0  0  0  0
  3 25  1  0  0  0  0
  4  8  1  0  0  0  0
  4  5  1  0  0  0  0
  5  6  2  0  0  0  0
  5 26  1  0  0  0  0
  6  7  1  0  0  0  0
  6 27  1  0  0  0  0
  7  8  2  0  0  0  0
  8 28  1  0  0  0  0
  9 10  1  0  0  0  0
  9 29  1  0  0  0  0
 10 11  2  0  0  0  0
 10 12  1  0  0  0  0
 12 19  1  0  0  0  0
 12 13  2  0  0  0  0
 13 14  1  0  0  0  0
 14 15  1  0  0  0  0
 14 16  1  0  0  0  0
 15 30  1  0  0  0  0
 15 31  1  0  0  0  0
 15 32  1  0  0  0  0
 16 17  2  0  0  0  0
 16 18  1  0  0  0  0
 18 19  1  0  0  0  0
 18 33  1  0  0  0  0
 18 34  1  0  0  0  0
 19 35  1  0  0  0  0
 19 36  1  0  0  0  0
M  END
> <s_m_source_file>
AV-unprocessed.smi

> <i_m_source_file_index>
561

> <i_lp_mmshare_version>
43012

> <i_f3d_flags>
0

> <s_epik_input>
W2NIXTFuW2NIXVtjSF1uMVtDSDJdW0NAQEhdKFtDSDNdKVtOSF1DKD1PKUMyPU5OKFtDSDNdKUMoPU8pW0NIMl1bQ0gyXTI=

> <s_epik_cmdline>
J2VwaWtfcHl0aG9uJywgJy1waCcsICc3LjAnLCAnLXRuJywgJzgnLCAnLW1hJywgJzIwMCcsICctbWV0YWxfYmluZGluZycsICctaW1hZScsICc8aW5maWxlLm1hZT4nLCAnLW9tYWUnLCAnPG91dGZpbGUubWFlPic=

> <r_lp_tautomer_probability>
1

> <r_epik_Ionization_Penalty>
0.46798

> <r_epik_Ionization_Penalty_Charging>
0.467902

> <r_epik_Ionization_Penalty_Neutral>
7.78263e-05

> <r_epik_State_Penalty>
0.47192

> <r_epik_Charging_Adjusted_Penalty>
0.939822

> <i_epik_Tot_Q>
0

> <i_epik_Tot_abs_Q>
0

> <r_epik_Metal_State_Penalty>
0.280825

> <b_epik_Metal_Only>
0

> <s_epik_Chemistry_Notes>
This compound has an imine and may undergo hydrolysis.

> <s_lp_Force_Field>
OPLS_2005

> <r_lp_Energy>
18.1828

> <b_lp_Chiralities_Consistent>
1

> <s_lp_Variant>
AV-unprocessed.smi:561-3

> <Gold.Version>
5.8.1

> <Gold.Id.Protein>
6NUR|6NUR_protein|mol2

> <Gold.PLP.Fitness>
40.4751

> <Gold.PLP.PLP>
-27.7148

> <Gold.PLP.part.hbond>
-3.0000

> <Gold.PLP.part.metal>
0.0000

> <Gold.PLP.part.buried>
-3.6669

> <Gold.PLP.part.nonpolar>
-25.5824

> <Gold.PLP.part.repulsive>
3.7183

> <Gold.PLP.ligand.clash>
0.0000

> <Gold.PLP.ligand.torsion>
0.6603

> <Gold.PLP.Chemscore.Hbond>
2.0750

> <Gold.PLP.Chemscore.CHOScore>
2.5889

> <Gold.PLP.Chemscore.Metal>
0.0000

> <Gold.Chemscore.Hbonds>
donor molecule, donor type, donor heavy atom, donor atom, acceptor molecule, acceptor atom, score
      L1  H     9    29       P1  7948  1.00
      P1  H  7989  7998       L1    17  0.94
      P1  H 10785 10796       L1     7  0.13
      L1  C     5    26       P1 10186  0.14
      L1  C     6    27       P1 10186  0.40
      L1  C     6    27       P1 10952  1.00
      L1  C     8    28       P1 10747  1.00

> <Gold.PLP.Chemscore.Internal.Correction>
0.0889

> <Gold.Rescore>
     Score         DG    S(hbond)    S(metal)    S(lipo)     H(rot)  DE(clash)    DE(int)     intcor
     11.40     -13.66       1.80        0.00      55.80       1.71       1.55       0.71       ----

> <Gold.Chemscore.Fitness>
11.4026

> <Gold.Chemscore.DG>
-13.6591

> <Gold.Chemscore.ZeroCoef>
-5.4800

> <Gold.Chemscore.Hbond>
1.8036

> <Gold.Chemscore.Metal>
0.0000

> <Gold.Chemscore.Lipo>
55.8047

> <Gold.Chemscore.Internal_Hbond>
0.0000

> <Gold.Chemscore.DEClash>
1.5494

> <Gold.Chemscore.DEInternal>
0.7071

> <Gold.Chemscore.Rot>
1.7086

> <Gold.Chemscore.Internal.Correction>
   9.000000E+99

> <Gold.Chemscore.Hbonds>
donor molecule, donor type, donor heavy atom, donor atom, acceptor molecule, acceptor atom, score
      L1  H     9    29       P1  7948  0.97
      P1  H  7989  7998       L1    17  0.71
      P1  H 10785 10796       L1     7  0.01

> <Gold.Chemscore.Hbond.Weighted>
-6.0239

> <Gold.Chemscore.Metal.Weighted>
-0.0000

> <Gold.Chemscore.Lipo.Weighted>
-6.5292

> <Gold.Chemscore.Internal_Hbond.Weighted>
0.0000

> <Gold.Chemscore.DEClash.Weighted>
1.5494

> <Gold.Chemscore.DEInternal.Weighted>
0.7071

> <Gold.Chemscore.Rot.Weighted>
4.3739

> <Gold.Chemscore.Internal.Correction.Weighted>
   9.000000E+99

> <Gold.Protein.RotatedTorsions>
[ 6907 6896 6895 6894 ] final   88.00 input  -60.11 | X-H torsion
[ 7974 7965 7964 7962 ] final  -38.52 input  175.53 | X-H torsion
[ 8008 7997 7996 7995 ] final  154.62 input   59.86 | X-H torsion
[ 10167 10162 10161 10158 ] final  -94.88 input  -65.29 | X-H torsion
[ 10718 10713 10712 10709 ] final   48.89 input   66.30 | X-H torsion
[ 10763 10752 10751 10750 ] final -176.89 input  -60.55 | X-H torsion
[ 11005 11000 10999 10996 ] final  131.32 input  -57.11 | X-H torsion

> <Gold.Protein.ActiveResidues>
 VAL166  LYS551  ARG553  GLY616  TRP617  ASP618  TYR619  PRO620  LYS621  CYS622 
 ASP623  PHE694  ASN695  SER759  ASP760  ASP761  ALA762  ILE779  LEU786  VAL792 
 PHE793  MET794  SER795  GLU796  ALA797  LYS798  CYS799  TRP800  GLU811  SER814 

> <Gold.Protein.RotatedAtoms>
  152.5419  134.2190  159.8779 H   0  0  0  0  0  0  0  0  0  0  0  0  # atno 6907 bound_to 6896
  151.2168  133.4518  159.2607 H   0  0  0  0  0  0  0  0  0  0  0  0  # atno 6908 bound_to 6896
  151.0844  134.9891  159.8427 H   0  0  0  0  0  0  0  0  0  0  0  0  # atno 6909 bound_to 6896
  146.0479  140.6521  142.9056 H   0  0  0  0  0  0  0  0  0  0  0  0  # atno 7974 bound_to 7965
  156.2522  140.1962  156.6674 H   0  0  0  0  0  0  0  0  0  0  0  0  # atno 8008 bound_to 7997
  154.6419  140.0582  156.9881 H   0  0  0  0  0  0  0  0  0  0  0  0  # atno 8009 bound_to 7997
  155.1550  140.3255  155.4426 H   0  0  0  0  0  0  0  0  0  0  0  0  # atno 8010 bound_to 7997
  140.3099  143.3111  152.0160 H   0  0  0  0  0  0  0  0  0  0  0  0  # atno 10167 bound_to 10162
  157.4732  130.8268  149.8011 H   0  0  0  0  0  0  0  0  0  0  0  0  # atno 10718 bound_to 10713
  154.5668  135.2824  155.0866 H   0  0  0  0  0  0  0  0  0  0  0  0  # atno 10763 bound_to 10752
  154.2254  135.6383  153.5162 H   0  0  0  0  0  0  0  0  0  0  0  0  # atno 10764 bound_to 10752
  153.0045  135.5524  154.6279 H   0  0  0  0  0  0  0  0  0  0  0  0  # atno 10765 bound_to 10752
  139.9723  134.9574  156.9421 H   0  0  0  0  0  0  0  0  0  0  0  0  # atno 11005 bound_to 11000
  144.7107  140.4028  143.7083 LP  0  0  0  0  0  0  0  0  0  0  0  0  # atno 17320 bound_to 7965
  145.6774  139.1611  143.2720 LP  0  0  0  0  0  0  0  0  0  0  0  0  # atno 17321 bound_to 7965
  139.4896  144.6392  151.6911 LP  0  0  0  0  0  0  0  0  0  0  0  0  # atno 17342 bound_to 10162
  140.5577  144.0320  150.6155 LP  0  0  0  0  0  0  0  0  0  0  0  0  # atno 17343 bound_to 10162
  156.0084  130.3845  150.2351 LP  0  0  0  0  0  0  0  0  0  0  0  0  # atno 17370 bound_to 10713
  157.0534  131.0069  151.3246 LP  0  0  0  0  0  0  0  0  0  0  0  0  # atno 17371 bound_to 10713
  140.5267  134.0853  155.7305 LP  0  0  0  0  0  0  0  0  0  0  0  0  # atno 17394 bound_to 11000
  141.1402  133.9151  157.2343 LP  0  0  0  0  0  0  0  0  0  0  0  0  # atno 17395 bound_to 11000

$$$$
