AV-unprocessed.smi:2816|AV-procd|sdf|10844|dock9
  -GOLD-   2272015283D 1   1.00000     0.00000
 Structure written by MMmdl.
 43 45  0  0  0  0  0  0  0  0  1 V2000
  149.0742  136.7413  155.0988 C   0  0  0  0  0  0  0  0  0  0  0  0
  150.2652  136.1532  155.8753 C   0  0  0  0  0  0  0  0  0  0  0  0
  149.9302  136.1208  157.3779 C   0  0  0  0  0  0  0  0  0  0  0  0
  150.5649  134.7334  155.3609 C   0  0  0  0  0  0  0  0  0  0  0  0
  151.7379  137.2508  155.5709 S   0  0  0  0  0  0  0  0  0  0  0  0
  152.8265  136.7955  156.4503 O   0  0  0  0  0  0  0  0  0  0  0  0
  151.9714  137.3233  154.1197 O   0  0  0  0  0  0  0  0  0  0  0  0
  151.2523  138.8886  156.1197 C   0  0  0  0  0  0  0  0  0  0  0  0
  150.6985  139.8040  155.2022 C   0  0  0  0  0  0  0  0  0  0  0  0
  150.3733  141.0927  155.6647 C   0  0  0  0  0  0  0  0  0  0  0  0
  150.6228  141.4201  157.0188 C   0  0  0  0  0  0  0  0  0  0  0  0
  150.3419  142.6769  157.5745 N   0  0  0  0  0  0  0  0  0  0  0  0
  150.5713  142.9539  158.9882 C   0  0  2  0  0  0  0  0  0  0  0  0
  150.0361  144.3117  159.4581 C   0  0  0  0  0  0  0  0  0  0  0  0
  151.2796  144.9311  160.1108 C   0  0  2  0  0  0  0  0  0  0  0  0
  152.2822  145.4187  159.0578 C   0  0  0  0  0  0  0  0  0  0  0  0
  152.8392  144.0993  158.5275 C   0  0  0  0  0  0  0  0  0  0  0  0
  152.0610  143.0647  159.3600 C   0  0  1  0  0  0  0  0  0  0  0  0
  151.9453  143.7715  160.5838 O   0  0  0  0  0  0  0  0  0  0  0  0
  151.1869  140.4229  157.8435 C   0  0  0  0  0  0  0  0  0  0  0  0
  151.5049  139.1842  157.4126 N   0  0  0  0  0  0  0  0  0  0  0  0
  148.1733  136.1428  155.2379 H   0  0  0  0  0  0  0  0  0  0  0  0
  149.2795  136.7820  154.0286 H   0  0  0  0  0  0  0  0  0  0  0  0
  148.8498  137.7564  155.4281 H   0  0  0  0  0  0  0  0  0  0  0  0
  149.7710  137.1242  157.7734 H   0  0  0  0  0  0  0  0  0  0  0  0
  150.7251  135.6560  157.9600 H   0  0  0  0  0  0  0  0  0  0  0  0
  149.0211  135.5482  157.5645 H   0  0  0  0  0  0  0  0  0  0  0  0
  149.6981  134.0819  155.4761 H   0  0  0  0  0  0  0  0  0  0  0  0
  151.3890  134.2741  155.9064 H   0  0  0  0  0  0  0  0  0  0  0  0
  150.8314  134.7402  154.3036 H   0  0  0  0  0  0  0  0  0  0  0  0
  150.5295  139.5318  154.1711 H   0  0  0  0  0  0  0  0  0  0  0  0
  149.9442  141.8055  154.9771 H   0  0  0  0  0  0  0  0  0  0  0  0
  149.7920  143.3369  157.0432 H   0  0  0  0  0  0  0  0  0  0  0  0
  150.1302  142.1572  159.5881 H   0  0  0  0  0  0  0  0  0  0  0  0
  149.6466  144.9354  158.6520 H   0  0  0  0  0  0  0  0  0  0  0  0
  149.2404  144.1705  160.1905 H   0  0  0  0  0  0  0  0  0  0  0  0
  151.0545  145.6687  160.8814 H   0  0  0  0  0  0  0  0  0  0  0  0
  151.8108  146.0229  158.2820 H   0  0  0  0  0  0  0  0  0  0  0  0
  153.0740  146.0102  159.5188 H   0  0  0  0  0  0  0  0  0  0  0  0
  152.6999  143.9800  157.4531 H   0  0  0  0  0  0  0  0  0  0  0  0
  153.9075  144.0310  158.7358 H   0  0  0  0  0  0  0  0  0  0  0  0
  152.5649  142.1018  159.4475 H   0  0  0  0  0  0  0  0  0  0  0  0
  151.3976  140.6268  158.8833 H   0  0  0  0  0  0  0  0  0  0  0  0
  1  2  1  0  0  0  0
  1 22  1  0  0  0  0
  1 23  1  0  0  0  0
  1 24  1  0  0  0  0
  2  3  1  0  0  0  0
  2  4  1  0  0  0  0
  2  5  1  0  0  0  0
  3 25  1  0  0  0  0
  3 26  1  0  0  0  0
  3 27  1  0  0  0  0
  4 28  1  0  0  0  0
  4 29  1  0  0  0  0
  4 30  1  0  0  0  0
  5  6  2  0  0  0  0
  5  7  2  0  0  0  0
  5  8  1  0  0  0  0
  8 21  1  0  0  0  0
  8  9  2  0  0  0  0
  9 10  1  0  0  0  0
  9 31  1  0  0  0  0
 10 11  2  0  0  0  0
 10 32  1  0  0  0  0
 11 12  1  0  0  0  0
 11 20  1  0  0  0  0
 12 13  1  0  0  0  0
 12 33  1  0  0  0  0
 13 18  1  0  0  0  0
 13 14  1  0  0  0  0
 13 34  1  0  0  0  0
 14 15  1  0  0  0  0
 14 35  1  0  0  0  0
 14 36  1  0  0  0  0
 15 19  1  0  0  0  0
 15 16  1  0  0  0  0
 15 37  1  0  0  0  0
 16 17  1  0  0  0  0
 16 38  1  0  0  0  0
 16 39  1  0  0  0  0
 17 18  1  0  0  0  0
 17 40  1  0  0  0  0
 17 41  1  0  0  0  0
 18 19  1  0  0  0  0
 18 42  1  0  0  0  0
 20 21  2  0  0  0  0
 20 43  1  0  0  0  0
M  END
> <s_m_source_file>
AV-unprocessed.smi

> <i_m_source_file_index>
2816

> <i_lp_mmshare_version>
43012

> <i_f3d_flags>
0

> <s_epik_input>
W0NIM11DKFtDSDNdKShbQ0gzXSlTKD1PKSg9TyljMVtjSF1bY0hdYyhbY0hdbjEpW05IXVtDQEhdKFtDSDJdW0NAQEhdMjMpW0NAQEhdKE8zKVtDSDJdW0NIMl0y

> <s_epik_cmdline>
J2VwaWtfcHl0aG9uJywgJy1waCcsICc3LjAnLCAnLXRuJywgJzgnLCAnLW1hJywgJzIwMCcsICctbWV0YWxfYmluZGluZycsICctaW1hZScsICc8aW5maWxlLm1hZT4nLCAnLW9tYWUnLCAnPG91dGZpbGUubWFlPic=

> <r_lp_tautomer_probability>
1

> <r_epik_Ionization_Penalty>
1.94439e-07

> <r_epik_Ionization_Penalty_Charging>
0

> <r_epik_Ionization_Penalty_Neutral>
1.94439e-07

> <r_epik_State_Penalty>
-0

> <r_epik_Charging_Adjusted_Penalty>
0

> <i_epik_Tot_Q>
0

> <i_epik_Tot_abs_Q>
0

> <r_epik_Metal_State_Penalty>
-0

> <b_epik_Metal_Only>
0

> <s_lp_Force_Field>
OPLS_2005

> <r_lp_Energy>
43.8741

> <b_lp_Chiralities_Consistent>
1

> <s_lp_Variant>
AV-unprocessed.smi:2816-3

> <Gold.Version>
5.8.1

> <Gold.Id.Protein>
6NUR|6NUR_protein|mol2

> <Gold.PLP.Fitness>
45.1978

> <Gold.PLP.PLP>
-38.1303

> <Gold.PLP.part.hbond>
-2.9904

> <Gold.PLP.part.metal>
0.0000

> <Gold.PLP.part.buried>
-4.3278

> <Gold.PLP.part.nonpolar>
-31.4293

> <Gold.PLP.part.repulsive>
0.7519

> <Gold.PLP.ligand.clash>
0.0000

> <Gold.PLP.ligand.torsion>
1.2184

> <Gold.PLP.Chemscore.Hbond>
2.4274

> <Gold.PLP.Chemscore.CHOScore>
0.0000

> <Gold.PLP.Chemscore.Metal>
0.0000

> <Gold.Chemscore.Hbonds>
donor molecule, donor type, donor heavy atom, donor atom, acceptor molecule, acceptor atom, score
      L1  H    12    33       P1  8028  0.70
      P1  H 10752 10764       L1     7  0.72
      P1  H 10752 10765       L1     6  0.72

> <Gold.PLP.Chemscore.Internal.Correction>
2.2222

> <Gold.Rescore>
     Score         DG    S(hbond)    S(metal)    S(lipo)     H(rot)  DE(clash)    DE(int)     intcor
     18.02     -19.81       1.61        0.00     101.60       1.15       0.50       1.30       ----

> <Gold.Chemscore.Fitness>
18.0179

> <Gold.Chemscore.DG>
-19.8131

> <Gold.Chemscore.ZeroCoef>
-5.4800

> <Gold.Chemscore.Hbond>
1.6116

> <Gold.Chemscore.Metal>
0.0000

> <Gold.Chemscore.Lipo>
101.5984

> <Gold.Chemscore.Internal_Hbond>
0.0000

> <Gold.Chemscore.DEClash>
0.4975

> <Gold.Chemscore.DEInternal>
1.2977

> <Gold.Chemscore.Rot>
1.1471

> <Gold.Chemscore.Internal.Correction>
   9.000000E+99

> <Gold.Chemscore.Hbonds>
donor molecule, donor type, donor heavy atom, donor atom, acceptor molecule, acceptor atom, score
      L1  H    12    33       P1  8028  0.70
      P1  H 10752 10764       L1     7  0.24
      P1  H 10752 10765       L1     6  0.28

> <Gold.Chemscore.Hbond.Weighted>
-5.3826

> <Gold.Chemscore.Metal.Weighted>
-0.0000

> <Gold.Chemscore.Lipo.Weighted>
-11.8870

> <Gold.Chemscore.Internal_Hbond.Weighted>
0.0000

> <Gold.Chemscore.DEClash.Weighted>
0.4975

> <Gold.Chemscore.DEInternal.Weighted>
1.2977

> <Gold.Chemscore.Rot.Weighted>
2.9366

> <Gold.Chemscore.Internal.Correction.Weighted>
   9.000000E+99

> <Gold.Protein.RotatedTorsions>
[ 6907 6896 6895 6894 ] final  120.91 input  -60.11 | X-H torsion
[ 7974 7965 7964 7962 ] final -102.16 input  175.53 | X-H torsion
[ 8008 7997 7996 7995 ] final   43.16 input   59.86 | X-H torsion
[ 10167 10162 10161 10158 ] final  -45.19 input  -65.29 | X-H torsion
[ 10718 10713 10712 10709 ] final -110.81 input   66.30 | X-H torsion
[ 10763 10752 10751 10750 ] final -110.82 input  -60.55 | X-H torsion
[ 11005 11000 10999 10996 ] final -127.83 input  -57.11 | X-H torsion

> <Gold.Protein.ActiveResidues>
 VAL166  LYS551  ARG553  GLY616  TRP617  ASP618  TYR619  PRO620  LYS621  CYS622 
 ASP623  PHE694  ASN695  SER759  ASP760  ASP761  ALA762  ILE779  LEU786  VAL792 
 PHE793  MET794  SER795  GLU796  ALA797  LYS798  CYS799  TRP800  GLU811  SER814 

> <Gold.Protein.RotatedAtoms>
  152.4362  133.7366  159.6616 H   0  0  0  0  0  0  0  0  0  0  0  0  # atno 6907 bound_to 6896
  150.8247  133.8182  159.3130 H   0  0  0  0  0  0  0  0  0  0  0  0  # atno 6908 bound_to 6896
  151.5854  135.1058  160.0078 H   0  0  0  0  0  0  0  0  0  0  0  0  # atno 6909 bound_to 6896
  145.2723  140.9302  143.2979 H   0  0  0  0  0  0  0  0  0  0  0  0  # atno 7974 bound_to 7965
  155.2982  140.3383  155.4249 H   0  0  0  0  0  0  0  0  0  0  0  0  # atno 8008 bound_to 7997
  156.2014  140.1734  156.7931 H   0  0  0  0  0  0  0  0  0  0  0  0  # atno 8009 bound_to 7997
  154.5564  140.0695  156.8734 H   0  0  0  0  0  0  0  0  0  0  0  0  # atno 8010 bound_to 7997
  140.6868  143.2892  151.3603 H   0  0  0  0  0  0  0  0  0  0  0  0  # atno 10167 bound_to 10162
  156.0612  130.5835  150.8288 H   0  0  0  0  0  0  0  0  0  0  0  0  # atno 10718 bound_to 10713
  154.8268  135.4550  154.0944 H   0  0  0  0  0  0  0  0  0  0  0  0  # atno 10763 bound_to 10752
  153.2251  135.6899  153.7961 H   0  0  0  0  0  0  0  0  0  0  0  0  # atno 10764 bound_to 10752
  153.7364  135.3319  155.3272 H   0  0  0  0  0  0  0  0  0  0  0  0  # atno 10765 bound_to 10752
  140.9567  134.0992  157.4009 H   0  0  0  0  0  0  0  0  0  0  0  0  # atno 11005 bound_to 11000
  144.9324  139.4283  143.6488 LP  0  0  0  0  0  0  0  0  0  0  0  0  # atno 17320 bound_to 7965
  146.3242  139.8242  142.8921 LP  0  0  0  0  0  0  0  0  0  0  0  0  # atno 17321 bound_to 7965
  139.6233  144.0863  152.2411 LP  0  0  0  0  0  0  0  0  0  0  0  0  # atno 17342 bound_to 10162
  140.0315  144.6077  150.7484 LP  0  0  0  0  0  0  0  0  0  0  0  0  # atno 17343 bound_to 10162
  157.5621  131.0946  150.9543 LP  0  0  0  0  0  0  0  0  0  0  0  0  # atno 17370 bound_to 10713
  156.9779  130.5515  149.5294 LP  0  0  0  0  0  0  0  0  0  0  0  0  # atno 17371 bound_to 10713
  139.8864  135.0081  156.6498 LP  0  0  0  0  0  0  0  0  0  0  0  0  # atno 17394 bound_to 11000
  140.7526  133.8884  155.8358 LP  0  0  0  0  0  0  0  0  0  0  0  0  # atno 17395 bound_to 11000

$$$$
