AV-unprocessed.smi:3185|AV-procd|sdf|12171|dock7
  -GOLD-   2272018 13D 1   1.00000     0.00000
 Structure written by MMmdl.
 37 38  0  0  0  0  0  0  0  0  1 V2000
  154.6180  138.5342  158.6909 N   0  0  0  0  0  0  0  0  0  0  0  0
  154.4275  138.6453  159.8264 C   0  0  0  0  0  0  0  0  0  0  0  0
  154.1852  138.7867  161.2699 C   0  0  0  0  0  0  0  0  0  0  0  0
  154.8352  140.0438  161.8575 C   0  0  0  0  0  0  0  0  0  0  0  0
  153.9058  141.2603  161.7835 C   0  0  0  0  0  0  0  0  0  0  0  0
  153.4257  141.4201  160.4195 N   0  0  0  0  0  0  0  0  0  0  0  0
  153.2217  142.8199  160.0576 C   0  0  2  0  0  0  0  0  0  0  0  0
  152.1813  143.4226  161.0226 C   0  0  0  0  0  0  0  0  0  0  0  0
  151.9267  144.9045  160.7089 C   0  0  0  0  0  0  0  0  0  0  0  0
  151.4713  145.1021  159.2557 C   0  0  0  0  0  0  0  0  0  0  0  0
  152.4733  144.4848  158.2620 C   0  0  0  0  0  0  0  0  0  0  0  0
  152.8295  143.0086  158.5618 C   0  0  2  0  0  0  0  0  0  0  0  0
  151.8101  142.0691  158.0870 N   0  0  0  0  0  0  0  0  0  0  0  0
  150.6486  142.3718  157.4043 C   0  0  0  0  0  0  0  0  0  0  0  0
  150.0029  141.1985  157.1403 C   0  0  0  0  0  0  0  0  0  0  0  0
  150.8561  140.2120  157.7053 C   0  0  0  0  0  0  0  0  0  0  0  0
  151.9338  140.7343  158.2656 N   0  0  0  0  0  0  0  0  0  0  0  0
  153.1063  138.8064  161.4269 H   0  0  0  0  0  0  0  0  0  0  0  0
  154.5693  137.8930  161.7621 H   0  0  0  0  0  0  0  0  0  0  0  0
  155.1125  139.8544  162.8954 H   0  0  0  0  0  0  0  0  0  0  0  0
  155.7618  140.2549  161.3213 H   0  0  0  0  0  0  0  0  0  0  0  0
  153.0594  141.1268  162.4583 H   0  0  0  0  0  0  0  0  0  0  0  0
  154.4453  142.1511  162.1041 H   0  0  0  0  0  0  0  0  0  0  0  0
  154.0658  140.9893  159.7669 H   0  0  0  0  0  0  0  0  0  0  0  0
  154.1586  143.3509  160.2333 H   0  0  0  0  0  0  0  0  0  0  0  0
  151.2428  142.8699  160.9783 H   0  0  0  0  0  0  0  0  0  0  0  0
  152.5354  143.3307  162.0500 H   0  0  0  0  0  0  0  0  0  0  0  0
  151.1758  145.3047  161.3907 H   0  0  0  0  0  0  0  0  0  0  0  0
  152.8393  145.4753  160.8852 H   0  0  0  0  0  0  0  0  0  0  0  0
  150.4804  144.6710  159.1185 H   0  0  0  0  0  0  0  0  0  0  0  0
  151.3616  146.1669  159.0488 H   0  0  0  0  0  0  0  0  0  0  0  0
  152.0964  144.5820  157.2433 H   0  0  0  0  0  0  0  0  0  0  0  0
  153.3907  145.0738  158.2968 H   0  0  0  0  0  0  0  0  0  0  0  0
  153.7186  142.7982  157.9664 H   0  0  0  0  0  0  0  0  0  0  0  0
  150.3810  143.3896  157.1615 H   0  0  0  0  0  0  0  0  0  0  0  0
  149.0655  141.0656  156.6211 H   0  0  0  0  0  0  0  0  0  0  0  0
  150.7271  139.1399  157.7233 H   0  0  0  0  0  0  0  0  0  0  0  0
  1  2  3  0  0  0  0
  2  3  1  0  0  0  0
  3  4  1  0  0  0  0
  3 18  1  0  0  0  0
  3 19  1  0  0  0  0
  4  5  1  0  0  0  0
  4 20  1  0  0  0  0
  4 21  1  0  0  0  0
  5  6  1  0  0  0  0
  5 22  1  0  0  0  0
  5 23  1  0  0  0  0
  6  7  1  0  0  0  0
  6 24  1  0  0  0  0
  7 12  1  0  0  0  0
  7  8  1  0  0  0  0
  7 25  1  0  0  0  0
  8  9  1  0  0  0  0
  8 26  1  0  0  0  0
  8 27  1  0  0  0  0
  9 10  1  0  0  0  0
  9 28  1  0  0  0  0
  9 29  1  0  0  0  0
 10 11  1  0  0  0  0
 10 30  1  0  0  0  0
 10 31  1  0  0  0  0
 11 12  1  0  0  0  0
 11 32  1  0  0  0  0
 11 33  1  0  0  0  0
 12 13  1  0  0  0  0
 12 34  1  0  0  0  0
 13 17  1  0  0  0  0
 13 14  1  0  0  0  0
 14 15  2  0  0  0  0
 14 35  1  0  0  0  0
 15 16  1  0  0  0  0
 15 36  1  0  0  0  0
 16 17  2  0  0  0  0
 16 37  1  0  0  0  0
M  END
> <s_m_source_file>
AV-unprocessed.smi

> <i_m_source_file_index>
3185

> <i_lp_mmshare_version>
43012

> <i_f3d_flags>
0

> <s_epik_input>
TiNDW0NIMl1bQ0gyXVtDSDJdW05IXVtDQEBIXTFbQ0gyXVtDSDJdW0NIMl1bQ0gyXVtDQEhdMW4yW2NIXVtjSF1bY0hdbjI=

> <s_epik_cmdline>
J2VwaWtfcHl0aG9uJywgJy1waCcsICc3LjAnLCAnLXRuJywgJzgnLCAnLW1hJywgJzIwMCcsICctbWV0YWxfYmluZGluZycsICctaW1hZScsICc8aW5maWxlLm1hZT4nLCAnLW9tYWUnLCAnPG91dGZpbGUubWFlPic=

> <r_lp_tautomer_probability>
1

> <r_epik_Ionization_Penalty>
2.21326

> <r_epik_Ionization_Penalty_Charging>
0

> <r_epik_Ionization_Penalty_Neutral>
2.21326

> <r_epik_State_Penalty>
2.35651

> <r_epik_Charging_Adjusted_Penalty>
2.35651

> <i_epik_Tot_Q>
0

> <i_epik_Tot_abs_Q>
0

> <r_epik_Metal_State_Penalty>
2.3555

> <b_epik_Metal_Only>
0

> <s_lp_Force_Field>
OPLS_2005

> <r_lp_Energy>
17.6064

> <b_lp_Chiralities_Consistent>
1

> <s_lp_Variant>
AV-unprocessed.smi:3185-7

> <Gold.Version>
5.8.1

> <Gold.Id.Protein>
6NUR|6NUR_protein|mol2

> <Gold.PLP.Fitness>
45.0256

> <Gold.PLP.PLP>
-39.9417

> <Gold.PLP.part.hbond>
-1.0000

> <Gold.PLP.part.metal>
0.0000

> <Gold.PLP.part.buried>
-5.4369

> <Gold.PLP.part.nonpolar>
-33.5569

> <Gold.PLP.part.repulsive>
0.0000

> <Gold.PLP.ligand.clash>
0.0000

> <Gold.PLP.ligand.torsion>
0.4983

> <Gold.PLP.Chemscore.Hbond>
1.0000

> <Gold.PLP.Chemscore.CHOScore>
1.0000

> <Gold.PLP.Chemscore.Metal>
0.0000

> <Gold.Chemscore.Hbonds>
donor molecule, donor type, donor heavy atom, donor atom, acceptor molecule, acceptor atom, score
      P1  H  7997  8010       L1     1  0.88
      L1  C    14    35       P1  8028  1.00

> <Gold.PLP.Chemscore.Internal.Correction>
0.0806

> <Gold.Rescore>
     Score         DG    S(hbond)    S(metal)    S(lipo)     H(rot)  DE(clash)    DE(int)     intcor
     15.49     -18.04       0.99        0.00     118.60       1.81       0.05       2.50       ----

> <Gold.Chemscore.Fitness>
15.4932

> <Gold.Chemscore.DG>
-18.0416

> <Gold.Chemscore.ZeroCoef>
-5.4800

> <Gold.Chemscore.Hbond>
0.9946

> <Gold.Chemscore.Metal>
0.0000

> <Gold.Chemscore.Lipo>
118.5980

> <Gold.Chemscore.Internal_Hbond>
0.0000

> <Gold.Chemscore.DEClash>
0.0453

> <Gold.Chemscore.DEInternal>
2.5031

> <Gold.Chemscore.Rot>
1.8110

> <Gold.Chemscore.Internal.Correction>
   9.000000E+99

> <Gold.Chemscore.Hbonds>
donor molecule, donor type, donor heavy atom, donor atom, acceptor molecule, acceptor atom, score
      P1  H  7997  8010       L1     1  0.85

> <Gold.Chemscore.Hbond.Weighted>
-3.3218

> <Gold.Chemscore.Metal.Weighted>
-0.0000

> <Gold.Chemscore.Lipo.Weighted>
-13.8760

> <Gold.Chemscore.Internal_Hbond.Weighted>
0.0000

> <Gold.Chemscore.DEClash.Weighted>
0.0453

> <Gold.Chemscore.DEInternal.Weighted>
2.5031

> <Gold.Chemscore.Rot.Weighted>
4.6362

> <Gold.Chemscore.Internal.Correction.Weighted>
   9.000000E+99

> <Gold.Protein.RotatedTorsions>
[ 6907 6896 6895 6894 ] final   17.41 input  -60.11 | X-H torsion
[ 7974 7965 7964 7962 ] final  171.64 input  175.53 | X-H torsion
[ 8008 7997 7996 7995 ] final   15.53 input   59.86 | X-H torsion
[ 10167 10162 10161 10158 ] final -119.36 input  -65.29 | X-H torsion
[ 10718 10713 10712 10709 ] final   94.09 input   66.30 | X-H torsion
[ 10763 10752 10751 10750 ] final  -45.72 input  -60.55 | X-H torsion
[ 11005 11000 10999 10996 ] final   68.78 input  -57.11 | X-H torsion

> <Gold.Protein.ActiveResidues>
 VAL166  LYS551  ARG553  GLY616  TRP617  ASP618  TYR619  PRO620  LYS621  CYS622 
 ASP623  PHE694  ASN695  SER759  ASP760  ASP761  ALA762  ILE779  LEU786  VAL792 
 PHE793  MET794  SER795  GLU796  ALA797  LYS798  CYS799  TRP800  GLU811  SER814 

> <Gold.Protein.RotatedAtoms>
  151.8492  135.0564  160.0456 H   0  0  0  0  0  0  0  0  0  0  0  0  # atno 6907 bound_to 6896
  152.2750  133.5412  159.5470 H   0  0  0  0  0  0  0  0  0  0  0  0  # atno 6908 bound_to 6896
  150.7166  134.0561  159.3857 H   0  0  0  0  0  0  0  0  0  0  0  0  # atno 6909 bound_to 6896
  144.7289  139.9380  143.6427 H   0  0  0  0  0  0  0  0  0  0  0  0  # atno 7974 bound_to 7965
  154.8639  140.2948  155.5522 H   0  0  0  0  0  0  0  0  0  0  0  0  # atno 8008 bound_to 7997
  156.3020  140.2473  156.3551 H   0  0  0  0  0  0  0  0  0  0  0  0  # atno 8009 bound_to 7997
  154.8888  140.0395  157.1815 H   0  0  0  0  0  0  0  0  0  0  0  0  # atno 8010 bound_to 7997
  140.0475  143.5092  152.2099 H   0  0  0  0  0  0  0  0  0  0  0  0  # atno 10167 bound_to 10162
  157.6950  131.0500  150.4133 H   0  0  0  0  0  0  0  0  0  0  0  0  # atno 10718 bound_to 10713
  154.0332  135.6654  153.4782 H   0  0  0  0  0  0  0  0  0  0  0  0  # atno 10763 bound_to 10752
  153.0532  135.5072  154.7913 H   0  0  0  0  0  0  0  0  0  0  0  0  # atno 10764 bound_to 10752
  154.6865  135.3054  154.9505 H   0  0  0  0  0  0  0  0  0  0  0  0  # atno 10765 bound_to 10752
  139.9691  134.6930  156.0483 H   0  0  0  0  0  0  0  0  0  0  0  0  # atno 11005 bound_to 11000
  146.0806  139.3794  143.0466 LP  0  0  0  0  0  0  0  0  0  0  0  0  # atno 17320 bound_to 7965
  145.7845  140.9841  143.1081 LP  0  0  0  0  0  0  0  0  0  0  0  0  # atno 17321 bound_to 7965
  139.5974  144.7571  151.3253 LP  0  0  0  0  0  0  0  0  0  0  0  0  # atno 17342 bound_to 10162
  140.7232  143.7078  150.7793 LP  0  0  0  0  0  0  0  0  0  0  0  0  # atno 17343 bound_to 10162
  156.4515  130.4012  149.6633 LP  0  0  0  0  0  0  0  0  0  0  0  0  # atno 17370 bound_to 10713
  156.3780  130.7565  151.2555 LP  0  0  0  0  0  0  0  0  0  0  0  0  # atno 17371 bound_to 10713
  141.1371  133.6572  156.3625 LP  0  0  0  0  0  0  0  0  0  0  0  0  # atno 17394 bound_to 11000
  140.5331  134.6193  157.5356 LP  0  0  0  0  0  0  0  0  0  0  0  0  # atno 17395 bound_to 11000

$$$$
