AV-unprocessed.smi:3018|AV-procd|sdf|11479|dock7
  -GOLD-   2272016413D 1   1.00000     0.00000
 Structure written by MMmdl.
 45 46  0  0  0  0  0  0  0  0  1 V2000
  151.5768  138.9606  155.0431 C   0  0  0  0  0  0  0  0  0  0  0  0
  151.0474  139.6778  156.2910 C   0  0  0  0  0  0  0  0  0  0  0  0
  150.7031  141.1554  156.0279 C   0  0  2  0  0  0  0  0  0  0  0  0
  150.4359  141.7716  157.2867 O   0  0  0  0  0  0  0  0  0  0  0  0
  151.5457  142.3586  157.9626 C   0  0  0  0  0  0  0  0  0  0  0  0
  152.0477  141.4296  159.0870 C   0  0  0  0  0  0  0  0  0  0  0  0
  153.1519  142.1045  159.9177 C   0  0  0  0  0  0  0  0  0  0  0  0
  152.6822  143.4543  160.4839 C   0  0  0  0  0  0  0  0  0  0  0  0
  152.1746  144.3794  159.3667 C   0  0  0  0  0  0  0  0  0  0  0  0
  151.0674  143.6993  158.5458 C   0  0  0  0  0  0  0  0  0  0  0  0
  149.4711  141.2766  155.1186 C   0  0  0  0  0  0  0  0  0  0  0  0
  149.5637  141.0340  153.9151 O   0  0  0  0  0  0  0  0  0  0  0  0
  148.3252  141.6474  155.7117 N   0  0  0  0  0  0  0  0  0  0  0  0
  147.0460  141.8491  155.0360 C   0  0  0  0  0  0  0  0  0  0  0  0
  146.2336  140.5418  154.9242 C   0  0  0  0  0  0  0  0  0  0  0  0
  146.7691  139.5517  153.9026 C   0  0  0  0  0  0  0  0  0  0  0  0
  147.8548  138.8632  153.9527 N   0  0  0  0  0  0  0  0  0  0  0  0
  147.7713  138.1573  152.7975 N   0  0  0  0  0  0  0  0  0  0  0  0
  146.6728  138.4071  152.0752 C   0  0  0  0  0  0  0  0  0  0  0  0
  146.3479  137.9069  151.0010 O   0  0  0  0  0  0  0  0  0  0  0  0
  146.0142  139.3179  152.7806 N   0  0  0  0  0  0  0  0  0  0  0  0
  148.5082  137.5081  152.5618 H   0  0  0  0  0  0  0  0  0  0  0  0
  145.1269  139.7444  152.5575 H   0  0  0  0  0  0  0  0  0  0  0  0
  151.8058  137.9180  155.2637 H   0  0  0  0  0  0  0  0  0  0  0  0
  152.4894  139.4298  154.6745 H   0  0  0  0  0  0  0  0  0  0  0  0
  150.8421  138.9769  154.2377 H   0  0  0  0  0  0  0  0  0  0  0  0
  150.1603  139.1502  156.6450 H   0  0  0  0  0  0  0  0  0  0  0  0
  151.7868  139.6029  157.0898 H   0  0  0  0  0  0  0  0  0  0  0  0
  151.5593  141.6296  155.5461 H   0  0  0  0  0  0  0  0  0  0  0  0
  152.3627  142.5654  157.2704 H   0  0  0  0  0  0  0  0  0  0  0  0
  151.2149  141.1609  159.7380 H   0  0  0  0  0  0  0  0  0  0  0  0
  152.4293  140.4963  158.6741 H   0  0  0  0  0  0  0  0  0  0  0  0
  153.4582  141.4474  160.7321 H   0  0  0  0  0  0  0  0  0  0  0  0
  154.0343  142.2574  159.2950 H   0  0  0  0  0  0  0  0  0  0  0  0
  151.8852  143.2886  161.2099 H   0  0  0  0  0  0  0  0  0  0  0  0
  153.4973  143.9359  161.0246 H   0  0  0  0  0  0  0  0  0  0  0  0
  151.8019  145.3104  159.7946 H   0  0  0  0  0  0  0  0  0  0  0  0
  153.0027  144.6500  158.7104 H   0  0  0  0  0  0  0  0  0  0  0  0
  150.7446  144.3594  157.7404 H   0  0  0  0  0  0  0  0  0  0  0  0
  150.1947  143.5340  159.1788 H   0  0  0  0  0  0  0  0  0  0  0  0
  148.3449  141.8162  156.7071 H   0  0  0  0  0  0  0  0  0  0  0  0
  146.4628  142.6381  155.5144 H   0  0  0  0  0  0  0  0  0  0  0  0
  147.2687  142.2127  154.0327 H   0  0  0  0  0  0  0  0  0  0  0  0
  146.2146  140.0474  155.8959 H   0  0  0  0  0  0  0  0  0  0  0  0
  145.1947  140.7735  154.6850 H   0  0  0  0  0  0  0  0  0  0  0  0
  1  2  1  0  0  0  0
  1 24  1  0  0  0  0
  1 25  1  0  0  0  0
  1 26  1  0  0  0  0
  2  3  1  0  0  0  0
  2 27  1  0  0  0  0
  2 28  1  0  0  0  0
  3  4  1  0  0  0  0
  3 11  1  0  0  0  0
  3 29  1  0  0  0  0
  4  5  1  0  0  0  0
  5 10  1  0  0  0  0
  5  6  1  0  0  0  0
  5 30  1  0  0  0  0
  6  7  1  0  0  0  0
  6 31  1  0  0  0  0
  6 32  1  0  0  0  0
  7  8  1  0  0  0  0
  7 33  1  0  0  0  0
  7 34  1  0  0  0  0
  8  9  1  0  0  0  0
  8 35  1  0  0  0  0
  8 36  1  0  0  0  0
  9 10  1  0  0  0  0
  9 37  1  0  0  0  0
  9 38  1  0  0  0  0
 10 39  1  0  0  0  0
 10 40  1  0  0  0  0
 11 12  2  0  0  0  0
 11 13  1  0  0  0  0
 13 14  1  0  0  0  0
 13 41  1  0  0  0  0
 14 15  1  0  0  0  0
 14 42  1  0  0  0  0
 14 43  1  0  0  0  0
 15 16  1  0  0  0  0
 15 44  1  0  0  0  0
 15 45  1  0  0  0  0
 16 21  1  0  0  0  0
 16 17  2  0  0  0  0
 17 18  1  0  0  0  0
 18 22  1  0  0  0  0
 18 19  1  0  0  0  0
 19 20  2  0  0  0  0
 19 21  1  0  0  0  0
 21 23  1  0  0  0  0
M  END
> <s_m_source_file>
AV-unprocessed.smi

> <i_m_source_file_index>
3018

> <i_lp_mmshare_version>
43012

> <i_f3d_flags>
0

> <s_epik_input>
W0NIMl0xW0NIMl1bQ0gyXVtDSDJdW0NIMl1bQ0hdMU9bQ0BASF0oW0NIMl1bQ0gzXSlDKD1PKVtOSF1bQ0gyXVtDSDJdYzJuW25IXWMoPU8pW25IXTI=

> <s_epik_cmdline>
J2VwaWtfcHl0aG9uJywgJy1waCcsICc3LjAnLCAnLXRuJywgJzgnLCAnLW1hJywgJzIwMCcsICctbWV0YWxfYmluZGluZycsICctaW1hZScsICc8aW5maWxlLm1hZT4nLCAnLW9tYWUnLCAnPG91dGZpbGUubWFlPic=

> <r_lp_tautomer_probability>
1

> <r_epik_Ionization_Penalty>
0.000773817

> <r_epik_Ionization_Penalty_Charging>
0.000773741

> <r_epik_Ionization_Penalty_Neutral>
7.58514e-08

> <r_epik_State_Penalty>
-0

> <r_epik_Charging_Adjusted_Penalty>
0.000773741

> <i_epik_Tot_Q>
0

> <i_epik_Tot_abs_Q>
0

> <r_epik_Metal_State_Penalty>
0.495152

> <b_epik_Metal_Only>
0

> <s_lp_Force_Field>
OPLS_2005

> <r_lp_Energy>
32.5004

> <b_lp_Chiralities_Consistent>
1

> <s_lp_Variant>
AV-unprocessed.smi:3018-1

> <Gold.Version>
5.8.1

> <Gold.Id.Protein>
6NUR|6NUR_protein|mol2

> <Gold.PLP.Fitness>
53.0020

> <Gold.PLP.PLP>
-43.7548

> <Gold.PLP.part.hbond>
-6.8227

> <Gold.PLP.part.metal>
0.0000

> <Gold.PLP.part.buried>
-4.5696

> <Gold.PLP.part.nonpolar>
-37.0636

> <Gold.PLP.part.repulsive>
4.5959

> <Gold.PLP.ligand.clash>
0.0000

> <Gold.PLP.ligand.torsion>
1.6544

> <Gold.PLP.Chemscore.Hbond>
4.1680

> <Gold.PLP.Chemscore.CHOScore>
0.0000

> <Gold.PLP.Chemscore.Metal>
0.0000

> <Gold.Chemscore.Hbonds>
donor molecule, donor type, donor heavy atom, donor atom, acceptor molecule, acceptor atom, score
      L1  H    18    22       P1  7948  0.92
      L1  H    21    23       P1 10175  1.00
      P1  H  7954  7966       L1    20  0.76
      P1  H  7989  7998       L1    12  0.34
      P1  H  8011  8017       L1    12  0.71

> <Gold.PLP.Chemscore.Internal.Correction>
0.0520

> <Gold.Rescore>
     Score         DG    S(hbond)    S(metal)    S(lipo)     H(rot)  DE(clash)    DE(int)     intcor
     14.29     -18.16       2.80        0.00      94.86       3.04       1.03       2.84       ----

> <Gold.Chemscore.Fitness>
14.2876

> <Gold.Chemscore.DG>
-18.1599

> <Gold.Chemscore.ZeroCoef>
-5.4800

> <Gold.Chemscore.Hbond>
2.8011

> <Gold.Chemscore.Metal>
0.0000

> <Gold.Chemscore.Lipo>
94.8570

> <Gold.Chemscore.Internal_Hbond>
0.0000

> <Gold.Chemscore.DEClash>
1.0340

> <Gold.Chemscore.DEInternal>
2.8383

> <Gold.Chemscore.Rot>
3.0367

> <Gold.Chemscore.Internal.Correction>
   9.000000E+99

> <Gold.Chemscore.Hbonds>
donor molecule, donor type, donor heavy atom, donor atom, acceptor molecule, acceptor atom, score
      L1  H    18    22       P1  7948  0.84
      L1  H    21    23       P1 10175  0.99
      P1  H  7954  7966       L1    20  0.33
      P1  H  7989  7998       L1    12  0.20
      P1  H  8011  8017       L1    12  0.69

> <Gold.Chemscore.Hbond.Weighted>
-9.3555

> <Gold.Chemscore.Metal.Weighted>
-0.0000

> <Gold.Chemscore.Lipo.Weighted>
-11.0983

> <Gold.Chemscore.Internal_Hbond.Weighted>
0.0000

> <Gold.Chemscore.DEClash.Weighted>
1.0340

> <Gold.Chemscore.DEInternal.Weighted>
2.8383

> <Gold.Chemscore.Rot.Weighted>
7.7739

> <Gold.Chemscore.Internal.Correction.Weighted>
   9.000000E+99

> <Gold.Protein.RotatedTorsions>
[ 6907 6896 6895 6894 ] final  107.00 input  -60.11 | X-H torsion
[ 7974 7965 7964 7962 ] final  -82.40 input  175.53 | X-H torsion
[ 8008 7997 7996 7995 ] final  144.67 input   59.86 | X-H torsion
[ 10167 10162 10161 10158 ] final  -74.69 input  -65.29 | X-H torsion
[ 10718 10713 10712 10709 ] final  -95.67 input   66.30 | X-H torsion
[ 10763 10752 10751 10750 ] final   45.50 input  -60.55 | X-H torsion
[ 11005 11000 10999 10996 ] final  118.96 input  -57.11 | X-H torsion

> <Gold.Protein.ActiveResidues>
 VAL166  LYS551  ARG553  GLY616  TRP617  ASP618  TYR619  PRO620  LYS621  CYS622 
 ASP623  PHE694  ASN695  SER759  ASP760  ASP761  ALA762  ILE779  LEU786  VAL792 
 PHE793  MET794  SER795  GLU796  ALA797  LYS798  CYS799  TRP800  GLU811  SER814 

> <Gold.Protein.RotatedAtoms>
  152.5172  133.9299  159.7575 H   0  0  0  0  0  0  0  0  0  0  0  0  # atno 6907 bound_to 6896
  150.9652  133.6394  159.2754 H   0  0  0  0  0  0  0  0  0  0  0  0  # atno 6908 bound_to 6896
  151.3625  135.0912  159.9492 H   0  0  0  0  0  0  0  0  0  0  0  0  # atno 6909 bound_to 6896
  145.5338  140.9518  143.1589 H   0  0  0  0  0  0  0  0  0  0  0  0  # atno 7974 bound_to 7965
  156.2902  140.2229  156.5090 H   0  0  0  0  0  0  0  0  0  0  0  0  # atno 8008 bound_to 7997
  154.7625  140.0472  157.1007 H   0  0  0  0  0  0  0  0  0  0  0  0  # atno 8009 bound_to 7997
  154.9973  140.3097  155.4884 H   0  0  0  0  0  0  0  0  0  0  0  0  # atno 8010 bound_to 7997
  140.5006  143.2362  151.7758 H   0  0  0  0  0  0  0  0  0  0  0  0  # atno 10167 bound_to 10162
  156.0047  130.5119  150.6111 H   0  0  0  0  0  0  0  0  0  0  0  0  # atno 10718 bound_to 10713
  152.9824  135.6038  154.3446 H   0  0  0  0  0  0  0  0  0  0  0  0  # atno 10763 bound_to 10752
  154.3140  135.2770  155.2554 H   0  0  0  0  0  0  0  0  0  0  0  0  # atno 10764 bound_to 10752
  154.4750  135.5932  153.6404 H   0  0  0  0  0  0  0  0  0  0  0  0  # atno 10765 bound_to 10752
  139.9129  134.9625  156.7583 H   0  0  0  0  0  0  0  0  0  0  0  0  # atno 11005 bound_to 11000
  144.7612  139.6952  143.7233 LP  0  0  0  0  0  0  0  0  0  0  0  0  # atno 17320 bound_to 7965
  146.2027  139.5331  142.9733 LP  0  0  0  0  0  0  0  0  0  0  0  0  # atno 17321 bound_to 7965
  139.4871  144.4527  151.9635 LP  0  0  0  0  0  0  0  0  0  0  0  0  # atno 17342 bound_to 10162
  140.3616  144.2966  150.5932 LP  0  0  0  0  0  0  0  0  0  0  0  0  # atno 17343 bound_to 10162
  157.3944  131.0800  151.1365 LP  0  0  0  0  0  0  0  0  0  0  0  0  # atno 17370 bound_to 10713
  157.2047  130.6410  149.5751 LP  0  0  0  0  0  0  0  0  0  0  0  0  # atno 17371 bound_to 10713
  140.6718  133.9553  155.7861 LP  0  0  0  0  0  0  0  0  0  0  0  0  # atno 17394 bound_to 11000
  141.0572  134.0399  157.3707 LP  0  0  0  0  0  0  0  0  0  0  0  0  # atno 17395 bound_to 11000

$$$$
