AV-unprocessed.smi:703|AV-procd|sdf|3434|dock8
  -GOLD-   22720 0423D 1   1.00000     0.00000
 Structure written by MMmdl.
 37 38  0  0  0  0  0  0  0  0  3 V2000
  146.9259  139.0006  153.4056 C   0  0  0  0  0  0  0  0  0  0  0  0
  147.3199  137.9836  154.4852 C   0  0  0  0  0  0  0  0  0  0  0  0
  148.7027  137.4783  154.3036 N   0  3  1  0  0  0  0  0  0  0  0  0
  149.7570  138.5198  154.3516 C   0  0  0  0  0  0  0  0  0  0  0  0
  150.9827  137.8322  154.9615 C   0  0  1  0  0  0  0  0  0  0  0  0
  152.0710  138.7935  155.4844 C   0  0  0  0  0  0  0  0  0  0  0  0
  150.3682  136.8362  155.9623 C   0  0  1  0  0  0  0  0  0  0  0  0
  150.0137  137.4966  157.2137 N   0  5  0  0  0  0  0  0  0  0  0  0
  149.8097  136.6080  158.5530 S   0  0  0  0  0  0  0  0  0  0  0  0
  149.7873  135.1640  158.2687 O   0  0  0  0  0  0  0  0  0  0  0  0
  150.6648  137.0578  159.6635 O   0  0  0  0  0  0  0  0  0  0  0  0
  148.0854  137.0736  159.0090 C   0  0  0  0  0  0  0  0  0  0  0  0
  147.7168  136.4633  160.3322 C   0  0  0  0  0  0  0  0  0  0  0  0
  147.7108  135.0900  160.7037 C   0  0  0  0  0  0  0  0  0  0  0  0
  147.3028  135.1131  162.0059 C   0  0  0  0  0  0  0  0  0  0  0  0
  147.0838  136.3888  162.4127 O   0  0  0  0  0  0  0  0  0  0  0  0
  147.3544  137.2440  161.3384 N   0  0  0  0  0  0  0  0  0  0  0  0
  149.0824  136.3936  155.2458 C   0  0  0  0  0  0  0  0  0  0  0  0
  145.8856  139.3042  153.5248 H   0  0  0  0  0  0  0  0  0  0  0  0
  147.0353  138.5779  152.4065 H   0  0  0  0  0  0  0  0  0  0  0  0
  147.5370  139.9019  153.4588 H   0  0  0  0  0  0  0  0  0  0  0  0
  147.2121  138.4206  155.4791 H   0  0  0  0  0  0  0  0  0  0  0  0
  146.6312  137.1392  154.4369 H   0  0  0  0  0  0  0  0  0  0  0  0
  149.9618  138.9135  153.3554 H   0  0  0  0  0  0  0  0  0  0  0  0
  149.4371  139.3606  154.9732 H   0  0  0  0  0  0  0  0  0  0  0  0
  151.4414  137.2358  154.1707 H   0  0  0  0  0  0  0  0  0  0  0  0
  151.6919  139.4806  156.2429 H   0  0  0  0  0  0  0  0  0  0  0  0
  152.4623  139.4030  154.6696 H   0  0  0  0  0  0  0  0  0  0  0  0
  152.9150  138.2530  155.9164 H   0  0  0  0  0  0  0  0  0  0  0  0
  151.0323  135.9845  156.1139 H   0  0  0  0  0  0  0  0  0  0  0  0
  148.0243  138.1609  159.0502 H   0  0  0  0  0  0  0  0  0  0  0  0
  147.4202  136.7328  158.2154 H   0  0  0  0  0  0  0  0  0  0  0  0
  147.9595  134.2262  160.1051 H   0  0  0  0  0  0  0  0  0  0  0  0
  147.1301  134.3431  162.7431 H   0  0  0  0  0  0  0  0  0  0  0  0
  148.2820  136.1324  155.9411 H   0  0  0  0  0  0  0  0  0  0  0  0
  149.2830  135.5011  154.6521 H   0  0  0  0  0  0  0  0  0  0  0  0
  148.7463  137.0647  153.3835 H   0  0  0  0  0  0  0  0  0  0  0  0
  1  2  1  0  0  0  0
  1 19  1  0  0  0  0
  1 20  1  0  0  0  0
  1 21  1  0  0  0  0
  2  3  1  0  0  0  0
  2 22  1  0  0  0  0
  2 23  1  0  0  0  0
  3 18  1  0  0  0  0
  3  4  1  0  0  0  0
  3 37  1  0  0  0  0
  4  5  1  0  0  0  0
  4 24  1  0  0  0  0
  4 25  1  0  0  0  0
  5  6  1  0  0  0  0
  5  7  1  0  0  0  0
  5 26  1  0  0  0  0
  6 27  1  0  0  0  0
  6 28  1  0  0  0  0
  6 29  1  0  0  0  0
  7  8  1  0  0  0  0
  7 18  1  0  0  0  0
  7 30  1  0  0  0  0
  8  9  1  0  0  0  0
  9 10  2  0  0  0  0
  9 11  2  0  0  0  0
  9 12  1  0  0  0  0
 12 13  1  0  0  0  0
 12 31  1  0  0  0  0
 12 32  1  0  0  0  0
 13 17  2  0  0  0  0
 13 14  1  0  0  0  0
 14 15  2  0  0  0  0
 14 33  1  0  0  0  0
 15 16  1  0  0  0  0
 15 34  1  0  0  0  0
 16 17  1  0  0  0  0
 18 35  1  0  0  0  0
 18 36  1  0  0  0  0
M  CHG  1   3   1
M  CHG  1   8  -1
M  END
> <s_m_source_file>
AV-unprocessed.smi

> <i_m_source_file_index>
703

> <i_lp_mmshare_version>
43012

> <i_f3d_flags>
0

> <s_epik_input>
W0NIM11bQ0gyXU4xW0NIMl1bQ0BASF0oW0NIM10pW0NASF0oW0NIMl0xKVtOSF1TKD1PKSg9TylbQ0gyXWMyW2NIXVtjSF1vbjI=

> <s_epik_cmdline>
J2VwaWtfcHl0aG9uJywgJy1waCcsICc3LjAnLCAnLXRuJywgJzgnLCAnLW1hJywgJzIwMCcsICctbWV0YWxfYmluZGluZycsICctaW1hZScsICc8aW5maWxlLm1hZT4nLCAnLW9tYWUnLCAnPG91dGZpbGUubWFlPic=

> <r_epik_Ionization_Penalty>
3.62494

> <r_epik_Ionization_Penalty_Charging>
3.62494

> <r_epik_Ionization_Penalty_Neutral>
2.0321e-10

> <r_epik_State_Penalty>
3.62558

> <r_epik_Charging_Adjusted_Penalty>
7.25052

> <i_epik_Tot_Q>
0

> <i_epik_Tot_abs_Q>
2

> <r_epik_Metal_State_Penalty>
0.530836

> <b_epik_Metal_Only>
1

> <s_lp_Force_Field>
OPLS_2005

> <r_lp_Energy>
18.2255

> <b_lp_Chiralities_Consistent>
1

> <s_lp_Variant>
AV-unprocessed.smi:703-9

> <Gold.Version>
5.8.1

> <Gold.Id.Protein>
6NUR|6NUR_protein|mol2

> <Gold.PLP.Fitness>
40.8461

> <Gold.PLP.PLP>
-27.1210

> <Gold.PLP.part.hbond>
-4.7654

> <Gold.PLP.part.metal>
0.0000

> <Gold.PLP.part.buried>
-5.7475

> <Gold.PLP.part.nonpolar>
-18.2359

> <Gold.PLP.part.repulsive>
0.0000

> <Gold.PLP.ligand.clash>
0.0000

> <Gold.PLP.ligand.torsion>
0.9199

> <Gold.PLP.Chemscore.Hbond>
4.8400

> <Gold.PLP.Chemscore.CHOScore>
0.0000

> <Gold.PLP.Chemscore.Metal>
0.0000

> <Gold.Chemscore.Hbonds>
donor molecule, donor type, donor heavy atom, donor atom, acceptor molecule, acceptor atom, score
      L1  H     3    37       P1  7948  2.00
      P1  H  6896  6908       L1    10  1.00
      P1  H  6931  6943       L1    17  0.86
      P1  H  6934  6947       L1    17  0.98

> <Gold.PLP.Chemscore.Internal.Correction>
1.0450

> <Gold.Rescore>
     Score         DG    S(hbond)    S(metal)    S(lipo)     H(rot)  DE(clash)    DE(int)     intcor
     16.79     -17.68       2.89        0.00      57.50       1.63       0.01       0.88       ----

> <Gold.Chemscore.Fitness>
16.7917

> <Gold.Chemscore.DG>
-17.6768

> <Gold.Chemscore.ZeroCoef>
-5.4800

> <Gold.Chemscore.Hbond>
2.8899

> <Gold.Chemscore.Metal>
0.0000

> <Gold.Chemscore.Lipo>
57.4955

> <Gold.Chemscore.Internal_Hbond>
0.0000

> <Gold.Chemscore.DEClash>
0.0064

> <Gold.Chemscore.DEInternal>
0.8788

> <Gold.Chemscore.Rot>
1.6338

> <Gold.Chemscore.Internal.Correction>
   9.000000E+99

> <Gold.Chemscore.Hbonds>
donor molecule, donor type, donor heavy atom, donor atom, acceptor molecule, acceptor atom, score
      L1  H     3    37       P1  7948  1.00
      P1  H  6896  6908       L1    10  0.64
      P1  H  6931  6943       L1    17  0.21
      P1  H  6934  6947       L1    17  0.87

> <Gold.Chemscore.Hbond.Weighted>
-9.6524

> <Gold.Chemscore.Metal.Weighted>
-0.0000

> <Gold.Chemscore.Lipo.Weighted>
-6.7270

> <Gold.Chemscore.Internal_Hbond.Weighted>
0.0000

> <Gold.Chemscore.DEClash.Weighted>
0.0064

> <Gold.Chemscore.DEInternal.Weighted>
0.8788

> <Gold.Chemscore.Rot.Weighted>
4.1825

> <Gold.Chemscore.Internal.Correction.Weighted>
   9.000000E+99

> <Gold.Protein.RotatedTorsions>
[ 6907 6896 6895 6894 ] final  158.11 input  -60.11 | X-H torsion
[ 7974 7965 7964 7962 ] final  141.00 input  175.53 | X-H torsion
[ 8008 7997 7996 7995 ] final    8.45 input   59.86 | X-H torsion
[ 10167 10162 10161 10158 ] final   -9.63 input  -65.29 | X-H torsion
[ 10718 10713 10712 10709 ] final   42.83 input   66.30 | X-H torsion
[ 10763 10752 10751 10750 ] final -149.13 input  -60.55 | X-H torsion
[ 11005 11000 10999 10996 ] final   49.86 input  -57.11 | X-H torsion

> <Gold.Protein.ActiveResidues>
 VAL166  LYS551  ARG553  GLY616  TRP617  ASP618  TYR619  PRO620  LYS621  CYS622 
 ASP623  PHE694  ASN695  SER759  ASP760  ASP761  ALA762  ILE779  LEU786  VAL792 
 PHE793  MET794  SER795  GLU796  ALA797  LYS798  CYS799  TRP800  GLU811  SER814 

> <Gold.Protein.RotatedAtoms>
  152.0053  133.3840  159.4197 H   0  0  0  0  0  0  0  0  0  0  0  0  # atno 6907 bound_to 6896
  150.6905  134.3790  159.5035 H   0  0  0  0  0  0  0  0  0  0  0  0  # atno 6908 bound_to 6896
  152.1543  134.8963  160.0596 H   0  0  0  0  0  0  0  0  0  0  0  0  # atno 6909 bound_to 6896
  144.9136  139.5260  143.5697 H   0  0  0  0  0  0  0  0  0  0  0  0  # atno 7974 bound_to 7965
  154.7671  140.2795  155.6168 H   0  0  0  0  0  0  0  0  0  0  0  0  # atno 8008 bound_to 7997
  156.2927  140.2649  156.2391 H   0  0  0  0  0  0  0  0  0  0  0  0  # atno 8009 bound_to 7997
  154.9946  140.0373  157.2324 H   0  0  0  0  0  0  0  0  0  0  0  0  # atno 8010 bound_to 7997
  140.7092  143.5837  150.8965 H   0  0  0  0  0  0  0  0  0  0  0  0  # atno 10167 bound_to 10162
  157.4092  130.7904  149.7415 H   0  0  0  0  0  0  0  0  0  0  0  0  # atno 10718 bound_to 10713
  154.8194  135.3317  154.7082 H   0  0  0  0  0  0  0  0  0  0  0  0  # atno 10763 bound_to 10752
  153.7717  135.6925  153.4909 H   0  0  0  0  0  0  0  0  0  0  0  0  # atno 10764 bound_to 10752
  153.2040  135.4506  155.0249 H   0  0  0  0  0  0  0  0  0  0  0  0  # atno 10765 bound_to 10752
  140.1067  134.5009  155.8714 H   0  0  0  0  0  0  0  0  0  0  0  0  # atno 11005 bound_to 11000
  146.3170  139.7961  142.8975 LP  0  0  0  0  0  0  0  0  0  0  0  0  # atno 17320 bound_to 7965
  145.3413  141.0288  143.3390 LP  0  0  0  0  0  0  0  0  0  0  0  0  # atno 17321 bound_to 7965
  139.9563  143.6215  152.3015 LP  0  0  0  0  0  0  0  0  0  0  0  0  # atno 17342 bound_to 10162
  139.6751  144.7659  151.1711 LP  0  0  0  0  0  0  0  0  0  0  0  0  # atno 17343 bound_to 10162
  155.9845  130.3990  150.3306 LP  0  0  0  0  0  0  0  0  0  0  0  0  # atno 17370 bound_to 10713
  157.1442  131.0304  151.2914 LP  0  0  0  0  0  0  0  0  0  0  0  0  # atno 17371 bound_to 10713
  141.2120  133.6713  156.6625 LP  0  0  0  0  0  0  0  0  0  0  0  0  # atno 17394 bound_to 11000
  140.3146  134.8058  157.4204 LP  0  0  0  0  0  0  0  0  0  0  0  0  # atno 17395 bound_to 11000

$$$$
