AV-unprocessed.smi:1555|AV-procd|sdf|6266|dock5
  -GOLD-   22720 6453D 1   1.00000     0.00000
 Structure written by MMmdl.
 41 42  0  0  0  0  0  0  0  0  1 V2000
  153.8810  139.8415  159.7353 C   0  0  0  0  0  0  0  0  0  0  0  0
  153.0704  141.0715  159.2951 C   0  0  2  0  0  0  0  0  0  0  0  0
  152.7141  142.0117  160.4676 C   0  0  0  0  0  0  0  0  0  0  0  0
  152.4100  143.3606  160.0295 N   0  0  0  0  0  0  0  0  0  0  0  0
  151.9997  144.4233  160.8233 C   0  0  0  0  0  0  0  0  0  0  0  0
  151.8322  145.5004  159.9826 C   0  0  0  0  0  0  0  0  0  0  0  0
  152.1350  145.1262  158.6754 N   0  0  0  0  0  0  0  0  0  0  0  0
  152.4723  143.8474  158.7824 C   0  0  0  0  0  0  0  0  0  0  0  0
  151.8574  140.6233  158.6173 N   0  0  0  0  0  0  0  0  0  0  0  0
  151.8072  140.0066  157.4237 C   0  0  0  0  0  0  0  0  0  0  0  0
  152.8229  139.7631  156.7704 O   0  0  0  0  0  0  0  0  0  0  0  0
  150.5577  139.6811  157.0045 N   0  0  0  0  0  0  0  0  0  0  0  0
  149.2954  140.2867  157.4614 C   0  0  0  0  0  0  0  0  0  0  0  0
  148.7396  141.1801  156.3381 C   0  0  0  0  0  0  0  0  0  0  0  0
  148.5397  140.3795  155.0295 C   0  0  0  0  0  0  0  0  0  0  0  0
  148.0978  141.2756  153.8583 C   0  0  0  0  0  0  0  0  0  0  0  0
  147.6908  140.4941  152.7547 O   0  0  0  0  0  0  0  0  0  0  0  0
  149.8196  139.5898  154.6752 C   0  0  0  0  0  0  0  0  0  0  0  0
  150.3271  138.7706  155.8764 C   0  0  0  0  0  0  0  0  0  0  0  0
  154.8419  140.1269  160.1638 H   0  0  0  0  0  0  0  0  0  0  0  0
  154.0877  139.1849  158.8895 H   0  0  0  0  0  0  0  0  0  0  0  0
  153.3417  139.2601  160.4841 H   0  0  0  0  0  0  0  0  0  0  0  0
  153.6798  141.6238  158.5772 H   0  0  0  0  0  0  0  0  0  0  0  0
  151.8477  141.6350  161.0126 H   0  0  0  0  0  0  0  0  0  0  0  0
  153.5367  142.0551  161.1832 H   0  0  0  0  0  0  0  0  0  0  0  0
  151.8637  144.3270  161.8905 H   0  0  0  0  0  0  0  0  0  0  0  0
  151.5214  146.5078  160.2165 H   0  0  0  0  0  0  0  0  0  0  0  0
  152.7665  143.2493  157.9322 H   0  0  0  0  0  0  0  0  0  0  0  0
  150.9835  140.7911  159.0941 H   0  0  0  0  0  0  0  0  0  0  0  0
  148.5816  139.4943  157.6913 H   0  0  0  0  0  0  0  0  0  0  0  0
  149.3868  140.8632  158.3817 H   0  0  0  0  0  0  0  0  0  0  0  0
  147.7947  141.6206  156.6574 H   0  0  0  0  0  0  0  0  0  0  0  0
  149.4250  142.0108  156.1644 H   0  0  0  0  0  0  0  0  0  0  0  0
  147.7513  139.6459  155.2061 H   0  0  0  0  0  0  0  0  0  0  0  0
  147.2803  141.9325  154.1574 H   0  0  0  0  0  0  0  0  0  0  0  0
  148.9215  141.9133  153.5362 H   0  0  0  0  0  0  0  0  0  0  0  0
  148.4475  140.0463  152.4081 H   0  0  0  0  0  0  0  0  0  0  0  0
  149.6270  138.9257  153.8321 H   0  0  0  0  0  0  0  0  0  0  0  0
  150.6015  140.2791  154.3529 H   0  0  0  0  0  0  0  0  0  0  0  0
  151.2204  138.2119  155.5936 H   0  0  0  0  0  0  0  0  0  0  0  0
  149.5876  138.0204  156.1599 H   0  0  0  0  0  0  0  0  0  0  0  0
  1  2  1  0  0  0  0
  1 20  1  0  0  0  0
  1 21  1  0  0  0  0
  1 22  1  0  0  0  0
  2  3  1  0  0  0  0
  2  9  1  0  0  0  0
  2 23  1  0  0  0  0
  3  4  1  0  0  0  0
  3 24  1  0  0  0  0
  3 25  1  0  0  0  0
  4  8  1  0  0  0  0
  4  5  1  0  0  0  0
  5  6  2  0  0  0  0
  5 26  1  0  0  0  0
  6  7  1  0  0  0  0
  6 27  1  0  0  0  0
  7  8  2  0  0  0  0
  8 28  1  0  0  0  0
  9 10  1  0  0  0  0
  9 29  1  0  0  0  0
 10 11  2  0  0  0  0
 10 12  1  0  0  0  0
 12 19  1  0  0  0  0
 12 13  1  0  0  0  0
 13 14  1  0  0  0  0
 13 30  1  0  0  0  0
 13 31  1  0  0  0  0
 14 15  1  0  0  0  0
 14 32  1  0  0  0  0
 14 33  1  0  0  0  0
 15 16  1  0  0  0  0
 15 18  1  0  0  0  0
 15 34  1  0  0  0  0
 16 17  1  0  0  0  0
 16 35  1  0  0  0  0
 16 36  1  0  0  0  0
 17 37  1  0  0  0  0
 18 19  1  0  0  0  0
 18 38  1  0  0  0  0
 18 39  1  0  0  0  0
 19 40  1  0  0  0  0
 19 41  1  0  0  0  0
M  END
> <s_m_source_file>
AV-unprocessed.smi

> <i_m_source_file_index>
1555

> <i_lp_mmshare_version>
43012

> <i_f3d_flags>
0

> <s_epik_input>
W2NIXTFuW2NIXVtjSF1uMVtDSDJdW0NAQEhdKFtDSDNdKVtOSF1DKD1PKU4yW0NIMl1bQ0gyXVtDSF0oW0NIMl1bT0hdKVtDSDJdW0NIMl0y

> <s_epik_cmdline>
J2VwaWtfcHl0aG9uJywgJy1waCcsICc3LjAnLCAnLXRuJywgJzgnLCAnLW1hJywgJzIwMCcsICctbWV0YWxfYmluZGluZycsICctaW1hZScsICc8aW5maWxlLm1hZT4nLCAnLW9tYWUnLCAnPG91dGZpbGUubWFlPic=

> <r_lp_tautomer_probability>
1

> <r_epik_Ionization_Penalty>
0.625883

> <r_epik_Ionization_Penalty_Charging>
0.625812

> <r_epik_Ionization_Penalty_Neutral>
7.07114e-05

> <r_epik_State_Penalty>
0.642234

> <r_epik_Charging_Adjusted_Penalty>
1.26805

> <i_epik_Tot_Q>
0

> <i_epik_Tot_abs_Q>
0

> <r_epik_Metal_State_Penalty>
0.307949

> <b_epik_Metal_Only>
0

> <s_lp_Force_Field>
OPLS_2005

> <r_lp_Energy>
32.8415

> <b_lp_Chiralities_Consistent>
1

> <s_lp_Variant>
AV-unprocessed.smi:1555-3

> <Gold.Version>
5.8.1

> <Gold.Id.Protein>
6NUR|6NUR_protein|mol2

> <Gold.PLP.Fitness>
44.4502

> <Gold.PLP.PLP>
-39.3559

> <Gold.PLP.part.hbond>
-2.0000

> <Gold.PLP.part.metal>
0.0000

> <Gold.PLP.part.buried>
-5.2540

> <Gold.PLP.part.nonpolar>
-32.1395

> <Gold.PLP.part.repulsive>
0.1760

> <Gold.PLP.ligand.clash>
0.0000

> <Gold.PLP.ligand.torsion>
0.4863

> <Gold.PLP.Chemscore.Hbond>
2.0000

> <Gold.PLP.Chemscore.CHOScore>
0.0000

> <Gold.PLP.Chemscore.Metal>
0.0000

> <Gold.Chemscore.Hbonds>
donor molecule, donor type, donor heavy atom, donor atom, acceptor molecule, acceptor atom, score
      L1  H    17    37       P1  7957  0.88
      P1  H  7997  8008       L1    11  1.00

> <Gold.PLP.Chemscore.Internal.Correction>
0.0669

> <Gold.Rescore>
     Score         DG    S(hbond)    S(metal)    S(lipo)     H(rot)  DE(clash)    DE(int)     intcor
     14.56     -15.06       1.99        0.00      79.58       2.49       0.01       0.50       ----

> <Gold.Chemscore.Fitness>
14.5586

> <Gold.Chemscore.DG>
-15.0621

> <Gold.Chemscore.ZeroCoef>
-5.4800

> <Gold.Chemscore.Hbond>
1.9873

> <Gold.Chemscore.Metal>
0.0000

> <Gold.Chemscore.Lipo>
79.5790

> <Gold.Chemscore.Internal_Hbond>
0.0000

> <Gold.Chemscore.DEClash>
0.0067

> <Gold.Chemscore.DEInternal>
0.4969

> <Gold.Chemscore.Rot>
2.4867

> <Gold.Chemscore.Internal.Correction>
   9.000000E+99

> <Gold.Chemscore.Hbonds>
donor molecule, donor type, donor heavy atom, donor atom, acceptor molecule, acceptor atom, score
      L1  H    17    37       P1  7957  0.86
      P1  H  7997  8008       L1    11  0.98

> <Gold.Chemscore.Hbond.Weighted>
-6.6374

> <Gold.Chemscore.Metal.Weighted>
-0.0000

> <Gold.Chemscore.Lipo.Weighted>
-9.3107

> <Gold.Chemscore.Internal_Hbond.Weighted>
0.0000

> <Gold.Chemscore.DEClash.Weighted>
0.0067

> <Gold.Chemscore.DEInternal.Weighted>
0.4969

> <Gold.Chemscore.Rot.Weighted>
6.3660

> <Gold.Chemscore.Internal.Correction.Weighted>
   9.000000E+99

> <Gold.Protein.RotatedTorsions>
[ 6907 6896 6895 6894 ] final -137.94 input  -60.11 | X-H torsion
[ 7974 7965 7964 7962 ] final  -30.80 input  175.53 | X-H torsion
[ 8008 7997 7996 7995 ] final  -42.59 input   59.86 | X-H torsion
[ 10167 10162 10161 10158 ] final   15.45 input  -65.29 | X-H torsion
[ 10718 10713 10712 10709 ] final  175.55 input   66.30 | X-H torsion
[ 10763 10752 10751 10750 ] final   13.89 input  -60.55 | X-H torsion
[ 11005 11000 10999 10996 ] final  110.75 input  -57.11 | X-H torsion

> <Gold.Protein.ActiveResidues>
 VAL166  LYS551  ARG553  GLY616  TRP617  ASP618  TYR619  PRO620  LYS621  CYS622 
 ASP623  PHE694  ASN695  SER759  ASP760  ASP761  ALA762  ILE779  LEU786  VAL792 
 PHE793  MET794  SER795  GLU796  ALA797  LYS798  CYS799  TRP800  GLU811  SER814 

> <Gold.Protein.RotatedAtoms>
  151.0287  133.5810  159.2662 H   0  0  0  0  0  0  0  0  0  0  0  0  # atno 6907 bound_to 6896
  151.2899  135.0738  159.9210 H   0  0  0  0  0  0  0  0  0  0  0  0  # atno 6908 bound_to 6896
  152.5340  133.9987  159.7939 H   0  0  0  0  0  0  0  0  0  0  0  0  # atno 6909 bound_to 6896
  146.1116  140.5586  142.8775 H   0  0  0  0  0  0  0  0  0  0  0  0  # atno 7974 bound_to 7965
  154.3998  140.1469  156.3380 H   0  0  0  0  0  0  0  0  0  0  0  0  # atno 8008 bound_to 7997
  155.8383  140.3463  155.5594 H   0  0  0  0  0  0  0  0  0  0  0  0  # atno 8009 bound_to 7997
  155.8114  140.0884  157.1892 H   0  0  0  0  0  0  0  0  0  0  0  0  # atno 8010 bound_to 7997
  140.5866  143.8877  150.6836 H   0  0  0  0  0  0  0  0  0  0  0  0  # atno 10167 bound_to 10162
  156.9333  130.9978  151.2983 H   0  0  0  0  0  0  0  0  0  0  0  0  # atno 10718 bound_to 10713
  153.1676  135.6807  153.8653 H   0  0  0  0  0  0  0  0  0  0  0  0  # atno 10763 bound_to 10752
  153.8027  135.3153  155.3393 H   0  0  0  0  0  0  0  0  0  0  0  0  # atno 10764 bound_to 10752
  154.7976  135.4797  154.0289 H   0  0  0  0  0  0  0  0  0  0  0  0  # atno 10765 bound_to 10752
  139.8888  134.9491  156.6327 H   0  0  0  0  0  0  0  0  0  0  0  0  # atno 11005 bound_to 11000
  144.7516  140.5205  143.6798 LP  0  0  0  0  0  0  0  0  0  0  0  0  # atno 17320 bound_to 7965
  145.5653  139.1481  143.3319 LP  0  0  0  0  0  0  0  0  0  0  0  0  # atno 17321 bound_to 7965
  140.2390  143.3678  152.1502 LP  0  0  0  0  0  0  0  0  0  0  0  0  # atno 17342 bound_to 10162
  139.5201  144.7029  151.5441 LP  0  0  0  0  0  0  0  0  0  0  0  0  # atno 17343 bound_to 10162
  157.5833  130.8391  149.8553 LP  0  0  0  0  0  0  0  0  0  0  0  0  # atno 17370 bound_to 10713
  156.0437  130.3733  150.1370 LP  0  0  0  0  0  0  0  0  0  0  0  0  # atno 17371 bound_to 10713
  140.7654  133.8782  155.8450 LP  0  0  0  0  0  0  0  0  0  0  0  0  # atno 17394 bound_to 11000
  140.9887  134.1308  157.4428 LP  0  0  0  0  0  0  0  0  0  0  0  0  # atno 17395 bound_to 11000

$$$$
