AV-unprocessed.smi:551|AV-procd|sdf|2901|dock1
  -GOLD-   2262023393D 1   1.00000     0.00000
 Structure written by MMmdl.
 38 39  0  0  0  0  0  0  0  0  1 V2000
  149.6073  138.2944  156.5163 C   0  0  0  0  0  0  0  0  0  0  0  0
  150.6711  139.2947  156.0447 C   0  0  1  0  0  0  0  0  0  0  0  0
  150.4191  139.7391  154.5885 C   0  0  0  0  0  0  0  0  0  0  0  0
  149.0678  140.2252  154.3765 N   0  0  0  0  0  0  0  0  0  0  0  0
  147.9370  139.4660  154.1038 C   0  0  0  0  0  0  0  0  0  0  0  0
  146.8882  140.3501  153.9903 C   0  0  0  0  0  0  0  0  0  0  0  0
  147.3486  141.6507  154.1819 N   0  0  0  0  0  0  0  0  0  0  0  0
  148.6476  141.4974  154.4044 C   0  0  0  0  0  0  0  0  0  0  0  0
  150.6722  140.4474  156.9445 N   0  0  0  0  0  0  0  0  0  0  0  0
  151.6849  140.8155  157.7459 C   0  0  0  0  0  0  0  0  0  0  0  0
  152.7400  140.1870  157.8364 O   0  0  0  0  0  0  0  0  0  0  0  0
  151.4803  142.1025  158.5553 C   0  0  0  0  0  0  0  0  0  0  0  0
  151.2514  143.3059  157.6161 C   0  0  0  0  0  0  0  0  0  0  0  0
  151.0589  144.6075  158.4112 C   0  0  0  0  0  0  0  0  0  0  0  0
  152.2477  144.8674  159.3498 C   0  0  0  0  0  0  0  0  0  0  0  0
  152.4883  143.6722  160.2858 C   0  0  0  0  0  0  0  0  0  0  0  0
  152.6803  142.3712  159.4890 C   0  0  0  0  0  0  0  0  0  0  0  0
  149.5979  137.4058  155.8845 H   0  0  0  0  0  0  0  0  0  0  0  0
  148.6090  138.7325  156.4887 H   0  0  0  0  0  0  0  0  0  0  0  0
  149.8005  137.9680  157.5388 H   0  0  0  0  0  0  0  0  0  0  0  0
  151.6349  138.7840  156.0915 H   0  0  0  0  0  0  0  0  0  0  0  0
  151.1084  140.5392  154.3154 H   0  0  0  0  0  0  0  0  0  0  0  0
  150.6079  138.9161  153.8978 H   0  0  0  0  0  0  0  0  0  0  0  0
  147.9697  138.3896  154.0224 H   0  0  0  0  0  0  0  0  0  0  0  0
  145.8463  140.1516  153.7866 H   0  0  0  0  0  0  0  0  0  0  0  0
  149.3087  142.3295  154.5976 H   0  0  0  0  0  0  0  0  0  0  0  0
  149.8460  141.0277  156.9374 H   0  0  0  0  0  0  0  0  0  0  0  0
  150.5898  141.9806  159.1749 H   0  0  0  0  0  0  0  0  0  0  0  0
  152.0987  143.4217  156.9379 H   0  0  0  0  0  0  0  0  0  0  0  0
  150.3771  143.1310  156.9874 H   0  0  0  0  0  0  0  0  0  0  0  0
  150.9354  145.4467  157.7263 H   0  0  0  0  0  0  0  0  0  0  0  0
  150.1393  144.5466  158.9943 H   0  0  0  0  0  0  0  0  0  0  0  0
  153.1450  145.0551  158.7587 H   0  0  0  0  0  0  0  0  0  0  0  0
  152.0686  145.7694  159.9357 H   0  0  0  0  0  0  0  0  0  0  0  0
  153.3632  143.8587  160.9091 H   0  0  0  0  0  0  0  0  0  0  0  0
  151.6422  143.5633  160.9653 H   0  0  0  0  0  0  0  0  0  0  0  0
  152.8128  141.5376  160.1799 H   0  0  0  0  0  0  0  0  0  0  0  0
  153.6021  142.4405  158.9088 H   0  0  0  0  0  0  0  0  0  0  0  0
  1  2  1  0  0  0  0
  1 18  1  0  0  0  0
  1 19  1  0  0  0  0
  1 20  1  0  0  0  0
  2  3  1  0  0  0  0
  2  9  1  0  0  0  0
  2 21  1  0  0  0  0
  3  4  1  0  0  0  0
  3 22  1  0  0  0  0
  3 23  1  0  0  0  0
  4  8  1  0  0  0  0
  4  5  1  0  0  0  0
  5  6  2  0  0  0  0
  5 24  1  0  0  0  0
  6  7  1  0  0  0  0
  6 25  1  0  0  0  0
  7  8  2  0  0  0  0
  8 26  1  0  0  0  0
  9 10  1  0  0  0  0
  9 27  1  0  0  0  0
 10 11  2  0  0  0  0
 10 12  1  0  0  0  0
 12 17  1  0  0  0  0
 12 13  1  0  0  0  0
 12 28  1  0  0  0  0
 13 14  1  0  0  0  0
 13 29  1  0  0  0  0
 13 30  1  0  0  0  0
 14 15  1  0  0  0  0
 14 31  1  0  0  0  0
 14 32  1  0  0  0  0
 15 16  1  0  0  0  0
 15 33  1  0  0  0  0
 15 34  1  0  0  0  0
 16 17  1  0  0  0  0
 16 35  1  0  0  0  0
 16 36  1  0  0  0  0
 17 37  1  0  0  0  0
 17 38  1  0  0  0  0
M  END
> <s_m_source_file>
AV-unprocessed.smi

> <i_m_source_file_index>
551

> <i_lp_mmshare_version>
43012

> <i_f3d_flags>
0

> <s_epik_input>
W2NIXTFuW2NIXVtjSF1uMVtDSDJdW0NAQEhdKFtDSDNdKVtOSF1DKD1PKVtDSF0yW0NIMl1bQ0gyXVtDSDJdW0NIMl1bQ0gyXTI=

> <s_epik_cmdline>
J2VwaWtfcHl0aG9uJywgJy1waCcsICc3LjAnLCAnLXRuJywgJzgnLCAnLW1hJywgJzIwMCcsICctbWV0YWxfYmluZGluZycsICctaW1hZScsICc8aW5maWxlLm1hZT4nLCAnLW9tYWUnLCAnPG91dGZpbGUubWFlPic=

> <r_lp_tautomer_probability>
1

> <r_epik_Ionization_Penalty>
0.642614

> <r_epik_Ionization_Penalty_Charging>
0.642614

> <r_epik_Ionization_Penalty_Neutral>
3.29891e-08

> <r_epik_State_Penalty>
0.660429

> <r_epik_Charging_Adjusted_Penalty>
1.30304

> <i_epik_Tot_Q>
0

> <i_epik_Tot_abs_Q>
0

> <r_epik_Metal_State_Penalty>
0.31224

> <b_epik_Metal_Only>
0

> <s_lp_Force_Field>
OPLS_2005

> <r_lp_Energy>
12.4308

> <b_lp_Chiralities_Consistent>
1

> <s_lp_Variant>
AV-unprocessed.smi:551-4

> <Gold.Version>
5.8.1

> <Gold.Id.Protein>
6NUR|6NUR_protein|mol2

> <Gold.PLP.Fitness>
43.2653

> <Gold.PLP.PLP>
-35.0167

> <Gold.PLP.part.hbond>
-1.0000

> <Gold.PLP.part.metal>
0.0000

> <Gold.PLP.part.buried>
-1.4332

> <Gold.PLP.part.nonpolar>
-33.0351

> <Gold.PLP.part.repulsive>
0.2033

> <Gold.PLP.ligand.clash>
0.0000

> <Gold.PLP.ligand.torsion>
0.4056

> <Gold.PLP.Chemscore.Hbond>
0.9920

> <Gold.PLP.Chemscore.CHOScore>
1.9963

> <Gold.PLP.Chemscore.Metal>
0.0000

> <Gold.Chemscore.Hbonds>
donor molecule, donor type, donor heavy atom, donor atom, acceptor molecule, acceptor atom, score
      P1  H  7997  8009       L1    11  1.00
      L1  C     6    25       P1 10175  0.95
      L1  C     8    26       P1  8028  0.74

> <Gold.PLP.Chemscore.Internal.Correction>
0.0948

> <Gold.Rescore>
     Score         DG    S(hbond)    S(metal)    S(lipo)     H(rot)  DE(clash)    DE(int)     intcor
     14.63     -14.99       0.94        0.00      92.18       1.73       0.02       0.33       ----

> <Gold.Chemscore.Fitness>
14.6291

> <Gold.Chemscore.DG>
-14.9854

> <Gold.Chemscore.ZeroCoef>
-5.4800

> <Gold.Chemscore.Hbond>
0.9443

> <Gold.Chemscore.Metal>
0.0000

> <Gold.Chemscore.Lipo>
92.1824

> <Gold.Chemscore.Internal_Hbond>
0.0000

> <Gold.Chemscore.DEClash>
0.0247

> <Gold.Chemscore.DEInternal>
0.3315

> <Gold.Chemscore.Rot>
1.7319

> <Gold.Chemscore.Internal.Correction>
   9.000000E+99

> <Gold.Chemscore.Hbonds>
donor molecule, donor type, donor heavy atom, donor atom, acceptor molecule, acceptor atom, score
      P1  H  7997  8009       L1    11  0.92

> <Gold.Chemscore.Hbond.Weighted>
-3.1538

> <Gold.Chemscore.Metal.Weighted>
-0.0000

> <Gold.Chemscore.Lipo.Weighted>
-10.7853

> <Gold.Chemscore.Internal_Hbond.Weighted>
0.0000

> <Gold.Chemscore.DEClash.Weighted>
0.0247

> <Gold.Chemscore.DEInternal.Weighted>
0.3315

> <Gold.Chemscore.Rot.Weighted>
4.4338

> <Gold.Chemscore.Internal.Correction.Weighted>
   9.000000E+99

> <Gold.Protein.RotatedTorsions>
[ 6907 6896 6895 6894 ] final   33.79 input  -60.11 | X-H torsion
[ 7974 7965 7964 7962 ] final -148.62 input  175.53 | X-H torsion
[ 8008 7997 7996 7995 ] final  165.29 input   59.86 | X-H torsion
[ 10167 10162 10161 10158 ] final   19.17 input  -65.29 | X-H torsion
[ 10718 10713 10712 10709 ] final -136.12 input   66.30 | X-H torsion
[ 10763 10752 10751 10750 ] final  -85.97 input  -60.55 | X-H torsion
[ 11005 11000 10999 10996 ] final  -52.91 input  -57.11 | X-H torsion

> <Gold.Protein.ActiveResidues>
 VAL166  LYS551  ARG553  GLY616  TRP617  ASP618  TYR619  PRO620  LYS621  CYS622 
 ASP623  PHE694  ASN695  SER759  ASP760  ASP761  ALA762  ILE779  LEU786  VAL792 
 PHE793  MET794  SER795  GLU796  ALA797  LYS798  CYS799  TRP800  GLU811  SER814 

> <Gold.Protein.RotatedAtoms>
  152.0935  134.9391  160.0571 H   0  0  0  0  0  0  0  0  0  0  0  0  # atno 6907 bound_to 6896
  152.0633  133.4067  159.4435 H   0  0  0  0  0  0  0  0  0  0  0  0  # atno 6908 bound_to 6896
  150.6837  134.3095  159.4784 H   0  0  0  0  0  0  0  0  0  0  0  0  # atno 6909 bound_to 6896
  144.8018  140.5173  143.5702 H   0  0  0  0  0  0  0  0  0  0  0  0  # atno 7974 bound_to 7965
  156.1812  140.1674  156.8270 H   0  0  0  0  0  0  0  0  0  0  0  0  # atno 8008 bound_to 7997
  154.5362  140.0746  156.8465 H   0  0  0  0  0  0  0  0  0  0  0  0  # atno 8009 bound_to 7997
  155.3306  140.3379  155.4242 H   0  0  0  0  0  0  0  0  0  0  0  0  # atno 8010 bound_to 7997
  140.5599  143.9356  150.6635 H   0  0  0  0  0  0  0  0  0  0  0  0  # atno 10167 bound_to 10162
  156.2735  130.7279  151.1254 H   0  0  0  0  0  0  0  0  0  0  0  0  # atno 10718 bound_to 10713
  154.6171  135.5466  153.7535 H   0  0  0  0  0  0  0  0  0  0  0  0  # atno 10763 bound_to 10752
  153.0221  135.6403  154.1494 H   0  0  0  0  0  0  0  0  0  0  0  0  # atno 10764 bound_to 10752
  154.1430  135.2907  155.3136 H   0  0  0  0  0  0  0  0  0  0  0  0  # atno 10765 bound_to 10752
  141.0949  133.6626  156.4094 H   0  0  0  0  0  0  0  0  0  0  0  0  # atno 11005 bound_to 11000
  145.5534  139.1477  143.3381 LP  0  0  0  0  0  0  0  0  0  0  0  0  # atno 17320 bound_to 7965
  146.2301  140.5672  142.8979 LP  0  0  0  0  0  0  0  0  0  0  0  0  # atno 17321 bound_to 7965
  140.2804  143.3393  152.1156 LP  0  0  0  0  0  0  0  0  0  0  0  0  # atno 17342 bound_to 10162
  139.5065  144.6815  151.5996 LP  0  0  0  0  0  0  0  0  0  0  0  0  # atno 17343 bound_to 10162
  157.7292  131.0626  150.5786 LP  0  0  0  0  0  0  0  0  0  0  0  0  # atno 17370 bound_to 10713
  156.5885  130.4323  149.5947 LP  0  0  0  0  0  0  0  0  0  0  0  0  # atno 17371 bound_to 10713
  140.5164  134.6346  157.5303 LP  0  0  0  0  0  0  0  0  0  0  0  0  # atno 17394 bound_to 11000
  139.9783  134.7179  155.9908 LP  0  0  0  0  0  0  0  0  0  0  0  0  # atno 17395 bound_to 11000

$$$$
