AV-unprocessed.smi:1893|AV-procd|sdf|7676|dock6
  -GOLD-   22720 9413D 1   1.00000     0.00000
 Structure written by MMmdl.
 43 44  0  0  0  0  0  0  0  0  2 V2000
  144.9394  134.5912  154.1928 C   0  0  0  0  0  0  0  0  0  0  0  0
  146.1827  134.7257  153.2866 C   0  0  1  0  0  0  0  0  0  0  0  0
  146.2427  133.6262  152.2054 C   0  0  0  0  0  0  0  0  0  0  0  0
  145.2048  133.8510  151.0960 C   0  0  0  0  0  0  0  0  0  0  0  0
  145.3621  135.2577  150.5065 C   0  0  0  0  0  0  0  0  0  0  0  0
  145.3019  136.3324  151.6047 C   0  0  0  0  0  0  0  0  0  0  0  0
  146.3185  136.0762  152.6621 N   0  3  1  0  0  0  0  0  0  0  0  0
  146.4477  137.1788  153.6499 C   0  0  0  0  0  0  0  0  0  0  0  0
  146.5743  138.5573  152.9746 C   0  0  0  0  0  0  0  0  0  0  0  0
  147.8014  139.2365  153.3724 N   0  0  0  0  0  0  0  0  0  0  0  0
  148.1624  139.4906  154.6411 C   0  0  0  0  0  0  0  0  0  0  0  0
  147.4554  139.1950  155.6054 O   0  0  0  0  0  0  0  0  0  0  0  0
  149.5187  140.1907  154.8412 C   0  0  1  0  0  0  0  0  0  0  0  0
  149.4810  141.2803  155.9320 C   0  0  0  0  0  0  0  0  0  0  0  0
  150.5725  139.2150  155.0950 N   0  0  0  0  0  0  0  0  0  0  0  0
  150.6333  137.9166  154.7918 C   0  0  0  0  0  0  0  0  0  0  0  0
  151.7401  137.3176  155.2082 N   0  0  0  0  0  0  0  0  0  0  0  0
  152.3618  138.3769  155.8063 C   0  0  0  0  0  0  0  0  0  0  0  0
  151.7026  139.5348  155.7737 N   0  0  0  0  0  0  0  0  0  0  0  0
  144.8955  133.5976  154.6393 H   0  0  0  0  0  0  0  0  0  0  0  0
  144.0081  134.7402  153.6474 H   0  0  0  0  0  0  0  0  0  0  0  0
  144.9588  135.3058  155.0154 H   0  0  0  0  0  0  0  0  0  0  0  0
  147.0557  134.5807  153.9247 H   0  0  0  0  0  0  0  0  0  0  0  0
  147.2392  133.6152  151.7613 H   0  0  0  0  0  0  0  0  0  0  0  0
  146.1033  132.6427  152.6558 H   0  0  0  0  0  0  0  0  0  0  0  0
  145.3241  133.1010  150.3135 H   0  0  0  0  0  0  0  0  0  0  0  0
  144.1971  133.7246  151.4925 H   0  0  0  0  0  0  0  0  0  0  0  0
  146.3142  135.3281  149.9788 H   0  0  0  0  0  0  0  0  0  0  0  0
  144.5843  135.4390  149.7641 H   0  0  0  0  0  0  0  0  0  0  0  0
  145.4732  137.3050  151.1452 H   0  0  0  0  0  0  0  0  0  0  0  0
  144.3044  136.3722  152.0433 H   0  0  0  0  0  0  0  0  0  0  0  0
  145.6008  137.1644  154.3375 H   0  0  0  0  0  0  0  0  0  0  0  0
  147.3401  137.0096  154.2542 H   0  0  0  0  0  0  0  0  0  0  0  0
  146.5392  138.4565  151.8885 H   0  0  0  0  0  0  0  0  0  0  0  0
  145.7438  139.2054  153.2519 H   0  0  0  0  0  0  0  0  0  0  0  0
  148.4346  139.5097  152.6346 H   0  0  0  0  0  0  0  0  0  0  0  0
  149.7585  140.6843  153.8981 H   0  0  0  0  0  0  0  0  0  0  0  0
  148.7402  142.0464  155.7003 H   0  0  0  0  0  0  0  0  0  0  0  0
  150.4474  141.7784  156.0166 H   0  0  0  0  0  0  0  0  0  0  0  0
  149.2361  140.8677  156.9116 H   0  0  0  0  0  0  0  0  0  0  0  0
  149.8500  137.3975  154.2591 H   0  0  0  0  0  0  0  0  0  0  0  0
  153.3262  138.2909  156.2848 H   0  0  0  0  0  0  0  0  0  0  0  0
  147.2073  136.0471  152.1829 H   0  0  0  0  0  0  0  0  0  0  0  0
  1  2  1  0  0  0  0
  1 20  1  0  0  0  0
  1 21  1  0  0  0  0
  1 22  1  0  0  0  0
  2  7  1  0  0  0  0
  2  3  1  0  0  0  0
  2 23  1  0  0  0  0
  3  4  1  0  0  0  0
  3 24  1  0  0  0  0
  3 25  1  0  0  0  0
  4  5  1  0  0  0  0
  4 26  1  0  0  0  0
  4 27  1  0  0  0  0
  5  6  1  0  0  0  0
  5 28  1  0  0  0  0
  5 29  1  0  0  0  0
  6  7  1  0  0  0  0
  6 30  1  0  0  0  0
  6 31  1  0  0  0  0
  7  8  1  0  0  0  0
  7 43  1  0  0  0  0
  8  9  1  0  0  0  0
  8 32  1  0  0  0  0
  8 33  1  0  0  0  0
  9 10  1  0  0  0  0
  9 34  1  0  0  0  0
  9 35  1  0  0  0  0
 10 11  1  0  0  0  0
 10 36  1  0  0  0  0
 11 12  2  0  0  0  0
 11 13  1  0  0  0  0
 13 14  1  0  0  0  0
 13 15  1  0  0  0  0
 13 37  1  0  0  0  0
 14 38  1  0  0  0  0
 14 39  1  0  0  0  0
 14 40  1  0  0  0  0
 15 19  1  0  0  0  0
 15 16  1  0  0  0  0
 16 17  2  0  0  0  0
 16 41  1  0  0  0  0
 17 18  1  0  0  0  0
 18 19  2  0  0  0  0
 18 42  1  0  0  0  0
M  CHG  1   7   1
M  END
> <s_m_source_file>
AV-unprocessed.smi

> <i_m_source_file_index>
1893

> <i_lp_mmshare_version>
43012

> <i_f3d_flags>
0

> <s_epik_input>
W0NIM11bQ0BASF0xW0NIMl1bQ0gyXVtDSDJdW0NIMl1OMVtDSDJdW0NIMl1bTkhdQyg9TylbQ0BIXShbQ0gzXSluMltjSF1uW2NIXW4y

> <s_epik_cmdline>
J2VwaWtfcHl0aG9uJywgJy1waCcsICc3LjAnLCAnLXRuJywgJzgnLCAnLW1hJywgJzIwMCcsICctbWV0YWxfYmluZGluZycsICctaW1hZScsICc8aW5maWxlLm1hZT4nLCAnLW9tYWUnLCAnPG91dGZpbGUubWFlPic=

> <r_lp_tautomer_probability>
1

> <r_epik_Ionization_Penalty>
0.00266409

> <r_epik_Ionization_Penalty_Charging>
0.00265606

> <r_epik_Ionization_Penalty_Neutral>
8.02794e-06

> <r_epik_State_Penalty>
0.00184955

> <r_epik_Charging_Adjusted_Penalty>
0.00450561

> <i_epik_Tot_Q>
1

> <i_epik_Tot_abs_Q>
1

> <r_epik_Metal_State_Penalty>
-0

> <b_epik_Metal_Only>
0

> <s_lp_Force_Field>
OPLS_2005

> <r_lp_Energy>
24.9679

> <b_lp_Chiralities_Consistent>
1

> <s_lp_Variant>
AV-unprocessed.smi:1893-6

> <Gold.Version>
5.8.1

> <Gold.Id.Protein>
6NUR|6NUR_protein|mol2

> <Gold.PLP.Fitness>
44.9039

> <Gold.PLP.PLP>
-33.4995

> <Gold.PLP.part.hbond>
-4.0000

> <Gold.PLP.part.metal>
0.0000

> <Gold.PLP.part.buried>
-2.6613

> <Gold.PLP.part.nonpolar>
-27.2239

> <Gold.PLP.part.repulsive>
0.2472

> <Gold.PLP.ligand.clash>
0.0000

> <Gold.PLP.ligand.torsion>
1.7403

> <Gold.PLP.Chemscore.Hbond>
3.9120

> <Gold.PLP.Chemscore.CHOScore>
1.0000

> <Gold.PLP.Chemscore.Metal>
0.0000

> <Gold.Chemscore.Hbonds>
donor molecule, donor type, donor heavy atom, donor atom, acceptor molecule, acceptor atom, score
      L1  H     7    43       P1  7948  2.00
      L1  H    10    36       P1  7957  1.00
      P1  H 10752 10763       L1    17  0.35
      L1  C    16    41       P1  7948  0.37

> <Gold.PLP.Chemscore.Internal.Correction>
0.1489

> <Gold.Rescore>
     Score         DG    S(hbond)    S(metal)    S(lipo)     H(rot)  DE(clash)    DE(int)     intcor
     11.39     -14.24       2.80        0.00      50.48       2.54       0.12       2.72       ----

> <Gold.Chemscore.Fitness>
11.3925

> <Gold.Chemscore.DG>
-14.2394

> <Gold.Chemscore.ZeroCoef>
-5.4800

> <Gold.Chemscore.Hbond>
2.7993

> <Gold.Chemscore.Metal>
0.0000

> <Gold.Chemscore.Lipo>
50.4808

> <Gold.Chemscore.Internal_Hbond>
0.0000

> <Gold.Chemscore.DEClash>
0.1226

> <Gold.Chemscore.DEInternal>
2.7243

> <Gold.Chemscore.Rot>
2.5377

> <Gold.Chemscore.Internal.Correction>
   9.000000E+99

> <Gold.Chemscore.Hbonds>
donor molecule, donor type, donor heavy atom, donor atom, acceptor molecule, acceptor atom, score
      L1  H     7    43       P1  7948  1.00
      L1  H    10    36       P1  7957  0.99
      P1  H 10752 10763       L1    17  0.34

> <Gold.Chemscore.Hbond.Weighted>
-9.3498

> <Gold.Chemscore.Metal.Weighted>
-0.0000

> <Gold.Chemscore.Lipo.Weighted>
-5.9063

> <Gold.Chemscore.Internal_Hbond.Weighted>
0.0000

> <Gold.Chemscore.DEClash.Weighted>
0.1226

> <Gold.Chemscore.DEInternal.Weighted>
2.7243

> <Gold.Chemscore.Rot.Weighted>
6.4966

> <Gold.Chemscore.Internal.Correction.Weighted>
   9.000000E+99

> <Gold.Protein.RotatedTorsions>
[ 6907 6896 6895 6894 ] final  -32.64 input  -60.11 | X-H torsion
[ 7974 7965 7964 7962 ] final   75.64 input  175.53 | X-H torsion
[ 8008 7997 7996 7995 ] final -117.65 input   59.86 | X-H torsion
[ 10167 10162 10161 10158 ] final   -1.58 input  -65.29 | X-H torsion
[ 10718 10713 10712 10709 ] final -120.27 input   66.30 | X-H torsion
[ 10763 10752 10751 10750 ] final   38.58 input  -60.55 | X-H torsion
[ 11005 11000 10999 10996 ] final  123.32 input  -57.11 | X-H torsion

> <Gold.Protein.ActiveResidues>
 VAL166  LYS551  ARG553  GLY616  TRP617  ASP618  TYR619  PRO620  LYS621  CYS622 
 ASP623  PHE694  ASN695  SER759  ASP760  ASP761  ALA762  ILE779  LEU786  VAL792 
 PHE793  MET794  SER795  GLU796  ALA797  LYS798  CYS799  TRP800  GLU811  SER814 

> <Gold.Protein.RotatedAtoms>
  151.0760  134.9829  159.8332 H   0  0  0  0  0  0  0  0  0  0  0  0  # atno 6907 bound_to 6896
  152.5414  134.2240  159.8809 H   0  0  0  0  0  0  0  0  0  0  0  0  # atno 6908 bound_to 6896
  151.2267  133.4429  159.2636 H   0  0  0  0  0  0  0  0  0  0  0  0  # atno 6909 bound_to 6896
  145.7130  139.2621  143.1640 H   0  0  0  0  0  0  0  0  0  0  0  0  # atno 7974 bound_to 7965
  155.0871  140.0394  157.2657 H   0  0  0  0  0  0  0  0  0  0  0  0  # atno 8008 bound_to 7997
  154.6861  140.2643  155.6835 H   0  0  0  0  0  0  0  0  0  0  0  0  # atno 8009 bound_to 7997
  156.2712  140.2769  156.1422 H   0  0  0  0  0  0  0  0  0  0  0  0  # atno 8010 bound_to 7997
  140.6816  143.6759  150.8146 H   0  0  0  0  0  0  0  0  0  0  0  0  # atno 10167 bound_to 10162
  156.1245  130.6348  150.9519 H   0  0  0  0  0  0  0  0  0  0  0  0  # atno 10718 bound_to 10713
  152.9996  135.6245  154.2328 H   0  0  0  0  0  0  0  0  0  0  0  0  # atno 10763 bound_to 10752
  154.2069  135.2801  155.2973 H   0  0  0  0  0  0  0  0  0  0  0  0  # atno 10764 bound_to 10752
  154.5638  135.5697  153.7090 H   0  0  0  0  0  0  0  0  0  0  0  0  # atno 10765 bound_to 10752
  139.9307  134.9641  156.8242 H   0  0  0  0  0  0  0  0  0  0  0  0  # atno 11005 bound_to 11000
  146.0695  140.7884  142.9695 LP  0  0  0  0  0  0  0  0  0  0  0  0  # atno 17320 bound_to 7965
  144.6937  140.3320  143.7214 LP  0  0  0  0  0  0  0  0  0  0  0  0  # atno 17321 bound_to 7965
  140.0460  143.5298  152.2696 LP  0  0  0  0  0  0  0  0  0  0  0  0  # atno 17342 bound_to 10162
  139.6142  144.7616  151.2883 LP  0  0  0  0  0  0  0  0  0  0  0  0  # atno 17343 bound_to 10162
  157.6427  131.0908  150.8217 LP  0  0  0  0  0  0  0  0  0  0  0  0  # atno 17370 bound_to 10713
  156.8309  130.5015  149.5331 LP  0  0  0  0  0  0  0  0  0  0  0  0  # atno 17371 bound_to 10713
  140.6209  133.9994  155.7618 LP  0  0  0  0  0  0  0  0  0  0  0  0  # atno 17394 bound_to 11000
  141.0894  133.9940  157.3261 LP  0  0  0  0  0  0  0  0  0  0  0  0  # atno 17395 bound_to 11000

$$$$
