AV-unprocessed.smi:863|AV-procd|sdf|3985|dock6
  -GOLD-   22720 1463D 1   1.00000     0.00000
 Structure written by MMmdl.
 42 44  0  0  0  0  0  0  0  0  1 V2000
  150.4847  138.0882  159.2636 O   0  0  0  0  0  0  0  0  0  0  0  0
  151.2678  138.0979  158.3136 C   0  0  0  0  0  0  0  0  0  0  0  0
  151.2413  136.9627  157.2897 C   0  0  0  0  0  0  0  0  0  0  0  0
  151.0574  137.5195  155.9038 C   0  0  0  0  0  0  0  0  0  0  0  0
  150.4633  138.7541  155.5198 C   0  0  0  0  0  0  0  0  0  0  0  0
  150.5629  138.7467  154.1585 C   0  0  0  0  0  0  0  0  0  0  0  0
  151.1678  137.6092  153.7324 O   0  0  0  0  0  0  0  0  0  0  0  0
  151.4824  136.8328  154.8535 N   0  0  0  0  0  0  0  0  0  0  0  0
  152.1745  139.0667  158.1104 N   0  0  0  0  0  0  0  0  0  0  0  0
  152.3776  140.2254  158.9746 C   0  0  1  0  0  0  0  0  0  0  0  0
  153.8448  140.3236  159.4153 C   0  0  0  0  0  0  0  0  0  0  0  0
  154.0856  141.6165  160.2060 C   0  0  0  0  0  0  0  0  0  0  0  0
  153.6774  142.7526  159.4463 O   0  0  0  0  0  0  0  0  0  0  0  0
  152.3034  142.7911  159.0383 C   0  0  0  0  0  0  0  0  0  0  0  0
  151.3473  142.9580  160.2510 C   0  0  0  0  0  0  0  0  0  0  0  0
  151.5837  144.2755  161.0074 C   0  0  0  0  0  0  0  0  0  0  0  0
  151.4508  145.4843  160.0716 C   0  0  0  0  0  0  0  0  0  0  0  0
  152.3963  145.3528  158.8699 C   0  0  0  0  0  0  0  0  0  0  0  0
  152.1697  144.0284  158.1196 C   0  0  0  0  0  0  0  0  0  0  0  0
  151.9917  141.5105  158.2252 C   0  0  0  0  0  0  0  0  0  0  0  0
  152.1747  136.4020  157.3512 H   0  0  0  0  0  0  0  0  0  0  0  0
  150.4439  136.2612  157.5400 H   0  0  0  0  0  0  0  0  0  0  0  0
  150.0312  139.5214  156.1450 H   0  0  0  0  0  0  0  0  0  0  0  0
  150.2652  139.4435  153.3888 H   0  0  0  0  0  0  0  0  0  0  0  0
  152.7781  138.9882  157.3043 H   0  0  0  0  0  0  0  0  0  0  0  0
  151.7414  140.1254  159.8553 H   0  0  0  0  0  0  0  0  0  0  0  0
  154.1216  139.4606  160.0219 H   0  0  0  0  0  0  0  0  0  0  0  0
  154.4959  140.3121  158.5401 H   0  0  0  0  0  0  0  0  0  0  0  0
  153.5751  141.5871  161.1681 H   0  0  0  0  0  0  0  0  0  0  0  0
  155.1478  141.7179  160.4292 H   0  0  0  0  0  0  0  0  0  0  0  0
  150.3158  142.9393  159.8965 H   0  0  0  0  0  0  0  0  0  0  0  0
  151.4277  142.1250  160.9474 H   0  0  0  0  0  0  0  0  0  0  0  0
  150.8718  144.3634  161.8285 H   0  0  0  0  0  0  0  0  0  0  0  0
  152.5760  144.2671  161.4598 H   0  0  0  0  0  0  0  0  0  0  0  0
  150.4212  145.5648  159.7208 H   0  0  0  0  0  0  0  0  0  0  0  0
  151.6658  146.4037  160.6168 H   0  0  0  0  0  0  0  0  0  0  0  0
  152.2499  146.1930  158.1904 H   0  0  0  0  0  0  0  0  0  0  0  0
  153.4308  145.4108  159.2106 H   0  0  0  0  0  0  0  0  0  0  0  0
  152.8759  143.9584  157.2912 H   0  0  0  0  0  0  0  0  0  0  0  0
  151.1757  144.0427  157.6701 H   0  0  0  0  0  0  0  0  0  0  0  0
  152.5439  141.5447  157.2844 H   0  0  0  0  0  0  0  0  0  0  0  0
  150.9354  141.4849  157.9540 H   0  0  0  0  0  0  0  0  0  0  0  0
  1  2  2  0  0  0  0
  2  3  1  0  0  0  0
  2  9  1  0  0  0  0
  3  4  1  0  0  0  0
  3 21  1  0  0  0  0
  3 22  1  0  0  0  0
  4  8  2  0  0  0  0
  4  5  1  0  0  0  0
  5  6  2  0  0  0  0
  5 23  1  0  0  0  0
  6  7  1  0  0  0  0
  6 24  1  0  0  0  0
  7  8  1  0  0  0  0
  9 10  1  0  0  0  0
  9 25  1  0  0  0  0
 10 20  1  0  0  0  0
 10 11  1  0  0  0  0
 10 26  1  0  0  0  0
 11 12  1  0  0  0  0
 11 27  1  0  0  0  0
 11 28  1  0  0  0  0
 12 13  1  0  0  0  0
 12 29  1  0  0  0  0
 12 30  1  0  0  0  0
 13 14  1  0  0  0  0
 14 19  1  0  0  0  0
 14 15  1  0  0  0  0
 14 20  1  0  0  0  0
 15 16  1  0  0  0  0
 15 31  1  0  0  0  0
 15 32  1  0  0  0  0
 16 17  1  0  0  0  0
 16 33  1  0  0  0  0
 16 34  1  0  0  0  0
 17 18  1  0  0  0  0
 17 35  1  0  0  0  0
 17 36  1  0  0  0  0
 18 19  1  0  0  0  0
 18 37  1  0  0  0  0
 18 38  1  0  0  0  0
 19 39  1  0  0  0  0
 19 40  1  0  0  0  0
 20 41  1  0  0  0  0
 20 42  1  0  0  0  0
M  END
> <s_m_source_file>
AV-unprocessed.smi

> <i_m_source_file_index>
863

> <i_lp_mmshare_version>
43012

> <i_f3d_flags>
0

> <s_epik_input>
bjFvW2NIXVtjSF1jMVtDSDJdQyg9TylbTkhdW0NAQEhdKFtDSDJdMilbQ0gyXVtDSDJdT0MyM1tDSDJdW0NIMl1bQ0gyXVtDSDJdW0NIMl0z

> <s_epik_cmdline>
J2VwaWtfcHl0aG9uJywgJy1waCcsICc3LjAnLCAnLXRuJywgJzgnLCAnLW1hJywgJzIwMCcsICctbWV0YWxfYmluZGluZycsICctaW1hZScsICc8aW5maWxlLm1hZT4nLCAnLW9tYWUnLCAnPG91dGZpbGUubWFlPic=

> <r_lp_tautomer_probability>
1

> <r_epik_Ionization_Penalty>
1.10177e-07

> <r_epik_Ionization_Penalty_Charging>
0

> <r_epik_Ionization_Penalty_Neutral>
1.10177e-07

> <r_epik_State_Penalty>
-0

> <r_epik_Charging_Adjusted_Penalty>
0

> <i_epik_Tot_Q>
0

> <i_epik_Tot_abs_Q>
0

> <r_epik_Metal_State_Penalty>
-0

> <b_epik_Metal_Only>
0

> <s_lp_Force_Field>
OPLS_2005

> <r_lp_Energy>
15.5582

> <b_lp_Chiralities_Consistent>
1

> <s_lp_Variant>
AV-unprocessed.smi:863-2

> <Gold.Version>
5.8.1

> <Gold.Id.Protein>
6NUR|6NUR_protein|mol2

> <Gold.PLP.Fitness>
40.8873

> <Gold.PLP.PLP>
-35.6918

> <Gold.PLP.part.hbond>
-2.0000

> <Gold.PLP.part.metal>
0.0000

> <Gold.PLP.part.buried>
-4.8176

> <Gold.PLP.part.nonpolar>
-31.1631

> <Gold.PLP.part.repulsive>
2.2385

> <Gold.PLP.ligand.clash>
0.0000

> <Gold.PLP.ligand.torsion>
0.4027

> <Gold.PLP.Chemscore.Hbond>
1.0000

> <Gold.PLP.Chemscore.CHOScore>
1.0000

> <Gold.PLP.Chemscore.Metal>
0.0000

> <Gold.Chemscore.Hbonds>
donor molecule, donor type, donor heavy atom, donor atom, acceptor molecule, acceptor atom, score
      P1  H 10752 10764       L1     8  1.00
      L1  C     6    24       P1  7957  1.00

> <Gold.PLP.Chemscore.Internal.Correction>
0.0009

> <Gold.Rescore>
     Score         DG    S(hbond)    S(metal)    S(lipo)     H(rot)  DE(clash)    DE(int)     intcor
     17.43     -19.41       0.90        0.00     124.28       1.42       1.73       0.26       ----

> <Gold.Chemscore.Fitness>
17.4275

> <Gold.Chemscore.DG>
-19.4110

> <Gold.Chemscore.ZeroCoef>
-5.4800

> <Gold.Chemscore.Hbond>
0.9030

> <Gold.Chemscore.Metal>
0.0000

> <Gold.Chemscore.Lipo>
124.2809

> <Gold.Chemscore.Internal_Hbond>
0.0000

> <Gold.Chemscore.DEClash>
1.7259

> <Gold.Chemscore.DEInternal>
0.2576

> <Gold.Chemscore.Rot>
1.4164

> <Gold.Chemscore.Internal.Correction>
   9.000000E+99

> <Gold.Chemscore.Hbonds>
donor molecule, donor type, donor heavy atom, donor atom, acceptor molecule, acceptor atom, score
      P1  H 10752 10764       L1     8  0.65

> <Gold.Chemscore.Hbond.Weighted>
-3.0160

> <Gold.Chemscore.Metal.Weighted>
-0.0000

> <Gold.Chemscore.Lipo.Weighted>
-14.5409

> <Gold.Chemscore.Internal_Hbond.Weighted>
0.0000

> <Gold.Chemscore.DEClash.Weighted>
1.7259

> <Gold.Chemscore.DEInternal.Weighted>
0.2576

> <Gold.Chemscore.Rot.Weighted>
3.6259

> <Gold.Chemscore.Internal.Correction.Weighted>
   9.000000E+99

> <Gold.Protein.RotatedTorsions>
[ 6907 6896 6895 6894 ] final   71.51 input  -60.11 | X-H torsion
[ 7974 7965 7964 7962 ] final  179.47 input  175.53 | X-H torsion
[ 8008 7997 7996 7995 ] final  -76.81 input   59.86 | X-H torsion
[ 10167 10162 10161 10158 ] final  -49.16 input  -65.29 | X-H torsion
[ 10718 10713 10712 10709 ] final -147.85 input   66.30 | X-H torsion
[ 10763 10752 10751 10750 ] final  -73.43 input  -60.55 | X-H torsion
[ 11005 11000 10999 10996 ] final  110.46 input  -57.11 | X-H torsion

> <Gold.Protein.ActiveResidues>
 VAL166  LYS551  ARG553  GLY616  TRP617  ASP618  TYR619  PRO620  LYS621  CYS622 
 ASP623  PHE694  ASN695  SER759  ASP760  ASP761  ALA762  ILE779  LEU786  VAL792 
 PHE793  MET794  SER795  GLU796  ALA797  LYS798  CYS799  TRP800  GLU811  SER814 

> <Gold.Protein.RotatedAtoms>
  152.4814  134.4710  159.9635 H   0  0  0  0  0  0  0  0  0  0  0  0  # atno 6907 bound_to 6896
  151.4715  133.3562  159.2832 H   0  0  0  0  0  0  0  0  0  0  0  0  # atno 6908 bound_to 6896
  150.8889  134.8316  159.7340 H   0  0  0  0  0  0  0  0  0  0  0  0  # atno 6909 bound_to 6896
  144.7145  140.0552  143.6434 H   0  0  0  0  0  0  0  0  0  0  0  0  # atno 7974 bound_to 7965
  154.5539  140.0721  156.8711 H   0  0  0  0  0  0  0  0  0  0  0  0  # atno 8008 bound_to 7997
  155.2941  140.3380  155.4233 H   0  0  0  0  0  0  0  0  0  0  0  0  # atno 8009 bound_to 7997
  156.1985  140.1712  156.7935 H   0  0  0  0  0  0  0  0  0  0  0  0  # atno 8010 bound_to 7997
  140.6698  143.2709  151.4175 H   0  0  0  0  0  0  0  0  0  0  0  0  # atno 10167 bound_to 10162
  156.4127  130.7989  151.2208 H   0  0  0  0  0  0  0  0  0  0  0  0  # atno 10718 bound_to 10713
  154.4594  135.5897  153.6245 H   0  0  0  0  0  0  0  0  0  0  0  0  # atno 10763 bound_to 10752
  152.9821  135.6040  154.3506 H   0  0  0  0  0  0  0  0  0  0  0  0  # atno 10764 bound_to 10752
  154.3376  135.2842  155.2418 H   0  0  0  0  0  0  0  0  0  0  0  0  # atno 10765 bound_to 10752
  139.8882  134.9484  156.6283 H   0  0  0  0  0  0  0  0  0  0  0  0  # atno 11005 bound_to 11000
  145.9910  139.3015  143.0985 LP  0  0  0  0  0  0  0  0  0  0  0  0  # atno 17320 bound_to 7965
  145.8903  140.9308  143.0556 LP  0  0  0  0  0  0  0  0  0  0  0  0  # atno 17321 bound_to 7965
  139.5961  144.1394  152.2145 LP  0  0  0  0  0  0  0  0  0  0  0  0  # atno 17342 bound_to 10162
  140.0764  144.5737  150.7154 LP  0  0  0  0  0  0  0  0  0  0  0  0  # atno 17343 bound_to 10162
  157.7507  131.0252  150.3911 LP  0  0  0  0  0  0  0  0  0  0  0  0  # atno 17370 bound_to 10713
  156.4212  130.3953  149.6823 LP  0  0  0  0  0  0  0  0  0  0  0  0  # atno 17371 bound_to 10713
  140.7686  133.8757  155.8474 LP  0  0  0  0  0  0  0  0  0  0  0  0  # atno 17394 bound_to 11000
  140.9861  134.1341  157.4451 LP  0  0  0  0  0  0  0  0  0  0  0  0  # atno 17395 bound_to 11000

$$$$
