AV-unprocessed.smi:283|AV-procd|sdf|2145|dock3
  -GOLD-   2262021473D 1   1.00000     0.00000
 Structure written by MMmdl.
 48 51  0  0  0  0  0  0  0  0  1 V2000
  151.8515  140.8486  157.5864 C   0  0  0  0  0  0  0  0  0  0  0  0
  150.5472  141.6476  157.7092 C   0  0  2  0  0  0  0  0  0  0  0  0
  149.8909  141.7340  156.4057 N   0  0  0  0  0  0  0  0  0  0  0  0
  149.5299  140.6162  155.7367 C   0  0  0  0  0  0  0  0  0  0  0  0
  150.4131  139.6048  155.5288 N   0  0  0  0  0  0  0  0  0  0  0  0
  150.0311  138.5101  154.8650 C   0  0  0  0  0  0  0  0  0  0  0  0
  148.8392  138.2313  154.3325 N   0  0  0  0  0  0  0  0  0  0  0  0
  147.9488  139.2461  154.5357 C   0  0  0  0  0  0  0  0  0  0  0  0
  148.2175  140.4634  155.2211 C   0  0  0  0  0  0  0  0  0  0  0  0
  147.0800  141.2601  155.2315 N   0  0  0  0  0  0  0  0  0  0  0  0
  146.1926  140.5513  154.5867 C   0  0  0  0  0  0  0  0  0  0  0  0
  146.6309  139.3279  154.1310 N   0  0  0  0  0  0  0  0  0  0  0  0
  145.8462  138.3083  153.3662 C   0  0  2  0  0  0  0  0  0  0  0  0
  146.0601  137.0558  153.9225 O   0  0  0  0  0  0  0  0  0  0  0  0
  145.7120  136.0687  152.9608 C   0  0  1  0  0  0  0  0  0  0  0  0
  144.2518  135.6460  153.2350 C   0  0  0  0  0  0  0  0  0  0  0  0
  143.8188  134.6839  152.2962 O   0  0  0  0  0  0  0  0  0  0  0  0
  146.0147  136.7212  151.5872 C   0  0  1  0  0  0  0  0  0  0  0  0
  144.9553  136.5765  150.6593 O   0  0  0  0  0  0  0  0  0  0  0  0
  146.2465  138.2036  151.8878 C   0  0  2  0  0  0  0  0  0  0  0  0
  147.5911  138.5690  151.6355 O   0  0  0  0  0  0  0  0  0  0  0  0
  150.8092  143.0011  158.3736 C   0  0  0  0  0  0  0  0  0  0  0  0
  152.1357  143.4743  158.5032 C   0  0  0  0  0  0  0  0  0  0  0  0
  152.3993  144.7157  159.1114 C   0  0  0  0  0  0  0  0  0  0  0  0
  151.3379  145.4958  159.6043 C   0  0  0  0  0  0  0  0  0  0  0  0
  150.0151  145.0302  159.4909 C   0  0  0  0  0  0  0  0  0  0  0  0
  149.7451  143.7882  158.8816 C   0  0  0  0  0  0  0  0  0  0  0  0
  148.1012  143.2621  158.7798 Cl  0  0  0  0  0  0  0  0  0  0  0  0
  144.8014  138.5937  153.4999 H   0  0  0  0  0  0  0  0  0  0  0  0
  146.3652  135.2104  153.1236 H   0  0  0  0  0  0  0  0  0  0  0  0
  146.9084  136.2720  151.1511 H   0  0  0  0  0  0  0  0  0  0  0  0
  145.6014  138.8629  151.3051 H   0  0  0  0  0  0  0  0  0  0  0  0
  152.3122  140.7001  158.5633 H   0  0  0  0  0  0  0  0  0  0  0  0
  152.5748  141.3624  156.9521 H   0  0  0  0  0  0  0  0  0  0  0  0
  151.6704  139.8631  157.1562 H   0  0  0  0  0  0  0  0  0  0  0  0
  149.8761  141.0689  158.3430 H   0  0  0  0  0  0  0  0  0  0  0  0
  149.5707  142.6539  156.1394 H   0  0  0  0  0  0  0  0  0  0  0  0
  150.7884  137.7500  154.7418 H   0  0  0  0  0  0  0  0  0  0  0  0
  145.1853  140.9053  154.4224 H   0  0  0  0  0  0  0  0  0  0  0  0
  144.1839  135.1867  154.2217 H   0  0  0  0  0  0  0  0  0  0  0  0
  143.5749  136.5009  153.2388 H   0  0  0  0  0  0  0  0  0  0  0  0
  143.5718  133.8996  152.7610 H   0  0  0  0  0  0  0  0  0  0  0  0
  144.7472  137.4284  150.3078 H   0  0  0  0  0  0  0  0  0  0  0  0
  148.1509  138.0525  152.1949 H   0  0  0  0  0  0  0  0  0  0  0  0
  152.9628  142.8860  158.1338 H   0  0  0  0  0  0  0  0  0  0  0  0
  153.4164  145.0680  159.2002 H   0  0  0  0  0  0  0  0  0  0  0  0
  151.5379  146.4487  160.0716 H   0  0  0  0  0  0  0  0  0  0  0  0
  149.2031  145.6297  159.8754 H   0  0  0  0  0  0  0  0  0  0  0  0
  1  2  1  0  0  0  0
  1 33  1  0  0  0  0
  1 34  1  0  0  0  0
  1 35  1  0  0  0  0
  2  3  1  0  0  0  0
  2 22  1  0  0  0  0
  2 36  1  0  0  0  0
  3  4  1  0  0  0  0
  3 37  1  0  0  0  0
  4  9  1  0  0  0  0
  4  5  2  0  0  0  0
  5  6  1  0  0  0  0
  6  7  2  0  0  0  0
  6 38  1  0  0  0  0
  7  8  1  0  0  0  0
  8 12  1  0  0  0  0
  8  9  2  0  0  0  0
  9 10  1  0  0  0  0
 10 11  2  0  0  0  0
 11 12  1  0  0  0  0
 11 39  1  0  0  0  0
 12 13  1  0  0  0  0
 13 29  1  0  0  0  0
 13 20  1  0  0  0  0
 13 14  1  0  0  0  0
 14 15  1  0  0  0  0
 15 30  1  0  0  0  0
 15 16  1  0  0  0  0
 15 18  1  0  0  0  0
 16 17  1  0  0  0  0
 16 40  1  0  0  0  0
 16 41  1  0  0  0  0
 17 42  1  0  0  0  0
 18 31  1  0  0  0  0
 18 19  1  0  0  0  0
 18 20  1  0  0  0  0
 19 43  1  0  0  0  0
 20 32  1  0  0  0  0
 20 21  1  0  0  0  0
 21 44  1  0  0  0  0
 22 27  1  0  0  0  0
 22 23  2  0  0  0  0
 23 24  1  0  0  0  0
 23 45  1  0  0  0  0
 24 25  2  0  0  0  0
 24 46  1  0  0  0  0
 25 26  1  0  0  0  0
 25 47  1  0  0  0  0
 26 27  2  0  0  0  0
 26 48  1  0  0  0  0
 27 28  1  0  0  0  0
M  END
> <s_m_source_file>
AV-unprocessed.smi

> <i_m_source_file_index>
283

> <i_lp_mmshare_version>
43012

> <i_f3d_flags>
0

> <s_epik_input>
Q2xjMVtjSF1bY0hdW2NIXVtjSF1jMVtDQEhdKFtDSDNdKVtOSF1jKG5bY0hdbjIpYyhjMjMpbltjSF1uM1tDQEBIXTRPW0NASF0oW0NIMl1bT0hdKVtDQEBIXShbT0hdKVtDQEhdNFtPSF0=

> <s_epik_cmdline>
J2VwaWtfcHl0aG9uJywgJy1waCcsICc3LjAnLCAnLXRuJywgJzgnLCAnLW1hJywgJzIwMCcsICctbWV0YWxfYmluZGluZycsICctaW1hZScsICc8aW5maWxlLm1hZT4nLCAnLW9tYWUnLCAnPG91dGZpbGUubWFlPic=

> <r_lp_tautomer_probability>
1

> <r_epik_Ionization_Penalty>
0.000266407

> <r_epik_Ionization_Penalty_Charging>
0

> <r_epik_Ionization_Penalty_Neutral>
0.000266407

> <r_epik_State_Penalty>
-0

> <r_epik_Charging_Adjusted_Penalty>
0

> <i_epik_Tot_Q>
0

> <i_epik_Tot_abs_Q>
0

> <r_epik_Metal_State_Penalty>
-0

> <b_epik_Metal_Only>
0

> <s_epik_Chemistry_Notes>
This compound contains an acetal/aminal-like group ( X-CH(R)-Y where X, Y are N, S, or O) that may be acid/base labile, releasing an aldehyde.

> <s_lp_Force_Field>
OPLS_2005

> <r_lp_Energy>
49.3255

> <b_lp_Chiralities_Consistent>
1

> <s_lp_Variant>
AV-unprocessed.smi:283-21

> <Gold.Version>
5.8.1

> <Gold.Id.Protein>
6NUR|6NUR_protein|mol2

> <Gold.PLP.Fitness>
49.8586

> <Gold.PLP.PLP>
-40.5122

> <Gold.PLP.part.hbond>
-4.1000

> <Gold.PLP.part.metal>
0.0000

> <Gold.PLP.part.buried>
-4.9607

> <Gold.PLP.part.nonpolar>
-33.4657

> <Gold.PLP.part.repulsive>
0.4722

> <Gold.PLP.ligand.clash>
0.0132

> <Gold.PLP.ligand.torsion>
1.0260

> <Gold.PLP.Chemscore.Hbond>
2.9133

> <Gold.PLP.Chemscore.CHOScore>
0.8472

> <Gold.PLP.Chemscore.Metal>
0.0000

> <Gold.Chemscore.Hbonds>
donor molecule, donor type, donor heavy atom, donor atom, acceptor molecule, acceptor atom, score
      L1  H     3    37       P1  8028  0.50
      L1  H    19    43       P1 10171  0.99
      L1  H    21    44       P1  7948  0.56
      P1  H  7954  7966       L1    21  0.94
      L1  C    11    39       P1 10175  0.99

> <Gold.PLP.Chemscore.Internal.Correction>
0.1302

> <Gold.Rescore>
     Score         DG    S(hbond)    S(metal)    S(lipo)     H(rot)  DE(clash)    DE(int)     intcor
     10.84     -14.60       2.29        0.00     102.30       4.10       0.22       3.53       ----

> <Gold.Chemscore.Fitness>
10.8413

> <Gold.Chemscore.DG>
-14.5987

> <Gold.Chemscore.ZeroCoef>
-5.4800

> <Gold.Chemscore.Hbond>
2.2866

> <Gold.Chemscore.Metal>
0.0000

> <Gold.Chemscore.Lipo>
102.3027

> <Gold.Chemscore.Internal_Hbond>
0.0000

> <Gold.Chemscore.DEClash>
0.2248

> <Gold.Chemscore.DEInternal>
3.5327

> <Gold.Chemscore.Rot>
4.0968

> <Gold.Chemscore.Internal.Correction>
   9.000000E+99

> <Gold.Chemscore.Hbonds>
donor molecule, donor type, donor heavy atom, donor atom, acceptor molecule, acceptor atom, score
      L1  H     3    37       P1  8028  0.50
      L1  H    19    43       P1 10171  0.92
      L1  H    21    44       P1  7948  0.55
      P1  H  7954  7966       L1    21  0.16

> <Gold.Chemscore.Hbond.Weighted>
-7.6372

> <Gold.Chemscore.Metal.Weighted>
-0.0000

> <Gold.Chemscore.Lipo.Weighted>
-11.9694

> <Gold.Chemscore.Internal_Hbond.Weighted>
0.0000

> <Gold.Chemscore.DEClash.Weighted>
0.2248

> <Gold.Chemscore.DEInternal.Weighted>
3.5327

> <Gold.Chemscore.Rot.Weighted>
10.4879

> <Gold.Chemscore.Internal.Correction.Weighted>
   9.000000E+99

> <Gold.Protein.RotatedTorsions>
[ 6907 6896 6895 6894 ] final -140.18 input  -60.11 | X-H torsion
[ 7974 7965 7964 7962 ] final  178.83 input  175.53 | X-H torsion
[ 8008 7997 7996 7995 ] final  145.48 input   59.86 | X-H torsion
[ 10167 10162 10161 10158 ] final   87.72 input  -65.29 | X-H torsion
[ 10718 10713 10712 10709 ] final  107.73 input   66.30 | X-H torsion
[ 10763 10752 10751 10750 ] final   45.99 input  -60.55 | X-H torsion
[ 11005 11000 10999 10996 ] final   38.97 input  -57.11 | X-H torsion

> <Gold.Protein.ActiveResidues>
 VAL166  LYS551  ARG553  GLY616  TRP617  ASP618  TYR619  PRO620  LYS621  CYS622 
 ASP623  PHE694  ASN695  SER759  ASP760  ASP761  ALA762  ILE779  LEU786  VAL792 
 PHE793  MET794  SER795  GLU796  ALA797  LYS798  CYS799  TRP800  GLU811  SER814 

> <Gold.Protein.RotatedAtoms>
  151.0573  133.5573  159.2636 H   0  0  0  0  0  0  0  0  0  0  0  0  # atno 6907 bound_to 6896
  151.2562  135.0638  159.9090 H   0  0  0  0  0  0  0  0  0  0  0  0  # atno 6908 bound_to 6896
  152.5392  134.0326  159.8085 H   0  0  0  0  0  0  0  0  0  0  0  0  # atno 6909 bound_to 6896
  144.7152  140.0456  143.6436 H   0  0  0  0  0  0  0  0  0  0  0  0  # atno 7974 bound_to 7965
  156.2882  140.2208  156.5222 H   0  0  0  0  0  0  0  0  0  0  0  0  # atno 8008 bound_to 7997
  154.7519  140.0480  157.0922 H   0  0  0  0  0  0  0  0  0  0  0  0  # atno 8009 bound_to 7997
  155.0099  140.3112  155.4837 H   0  0  0  0  0  0  0  0  0  0  0  0  # atno 8010 bound_to 7997
  139.8745  144.6474  150.8912 H   0  0  0  0  0  0  0  0  0  0  0  0  # atno 10167 bound_to 10162
  157.6616  131.0879  150.6200 H   0  0  0  0  0  0  0  0  0  0  0  0  # atno 10718 bound_to 10713
  152.9817  135.6022  154.3526 H   0  0  0  0  0  0  0  0  0  0  0  0  # atno 10763 bound_to 10752
  154.3214  135.2769  155.2519 H   0  0  0  0  0  0  0  0  0  0  0  0  # atno 10764 bound_to 10752
  154.4684  135.5948  153.6360 H   0  0  0  0  0  0  0  0  0  0  0  0  # atno 10765 bound_to 10752
  140.2074  134.3797  155.8066 H   0  0  0  0  0  0  0  0  0  0  0  0  # atno 11005 bound_to 11000
  145.9987  139.3073  143.0941 LP  0  0  0  0  0  0  0  0  0  0  0  0  # atno 17320 bound_to 7965
  145.8819  140.9357  143.0597 LP  0  0  0  0  0  0  0  0  0  0  0  0  # atno 17321 bound_to 7965
  140.7755  143.3636  151.1781 LP  0  0  0  0  0  0  0  0  0  0  0  0  # atno 17342 bound_to 10162
  139.7253  143.9159  152.3000 LP  0  0  0  0  0  0  0  0  0  0  0  0  # atno 17343 bound_to 10162
  156.6503  130.4483  149.5721 LP  0  0  0  0  0  0  0  0  0  0  0  0  # atno 17370 bound_to 10713
  156.2142  130.6698  151.1302 LP  0  0  0  0  0  0  0  0  0  0  0  0  # atno 17371 bound_to 10713
  141.2227  133.7125  156.8360 LP  0  0  0  0  0  0  0  0  0  0  0  0  # atno 17394 bound_to 11000
  140.1988  134.8912  157.3145 LP  0  0  0  0  0  0  0  0  0  0  0  0  # atno 17395 bound_to 11000

$$$$
