AV-unprocessed.smi:3089|AV-procd|sdf|11773|dock6
  -GOLD-   2272017153D 1   1.00000     0.00000
 Structure written by MMmdl.
 24 24  0  0  0  0  0  0  0  0  1 V2000
  146.5649  128.9276  152.2366 C   0  0  0  0  0  0  0  0  0  0  0  0
  146.0795  130.2450  151.8860 N   0  0  0  0  0  0  0  0  0  0  0  0
  144.9936  130.5829  151.1082 C   0  0  0  0  0  0  0  0  0  0  0  0
  144.9307  131.9482  151.0532 C   0  0  0  0  0  0  0  0  0  0  0  0
  143.9266  132.8178  150.3257 C   0  0  2  0  0  0  0  0  0  0  0  0
  144.2304  134.3015  150.5976 C   0  0  0  0  0  0  0  0  0  0  0  0
  142.6047  132.6152  150.7879 O   0  0  0  0  0  0  0  0  0  0  0  0
  143.9231  132.5494  148.8042 C   0  0  0  0  0  0  0  0  0  0  0  0
  143.1733  133.5519  148.0281 N   0  0  0  0  0  0  0  0  0  0  0  0
  146.0415  132.3542  151.8503 C   0  0  0  0  0  0  0  0  0  0  0  0
  146.7259  131.3353  152.3446 N   0  0  0  0  0  0  0  0  0  0  0  0
  145.9384  128.1635  151.7759 H   0  0  0  0  0  0  0  0  0  0  0  0
  146.5404  128.8006  153.3192 H   0  0  0  0  0  0  0  0  0  0  0  0
  147.5892  128.8056  151.8831 H   0  0  0  0  0  0  0  0  0  0  0  0
  144.3601  129.8320  150.6595 H   0  0  0  0  0  0  0  0  0  0  0  0
  145.2237  134.5762  150.2407 H   0  0  0  0  0  0  0  0  0  0  0  0
  144.1927  134.5256  151.6646 H   0  0  0  0  0  0  0  0  0  0  0  0
  143.5139  134.9549  150.0981 H   0  0  0  0  0  0  0  0  0  0  0  0
  142.0170  133.1177  150.2448 H   0  0  0  0  0  0  0  0  0  0  0  0
  144.9478  132.4851  148.4363 H   0  0  0  0  0  0  0  0  0  0  0  0
  143.4796  131.5705  148.6190 H   0  0  0  0  0  0  0  0  0  0  0  0
  142.8209  133.1399  147.1652 H   0  0  0  0  0  0  0  0  0  0  0  0
  142.3656  133.8808  148.5551 H   0  0  0  0  0  0  0  0  0  0  0  0
  146.3696  133.3568  152.0823 H   0  0  0  0  0  0  0  0  0  0  0  0
  1  2  1  0  0  0  0
  1 12  1  0  0  0  0
  1 13  1  0  0  0  0
  1 14  1  0  0  0  0
  2 11  1  0  0  0  0
  2  3  1  0  0  0  0
  3  4  2  0  0  0  0
  3 15  1  0  0  0  0
  4  5  1  0  0  0  0
  4 10  1  0  0  0  0
  5  6  1  0  0  0  0
  5  7  1  0  0  0  0
  5  8  1  0  0  0  0
  6 16  1  0  0  0  0
  6 17  1  0  0  0  0
  6 18  1  0  0  0  0
  7 19  1  0  0  0  0
  8  9  1  0  0  0  0
  8 20  1  0  0  0  0
  8 21  1  0  0  0  0
  9 22  1  0  0  0  0
  9 23  1  0  0  0  0
 10 11  2  0  0  0  0
 10 24  1  0  0  0  0
M  END
> <s_m_source_file>
AV-unprocessed.smi

> <i_m_source_file_index>
3089

> <i_lp_mmshare_version>
43012

> <i_f3d_flags>
0

> <s_epik_input>
W0NIM11uMVtjSF1jKFtjSF1uMSlbQ0BAXShbQ0gzXSkoW09IXSlbQ0gyXVtOSDJd

> <s_epik_cmdline>
J2VwaWtfcHl0aG9uJywgJy1waCcsICc3LjAnLCAnLXRuJywgJzgnLCAnLW1hJywgJzIwMCcsICctbWV0YWxfYmluZGluZycsICctaW1hZScsICc8aW5maWxlLm1hZT4nLCAnLW9tYWUnLCAnPG91dGZpbGUubWFlPic=

> <r_lp_tautomer_probability>
1

> <r_epik_Ionization_Penalty>
2.22427

> <r_epik_Ionization_Penalty_Charging>
0

> <r_epik_Ionization_Penalty_Neutral>
2.22427

> <r_epik_State_Penalty>
2.36938

> <r_epik_Charging_Adjusted_Penalty>
2.36938

> <i_epik_Tot_Q>
0

> <i_epik_Tot_abs_Q>
0

> <r_epik_Metal_State_Penalty>
2.36933

> <b_epik_Metal_Only>
0

> <s_lp_Force_Field>
OPLS_2005

> <r_lp_Energy>
8.30456

> <b_lp_Chiralities_Consistent>
1

> <s_lp_Variant>
AV-unprocessed.smi:3089-4

> <Gold.Version>
5.8.1

> <Gold.Id.Protein>
6NUR|6NUR_protein|mol2

> <Gold.PLP.Fitness>
37.5043

> <Gold.PLP.PLP>
-28.6983

> <Gold.PLP.part.hbond>
-4.6815

> <Gold.PLP.part.metal>
0.0000

> <Gold.PLP.part.buried>
-5.0959

> <Gold.PLP.part.nonpolar>
-19.0489

> <Gold.PLP.part.repulsive>
0.8782

> <Gold.PLP.ligand.clash>
0.0000

> <Gold.PLP.ligand.torsion>
0.1073

> <Gold.PLP.Chemscore.Hbond>
3.0000

> <Gold.PLP.Chemscore.CHOScore>
0.0000

> <Gold.PLP.Chemscore.Metal>
0.0000

> <Gold.Chemscore.Hbonds>
donor molecule, donor type, donor heavy atom, donor atom, acceptor molecule, acceptor atom, score
      L1  H     7    19       P1 10186  1.00
      L1  H     9    22       P1 10195  1.00
      L1  H     9    23       P1 10186  1.00

> <Gold.PLP.Chemscore.Internal.Correction>
0.0207

> <Gold.Rescore>
     Score         DG    S(hbond)    S(metal)    S(lipo)     H(rot)  DE(clash)    DE(int)     intcor
     17.61     -18.51       2.98        0.00      66.68       1.84       0.87       0.03       ----

> <Gold.Chemscore.Fitness>
17.6144

> <Gold.Chemscore.DG>
-18.5127

> <Gold.Chemscore.ZeroCoef>
-5.4800

> <Gold.Chemscore.Hbond>
2.9754

> <Gold.Chemscore.Metal>
0.0000

> <Gold.Chemscore.Lipo>
66.6819

> <Gold.Chemscore.Internal_Hbond>
0.0000

> <Gold.Chemscore.DEClash>
0.8688

> <Gold.Chemscore.DEInternal>
0.0294

> <Gold.Chemscore.Rot>
1.8386

> <Gold.Chemscore.Internal.Correction>
   9.000000E+99

> <Gold.Chemscore.Hbonds>
donor molecule, donor type, donor heavy atom, donor atom, acceptor molecule, acceptor atom, score
      L1  H     7    19       P1 10186  1.00
      L1  H     9    22       P1 10195  0.96
      L1  H     9    23       P1 10186  1.00

> <Gold.Chemscore.Hbond.Weighted>
-9.9378

> <Gold.Chemscore.Metal.Weighted>
-0.0000

> <Gold.Chemscore.Lipo.Weighted>
-7.8018

> <Gold.Chemscore.Internal_Hbond.Weighted>
0.0000

> <Gold.Chemscore.DEClash.Weighted>
0.8688

> <Gold.Chemscore.DEInternal.Weighted>
0.0294

> <Gold.Chemscore.Rot.Weighted>
4.7069

> <Gold.Chemscore.Internal.Correction.Weighted>
   9.000000E+99

> <Gold.Protein.RotatedTorsions>
[ 6907 6896 6895 6894 ] final   -5.24 input  -60.11 | X-H torsion
[ 7974 7965 7964 7962 ] final  150.85 input  175.53 | X-H torsion
[ 8008 7997 7996 7995 ] final -168.15 input   59.86 | X-H torsion
[ 10167 10162 10161 10158 ] final  -66.72 input  -65.29 | X-H torsion
[ 10718 10713 10712 10709 ] final   79.28 input   66.30 | X-H torsion
[ 10763 10752 10751 10750 ] final -173.07 input  -60.55 | X-H torsion
[ 11005 11000 10999 10996 ] final -152.60 input  -57.11 | X-H torsion

> <Gold.Protein.ActiveResidues>
 VAL166  LYS551  ARG553  GLY616  TRP617  ASP618  TYR619  PRO620  LYS621  CYS622 
 ASP623  PHE694  ASN695  SER759  ASP760  ASP761  ALA762  ILE779  LEU786  VAL792 
 PHE793  MET794  SER795  GLU796  ALA797  LYS798  CYS799  TRP800  GLU811  SER814 

> <Gold.Protein.RotatedAtoms>
  151.4848  135.1054  159.9787 H   0  0  0  0  0  0  0  0  0  0  0  0  # atno 6907 bound_to 6896
  152.4764  133.8146  159.7032 H   0  0  0  0  0  0  0  0  0  0  0  0  # atno 6908 bound_to 6896
  150.8806  133.7316  159.2959 H   0  0  0  0  0  0  0  0  0  0  0  0  # atno 6909 bound_to 6896
  144.8334  139.6462  143.6049 H   0  0  0  0  0  0  0  0  0  0  0  0  # atno 7974 bound_to 7965
  155.8875  140.1019  157.1442 H   0  0  0  0  0  0  0  0  0  0  0  0  # atno 8008 bound_to 7997
  154.4011  140.1317  156.4337 H   0  0  0  0  0  0  0  0  0  0  0  0  # atno 8009 bound_to 7997
  155.7572  140.3464  155.5182 H   0  0  0  0  0  0  0  0  0  0  0  0  # atno 8010 bound_to 7997
  140.5636  143.2314  151.6679 H   0  0  0  0  0  0  0  0  0  0  0  0  # atno 10167 bound_to 10162
  157.6772  130.9907  150.1909 H   0  0  0  0  0  0  0  0  0  0  0  0  # atno 10718 bound_to 10713
  154.6121  135.2865  155.0421 H   0  0  0  0  0  0  0  0  0  0  0  0  # atno 10763 bound_to 10752
  154.1647  135.6482  153.4998 H   0  0  0  0  0  0  0  0  0  0  0  0  # atno 10764 bound_to 10752
  153.0199  135.5386  154.6878 H   0  0  0  0  0  0  0  0  0  0  0  0  # atno 10765 bound_to 10752
  140.7172  134.3767  157.5189 H   0  0  0  0  0  0  0  0  0  0  0  0  # atno 11005 bound_to 11000
  146.2635  139.6465  142.9345 LP  0  0  0  0  0  0  0  0  0  0  0  0  # atno 17320 bound_to 7965
  145.4847  141.0438  143.2626 LP  0  0  0  0  0  0  0  0  0  0  0  0  # atno 17321 bound_to 7965
  139.5082  144.3620  152.0553 LP  0  0  0  0  0  0  0  0  0  0  0  0  # atno 17342 bound_to 10162
  140.2749  144.3923  150.6138 LP  0  0  0  0  0  0  0  0  0  0  0  0  # atno 17343 bound_to 10162
  156.2621  130.3712  149.8120 LP  0  0  0  0  0  0  0  0  0  0  0  0  # atno 17370 bound_to 10713
  156.5862  130.8486  151.3396 LP  0  0  0  0  0  0  0  0  0  0  0  0  # atno 17371 bound_to 10713
  139.8857  134.8930  156.2628 LP  0  0  0  0  0  0  0  0  0  0  0  0  # atno 17394 bound_to 11000
  141.0034  133.7138  156.0997 LP  0  0  0  0  0  0  0  0  0  0  0  0  # atno 17395 bound_to 11000

$$$$
