AV-unprocessed.smi:3141|AV-procd|sdf|11963|dock2
  -GOLD-   2272017363D 1   1.00000     0.00000
 Structure written by MMmdl.
 36 38  0  0  0  0  0  0  0  0  2 V2000
  150.2795  141.9475  158.8900 O   0  0  0  0  0  0  0  0  0  0  0  0
  149.9426  142.7458  158.0153 C   0  0  0  0  0  0  0  0  0  0  0  0
  150.7240  143.7285  157.5496 N   0  0  0  0  0  0  0  0  0  0  0  0
  152.0571  143.9983  157.9815 C   0  0  0  0  0  0  0  0  0  0  0  0
  152.3901  143.7459  159.4358 C   0  0  0  0  0  0  0  0  0  0  0  0
  152.2651  145.1571  158.9320 C   0  0  0  0  0  0  0  0  0  0  0  0
  148.7532  142.7216  157.3963 N   0  0  0  0  0  0  0  0  0  0  0  0
  147.6691  141.7757  157.6719 C   0  0  1  0  0  0  0  0  0  0  0  0
  146.4426  142.5365  158.2178 C   0  0  0  0  0  0  0  0  0  0  0  0
  145.3451  142.4528  157.1446 C   0  0  0  0  0  0  0  0  0  0  0  0
  146.0432  141.9726  155.8727 C   0  0  0  0  0  0  0  0  0  0  0  0
  147.1504  141.0591  156.4048 C   0  0  1  0  0  0  0  0  0  0  0  0
  148.1804  140.6745  155.4220 N   0  0  0  0  0  0  0  0  0  0  0  0
  149.2591  139.8387  155.5866 C   0  0  0  0  0  0  0  0  0  0  0  0
  149.8873  139.7630  154.3704 C   0  0  0  0  0  0  0  0  0  0  0  0
  149.1647  140.5454  153.5116 N   0  3  0  0  0  0  0  0  0  0  0  0
  148.1273  141.0945  154.1505 C   0  0  0  0  0  0  0  0  0  0  0  0
  150.3515  144.3312  156.8302 H   0  0  0  0  0  0  0  0  0  0  0  0
  152.8604  143.8151  157.2693 H   0  0  0  0  0  0  0  0  0  0  0  0
  151.5988  143.3722  160.0829 H   0  0  0  0  0  0  0  0  0  0  0  0
  153.3892  143.3807  159.6647 H   0  0  0  0  0  0  0  0  0  0  0  0
  153.1810  145.7349  158.8252 H   0  0  0  0  0  0  0  0  0  0  0  0
  151.3905  145.7250  159.2434 H   0  0  0  0  0  0  0  0  0  0  0  0
  148.5748  143.4195  156.6888 H   0  0  0  0  0  0  0  0  0  0  0  0
  148.0042  141.0414  158.4070 H   0  0  0  0  0  0  0  0  0  0  0  0
  146.0911  142.0903  159.1490 H   0  0  0  0  0  0  0  0  0  0  0  0
  146.6810  143.5781  158.4408 H   0  0  0  0  0  0  0  0  0  0  0  0
  144.5956  141.7202  157.4472 H   0  0  0  0  0  0  0  0  0  0  0  0
  144.8320  143.4040  156.9996 H   0  0  0  0  0  0  0  0  0  0  0  0
  145.3644  141.4609  155.1900 H   0  0  0  0  0  0  0  0  0  0  0  0
  146.4610  142.8343  155.3517 H   0  0  0  0  0  0  0  0  0  0  0  0
  146.6695  140.1319  156.7232 H   0  0  0  0  0  0  0  0  0  0  0  0
  149.4970  139.3636  156.5266 H   0  0  0  0  0  0  0  0  0  0  0  0
  150.7672  139.2195  154.0583 H   0  0  0  0  0  0  0  0  0  0  0  0
  147.3839  141.7418  153.7204 H   0  0  0  0  0  0  0  0  0  0  0  0
  149.3764  140.6827  152.5313 H   0  0  0  0  0  0  0  0  0  0  0  0
  1  2  2  0  0  0  0
  2  3  1  0  0  0  0
  2  7  1  0  0  0  0
  3  4  1  0  0  0  0
  3 18  1  0  0  0  0
  4  6  1  0  0  0  0
  4  5  1  0  0  0  0
  4 19  1  0  0  0  0
  5  6  1  0  0  0  0
  5 20  1  0  0  0  0
  5 21  1  0  0  0  0
  6 22  1  0  0  0  0
  6 23  1  0  0  0  0
  7  8  1  0  0  0  0
  7 24  1  0  0  0  0
  8 12  1  0  0  0  0
  8  9  1  0  0  0  0
  8 25  1  0  0  0  0
  9 10  1  0  0  0  0
  9 26  1  0  0  0  0
  9 27  1  0  0  0  0
 10 11  1  0  0  0  0
 10 28  1  0  0  0  0
 10 29  1  0  0  0  0
 11 12  1  0  0  0  0
 11 30  1  0  0  0  0
 11 31  1  0  0  0  0
 12 13  1  0  0  0  0
 12 32  1  0  0  0  0
 13 17  1  0  0  0  0
 13 14  1  0  0  0  0
 14 15  2  0  0  0  0
 14 33  1  0  0  0  0
 15 16  1  0  0  0  0
 15 34  1  0  0  0  0
 16 17  2  0  0  0  0
 16 36  1  0  0  0  0
 17 35  1  0  0  0  0
M  CHG  1  16   1
M  END
> <s_m_source_file>
AV-unprocessed.smi

> <i_m_source_file_index>
3141

> <i_lp_mmshare_version>
43012

> <i_f3d_flags>
0

> <s_epik_input>
W0NIMl0xW0NIMl1bQ0hdMVtOSF1DKD1PKVtOSF1bQ0BASF0yW0NIMl1bQ0gyXVtDSDJdW0NASF0ybjNbY0hdW2NIXW5bY0hdMw==

> <s_epik_cmdline>
J2VwaWtfcHl0aG9uJywgJy1waCcsICc3LjAnLCAnLXRuJywgJzgnLCAnLW1hJywgJzIwMCcsICctbWV0YWxfYmluZGluZycsICctaW1hZScsICc8aW5maWxlLm1hZT4nLCAnLW9tYWUnLCAnPG91dGZpbGUubWFlPic=

> <r_lp_tautomer_probability>
1

> <r_epik_Ionization_Penalty>
0.205063

> <r_epik_Ionization_Penalty_Charging>
0

> <r_epik_Ionization_Penalty_Neutral>
0.205063

> <r_epik_State_Penalty>
0.194948

> <r_epik_Charging_Adjusted_Penalty>
0.194948

> <i_epik_Tot_Q>
1

> <i_epik_Tot_abs_Q>
1

> <r_epik_Metal_State_Penalty>
0.500882

> <b_epik_Metal_Only>
0

> <s_lp_Force_Field>
OPLS_2005

> <r_lp_Energy>
36.92

> <b_lp_Chiralities_Consistent>
1

> <s_lp_Variant>
AV-unprocessed.smi:3141-2

> <Gold.Version>
5.8.1

> <Gold.Id.Protein>
6NUR|6NUR_protein|mol2

> <Gold.PLP.Fitness>
39.9237

> <Gold.PLP.PLP>
-31.6864

> <Gold.PLP.part.hbond>
-3.8326

> <Gold.PLP.part.metal>
0.0000

> <Gold.PLP.part.buried>
-3.5616

> <Gold.PLP.part.nonpolar>
-24.0182

> <Gold.PLP.part.repulsive>
0.6623

> <Gold.PLP.ligand.clash>
0.0000

> <Gold.PLP.ligand.torsion>
0.3387

> <Gold.PLP.Chemscore.Hbond>
2.9520

> <Gold.PLP.Chemscore.CHOScore>
0.0000

> <Gold.PLP.Chemscore.Metal>
0.0000

> <Gold.Chemscore.Hbonds>
donor molecule, donor type, donor heavy atom, donor atom, acceptor molecule, acceptor atom, score
      L1  H     3    18       P1  8028  0.96
      L1  H     7    24       P1  8028  1.00
      L1  H    16    36       P1  7957  0.95

> <Gold.PLP.Chemscore.Internal.Correction>
0.0586

> <Gold.Rescore>
     Score         DG    S(hbond)    S(metal)    S(lipo)     H(rot)  DE(clash)    DE(int)     intcor
     15.51     -17.33       2.64        0.00      61.14       1.61       0.01       1.80       ----

> <Gold.Chemscore.Fitness>
15.5117

> <Gold.Chemscore.DG>
-17.3274

> <Gold.Chemscore.ZeroCoef>
-5.4800

> <Gold.Chemscore.Hbond>
2.6385

> <Gold.Chemscore.Metal>
0.0000

> <Gold.Chemscore.Lipo>
61.1417

> <Gold.Chemscore.Internal_Hbond>
0.0000

> <Gold.Chemscore.DEClash>
0.0128

> <Gold.Chemscore.DEInternal>
1.8030

> <Gold.Chemscore.Rot>
1.6088

> <Gold.Chemscore.Internal.Correction>
   9.000000E+99

> <Gold.Chemscore.Hbonds>
donor molecule, donor type, donor heavy atom, donor atom, acceptor molecule, acceptor atom, score
      L1  H     3    18       P1  8028  0.88
      L1  H     7    24       P1  8028  0.50
      L1  H    16    36       P1  7957  0.85

> <Gold.Chemscore.Hbond.Weighted>
-8.8125

> <Gold.Chemscore.Metal.Weighted>
-0.0000

> <Gold.Chemscore.Lipo.Weighted>
-7.1536

> <Gold.Chemscore.Internal_Hbond.Weighted>
0.0000

> <Gold.Chemscore.DEClash.Weighted>
0.0128

> <Gold.Chemscore.DEInternal.Weighted>
1.8030

> <Gold.Chemscore.Rot.Weighted>
4.1186

> <Gold.Chemscore.Internal.Correction.Weighted>
   9.000000E+99

> <Gold.Protein.RotatedTorsions>
[ 6907 6896 6895 6894 ] final  -55.16 input  -60.11 | X-H torsion
[ 7974 7965 7964 7962 ] final  112.94 input  175.53 | X-H torsion
[ 8008 7997 7996 7995 ] final -158.54 input   59.86 | X-H torsion
[ 10167 10162 10161 10158 ] final  114.45 input  -65.29 | X-H torsion
[ 10718 10713 10712 10709 ] final  -67.01 input   66.30 | X-H torsion
[ 10763 10752 10751 10750 ] final  -68.54 input  -60.55 | X-H torsion
[ 11005 11000 10999 10996 ] final -112.67 input  -57.11 | X-H torsion

> <Gold.Protein.ActiveResidues>
 VAL166  LYS551  ARG553  GLY616  TRP617  ASP618  TYR619  PRO620  LYS621  CYS622 
 ASP623  PHE694  ASN695  SER759  ASP760  ASP761  ALA762  ILE779  LEU786  VAL792 
 PHE793  MET794  SER795  GLU796  ALA797  LYS798  CYS799  TRP800  GLU811  SER814 

> <Gold.Protein.RotatedAtoms>
  150.8275  134.7514  159.6825 H   0  0  0  0  0  0  0  0  0  0  0  0  # atno 6907 bound_to 6896
  152.4384  134.5636  159.9911 H   0  0  0  0  0  0  0  0  0  0  0  0  # atno 6908 bound_to 6896
  151.5805  133.3341  159.3043 H   0  0  0  0  0  0  0  0  0  0  0  0  # atno 6909 bound_to 6896
  145.2232  139.2853  143.4207 H   0  0  0  0  0  0  0  0  0  0  0  0  # atno 7974 bound_to 7965
  155.7490  140.0824  157.2210 H   0  0  0  0  0  0  0  0  0  0  0  0  # atno 8008 bound_to 7997
  154.4014  140.1564  156.2758 H   0  0  0  0  0  0  0  0  0  0  0  0  # atno 8009 bound_to 7997
  155.8948  140.3413  155.5985 H   0  0  0  0  0  0  0  0  0  0  0  0  # atno 8010 bound_to 7997
  139.6387  144.7122  151.2281 H   0  0  0  0  0  0  0  0  0  0  0  0  # atno 10167 bound_to 10162
  156.0581  130.4271  150.1792 H   0  0  0  0  0  0  0  0  0  0  0  0  # atno 10718 bound_to 10713
  154.3905  135.6053  153.5841 H   0  0  0  0  0  0  0  0  0  0  0  0  # atno 10763 bound_to 10752
  152.9787  135.5882  154.4303 H   0  0  0  0  0  0  0  0  0  0  0  0  # atno 10764 bound_to 10752
  154.4086  135.2844  155.2029 H   0  0  0  0  0  0  0  0  0  0  0  0  # atno 10765 bound_to 10752
  141.0661  133.9457  157.2576 H   0  0  0  0  0  0  0  0  0  0  0  0  # atno 11005 bound_to 11000
  146.3371  140.2544  142.8599 LP  0  0  0  0  0  0  0  0  0  0  0  0  # atno 17320 bound_to 7965
  144.9746  140.8401  143.5434 LP  0  0  0  0  0  0  0  0  0  0  0  0  # atno 17321 bound_to 7965
  140.7479  143.6350  150.8388 LP  0  0  0  0  0  0  0  0  0  0  0  0  # atno 17342 bound_to 10162
  139.9984  143.5770  152.2884 LP  0  0  0  0  0  0  0  0  0  0  0  0  # atno 17343 bound_to 10162
  156.9865  130.9880  151.3425 LP  0  0  0  0  0  0  0  0  0  0  0  0  # atno 17370 bound_to 10713
  157.5567  130.8218  149.8213 LP  0  0  0  0  0  0  0  0  0  0  0  0  # atno 17371 bound_to 10713
  139.9478  135.0181  156.8903 LP  0  0  0  0  0  0  0  0  0  0  0  0  # atno 17394 bound_to 11000
  140.5770  134.0388  155.7450 LP  0  0  0  0  0  0  0  0  0  0  0  0  # atno 17395 bound_to 11000

$$$$
