AV-unprocessed.smi:2698|AV-procd|sdf|10417|dock6
  -GOLD-   2272014453D 1   1.00000     0.00000
 Structure written by MMmdl.
 34 34  0  0  0  0  0  0  0  0  3 V2000
  151.3995  145.6094  160.1402 C   0  0  0  0  0  0  0  0  0  0  0  0
  151.5901  144.3663  159.2511 C   0  0  0  0  0  0  0  0  0  0  0  0
  152.6088  144.6540  158.1382 C   0  0  0  0  0  0  0  0  0  0  0  0
  150.2683  143.8344  158.6504 C   0  0  0  0  0  0  0  0  0  0  0  0
  150.3680  142.3912  158.1506 C   0  0  0  0  0  0  0  0  0  0  0  0
  150.7629  141.5031  158.9058 O   0  0  0  0  0  0  0  0  0  0  0  0
  150.0078  142.1794  156.8757 N   0  0  0  0  0  0  0  0  0  0  0  0
  150.0446  140.9011  156.1657 C   0  0  2  0  0  0  0  0  0  0  0  0
  149.7055  141.1224  154.6761 C   0  0  0  0  0  0  0  0  0  0  0  0
  148.2554  141.4193  154.3691 C   0  0  0  0  0  0  0  0  0  0  0  0
  147.2941  140.6999  153.6802 C   0  0  0  0  0  0  0  0  0  0  0  0
  146.1216  141.4363  153.7086 N   0  0  0  0  0  0  0  0  0  0  0  0
  146.3793  142.5409  154.4052 C   0  0  0  0  0  0  0  0  0  0  0  0
  147.6412  142.5742  154.8290 N   0  3  0  0  0  0  0  0  0  0  0  0
  149.0491  139.9350  156.8166 C   0  0  0  0  0  0  0  0  0  0  0  0
  148.3938  140.3565  157.7957 O   0  0  0  0  0  0  0  0  0  0  0  0
  148.9548  138.7927  156.3179 O   0  5  0  0  0  0  0  0  0  0  0  0
  145.2397  141.1792  153.2884 H   0  0  0  0  0  0  0  0  0  0  0  0
  150.9235  146.4205  159.5884 H   0  0  0  0  0  0  0  0  0  0  0  0
  152.3574  145.9770  160.5092 H   0  0  0  0  0  0  0  0  0  0  0  0
  150.7846  145.3933  161.0136 H   0  0  0  0  0  0  0  0  0  0  0  0
  152.0158  143.5801  159.8769 H   0  0  0  0  0  0  0  0  0  0  0  0
  152.2499  145.4323  157.4640 H   0  0  0  0  0  0  0  0  0  0  0  0
  152.8038  143.7616  157.5427 H   0  0  0  0  0  0  0  0  0  0  0  0
  153.5621  144.9851  158.5512 H   0  0  0  0  0  0  0  0  0  0  0  0
  149.4698  143.8944  159.3913 H   0  0  0  0  0  0  0  0  0  0  0  0
  149.9560  144.4691  157.8194 H   0  0  0  0  0  0  0  0  0  0  0  0
  149.6635  142.9689  156.3479 H   0  0  0  0  0  0  0  0  0  0  0  0
  151.0356  140.4483  156.2347 H   0  0  0  0  0  0  0  0  0  0  0  0
  150.2940  141.9520  154.2815 H   0  0  0  0  0  0  0  0  0  0  0  0
  149.9979  140.2426  154.1004 H   0  0  0  0  0  0  0  0  0  0  0  0
  147.3340  139.7451  153.1778 H   0  0  0  0  0  0  0  0  0  0  0  0
  145.6526  143.3148  154.6051 H   0  0  0  0  0  0  0  0  0  0  0  0
  148.0735  143.3055  155.3756 H   0  0  0  0  0  0  0  0  0  0  0  0
  1  2  1  0  0  0  0
  1 19  1  0  0  0  0
  1 20  1  0  0  0  0
  1 21  1  0  0  0  0
  2  3  1  0  0  0  0
  2  4  1  0  0  0  0
  2 22  1  0  0  0  0
  3 23  1  0  0  0  0
  3 24  1  0  0  0  0
  3 25  1  0  0  0  0
  4  5  1  0  0  0  0
  4 26  1  0  0  0  0
  4 27  1  0  0  0  0
  5  6  2  0  0  0  0
  5  7  1  0  0  0  0
  7  8  1  0  0  0  0
  7 28  1  0  0  0  0
  8  9  1  0  0  0  0
  8 15  1  0  0  0  0
  8 29  1  0  0  0  0
  9 10  1  0  0  0  0
  9 30  1  0  0  0  0
  9 31  1  0  0  0  0
 10 14  1  0  0  0  0
 10 11  2  0  0  0  0
 11 12  1  0  0  0  0
 11 32  1  0  0  0  0
 12 18  1  0  0  0  0
 12 13  1  0  0  0  0
 13 14  2  0  0  0  0
 13 33  1  0  0  0  0
 14 34  1  0  0  0  0
 15 16  2  0  0  0  0
 15 17  1  0  0  0  0
M  CHG  1  14   1
M  CHG  1  17  -1
M  END
> <s_m_source_file>
AV-unprocessed.smi

> <i_m_source_file_index>
2698

> <i_lp_mmshare_version>
43012

> <i_f3d_flags>
0

> <s_epik_input>
W0NIM11bQ0hdKFtDSDNdKVtDSDJdQyg9TylbTkhdW0NAQEhdKEMoPU8pW09IXSlbQ0gyXWMxW2NIXVtuSF1bY0hdbjE=

> <s_epik_cmdline>
J2VwaWtfcHl0aG9uJywgJy1waCcsICc3LjAnLCAnLXRuJywgJzgnLCAnLW1hJywgJzIwMCcsICctbWV0YWxfYmluZGluZycsICctaW1hZScsICc8aW5maWxlLm1hZT4nLCAnLW9tYWUnLCAnPG91dGZpbGUubWFlPic=

> <r_lp_tautomer_probability>
1

> <r_epik_Ionization_Penalty>
0.478676

> <r_epik_Ionization_Penalty_Charging>
5.56794e-05

> <r_epik_Ionization_Penalty_Neutral>
0.478621

> <r_epik_State_Penalty>
0.385221

> <r_epik_Charging_Adjusted_Penalty>
0.385276

> <i_epik_Tot_Q>
0

> <i_epik_Tot_abs_Q>
2

> <r_epik_Metal_State_Penalty>
0.800557

> <b_epik_Metal_Only>
0

> <s_lp_Force_Field>
OPLS_2005

> <r_lp_Energy>
0.68782

> <b_lp_Chiralities_Consistent>
1

> <s_lp_Variant>
AV-unprocessed.smi:2698-1

> <Gold.Version>
5.8.1

> <Gold.Id.Protein>
6NUR|6NUR_protein|mol2

> <Gold.PLP.Fitness>
49.5611

> <Gold.PLP.PLP>
-35.1347

> <Gold.PLP.part.hbond>
-3.0000

> <Gold.PLP.part.metal>
0.0000

> <Gold.PLP.part.buried>
-3.9069

> <Gold.PLP.part.nonpolar>
-29.2763

> <Gold.PLP.part.repulsive>
0.2288

> <Gold.PLP.ligand.clash>
0.0000

> <Gold.PLP.ligand.torsion>
0.3039

> <Gold.PLP.Chemscore.Hbond>
4.9913

> <Gold.PLP.Chemscore.CHOScore>
0.0000

> <Gold.PLP.Chemscore.Metal>
0.0000

> <Gold.Chemscore.Hbonds>
donor molecule, donor type, donor heavy atom, donor atom, acceptor molecule, acceptor atom, score
      L1  H     7    28       P1  8028  0.99
      L1  H    12    18       P1 10175  2.00
      L1  H    14    34       P1  8028  2.00

> <Gold.PLP.Chemscore.Internal.Correction>
0.0604

> <Gold.Rescore>
     Score         DG    S(hbond)    S(metal)    S(lipo)     H(rot)  DE(clash)    DE(int)     intcor
     13.19     -15.63       2.70        0.00      77.27       3.09       0.82       1.62       ----

> <Gold.Chemscore.Fitness>
13.1892

> <Gold.Chemscore.DG>
-15.6338

> <Gold.Chemscore.ZeroCoef>
-5.4800

> <Gold.Chemscore.Hbond>
2.7005

> <Gold.Chemscore.Metal>
0.0000

> <Gold.Chemscore.Lipo>
77.2745

> <Gold.Chemscore.Internal_Hbond>
0.0000

> <Gold.Chemscore.DEClash>
0.8249

> <Gold.Chemscore.DEInternal>
1.6196

> <Gold.Chemscore.Rot>
3.0887

> <Gold.Chemscore.Internal.Correction>
   9.000000E+99

> <Gold.Chemscore.Hbonds>
donor molecule, donor type, donor heavy atom, donor atom, acceptor molecule, acceptor atom, score
      L1  H     7    28       P1  8028  0.92
      L1  H    12    18       P1 10175  0.26
      L1  H    14    34       P1  8028  0.77

> <Gold.Chemscore.Hbond.Weighted>
-9.0197

> <Gold.Chemscore.Metal.Weighted>
-0.0000

> <Gold.Chemscore.Lipo.Weighted>
-9.0411

> <Gold.Chemscore.Internal_Hbond.Weighted>
0.0000

> <Gold.Chemscore.DEClash.Weighted>
0.8249

> <Gold.Chemscore.DEInternal.Weighted>
1.6196

> <Gold.Chemscore.Rot.Weighted>
7.9070

> <Gold.Chemscore.Internal.Correction.Weighted>
   9.000000E+99

> <Gold.Protein.RotatedTorsions>
[ 6907 6896 6895 6894 ] final -174.82 input  -60.11 | X-H torsion
[ 7974 7965 7964 7962 ] final   55.42 input  175.53 | X-H torsion
[ 8008 7997 7996 7995 ] final  -81.16 input   59.86 | X-H torsion
[ 10167 10162 10161 10158 ] final  132.93 input  -65.29 | X-H torsion
[ 10718 10713 10712 10709 ] final    8.73 input   66.30 | X-H torsion
[ 10763 10752 10751 10750 ] final  -30.84 input  -60.55 | X-H torsion
[ 11005 11000 10999 10996 ] final   11.97 input  -57.11 | X-H torsion

> <Gold.Protein.ActiveResidues>
 VAL166  LYS551  ARG553  GLY616  TRP617  ASP618  TYR619  PRO620  LYS621  CYS622 
 ASP623  PHE694  ASN695  SER759  ASP760  ASP761  ALA762  ILE779  LEU786  VAL792 
 PHE793  MET794  SER795  GLU796  ALA797  LYS798  CYS799  TRP800  GLU811  SER814 

> <Gold.Protein.RotatedAtoms>
  151.5786  133.3380  159.3003 H   0  0  0  0  0  0  0  0  0  0  0  0  # atno 6907 bound_to 6896
  150.8326  134.7589  159.6878 H   0  0  0  0  0  0  0  0  0  0  0  0  # atno 6908 bound_to 6896
  152.4408  134.5602  159.9943 H   0  0  0  0  0  0  0  0  0  0  0  0  # atno 6909 bound_to 6896
  145.9506  139.3969  143.0308 H   0  0  0  0  0  0  0  0  0  0  0  0  # atno 7974 bound_to 7965
  154.5955  140.0652  156.9298 H   0  0  0  0  0  0  0  0  0  0  0  0  # atno 8008 bound_to 7997
  155.2221  140.3331  155.4296 H   0  0  0  0  0  0  0  0  0  0  0  0  # atno 8009 bound_to 7997
  156.2284  140.1830  156.7288 H   0  0  0  0  0  0  0  0  0  0  0  0  # atno 8010 bound_to 7997
  139.5318  144.6639  151.4922 H   0  0  0  0  0  0  0  0  0  0  0  0  # atno 10167 bound_to 10162
  156.9559  130.5914  149.5659 H   0  0  0  0  0  0  0  0  0  0  0  0  # atno 10718 bound_to 10713
  153.7875  135.6900  153.4877 H   0  0  0  0  0  0  0  0  0  0  0  0  # atno 10763 bound_to 10752
  153.1771  135.4520  154.9978 H   0  0  0  0  0  0  0  0  0  0  0  0  # atno 10764 bound_to 10752
  154.8057  135.3356  154.7373 H   0  0  0  0  0  0  0  0  0  0  0  0  # atno 10765 bound_to 10752
  140.4973  134.0781  155.7785 H   0  0  0  0  0  0  0  0  0  0  0  0  # atno 11005 bound_to 11000
  145.8176  140.9695  143.0915 LP  0  0  0  0  0  0  0  0  0  0  0  0  # atno 17320 bound_to 7965
  144.6795  140.0001  143.7484 LP  0  0  0  0  0  0  0  0  0  0  0  0  # atno 17321 bound_to 7965
  140.6502  143.8713  150.6777 LP  0  0  0  0  0  0  0  0  0  0  0  0  # atno 17342 bound_to 10162
  140.2075  143.3910  152.1744 LP  0  0  0  0  0  0  0  0  0  0  0  0  # atno 17343 bound_to 10162
  156.0343  130.5431  150.8613 LP  0  0  0  0  0  0  0  0  0  0  0  0  # atno 17370 bound_to 10713
  157.5690  131.0946  150.9446 LP  0  0  0  0  0  0  0  0  0  0  0  0  # atno 17371 bound_to 10713
  141.1454  133.9065  157.2228 LP  0  0  0  0  0  0  0  0  0  0  0  0  # atno 17394 bound_to 11000
  139.9734  135.0121  156.9570 LP  0  0  0  0  0  0  0  0  0  0  0  0  # atno 17395 bound_to 11000

$$$$
