#       Name:                AV-unprocessed.smi:518
#       Creating user name   scv26
#       Creation time:       Thu Mar 26 23:26:55 2020


#       File generated by GOLD software.
#

@<TRIPOS>MOLECULE
AV-unprocessed.smi:518
    44    46     1
SMALL
NO_CHARGES


@<TRIPOS>ATOM
      1 ****        -3.0703   2.6808  -1.3911 O.3            1 S1                 0.0000
      2 ****        -1.6724   2.5566  -1.2481 C.3            1 S1                 0.0000
      3 ****        -1.2774   1.0744  -1.2868 C.3            1 S1                 0.0000
      4 ****         0.1601   0.9013  -1.1477 N.pl3          1 S1                 0.0000
      5 ****         0.8792   0.7090  -0.0135 C.2            1 S1                 0.0000
      6 ****         0.2349   0.6431   1.3405 C.3            1 S1                 0.0000
      7 ****        -0.4761  -0.6071   1.6052 N.3            1 S1                 0.0000
      8 ****        -1.2092  -0.4750   2.8666 C.3            1 S1                 0.0000
      9 ****        -2.0497  -1.7361   3.1339 C.3            1 S1                 0.0000
     10 ****        -1.1592  -2.9826   3.1832 C.3            1 S1                 0.0000
     11 ****        -0.3089  -3.0511   1.9097 C.3            1 S1                 0.0000
     12 ****         0.4586  -1.7350   1.6918 C.3            1 S1                 0.0000
     13 ****         2.1978   0.5904  -0.1753 N.2            1 S1                 0.0000
     14 ****         2.3478   0.7133  -1.5428 C.ar           1 S1                 0.0000
     15 ****         3.5096   0.6744  -2.3462 C.ar           1 S1                 0.0000
     16 ****         3.4156   0.8322  -3.7446 C.ar           1 S1                 0.0000
     17 ****         2.1615   1.0311  -4.3585 C.ar           1 S1                 0.0000
     18 ****         2.0596   1.2247  -6.0697 Cl             1 S1                 0.0000
     19 ****         0.9914   1.0723  -3.5759 C.ar           1 S1                 0.0000
     20 ****         1.0908   0.9122  -2.1811 C.ar           1 S1                 0.0000
     21 ****        -3.2938   3.5989  -1.3779 H              1 S1                 0.0000
     22 ****        -1.1834   3.1068  -2.0528 H              1 S1                 0.0000
     23 ****        -1.3694   3.0146  -0.3063 H              1 S1                 0.0000
     24 ****        -1.7905   0.5191  -0.5020 H              1 S1                 0.0000
     25 ****        -1.5894   0.6254  -2.2305 H              1 S1                 0.0000
     26 ****         0.9948   0.8070   2.1065 H              1 S1                 0.0000
     27 ****        -0.4619   1.4786   1.4172 H              1 S1                 0.0000
     28 ****        -0.5146  -0.2998   3.6899 H              1 S1                 0.0000
     29 ****        -1.8714   0.3904   2.8165 H              1 S1                 0.0000
     30 ****        -2.5937  -1.6298   4.0728 H              1 S1                 0.0000
     31 ****        -2.8008  -1.8490   2.3507 H              1 S1                 0.0000
     32 ****        -0.5094  -2.9373   4.0579 H              1 S1                 0.0000
     33 ****        -1.7660  -3.8824   3.2865 H              1 S1                 0.0000
     34 ****         0.3908  -3.8847   1.9743 H              1 S1                 0.0000
     35 ****        -0.9483  -3.2496   1.0484 H              1 S1                 0.0000
     36 ****         1.0358  -1.8164   0.7708 H              1 S1                 0.0000
     37 ****         1.1711  -1.5715   2.5021 H              1 S1                 0.0000
     38 ****         4.4747   0.5244  -1.8855 H              1 S1                 0.0000
     39 ****         4.3112   0.8014  -4.3479 H              1 S1                 0.0000
     40 ****         0.0288   1.2261  -4.0407 H              1 S1                 0.0000
     41 ****        -3.5292   2.2113  -0.6368 LP             1 S1                 0.0000
     42 ****        -3.3575   2.2764  -2.2594 LP             1 S1                 0.0000
     43 ****        -1.1099  -0.7867   0.8529 LP             1 S1                 0.0000
     44 ****         2.9022   0.4480   0.5201 LP             1 S1                 0.0000
@<TRIPOS>BOND
    1    1    2 1     
    2    1   21 1     
    3    2    3 1     
    4    2   22 1     
    5    2   23 1     
    6    3    4 1     
    7    3   24 1     
    8    3   25 1     
    9    4   20 1     
   10    4    5 1     
   11    5    6 1     
   12    5   13 2     
   13    6    7 1     
   14    6   26 1     
   15    6   27 1     
   16    7   12 1     
   17    7    8 1     
   18    8    9 1     
   19    8   28 1     
   20    8   29 1     
   21    9   10 1     
   22    9   30 1     
   23    9   31 1     
   24   10   11 1     
   25   10   32 1     
   26   10   33 1     
   27   11   12 1     
   28   11   34 1     
   29   11   35 1     
   30   12   36 1     
   31   12   37 1     
   32   13   14 1     
   33   14   20 ar    
   34   14   15 ar    
   35   15   16 ar    
   36   15   38 1     
   37   16   17 ar    
   38   16   39 1     
   39   17   18 1     
   40   17   19 ar    
   41   19   20 ar    
   42   19   40 1     
   43    1   41 1     
   44    1   42 1     
   45    7   43 1     
   46   13   44 1     
@<TRIPOS>SUBSTRUCTURE
      1 S1             1
@<TRIPOS>SET
LONE_PAIRS      STATIC     ATOMS    <user>   **** ""
4 41 42 43 44
DONOR_HYDROGENS      STATIC     ATOMS    <user>   **** ""
1 21
ATOM$BLUE        STATIC     ATOMS    COLORGROUP SYSTEM
4 41 42 43 44
ATOM$RED        STATIC     ATOMS    COLORGROUP SYSTEM
1 21
