AV-unprocessed.smi:1076|AV-procd|sdf|4699|dock2
  -GOLD-   22720 3223D 1   1.00000     0.00000
 Structure written by MMmdl.
 44 45  0  0  0  0  0  0  0  0  1 V2000
  152.0347  143.9815  161.0863 C   0  0  0  0  0  0  0  0  0  0  0  0
  151.7289  143.8266  159.6248 C   0  0  0  0  0  0  0  0  0  0  0  0
  151.8444  144.8050  158.5966 C   0  0  0  0  0  0  0  0  0  0  0  0
  151.5071  144.3417  157.4040 N   0  0  0  0  0  0  0  0  0  0  0  0
  151.1678  143.0545  157.6273 N   0  0  0  0  0  0  0  0  0  0  0  0
  150.7696  142.2071  156.5161 C   0  0  0  0  0  0  0  0  0  0  0  0
  149.3265  141.6877  156.6734 C   0  0  2  0  0  0  0  0  0  0  0  0
  148.7551  141.1853  155.3377 C   0  0  0  0  0  0  0  0  0  0  0  0
  148.4975  142.7707  157.1897 N   0  0  0  0  0  0  0  0  0  0  0  0
  147.0951  142.3959  157.3158 C   0  0  0  0  0  0  0  0  0  0  0  0
  146.2839  143.5228  157.9889 C   0  0  0  0  0  0  0  0  0  0  0  0
  146.5230  143.6839  159.5051 C   0  0  0  0  0  0  0  0  0  0  0  0
  147.4377  143.0530  160.0382 O   0  0  0  0  0  0  0  0  0  0  0  0
  145.7199  144.5146  160.2129 N   0  0  0  0  0  0  0  0  0  0  0  0
  145.8773  144.7440  161.6525 C   0  0  0  0  0  0  0  0  0  0  0  0
  144.6390  144.1838  162.3745 C   0  0  0  0  0  0  0  0  0  0  0  0
  143.4655  144.8134  161.8669 O   0  0  0  0  0  0  0  0  0  0  0  0
  143.2962  144.6290  160.4636 C   0  0  0  0  0  0  0  0  0  0  0  0
  144.5176  145.1894  159.7119 C   0  0  0  0  0  0  0  0  0  0  0  0
  151.2848  142.7194  158.9597 C   0  0  0  0  0  0  0  0  0  0  0  0
  152.6856  144.8354  161.2753 H   0  0  0  0  0  0  0  0  0  0  0  0
  152.5375  143.1009  161.4873 H   0  0  0  0  0  0  0  0  0  0  0  0
  151.1280  144.1311  161.6723 H   0  0  0  0  0  0  0  0  0  0  0  0
  152.1663  145.8325  158.6807 H   0  0  0  0  0  0  0  0  0  0  0  0
  150.8818  142.7702  155.5882 H   0  0  0  0  0  0  0  0  0  0  0  0
  151.4672  141.3701  156.4585 H   0  0  0  0  0  0  0  0  0  0  0  0
  149.3416  140.8643  157.3893 H   0  0  0  0  0  0  0  0  0  0  0  0
  149.3778  140.3913  154.9247 H   0  0  0  0  0  0  0  0  0  0  0  0
  148.7072  141.9856  154.5985 H   0  0  0  0  0  0  0  0  0  0  0  0
  147.7507  140.7785  155.4565 H   0  0  0  0  0  0  0  0  0  0  0  0
  148.6020  143.6029  156.6272 H   0  0  0  0  0  0  0  0  0  0  0  0
  146.6852  142.1801  156.3291 H   0  0  0  0  0  0  0  0  0  0  0  0
  147.0045  141.4824  157.9053 H   0  0  0  0  0  0  0  0  0  0  0  0
  146.5216  144.4605  157.4852 H   0  0  0  0  0  0  0  0  0  0  0  0
  145.2209  143.3367  157.8312 H   0  0  0  0  0  0  0  0  0  0  0  0
  146.7810  144.2899  162.0615 H   0  0  0  0  0  0  0  0  0  0  0  0
  145.9688  145.8151  161.8391 H   0  0  0  0  0  0  0  0  0  0  0  0
  144.5686  143.1025  162.2452 H   0  0  0  0  0  0  0  0  0  0  0  0
  144.7069  144.3745  163.4455 H   0  0  0  0  0  0  0  0  0  0  0  0
  143.1559  143.5698  160.2410 H   0  0  0  0  0  0  0  0  0  0  0  0
  142.3897  145.1448  160.1472 H   0  0  0  0  0  0  0  0  0  0  0  0
  144.6081  146.2619  159.8897 H   0  0  0  0  0  0  0  0  0  0  0  0
  144.3587  145.0763  158.6412 H   0  0  0  0  0  0  0  0  0  0  0  0
  151.0599  141.7254  159.3175 H   0  0  0  0  0  0  0  0  0  0  0  0
  1  2  1  0  0  0  0
  1 21  1  0  0  0  0
  1 22  1  0  0  0  0
  1 23  1  0  0  0  0
  2 20  2  0  0  0  0
  2  3  1  0  0  0  0
  3  4  2  0  0  0  0
  3 24  1  0  0  0  0
  4  5  1  0  0  0  0
  5  6  1  0  0  0  0
  5 20  1  0  0  0  0
  6  7  1  0  0  0  0
  6 25  1  0  0  0  0
  6 26  1  0  0  0  0
  7  8  1  0  0  0  0
  7  9  1  0  0  0  0
  7 27  1  0  0  0  0
  8 28  1  0  0  0  0
  8 29  1  0  0  0  0
  8 30  1  0  0  0  0
  9 10  1  0  0  0  0
  9 31  1  0  0  0  0
 10 11  1  0  0  0  0
 10 32  1  0  0  0  0
 10 33  1  0  0  0  0
 11 12  1  0  0  0  0
 11 34  1  0  0  0  0
 11 35  1  0  0  0  0
 12 13  2  0  0  0  0
 12 14  1  0  0  0  0
 14 19  1  0  0  0  0
 14 15  1  0  0  0  0
 15 16  1  0  0  0  0
 15 36  1  0  0  0  0
 15 37  1  0  0  0  0
 16 17  1  0  0  0  0
 16 38  1  0  0  0  0
 16 39  1  0  0  0  0
 17 18  1  0  0  0  0
 18 19  1  0  0  0  0
 18 40  1  0  0  0  0
 18 41  1  0  0  0  0
 19 42  1  0  0  0  0
 19 43  1  0  0  0  0
 20 44  1  0  0  0  0
M  END
> <s_m_source_file>
AV-unprocessed.smi

> <i_m_source_file_index>
1076

> <i_lp_mmshare_version>
43012

> <i_f3d_flags>
0

> <s_epik_input>
W0NIM11jMVtjSF1ubihbY0hdMSlbQ0gyXVtDQEhdKFtDSDNdKVtOSF1bQ0gyXVtDSDJdQyg9TylOMltDSDJdW0NIMl1PW0NIMl1bQ0gyXTI=

> <s_epik_cmdline>
J2VwaWtfcHl0aG9uJywgJy1waCcsICc3LjAnLCAnLXRuJywgJzgnLCAnLW1hJywgJzIwMCcsICctbWV0YWxfYmluZGluZycsICctaW1hZScsICc8aW5maWxlLm1hZT4nLCAnLW9tYWUnLCAnPG91dGZpbGUubWFlPic=

> <r_lp_tautomer_probability>
1

> <r_epik_Ionization_Penalty>
2.55707

> <r_epik_Ionization_Penalty_Charging>
0

> <r_epik_Ionization_Penalty_Neutral>
2.55707

> <r_epik_State_Penalty>
2.726

> <r_epik_Charging_Adjusted_Penalty>
2.726

> <i_epik_Tot_Q>
0

> <i_epik_Tot_abs_Q>
0

> <r_epik_Metal_State_Penalty>
2.72594

> <b_epik_Metal_Only>
0

> <s_lp_Force_Field>
OPLS_2005

> <r_lp_Energy>
21.3245

> <b_lp_Chiralities_Consistent>
1

> <s_lp_Variant>
AV-unprocessed.smi:1076-3

> <Gold.Version>
5.8.1

> <Gold.Id.Protein>
6NUR|6NUR_protein|mol2

> <Gold.PLP.Fitness>
44.0136

> <Gold.PLP.PLP>
-37.7682

> <Gold.PLP.part.hbond>
-3.0000

> <Gold.PLP.part.metal>
0.0000

> <Gold.PLP.part.buried>
-4.8593

> <Gold.PLP.part.nonpolar>
-29.9051

> <Gold.PLP.part.repulsive>
0.2792

> <Gold.PLP.ligand.clash>
0.0000

> <Gold.PLP.ligand.torsion>
0.3254

> <Gold.PLP.Chemscore.Hbond>
2.2469

> <Gold.PLP.Chemscore.CHOScore>
0.0000

> <Gold.PLP.Chemscore.Metal>
0.0000

> <Gold.Chemscore.Hbonds>
donor molecule, donor type, donor heavy atom, donor atom, acceptor molecule, acceptor atom, score
      L1  H     9    31       P1  8028  0.89
      P1  H  6933  6944       L1    13  0.94
      P1  H  6934  6946       L1    13  0.15

> <Gold.PLP.Chemscore.Internal.Correction>
0.1556

> <Gold.Rescore>
     Score         DG    S(hbond)    S(metal)    S(lipo)     H(rot)  DE(clash)    DE(int)     intcor
     17.89     -18.67       2.31        0.00      88.67       1.91       0.38       0.40       ----

> <Gold.Chemscore.Fitness>
17.8892

> <Gold.Chemscore.DG>
-18.6662

> <Gold.Chemscore.ZeroCoef>
-5.4800

> <Gold.Chemscore.Hbond>
2.3056

> <Gold.Chemscore.Metal>
0.0000

> <Gold.Chemscore.Lipo>
88.6710

> <Gold.Chemscore.Internal_Hbond>
0.0000

> <Gold.Chemscore.DEClash>
0.3794

> <Gold.Chemscore.DEInternal>
0.3976

> <Gold.Chemscore.Rot>
1.9098

> <Gold.Chemscore.Internal.Correction>
   9.000000E+99

> <Gold.Chemscore.Hbonds>
donor molecule, donor type, donor heavy atom, donor atom, acceptor molecule, acceptor atom, score
      L1  H     9    31       P1  8028  0.35
      P1  H  6933  6944       L1    13  0.91
      P1  H  6934  6946       L1    13  0.14

> <Gold.Chemscore.Hbond.Weighted>
-7.7007

> <Gold.Chemscore.Metal.Weighted>
-0.0000

> <Gold.Chemscore.Lipo.Weighted>
-10.3745

> <Gold.Chemscore.Internal_Hbond.Weighted>
0.0000

> <Gold.Chemscore.DEClash.Weighted>
0.3794

> <Gold.Chemscore.DEInternal.Weighted>
0.3976

> <Gold.Chemscore.Rot.Weighted>
4.8891

> <Gold.Chemscore.Internal.Correction.Weighted>
   9.000000E+99

> <Gold.Protein.RotatedTorsions>
[ 6907 6896 6895 6894 ] final   45.16 input  -60.11 | X-H torsion
[ 7974 7965 7964 7962 ] final   77.42 input  175.53 | X-H torsion
[ 8008 7997 7996 7995 ] final  -31.10 input   59.86 | X-H torsion
[ 10167 10162 10161 10158 ] final   82.98 input  -65.29 | X-H torsion
[ 10718 10713 10712 10709 ] final  -60.33 input   66.30 | X-H torsion
[ 10763 10752 10751 10750 ] final  -71.37 input  -60.55 | X-H torsion
[ 11005 11000 10999 10996 ] final   -0.96 input  -57.11 | X-H torsion

> <Gold.Protein.ActiveResidues>
 VAL166  LYS551  ARG553  GLY616  TRP617  ASP618  TYR619  PRO620  LYS621  CYS622 
 ASP623  PHE694  ASN695  SER759  ASP760  ASP761  ALA762  ILE779  LEU786  VAL792 
 PHE793  MET794  SER795  GLU796  ALA797  LYS798  CYS799  TRP800  GLU811  SER814 

> <Gold.Protein.RotatedAtoms>
  152.2413  134.8226  160.0459 H   0  0  0  0  0  0  0  0  0  0  0  0  # atno 6907 bound_to 6896
  151.8940  133.3517  159.3816 H   0  0  0  0  0  0  0  0  0  0  0  0  # atno 6908 bound_to 6896
  150.7054  134.4822  159.5520 H   0  0  0  0  0  0  0  0  0  0  0  0  # atno 6909 bound_to 6896
  145.6902  139.2550  143.1764 H   0  0  0  0  0  0  0  0  0  0  0  0  # atno 7974 bound_to 7965
  154.4226  140.1773  156.1512 H   0  0  0  0  0  0  0  0  0  0  0  0  # atno 8008 bound_to 7997
  155.9914  140.3368  155.6732 H   0  0  0  0  0  0  0  0  0  0  0  0  # atno 8009 bound_to 7997
  155.6368  140.0675  157.2622 H   0  0  0  0  0  0  0  0  0  0  0  0  # atno 8010 bound_to 7997
  139.9231  144.6200  150.8420 H   0  0  0  0  0  0  0  0  0  0  0  0  # atno 10167 bound_to 10162
  156.0998  130.4188  150.0839 H   0  0  0  0  0  0  0  0  0  0  0  0  # atno 10718 bound_to 10713
  154.4309  135.5964  153.6068 H   0  0  0  0  0  0  0  0  0  0  0  0  # atno 10763 bound_to 10752
  152.9799  135.5975  154.3841 H   0  0  0  0  0  0  0  0  0  0  0  0  # atno 10764 bound_to 10752
  154.3678  135.2841  155.2262 H   0  0  0  0  0  0  0  0  0  0  0  0  # atno 10765 bound_to 10752
  140.6420  133.9481  155.8331 H   0  0  0  0  0  0  0  0  0  0  0  0  # atno 11005 bound_to 11000
  146.0888  140.7679  142.9605 LP  0  0  0  0  0  0  0  0  0  0  0  0  # atno 17320 bound_to 7965
  144.6999  140.3605  143.7165 LP  0  0  0  0  0  0  0  0  0  0  0  0  # atno 17321 bound_to 7965
  140.7657  143.3283  151.2467 LP  0  0  0  0  0  0  0  0  0  0  0  0  # atno 17342 bound_to 10162
  139.6845  143.9798  152.2826 LP  0  0  0  0  0  0  0  0  0  0  0  0  # atno 17343 bound_to 10162
  156.8829  130.9562  151.3597 LP  0  0  0  0  0  0  0  0  0  0  0  0  # atno 17370 bound_to 10713
  157.6166  130.8623  149.9039 LP  0  0  0  0  0  0  0  0  0  0  0  0  # atno 17371 bound_to 10713
  141.0600  134.0361  157.3671 LP  0  0  0  0  0  0  0  0  0  0  0  0  # atno 17394 bound_to 11000
  139.9077  135.0183  156.7556 LP  0  0  0  0  0  0  0  0  0  0  0  0  # atno 17395 bound_to 11000

$$$$
