AV-unprocessed.smi:1907|AV-procd|sdf|7732|dock4
  -GOLD-   22720 9473D 1   1.00000     0.00000
 Structure written by MMmdl.
 31 32  0  0  0  0  0  0  0  0  2 V2000
  149.3529  138.9967  153.4275 N   0  0  0  0  0  0  0  0  0  0  0  0
  150.3470  138.9137  154.3164 C   0  0  0  0  0  0  0  0  0  0  0  0
  150.9124  139.9091  154.7646 O   0  0  0  0  0  0  0  0  0  0  0  0
  150.7584  137.5135  154.7774 C   0  0  0  0  0  0  0  0  0  0  0  0
  149.6859  136.9028  155.6324 C   0  0  0  0  0  0  0  0  0  0  0  0
  148.4337  136.5130  155.2330 C   0  0  0  0  0  0  0  0  0  0  0  0
  147.5115  135.8569  156.5551 S   0  0  0  0  0  0  0  0  0  0  0  0
  148.8884  136.1119  157.6289 C   0  0  0  0  0  0  0  0  0  0  0  0
  148.9046  135.8263  158.9424 N   0  5  0  0  0  0  0  0  0  0  0  0
  147.8082  135.8775  159.7495 C   0  0  0  0  0  0  0  0  0  0  0  0
  146.7315  136.3874  159.4413 O   0  0  0  0  0  0  0  0  0  0  0  0
  147.9472  135.2281  161.1552 C   0  0  0  0  0  0  0  0  0  0  0  0
  146.9602  134.0512  161.3430 C   0  0  0  0  0  0  0  0  0  0  0  0
  146.0301  134.4181  162.5070 C   0  0  0  0  0  0  0  0  0  0  0  0
  146.1621  135.9294  162.6701 C   0  0  0  0  0  0  0  0  0  0  0  0
  147.6191  136.2043  162.3047 C   0  0  0  0  0  0  0  0  0  0  0  0
  149.9220  136.6726  156.9908 N   0  0  0  0  0  0  0  0  0  0  0  0
  149.0628  139.8985  153.0792 H   0  0  0  0  0  0  0  0  0  0  0  0
  148.9098  138.1532  153.0915 H   0  0  0  0  0  0  0  0  0  0  0  0
  150.9515  136.8894  153.9040 H   0  0  0  0  0  0  0  0  0  0  0  0
  151.7014  137.5775  155.3224 H   0  0  0  0  0  0  0  0  0  0  0  0
  147.9974  136.5779  154.2478 H   0  0  0  0  0  0  0  0  0  0  0  0
  148.9716  134.8929  161.3184 H   0  0  0  0  0  0  0  0  0  0  0  0
  146.3679  133.8764  160.4431 H   0  0  0  0  0  0  0  0  0  0  0  0
  147.4916  133.1220  161.5516 H   0  0  0  0  0  0  0  0  0  0  0  0
  144.9998  134.1073  162.3317 H   0  0  0  0  0  0  0  0  0  0  0  0
  146.3733  133.9236  163.4165 H   0  0  0  0  0  0  0  0  0  0  0  0
  145.4997  136.4385  161.9689 H   0  0  0  0  0  0  0  0  0  0  0  0
  145.9097  136.2676  163.6753 H   0  0  0  0  0  0  0  0  0  0  0  0
  148.2549  135.9771  163.1612 H   0  0  0  0  0  0  0  0  0  0  0  0
  147.7913  137.2532  162.0590 H   0  0  0  0  0  0  0  0  0  0  0  0
  1  2  1  0  0  0  0
  1 18  1  0  0  0  0
  1 19  1  0  0  0  0
  2  3  2  0  0  0  0
  2  4  1  0  0  0  0
  4  5  1  0  0  0  0
  4 20  1  0  0  0  0
  4 21  1  0  0  0  0
  5 17  1  0  0  0  0
  5  6  2  0  0  0  0
  6  7  1  0  0  0  0
  6 22  1  0  0  0  0
  7  8  1  0  0  0  0
  8  9  1  0  0  0  0
  8 17  2  0  0  0  0
  9 10  1  0  0  0  0
 10 11  2  0  0  0  0
 10 12  1  0  0  0  0
 12 16  1  0  0  0  0
 12 13  1  0  0  0  0
 12 23  1  0  0  0  0
 13 14  1  0  0  0  0
 13 24  1  0  0  0  0
 13 25  1  0  0  0  0
 14 15  1  0  0  0  0
 14 26  1  0  0  0  0
 14 27  1  0  0  0  0
 15 16  1  0  0  0  0
 15 28  1  0  0  0  0
 15 29  1  0  0  0  0
 16 30  1  0  0  0  0
 16 31  1  0  0  0  0
M  CHG  1   9  -1
M  END
> <s_m_source_file>
AV-unprocessed.smi

> <i_m_source_file_index>
1907

> <i_lp_mmshare_version>
43012

> <i_f3d_flags>
0

> <s_epik_input>
W05IMl1DKD1PKVtDSDJdYzFbY0hdc2MobjEpW05IXUMoPU8pW0NIXTJbQ0gyXVtDSDJdW0NIMl1bQ0gyXTI=

> <s_epik_cmdline>
J2VwaWtfcHl0aG9uJywgJy1waCcsICc3LjAnLCAnLXRuJywgJzgnLCAnLW1hJywgJzIwMCcsICctbWV0YWxfYmluZGluZycsICctaW1hZScsICc8aW5maWxlLm1hZT4nLCAnLW9tYWUnLCAnPG91dGZpbGUubWFlPic=

> <r_lp_tautomer_probability>
1

> <r_epik_Ionization_Penalty>
5.3563

> <r_epik_Ionization_Penalty_Charging>
4.90463

> <r_epik_Ionization_Penalty_Neutral>
0.451677

> <r_epik_State_Penalty>
4.90447

> <r_epik_Charging_Adjusted_Penalty>
9.8091

> <i_epik_Tot_Q>
-1

> <i_epik_Tot_abs_Q>
1

> <r_epik_Metal_State_Penalty>
1.05508

> <b_epik_Metal_Only>
1

> <s_lp_Force_Field>
OPLS_2005

> <r_lp_Energy>
19.4478

> <b_lp_Chiralities_Consistent>
1

> <s_lp_Variant>
AV-unprocessed.smi:1907-2

> <Gold.Version>
5.8.1

> <Gold.Id.Protein>
6NUR|6NUR_protein|mol2

> <Gold.PLP.Fitness>
45.0387

> <Gold.PLP.PLP>
-28.2968

> <Gold.PLP.part.hbond>
-4.1970

> <Gold.PLP.part.metal>
0.0000

> <Gold.PLP.part.buried>
-4.7246

> <Gold.PLP.part.nonpolar>
-19.4675

> <Gold.PLP.part.repulsive>
0.1652

> <Gold.PLP.ligand.clash>
0.0000

> <Gold.PLP.ligand.torsion>
0.4077

> <Gold.PLP.Chemscore.Hbond>
4.8400

> <Gold.PLP.Chemscore.CHOScore>
1.0000

> <Gold.PLP.Chemscore.Metal>
0.0000

> <Gold.Chemscore.Hbonds>
donor molecule, donor type, donor heavy atom, donor atom, acceptor molecule, acceptor atom, score
      L1  H     1    18       P1  7957  0.16
      L1  H     1    19       P1  7948  0.44
      P1  H  6896  6909       L1     9  0.81
      P1  H  7989  7998       L1     3  1.00
      L1  C     6    22       P1  7948  0.85

> <Gold.PLP.Chemscore.Internal.Correction>
0.0373

> <Gold.Rescore>
     Score         DG    S(hbond)    S(metal)    S(lipo)     H(rot)  DE(clash)    DE(int)     intcor
     18.17     -19.15       3.51        0.00      57.60       1.87       0.46       0.52       ----

> <Gold.Chemscore.Fitness>
18.1690

> <Gold.Chemscore.DG>
-19.1509

> <Gold.Chemscore.ZeroCoef>
-5.4800

> <Gold.Chemscore.Hbond>
3.5121

> <Gold.Chemscore.Metal>
0.0000

> <Gold.Chemscore.Lipo>
57.5952

> <Gold.Chemscore.Internal_Hbond>
0.0000

> <Gold.Chemscore.DEClash>
0.4588

> <Gold.Chemscore.DEInternal>
0.5230

> <Gold.Chemscore.Rot>
1.8743

> <Gold.Chemscore.Internal.Correction>
   9.000000E+99

> <Gold.Chemscore.Hbonds>
donor molecule, donor type, donor heavy atom, donor atom, acceptor molecule, acceptor atom, score
      L1  H     1    18       P1  7957  0.16
      L1  H     1    19       P1  7948  0.41
      P1  H  6896  6909       L1     9  0.37
      P1  H  7989  7998       L1     3  0.82

> <Gold.Chemscore.Hbond.Weighted>
-11.7305

> <Gold.Chemscore.Metal.Weighted>
-0.0000

> <Gold.Chemscore.Lipo.Weighted>
-6.7386

> <Gold.Chemscore.Internal_Hbond.Weighted>
0.0000

> <Gold.Chemscore.DEClash.Weighted>
0.4588

> <Gold.Chemscore.DEInternal.Weighted>
0.5230

> <Gold.Chemscore.Rot.Weighted>
4.7982

> <Gold.Chemscore.Internal.Correction.Weighted>
   9.000000E+99

> <Gold.Protein.RotatedTorsions>
[ 6907 6896 6895 6894 ] final   67.50 input  -60.11 | X-H torsion
[ 7974 7965 7964 7962 ] final  178.59 input  175.53 | X-H torsion
[ 8008 7997 7996 7995 ] final  -63.44 input   59.86 | X-H torsion
[ 10167 10162 10161 10158 ] final  165.31 input  -65.29 | X-H torsion
[ 10718 10713 10712 10709 ] final   66.76 input   66.30 | X-H torsion
[ 10763 10752 10751 10750 ] final   95.39 input  -60.55 | X-H torsion
[ 11005 11000 10999 10996 ] final   72.02 input  -57.11 | X-H torsion

> <Gold.Protein.ActiveResidues>
 VAL166  LYS551  ARG553  GLY616  TRP617  ASP618  TYR619  PRO620  LYS621  CYS622 
 ASP623  PHE694  ASN695  SER759  ASP760  ASP761  ALA762  ILE779  LEU786  VAL792 
 PHE793  MET794  SER795  GLU796  ALA797  LYS798  CYS799  TRP800  GLU811  SER814 

> <Gold.Protein.RotatedAtoms>
  152.4556  134.5299  159.9807 H   0  0  0  0  0  0  0  0  0  0  0  0  # atno 6907 bound_to 6896
  151.5360  133.3435  159.2934 H   0  0  0  0  0  0  0  0  0  0  0  0  # atno 6908 bound_to 6896
  150.8499  134.7851  159.7063 H   0  0  0  0  0  0  0  0  0  0  0  0  # atno 6909 bound_to 6896
  144.7154  140.0421  143.6437 H   0  0  0  0  0  0  0  0  0  0  0  0  # atno 7974 bound_to 7965
  154.4554  140.0975  156.6743 H   0  0  0  0  0  0  0  0  0  0  0  0  # atno 8008 bound_to 7997
  155.5153  140.3477  155.4378 H   0  0  0  0  0  0  0  0  0  0  0  0  # atno 8009 bound_to 7997
  156.0767  140.1363  156.9751 H   0  0  0  0  0  0  0  0  0  0  0  0  # atno 8010 bound_to 7997
  139.4903  144.4145  151.9260 H   0  0  0  0  0  0  0  0  0  0  0  0  # atno 10167 bound_to 10162
  157.6189  130.9285  150.0151 H   0  0  0  0  0  0  0  0  0  0  0  0  # atno 10718 bound_to 10713
  153.2526  135.4256  155.0813 H   0  0  0  0  0  0  0  0  0  0  0  0  # atno 10763 bound_to 10752
  154.8388  135.3429  154.6491 H   0  0  0  0  0  0  0  0  0  0  0  0  # atno 10764 bound_to 10752
  153.6912  135.7033  153.5146 H   0  0  0  0  0  0  0  0  0  0  0  0  # atno 10765 bound_to 10752
  139.9513  134.7222  156.0857 H   0  0  0  0  0  0  0  0  0  0  0  0  # atno 11005 bound_to 11000
  146.0015  139.3095  143.0925 LP  0  0  0  0  0  0  0  0  0  0  0  0  # atno 17320 bound_to 7965
  145.8788  140.9375  143.0612 LP  0  0  0  0  0  0  0  0  0  0  0  0  # atno 17321 bound_to 7965
  140.3588  144.2999  150.5937 LP  0  0  0  0  0  0  0  0  0  0  0  0  # atno 17342 bound_to 10162
  140.5421  143.2221  151.8067 LP  0  0  0  0  0  0  0  0  0  0  0  0  # atno 17343 bound_to 10162
  156.1324  130.3643  149.9711 LP  0  0  0  0  0  0  0  0  0  0  0  0  # atno 17370 bound_to 10713
  156.7769  130.9207  151.3645 LP  0  0  0  0  0  0  0  0  0  0  0  0  # atno 17371 bound_to 10713
  141.1176  133.6623  156.3133 LP  0  0  0  0  0  0  0  0  0  0  0  0  # atno 17394 bound_to 11000
  140.5713  134.5837  157.5458 LP  0  0  0  0  0  0  0  0  0  0  0  0  # atno 17395 bound_to 11000

$$$$
