AV-unprocessed.smi:1208|AV-procd|sdf|5065|dock7
  -GOLD-   22720 4103D 1   1.00000     0.00000
 Structure written by MMmdl.
 36 37  0  0  0  0  0  0  0  0  1 V2000
  153.9273  140.0376  160.3482 C   0  0  0  0  0  0  0  0  0  0  0  0
  152.8351  141.0923  160.1018 C   0  0  2  0  0  0  0  0  0  0  0  0
  152.6184  141.2422  158.6652 N   0  0  0  0  0  0  0  0  0  0  0  0
  151.5016  140.9001  158.0051 C   0  0  0  0  0  0  0  0  0  0  0  0
  150.5276  140.3764  158.5477 O   0  0  0  0  0  0  0  0  0  0  0  0
  151.5009  141.1704  156.4938 C   0  0  0  0  0  0  0  0  0  0  0  0
  151.3180  139.9512  155.6937 N   0  0  0  0  0  0  0  0  0  0  0  0
  150.2204  139.9858  154.8468 N   0  0  0  0  0  0  0  0  0  0  0  0
  149.9652  138.9790  154.0814 C   0  0  0  0  0  0  0  0  0  0  0  0
  148.8707  139.0568  153.2558 O   0  0  0  0  0  0  0  0  0  0  0  0
  150.8040  137.8006  154.0890 C   0  0  0  0  0  0  0  0  0  0  0  0
  151.8671  137.7738  154.9222 C   0  0  0  0  0  0  0  0  0  0  0  0
  152.1847  138.8977  155.8048 C   0  0  0  0  0  0  0  0  0  0  0  0
  153.1432  138.8981  156.5772 O   0  0  0  0  0  0  0  0  0  0  0  0
  153.1946  142.4646  160.7036 C   0  0  2  0  0  0  0  0  0  0  0  0
  152.9795  142.5732  162.2154 C   0  0  0  0  0  0  0  0  0  0  0  0
  152.7347  144.0539  162.3906 C   0  0  0  0  0  0  0  0  0  0  0  0
  151.9016  144.3696  161.1545 C   0  0  0  0  0  0  0  0  0  0  0  0
  152.3683  143.4844  160.1408 O   0  0  0  0  0  0  0  0  0  0  0  0
  149.1564  139.5592  152.5082 H   0  0  0  0  0  0  0  0  0  0  0  0
  154.0817  139.8669  161.4136 H   0  0  0  0  0  0  0  0  0  0  0  0
  154.8809  140.3465  159.9187 H   0  0  0  0  0  0  0  0  0  0  0  0
  153.6573  139.0790  159.9038 H   0  0  0  0  0  0  0  0  0  0  0  0
  151.9109  140.7510  160.5718 H   0  0  0  0  0  0  0  0  0  0  0  0
  153.3673  141.6673  158.1378 H   0  0  0  0  0  0  0  0  0  0  0  0
  150.7257  141.8982  156.2452 H   0  0  0  0  0  0  0  0  0  0  0  0
  152.4464  141.6523  156.2392 H   0  0  0  0  0  0  0  0  0  0  0  0
  150.5774  136.9673  153.4405 H   0  0  0  0  0  0  0  0  0  0  0  0
  152.5024  136.9004  154.9382 H   0  0  0  0  0  0  0  0  0  0  0  0
  154.2306  142.7193  160.4732 H   0  0  0  0  0  0  0  0  0  0  0  0
  152.0939  142.0138  162.5211 H   0  0  0  0  0  0  0  0  0  0  0  0
  153.8294  142.2102  162.7939 H   0  0  0  0  0  0  0  0  0  0  0  0
  152.2264  144.3000  163.3233 H   0  0  0  0  0  0  0  0  0  0  0  0
  153.6796  144.5982  162.3588 H   0  0  0  0  0  0  0  0  0  0  0  0
  150.8485  144.1556  161.3415 H   0  0  0  0  0  0  0  0  0  0  0  0
  151.9869  145.4118  160.8464 H   0  0  0  0  0  0  0  0  0  0  0  0
  1  2  1  0  0  0  0
  1 21  1  0  0  0  0
  1 22  1  0  0  0  0
  1 23  1  0  0  0  0
  2  3  1  0  0  0  0
  2 15  1  0  0  0  0
  2 24  1  0  0  0  0
  3  4  1  0  0  0  0
  3 25  1  0  0  0  0
  4  5  2  0  0  0  0
  4  6  1  0  0  0  0
  6 26  1  0  0  0  0
  6 27  1  0  0  0  0
  6  7  1  0  0  0  0
  7  8  1  0  0  0  0
  7 13  1  0  0  0  0
  8  9  2  0  0  0  0
  9 10  1  0  0  0  0
  9 11  1  0  0  0  0
 10 20  1  0  0  0  0
 11 28  1  0  0  0  0
 11 12  2  0  0  0  0
 12 29  1  0  0  0  0
 12 13  1  0  0  0  0
 13 14  2  0  0  0  0
 15 19  1  0  0  0  0
 15 16  1  0  0  0  0
 15 30  1  0  0  0  0
 16 17  1  0  0  0  0
 16 31  1  0  0  0  0
 16 32  1  0  0  0  0
 17 18  1  0  0  0  0
 17 33  1  0  0  0  0
 17 34  1  0  0  0  0
 18 19  1  0  0  0  0
 18 35  1  0  0  0  0
 18 36  1  0  0  0  0
M  END
> <s_m_source_file>
AV-unprocessed.smi

> <i_m_source_file_index>
1208

> <i_lp_mmshare_version>
43012

> <i_f3d_flags>
0

> <s_epik_input>
TzFbQ0gyXVtDSDJdW0NIMl1bQ0BIXTFbQ0BIXShbQ0gzXSlbTkhdQyg9TylbQ0gyXW4yW25IXWMoPU8pW2NIXVtjSF1jMj1P

> <s_epik_cmdline>
J2VwaWtfcHl0aG9uJywgJy1waCcsICc3LjAnLCAnLXRuJywgJzgnLCAnLW1hJywgJzIwMCcsICctbWV0YWxfYmluZGluZycsICctaW1hZScsICc8aW5maWxlLm1hZT4nLCAnLW9tYWUnLCAnPG91dGZpbGUubWFlPic=

> <r_lp_tautomer_probability>
0.9996

> <r_epik_Ionization_Penalty>
2.12735

> <r_epik_Ionization_Penalty_Charging>
3.86665e-08

> <r_epik_Ionization_Penalty_Neutral>
2.12735

> <r_epik_State_Penalty>
1.70441

> <r_epik_Charging_Adjusted_Penalty>
1.70441

> <i_epik_Tot_Q>
0

> <i_epik_Tot_abs_Q>
0

> <r_epik_Metal_State_Penalty>
1.70441

> <b_epik_Metal_Only>
0

> <s_lp_Force_Field>
OPLS_2005

> <r_lp_Energy>
29.6219

> <b_lp_Chiralities_Consistent>
1

> <s_lp_Variant>
AV-unprocessed.smi:1208-5

> <Gold.Version>
5.8.1

> <Gold.Id.Protein>
6NUR|6NUR_protein|mol2

> <Gold.PLP.Fitness>
47.2467

> <Gold.PLP.PLP>
-41.5490

> <Gold.PLP.part.hbond>
-3.2296

> <Gold.PLP.part.metal>
0.0000

> <Gold.PLP.part.buried>
-4.5474

> <Gold.PLP.part.nonpolar>
-33.4454

> <Gold.PLP.part.repulsive>
0.1785

> <Gold.PLP.ligand.clash>
0.0000

> <Gold.PLP.ligand.torsion>
0.3544

> <Gold.PLP.Chemscore.Hbond>
2.1294

> <Gold.PLP.Chemscore.CHOScore>
0.0000

> <Gold.PLP.Chemscore.Metal>
0.0000

> <Gold.Chemscore.Hbonds>
donor molecule, donor type, donor heavy atom, donor atom, acceptor molecule, acceptor atom, score
      L1  H    10    20       P1  7957  0.91
      P1  H  7989  7998       L1     8  0.08
      P1  H  7997  8010       L1    14  1.00

> <Gold.PLP.Chemscore.Internal.Correction>
0.0183

> <Gold.Rescore>
     Score         DG    S(hbond)    S(metal)    S(lipo)     H(rot)  DE(clash)    DE(int)     intcor
     13.81     -15.50       1.97        0.00      86.97       2.63       0.25       1.44       ----

> <Gold.Chemscore.Fitness>
13.8067

> <Gold.Chemscore.DG>
-15.4986

> <Gold.Chemscore.ZeroCoef>
-5.4800

> <Gold.Chemscore.Hbond>
1.9661

> <Gold.Chemscore.Metal>
0.0000

> <Gold.Chemscore.Lipo>
86.9706

> <Gold.Chemscore.Internal_Hbond>
0.0000

> <Gold.Chemscore.DEClash>
0.2513

> <Gold.Chemscore.DEInternal>
1.4406

> <Gold.Chemscore.Rot>
2.6264

> <Gold.Chemscore.Internal.Correction>
   9.000000E+99

> <Gold.Chemscore.Hbonds>
donor molecule, donor type, donor heavy atom, donor atom, acceptor molecule, acceptor atom, score
      L1  H    10    20       P1  7957  0.89
      P1  H  7997  8010       L1    14  0.98

> <Gold.Chemscore.Hbond.Weighted>
-6.5667

> <Gold.Chemscore.Metal.Weighted>
-0.0000

> <Gold.Chemscore.Lipo.Weighted>
-10.1756

> <Gold.Chemscore.Internal_Hbond.Weighted>
0.0000

> <Gold.Chemscore.DEClash.Weighted>
0.2513

> <Gold.Chemscore.DEInternal.Weighted>
1.4406

> <Gold.Chemscore.Rot.Weighted>
6.7237

> <Gold.Chemscore.Internal.Correction.Weighted>
   9.000000E+99

> <Gold.Protein.RotatedTorsions>
[ 6907 6896 6895 6894 ] final   96.84 input  -60.11 | X-H torsion
[ 7974 7965 7964 7962 ] final -174.21 input  175.53 | X-H torsion
[ 8008 7997 7996 7995 ] final   56.20 input   59.86 | X-H torsion
[ 10167 10162 10161 10158 ] final  -37.60 input  -65.29 | X-H torsion
[ 10718 10713 10712 10709 ] final -117.56 input   66.30 | X-H torsion
[ 10763 10752 10751 10750 ] final  -44.93 input  -60.55 | X-H torsion
[ 11005 11000 10999 10996 ] final  137.95 input  -57.11 | X-H torsion

> <Gold.Protein.ActiveResidues>
 VAL166  LYS551  ARG553  GLY616  TRP617  ASP618  TYR619  PRO620  LYS621  CYS622 
 ASP623  PHE694  ASN695  SER759  ASP760  ASP761  ALA762  ILE779  LEU786  VAL792 
 PHE793  MET794  SER795  GLU796  ALA797  LYS798  CYS799  TRP800  GLU811  SER814 

> <Gold.Protein.RotatedAtoms>
  152.5430  134.0825  159.8241 H   0  0  0  0  0  0  0  0  0  0  0  0  # atno 6907 bound_to 6896
  151.0925  133.5297  159.2621 H   0  0  0  0  0  0  0  0  0  0  0  0  # atno 6908 bound_to 6896
  151.2083  135.0480  159.8955 H   0  0  0  0  0  0  0  0  0  0  0  0  # atno 6909 bound_to 6896
  144.7133  140.1506  143.6384 H   0  0  0  0  0  0  0  0  0  0  0  0  # atno 7974 bound_to 7965
  155.5135  140.3478  155.4393 H   0  0  0  0  0  0  0  0  0  0  0  0  # atno 8008 bound_to 7997
  156.0833  140.1392  156.9712 H   0  0  0  0  0  0  0  0  0  0  0  0  # atno 8009 bound_to 7997
  154.4592  140.0941  156.6821 H   0  0  0  0  0  0  0  0  0  0  0  0  # atno 8010 bound_to 7997
  140.7114  143.3331  151.2523 H   0  0  0  0  0  0  0  0  0  0  0  0  # atno 10167 bound_to 10162
  156.1042  130.6197  150.9179 H   0  0  0  0  0  0  0  0  0  0  0  0  # atno 10718 bound_to 10713
  154.0202  135.6670  153.4772 H   0  0  0  0  0  0  0  0  0  0  0  0  # atno 10763 bound_to 10752
  153.0583  135.5042  154.8030 H   0  0  0  0  0  0  0  0  0  0  0  0  # atno 10764 bound_to 10752
  154.6942  135.3067  154.9400 H   0  0  0  0  0  0  0  0  0  0  0  0  # atno 10765 bound_to 10752
  140.0149  134.9422  157.0355 H   0  0  0  0  0  0  0  0  0  0  0  0  # atno 11005 bound_to 11000
  145.9120  139.2493  143.1432 LP  0  0  0  0  0  0  0  0  0  0  0  0  # atno 17320 bound_to 7965
  145.9706  140.8763  143.0164 LP  0  0  0  0  0  0  0  0  0  0  0  0  # atno 17321 bound_to 7965
  139.6819  143.9840  152.2813 LP  0  0  0  0  0  0  0  0  0  0  0  0  # atno 17342 bound_to 10162
  139.9473  144.6643  150.8207 LP  0  0  0  0  0  0  0  0  0  0  0  0  # atno 17343 bound_to 10162
  157.6217  131.0929  150.8610 LP  0  0  0  0  0  0  0  0  0  0  0  0  # atno 17370 bound_to 10713
  156.8732  130.5153  149.5295 LP  0  0  0  0  0  0  0  0  0  0  0  0  # atno 17371 bound_to 10713
  140.4488  134.1604  155.7180 LP  0  0  0  0  0  0  0  0  0  0  0  0  # atno 17394 bound_to 11000
  141.1736  133.8559  157.1493 LP  0  0  0  0  0  0  0  0  0  0  0  0  # atno 17395 bound_to 11000

$$$$
