AV-unprocessed.smi:2973|AV-procd|sdf|11341|dock6
  -GOLD-   2272016253D 1   1.00000     0.00000
 Structure written by MMmdl.
 50 52  0  0  0  0  0  0  0  0  2 V2000
  150.0186  142.0393  155.8053 C   0  0  0  0  0  0  0  0  0  0  0  0
  149.3902  141.0108  154.8407 C   0  0  2  0  0  0  0  0  0  0  0  0
  147.8518  141.0070  154.9741 C   0  0  0  0  0  0  0  0  0  0  0  0
  147.1957  140.0598  153.9576 C   0  0  0  0  0  0  0  0  0  0  0  0
  147.7445  138.6319  154.0841 C   0  0  0  0  0  0  0  0  0  0  0  0
  149.2779  138.6110  153.9531 C   0  0  0  0  0  0  0  0  0  0  0  0
  149.9862  139.5704  154.9425 C   0  0  1  0  0  0  0  0  0  0  0  0
  151.4147  139.5763  154.6783 N   0  0  0  0  0  0  0  0  0  0  0  0
  152.1443  139.1234  155.7051 C   0  0  0  0  0  0  0  0  0  0  0  0
  153.3719  139.0487  155.7248 O   0  0  0  0  0  0  0  0  0  0  0  0
  151.3067  138.7814  156.6994 N   0  0  0  0  0  0  0  0  0  0  0  0
  151.7468  138.2890  158.0108 C   0  0  0  0  0  0  0  0  0  0  0  0
  153.0202  138.9845  158.5121 C   0  0  0  0  0  0  0  0  0  0  0  0
  154.1346  138.5246  158.2580 O   0  0  0  0  0  0  0  0  0  0  0  0
  152.8370  140.1076  159.2221 N   0  0  0  0  0  0  0  0  0  0  0  0
  153.9061  140.9149  159.7977 C   0  0  0  0  0  0  0  0  0  0  0  0
  153.3597  141.9674  160.7785 C   0  0  0  0  0  0  0  0  0  0  0  0
  152.6591  143.1071  160.0656 C   0  0  0  0  0  0  0  0  0  0  0  0
  152.9993  143.4897  158.7501 C   0  0  0  0  0  0  0  0  0  0  0  0
  152.3025  144.5537  158.1403 C   0  0  0  0  0  0  0  0  0  0  0  0
  151.2814  145.2110  158.8575 C   0  0  0  0  0  0  0  0  0  0  0  0
  150.9815  144.7863  160.1680 C   0  0  0  0  0  0  0  0  0  0  0  0
  151.6712  143.7623  160.7175 N   0  3  0  0  0  0  0  0  0  0  0  0
  150.0285  139.0043  156.3637 C   0  0  0  0  0  0  0  0  0  0  0  0
  149.0387  138.8081  157.0690 O   0  0  0  0  0  0  0  0  0  0  0  0
  149.8128  141.7961  156.8479 H   0  0  0  0  0  0  0  0  0  0  0  0
  149.6199  143.0371  155.6211 H   0  0  0  0  0  0  0  0  0  0  0  0
  151.1003  142.0987  155.6839 H   0  0  0  0  0  0  0  0  0  0  0  0
  149.6142  141.3696  153.8347 H   0  0  0  0  0  0  0  0  0  0  0  0
  147.5583  140.7226  155.9848 H   0  0  0  0  0  0  0  0  0  0  0  0
  147.4658  142.0156  154.8220 H   0  0  0  0  0  0  0  0  0  0  0  0
  146.1146  140.0552  154.0986 H   0  0  0  0  0  0  0  0  0  0  0  0
  147.3733  140.4297  152.9471 H   0  0  0  0  0  0  0  0  0  0  0  0
  147.4403  138.2044  155.0394 H   0  0  0  0  0  0  0  0  0  0  0  0
  147.3017  137.9978  153.3155 H   0  0  0  0  0  0  0  0  0  0  0  0
  149.6361  137.5892  154.0895 H   0  0  0  0  0  0  0  0  0  0  0  0
  149.5471  138.8856  152.9321 H   0  0  0  0  0  0  0  0  0  0  0  0
  151.8055  139.9033  153.8067 H   0  0  0  0  0  0  0  0  0  0  0  0
  150.9604  138.4283  158.7543 H   0  0  0  0  0  0  0  0  0  0  0  0
  151.9176  137.2121  157.9577 H   0  0  0  0  0  0  0  0  0  0  0  0
  151.8899  140.4219  159.3769 H   0  0  0  0  0  0  0  0  0  0  0  0
  154.6314  140.2688  160.2953 H   0  0  0  0  0  0  0  0  0  0  0  0
  154.4359  141.4046  158.9802 H   0  0  0  0  0  0  0  0  0  0  0  0
  152.6617  141.5025  161.4762 H   0  0  0  0  0  0  0  0  0  0  0  0
  154.1684  142.3790  161.3840 H   0  0  0  0  0  0  0  0  0  0  0  0
  153.7822  142.9741  158.2125 H   0  0  0  0  0  0  0  0  0  0  0  0
  152.5481  144.8614  157.1342 H   0  0  0  0  0  0  0  0  0  0  0  0
  150.7359  146.0283  158.4085 H   0  0  0  0  0  0  0  0  0  0  0  0
  150.2172  145.2311  160.7886 H   0  0  0  0  0  0  0  0  0  0  0  0
  151.4371  143.4718  161.6672 H   0  0  0  0  0  0  0  0  0  0  0  0
  1  2  1  0  0  0  0
  1 26  1  0  0  0  0
  1 27  1  0  0  0  0
  1 28  1  0  0  0  0
  2  7  1  0  0  0  0
  2  3  1  0  0  0  0
  2 29  1  0  0  0  0
  3  4  1  0  0  0  0
  3 30  1  0  0  0  0
  3 31  1  0  0  0  0
  4  5  1  0  0  0  0
  4 32  1  0  0  0  0
  4 33  1  0  0  0  0
  5  6  1  0  0  0  0
  5 34  1  0  0  0  0
  5 35  1  0  0  0  0
  6  7  1  0  0  0  0
  6 36  1  0  0  0  0
  6 37  1  0  0  0  0
  7 24  1  0  0  0  0
  7  8  1  0  0  0  0
  8  9  1  0  0  0  0
  8 38  1  0  0  0  0
  9 10  2  0  0  0  0
  9 11  1  0  0  0  0
 11 12  1  0  0  0  0
 11 24  1  0  0  0  0
 12 13  1  0  0  0  0
 12 39  1  0  0  0  0
 12 40  1  0  0  0  0
 13 14  2  0  0  0  0
 13 15  1  0  0  0  0
 15 16  1  0  0  0  0
 15 41  1  0  0  0  0
 16 17  1  0  0  0  0
 16 42  1  0  0  0  0
 16 43  1  0  0  0  0
 17 18  1  0  0  0  0
 17 44  1  0  0  0  0
 17 45  1  0  0  0  0
 18 23  1  0  0  0  0
 18 19  2  0  0  0  0
 19 20  1  0  0  0  0
 19 46  1  0  0  0  0
 20 21  2  0  0  0  0
 20 47  1  0  0  0  0
 21 22  1  0  0  0  0
 21 48  1  0  0  0  0
 22 23  2  0  0  0  0
 22 49  1  0  0  0  0
 23 50  1  0  0  0  0
 24 25  2  0  0  0  0
M  CHG  1  23   1
M  END
> <s_m_source_file>
AV-unprocessed.smi

> <i_m_source_file_index>
2973

> <i_lp_mmshare_version>
43012

> <i_f3d_flags>
0

> <s_epik_input>
W0NIMl0xW0NIMl1bQ0gyXVtDSDJdW0NAQEhdKFtDSDNdKVtDQF0xMltOSF1DKD1PKU4oQzI9TylbQ0gyXUMoPU8pW05IXVtDSDJdW0NIMl1jM1tjSF1bY0hdW2NIXVtjSF1uMw==

> <s_epik_cmdline>
J2VwaWtfcHl0aG9uJywgJy1waCcsICc3LjAnLCAnLXRuJywgJzgnLCAnLW1hJywgJzIwMCcsICctbWV0YWxfYmluZGluZycsICctaW1hZScsICc8aW5maWxlLm1hZT4nLCAnLW9tYWUnLCAnPG91dGZpbGUubWFlPic=

> <r_lp_tautomer_probability>
1

> <r_epik_Ionization_Penalty>
1.90043

> <r_epik_Ionization_Penalty_Charging>
1.90039

> <r_epik_Ionization_Penalty_Neutral>
4.65525e-05

> <r_epik_State_Penalty>
2.02162

> <r_epik_Charging_Adjusted_Penalty>
3.922

> <i_epik_Tot_Q>
1

> <i_epik_Tot_abs_Q>
1

> <r_epik_Metal_State_Penalty>
2.06631

> <b_epik_Metal_Only>
0

> <s_lp_Force_Field>
OPLS_2005

> <r_lp_Energy>
22.6609

> <b_lp_Chiralities_Consistent>
1

> <s_lp_Variant>
AV-unprocessed.smi:2973-5

> <Gold.Version>
5.8.1

> <Gold.Id.Protein>
6NUR|6NUR_protein|mol2

> <Gold.PLP.Fitness>
49.7583

> <Gold.PLP.PLP>
-47.1992

> <Gold.PLP.part.hbond>
-1.4083

> <Gold.PLP.part.metal>
0.0000

> <Gold.PLP.part.buried>
-5.7009

> <Gold.PLP.part.nonpolar>
-43.1077

> <Gold.PLP.part.repulsive>
2.5365

> <Gold.PLP.ligand.clash>
0.0000

> <Gold.PLP.ligand.torsion>
1.1445

> <Gold.PLP.Chemscore.Hbond>
1.6080

> <Gold.PLP.Chemscore.CHOScore>
0.0000

> <Gold.PLP.Chemscore.Metal>
0.0000

> <Gold.Chemscore.Hbonds>
donor molecule, donor type, donor heavy atom, donor atom, acceptor molecule, acceptor atom, score
      P1  H  7997  8008       L1    10  0.70
      P1  H  7997  8010       L1    14  0.91

> <Gold.PLP.Chemscore.Internal.Correction>
0.0243

> <Gold.Rescore>
     Score         DG    S(hbond)    S(metal)    S(lipo)     H(rot)  DE(clash)    DE(int)     intcor
     15.62     -19.59       1.58        0.00     118.50       1.96       0.26       3.72       ----

> <Gold.Chemscore.Fitness>
15.6166

> <Gold.Chemscore.DG>
-19.5901

> <Gold.Chemscore.ZeroCoef>
-5.4800

> <Gold.Chemscore.Hbond>
1.5786

> <Gold.Chemscore.Metal>
0.0000

> <Gold.Chemscore.Lipo>
118.5049

> <Gold.Chemscore.Internal_Hbond>
0.0000

> <Gold.Chemscore.DEClash>
0.2563

> <Gold.Chemscore.DEInternal>
3.7173

> <Gold.Chemscore.Rot>
1.9638

> <Gold.Chemscore.Internal.Correction>
   9.000000E+99

> <Gold.Chemscore.Hbonds>
donor molecule, donor type, donor heavy atom, donor atom, acceptor molecule, acceptor atom, score
      P1  H  7997  8008       L1    10  0.70
      P1  H  7997  8010       L1    14  0.46

> <Gold.Chemscore.Hbond.Weighted>
-5.2725

> <Gold.Chemscore.Metal.Weighted>
-0.0000

> <Gold.Chemscore.Lipo.Weighted>
-13.8651

> <Gold.Chemscore.Internal_Hbond.Weighted>
0.0000

> <Gold.Chemscore.DEClash.Weighted>
0.2563

> <Gold.Chemscore.DEInternal.Weighted>
3.7173

> <Gold.Chemscore.Rot.Weighted>
5.0274

> <Gold.Chemscore.Internal.Correction.Weighted>
   9.000000E+99

> <Gold.Protein.RotatedTorsions>
[ 6907 6896 6895 6894 ] final  145.35 input  -60.11 | X-H torsion
[ 7974 7965 7964 7962 ] final  110.52 input  175.53 | X-H torsion
[ 8008 7997 7996 7995 ] final   -3.84 input   59.86 | X-H torsion
[ 10167 10162 10161 10158 ] final -148.21 input  -65.29 | X-H torsion
[ 10718 10713 10712 10709 ] final  -17.10 input   66.30 | X-H torsion
[ 10763 10752 10751 10750 ] final -163.63 input  -60.55 | X-H torsion
[ 11005 11000 10999 10996 ] final  126.35 input  -57.11 | X-H torsion

> <Gold.Protein.ActiveResidues>
 VAL166  LYS551  ARG553  GLY616  TRP617  ASP618  TYR619  PRO620  LYS621  CYS622 
 ASP623  PHE694  ASN695  SER759  ASP760  ASP761  ALA762  ILE779  LEU786  VAL792 
 PHE793  MET794  SER795  GLU796  ALA797  LYS798  CYS799  TRP800  GLU811  SER814 

> <Gold.Protein.RotatedAtoms>
  152.1820  133.4714  159.4962 H   0  0  0  0  0  0  0  0  0  0  0  0  # atno 6907 bound_to 6896
  150.6936  134.1821  159.4262 H   0  0  0  0  0  0  0  0  0  0  0  0  # atno 6908 bound_to 6896
  151.9733  135.0065  160.0604 H   0  0  0  0  0  0  0  0  0  0  0  0  # atno 6909 bound_to 6896
  145.2540  139.2728  143.4052 H   0  0  0  0  0  0  0  0  0  0  0  0  # atno 7974 bound_to 7965
  154.6206  140.2499  155.7554 H   0  0  0  0  0  0  0  0  0  0  0  0  # atno 8008 bound_to 7997
  156.2424  140.2927  156.0431 H   0  0  0  0  0  0  0  0  0  0  0  0  # atno 8009 bound_to 7997
  155.1903  140.0391  157.2889 H   0  0  0  0  0  0  0  0  0  0  0  0  # atno 8010 bound_to 7997
  139.7552  143.8458  152.2595 H   0  0  0  0  0  0  0  0  0  0  0  0  # atno 10167 bound_to 10162
  156.5783  130.4767  149.6331 H   0  0  0  0  0  0  0  0  0  0  0  0  # atno 10718 bound_to 10713
  154.7104  135.3005  154.9205 H   0  0  0  0  0  0  0  0  0  0  0  0  # atno 10763 bound_to 10752
  154.0109  135.6695  153.4769 H   0  0  0  0  0  0  0  0  0  0  0  0  # atno 10764 bound_to 10752
  153.0751  135.5039  154.8300 H   0  0  0  0  0  0  0  0  0  0  0  0  # atno 10765 bound_to 10752
  139.9452  134.9630  156.8694 H   0  0  0  0  0  0  0  0  0  0  0  0  # atno 11005 bound_to 11000
  146.3294  140.2938  142.8617 LP  0  0  0  0  0  0  0  0  0  0  0  0  # atno 17320 bound_to 7965
  144.9478  140.8146  143.5591 LP  0  0  0  0  0  0  0  0  0  0  0  0  # atno 17321 bound_to 7965
  139.8448  144.7192  150.9286 LP  0  0  0  0  0  0  0  0  0  0  0  0  # atno 17342 bound_to 10162
  140.7802  143.3951  151.1244 LP  0  0  0  0  0  0  0  0  0  0  0  0  # atno 17343 bound_to 10162
  156.2654  130.6986  151.1767 LP  0  0  0  0  0  0  0  0  0  0  0  0  # atno 17370 bound_to 10713
  157.7332  131.0593  150.5587 LP  0  0  0  0  0  0  0  0  0  0  0  0  # atno 17371 bound_to 10713
  140.5853  134.0313  155.7479 LP  0  0  0  0  0  0  0  0  0  0  0  0  # atno 17394 bound_to 11000
  141.1100  133.9632  157.2928 LP  0  0  0  0  0  0  0  0  0  0  0  0  # atno 17395 bound_to 11000

$$$$
