#       Name:                AV-unprocessed.smi:55
#       Creating user name   scv26
#       Creation time:       Thu Mar 26 16:47:45 2020


#       File generated by GOLD software.
#

@<TRIPOS>MOLECULE
AV-unprocessed.smi:55
    41    42     1
SMALL
NO_CHARGES


@<TRIPOS>ATOM
      1 ****        -3.5215   1.6348  -0.6062 C.3            1 S1                 0.0000
      2 ****        -2.8750   0.3066  -0.2527 C.2            1 S1                 0.0000
      3 ****        -1.5475   0.0915  -0.3900 C.2            1 S1                 0.0000
      4 ****        -0.9610  -1.1209  -0.0641 N.am           1 S1                 0.0000
      5 ****         0.5290  -1.3604  -0.2265 C.3            1 S1                 0.0000
      6 ****         1.2252  -1.4372   1.1456 C.3            1 S1                 0.0000
      7 ****         2.3226  -0.3917   1.0417 C.3            1 S1                 0.0000
      8 ****         3.5400  -0.9827   0.6241 O.3            1 S1                 0.0000
      9 ****         1.7666   0.5788  -0.0057 C.3            1 S1                 0.0000
     10 ****         2.8094   1.4553  -0.7205 C.3            1 S1                 0.0000
     11 ****         2.1832   2.5814  -1.2974 O.3            1 S1                 0.0000
     12 ****         1.1130  -0.2952  -0.9197 O.3            1 S1                 0.0000
     13 ****        -1.7745  -2.1851   0.4072 C.2            1 S1                 0.0000
     14 ****        -1.2286  -3.2576   0.6684 O.2            1 S1                 0.0000
     15 ****        -3.1141  -1.9763   0.5513 N.pl3          1 S1                -1.0000
     16 ****        -3.7120  -0.7871   0.2544 C.2            1 S1                 0.0000
     17 ****        -4.9215  -0.6095   0.3976 O.2            1 S1                 0.0000
     18 ****         0.6146  -2.2707  -0.8222 H              1 S1                 0.0000
     19 ****         2.4958   0.1059   1.9965 H              1 S1                 0.0000
     20 ****         1.0210   1.2087   0.4832 H              1 S1                 0.0000
     21 ****        -2.7886   2.3420  -0.9957 H              1 S1                 0.0000
     22 ****        -3.9843   2.0788   0.2755 H              1 S1                 0.0000
     23 ****        -4.2912   1.4942  -1.3657 H              1 S1                 0.0000
     24 ****        -0.9407   0.8993  -0.7685 H              1 S1                 0.0000
     25 ****         0.5221  -1.1652   1.9347 H              1 S1                 0.0000
     26 ****         1.5930  -2.4451   1.3425 H              1 S1                 0.0000
     27 ****         4.1910  -0.3033   0.5383 H              1 S1                 0.0000
     28 ****         3.5446   1.8235  -0.0045 H              1 S1                 0.0000
     29 ****         3.3489   0.8913  -1.4821 H              1 S1                 0.0000
     30 ****         2.8399   3.0962  -1.7408 H              1 S1                 0.0000
     31 ****         3.4091  -1.4371  -0.2570 LP             1 S1                 0.0000
     32 ****         3.8397  -1.6526   1.3034 LP             1 S1                 0.0000
     33 ****         1.7510   3.1302  -0.5819 LP             1 S1                 0.0000
     34 ****         1.4897   2.2826  -1.9529 LP             1 S1                 0.0000
     35 ****         0.4031   0.2095  -1.4108 LP             1 S1                 0.0000
     36 ****         1.7811  -0.6515  -1.5729 LP             1 S1                 0.0000
     37 ****        -0.2412  -3.3588   0.5466 LP             1 S1                 0.0000
     38 ****        -1.7727  -4.0273   1.0024 LP             1 S1                 0.0000
     39 ****        -3.6822  -2.7268   0.8890 LP             1 S1                 0.0000
     40 ****        -5.3274   0.2753   0.1690 LP             1 S1                 0.0000
     41 ****        -5.4982  -1.3500   0.7427 LP             1 S1                 0.0000
@<TRIPOS>BOND
    1    1    2 1     
    2    1   21 1     
    3    1   22 1     
    4    1   23 1     
    5    2   16 1     
    6    2    3 2     
    7    3    4 1     
    8    3   24 1     
    9    4    5 1     
   10    4   13 am    
   11    5   18 1     
   12    5   12 1     
   13    5    6 1     
   14    6    7 1     
   15    6   25 1     
   16    6   26 1     
   17    7   19 1     
   18    7    8 1     
   19    7    9 1     
   20    8   27 1     
   21    9   20 1     
   22    9   10 1     
   23    9   12 1     
   24   10   11 1     
   25   10   28 1     
   26   10   29 1     
   27   11   30 1     
   28   13   14 2     
   29   13   15 1     
   30   15   16 1     
   31   16   17 2     
   32    8   31 1     
   33    8   32 1     
   34   11   33 1     
   35   11   34 1     
   36   12   35 1     
   37   12   36 1     
   38   14   37 1     
   39   14   38 1     
   40   15   39 1     
   41   17   40 1     
   42   17   41 1     
@<TRIPOS>SUBSTRUCTURE
      1 S1             1
@<TRIPOS>SET
LONE_PAIRS      STATIC     ATOMS    <user>   **** ""
11 31 32 33 34 35 36 37 38 39 40 41
DONOR_HYDROGENS      STATIC     ATOMS    <user>   **** ""
2 27 30
ATOM$BLUE        STATIC     ATOMS    COLORGROUP SYSTEM
11 31 32 33 34 35 36 37 38 39 40 41
ATOM$RED        STATIC     ATOMS    COLORGROUP SYSTEM
2 27 30
