AV-unprocessed.smi:1120|AV-procd|sdf|4818|dock2
  -GOLD-   22720 3373D 1   1.00000     0.00000
 Structure written by MMmdl.
 48 49  0  0  0  0  0  0  0  0  1 V2000
  151.4632  145.3332  159.7154 C   0  0  0  0  0  0  0  0  0  0  0  0
  151.2543  143.8861  159.2468 C   0  0  2  0  0  0  0  0  0  0  0  0
  152.3610  142.9557  159.7793 C   0  0  0  0  0  0  0  0  0  0  0  0
  152.1536  141.5065  159.3112 C   0  0  0  0  0  0  0  0  0  0  0  0
  152.0665  141.4163  157.7773 C   0  0  1  0  0  0  0  0  0  0  0  0
  151.8001  140.0286  157.3894 N   0  0  0  0  0  0  0  0  0  0  0  0
  151.7752  139.6022  155.7154 S   0  0  0  0  0  0  0  0  0  0  0  0
  150.6528  140.3182  155.0889 O   0  0  0  0  0  0  0  0  0  0  0  0
  153.1418  139.7772  155.2002 O   0  0  0  0  0  0  0  0  0  0  0  0
  151.4070  137.7930  155.7756 C   0  0  0  0  0  0  0  0  0  0  0  0
  150.1286  137.5398  156.5737 C   0  0  0  0  0  0  0  0  0  0  0  0
  149.0622  137.3708  155.9833 O   0  0  0  0  0  0  0  0  0  0  0  0
  150.2466  137.5114  157.9103 N   0  0  0  0  0  0  0  0  0  0  0  0
  149.1520  137.2615  158.8413 C   0  0  0  0  0  0  0  0  0  0  0  0
  149.4953  136.1406  159.8369 C   0  0  0  0  0  0  0  0  0  0  0  0
  148.3271  135.7996  160.7432 C   0  0  0  0  0  0  0  0  0  0  0  0
  147.7870  134.4958  160.7637 C   0  0  0  0  0  0  0  0  0  0  0  0
  146.6987  134.2341  161.6185 C   0  0  0  0  0  0  0  0  0  0  0  0
  146.1942  135.2800  162.4148 C   0  0  0  0  0  0  0  0  0  0  0  0
  146.8027  136.5473  162.3201 C   0  0  0  0  0  0  0  0  0  0  0  0
  147.8462  136.8091  161.5035 N   0  0  0  0  0  0  0  0  0  0  0  0
  150.9663  142.3493  157.2357 C   0  0  0  0  0  0  0  0  0  0  0  0
  151.1736  143.7965  157.7108 C   0  0  0  0  0  0  0  0  0  0  0  0
  152.4065  145.7373  159.3468 H   0  0  0  0  0  0  0  0  0  0  0  0
  151.4767  145.3953  160.8038 H   0  0  0  0  0  0  0  0  0  0  0  0
  150.6617  145.9807  159.3589 H   0  0  0  0  0  0  0  0  0  0  0  0
  150.3018  143.5436  159.6538 H   0  0  0  0  0  0  0  0  0  0  0  0
  153.3360  143.3101  159.4419 H   0  0  0  0  0  0  0  0  0  0  0  0
  152.3820  142.9865  160.8693 H   0  0  0  0  0  0  0  0  0  0  0  0
  152.9708  140.8831  159.6762 H   0  0  0  0  0  0  0  0  0  0  0  0
  151.2402  141.1113  159.7584 H   0  0  0  0  0  0  0  0  0  0  0  0
  153.0282  141.7169  157.3595 H   0  0  0  0  0  0  0  0  0  0  0  0
  150.9829  139.6584  157.8749 H   0  0  0  0  0  0  0  0  0  0  0  0
  151.2935  137.4332  154.7528 H   0  0  0  0  0  0  0  0  0  0  0  0
  152.2557  137.2734  156.2206 H   0  0  0  0  0  0  0  0  0  0  0  0
  151.1618  137.6559  158.3115 H   0  0  0  0  0  0  0  0  0  0  0  0
  148.8955  138.1809  159.3703 H   0  0  0  0  0  0  0  0  0  0  0  0
  148.2728  136.9829  158.2598 H   0  0  0  0  0  0  0  0  0  0  0  0
  149.8038  135.2442  159.2974 H   0  0  0  0  0  0  0  0  0  0  0  0
  150.3449  136.4317  160.4565 H   0  0  0  0  0  0  0  0  0  0  0  0
  148.1939  133.7138  160.1394 H   0  0  0  0  0  0  0  0  0  0  0  0
  146.2587  133.2489  161.6621 H   0  0  0  0  0  0  0  0  0  0  0  0
  145.3608  135.1160  163.0815 H   0  0  0  0  0  0  0  0  0  0  0  0
  146.4418  137.3727  162.9156 H   0  0  0  0  0  0  0  0  0  0  0  0
  150.9534  142.3296  156.1459 H   0  0  0  0  0  0  0  0  0  0  0  0
  149.9870  141.9974  157.5634 H   0  0  0  0  0  0  0  0  0  0  0  0
  150.3586  144.4203  157.3427 H   0  0  0  0  0  0  0  0  0  0  0  0
  152.0889  144.1939  157.2698 H   0  0  0  0  0  0  0  0  0  0  0  0
  1  2  1  0  0  0  0
  1 24  1  0  0  0  0
  1 25  1  0  0  0  0
  1 26  1  0  0  0  0
  2 23  1  0  0  0  0
  2  3  1  0  0  0  0
  2 27  1  0  0  0  0
  3  4  1  0  0  0  0
  3 28  1  0  0  0  0
  3 29  1  0  0  0  0
  4  5  1  0  0  0  0
  4 30  1  0  0  0  0
  4 31  1  0  0  0  0
  5  6  1  0  0  0  0
  5 22  1  0  0  0  0
  5 32  1  0  0  0  0
  6  7  1  0  0  0  0
  6 33  1  0  0  0  0
  7  8  2  0  0  0  0
  7  9  2  0  0  0  0
  7 10  1  0  0  0  0
 10 11  1  0  0  0  0
 10 34  1  0  0  0  0
 10 35  1  0  0  0  0
 11 12  2  0  0  0  0
 11 13  1  0  0  0  0
 13 14  1  0  0  0  0
 13 36  1  0  0  0  0
 14 15  1  0  0  0  0
 14 37  1  0  0  0  0
 14 38  1  0  0  0  0
 15 16  1  0  0  0  0
 15 39  1  0  0  0  0
 15 40  1  0  0  0  0
 16 21  1  0  0  0  0
 16 17  2  0  0  0  0
 17 18  1  0  0  0  0
 17 41  1  0  0  0  0
 18 19  2  0  0  0  0
 18 42  1  0  0  0  0
 19 20  1  0  0  0  0
 19 43  1  0  0  0  0
 20 21  2  0  0  0  0
 20 44  1  0  0  0  0
 22 23  1  0  0  0  0
 22 45  1  0  0  0  0
 22 46  1  0  0  0  0
 23 47  1  0  0  0  0
 23 48  1  0  0  0  0
M  END
> <s_m_source_file>
AV-unprocessed.smi

> <i_m_source_file_index>
1120

> <i_lp_mmshare_version>
43012

> <i_f3d_flags>
0

> <s_epik_input>
W0NIM11bQ0BASF0xW0NIMl1bQ0gyXVtDQEhdKFtDSDJdW0NIMl0xKVtOSF1TKD1PKSg9TylbQ0gyXUMoPU8pW05IXVtDSDJdW0NIMl1jMltjSF1bY0hdW2NIXVtjSF1uMg==

> <s_epik_cmdline>
J2VwaWtfcHl0aG9uJywgJy1waCcsICc3LjAnLCAnLXRuJywgJzgnLCAnLW1hJywgJzIwMCcsICctbWV0YWxfYmluZGluZycsICctaW1hZScsICc8aW5maWxlLm1hZT4nLCAnLW9tYWUnLCAnPG91dGZpbGUubWFlPic=

> <r_epik_Ionization_Penalty>
0.0216068

> <r_epik_Ionization_Penalty_Charging>
0

> <r_epik_Ionization_Penalty_Neutral>
0.0216068

> <r_epik_State_Penalty>
0.01735

> <r_epik_Charging_Adjusted_Penalty>
0.01735

> <i_epik_Tot_Q>
0

> <i_epik_Tot_abs_Q>
0

> <r_epik_Metal_State_Penalty>
0.0535325

> <b_epik_Metal_Only>
0

> <s_lp_Force_Field>
OPLS_2005

> <r_lp_Energy>
6.02559

> <b_lp_Chiralities_Consistent>
1

> <s_lp_Variant>
AV-unprocessed.smi:1120-1

> <Gold.Version>
5.8.1

> <Gold.Id.Protein>
6NUR|6NUR_protein|mol2

> <Gold.PLP.Fitness>
54.7426

> <Gold.PLP.PLP>
-44.2418

> <Gold.PLP.part.hbond>
-4.3900

> <Gold.PLP.part.metal>
0.0000

> <Gold.PLP.part.buried>
-5.8137

> <Gold.PLP.part.nonpolar>
-34.0186

> <Gold.PLP.part.repulsive>
0.1779

> <Gold.PLP.ligand.clash>
0.0000

> <Gold.PLP.ligand.torsion>
0.4577

> <Gold.PLP.Chemscore.Hbond>
3.7012

> <Gold.PLP.Chemscore.CHOScore>
0.0000

> <Gold.PLP.Chemscore.Metal>
0.0000

> <Gold.Chemscore.Hbonds>
donor molecule, donor type, donor heavy atom, donor atom, acceptor molecule, acceptor atom, score
      P1  H  6931  6943       L1    21  1.00
      P1  H  6934  6947       L1    21  0.09
      P1  H  7989  7998       L1     8  0.80
      P1  H  7997  8009       L1     9  1.00

> <Gold.PLP.Chemscore.Internal.Correction>
0.3126

> <Gold.Rescore>
     Score         DG    S(hbond)    S(metal)    S(lipo)     H(rot)  DE(clash)    DE(int)     intcor
     21.07     -22.85       2.68        0.00     118.21       2.12       0.07       1.70       ----

> <Gold.Chemscore.Fitness>
21.0722

> <Gold.Chemscore.DG>
-22.8482

> <Gold.Chemscore.ZeroCoef>
-5.4800

> <Gold.Chemscore.Hbond>
2.6849

> <Gold.Chemscore.Metal>
0.0000

> <Gold.Chemscore.Lipo>
118.2148

> <Gold.Chemscore.Internal_Hbond>
0.0000

> <Gold.Chemscore.DEClash>
0.0724

> <Gold.Chemscore.DEInternal>
1.7037

> <Gold.Chemscore.Rot>
2.1213

> <Gold.Chemscore.Internal.Correction>
   9.000000E+99

> <Gold.Chemscore.Hbonds>
donor molecule, donor type, donor heavy atom, donor atom, acceptor molecule, acceptor atom, score
      P1  H  6931  6943       L1    21  0.93
      P1  H  6934  6947       L1    21  0.01
      P1  H  7989  7998       L1     8  0.12
      P1  H  7997  8009       L1     9  0.94

> <Gold.Chemscore.Hbond.Weighted>
-8.9676

> <Gold.Chemscore.Metal.Weighted>
-0.0000

> <Gold.Chemscore.Lipo.Weighted>
-13.8311

> <Gold.Chemscore.Internal_Hbond.Weighted>
0.0000

> <Gold.Chemscore.DEClash.Weighted>
0.0724

> <Gold.Chemscore.DEInternal.Weighted>
1.7037

> <Gold.Chemscore.Rot.Weighted>
5.4305

> <Gold.Chemscore.Internal.Correction.Weighted>
   9.000000E+99

> <Gold.Protein.RotatedTorsions>
[ 6907 6896 6895 6894 ] final  121.41 input  -60.11 | X-H torsion
[ 7974 7965 7964 7962 ] final   37.90 input  175.53 | X-H torsion
[ 8008 7997 7996 7995 ] final -130.43 input   59.86 | X-H torsion
[ 10167 10162 10161 10158 ] final  105.67 input  -65.29 | X-H torsion
[ 10718 10713 10712 10709 ] final -155.00 input   66.30 | X-H torsion
[ 10763 10752 10751 10750 ] final   74.88 input  -60.55 | X-H torsion
[ 11005 11000 10999 10996 ] final   45.42 input  -57.11 | X-H torsion

> <Gold.Protein.ActiveResidues>
 VAL166  LYS551  ARG553  GLY616  TRP617  ASP618  TYR619  PRO620  LYS621  CYS622 
 ASP623  PHE694  ASN695  SER759  ASP760  ASP761  ALA762  ILE779  LEU786  VAL792 
 PHE793  MET794  SER795  GLU796  ALA797  LYS798  CYS799  TRP800  GLU811  SER814 

> <Gold.Protein.RotatedAtoms>
  152.4323  133.7300  159.6581 H   0  0  0  0  0  0  0  0  0  0  0  0  # atno 6907 bound_to 6896
  150.8204  133.8253  159.3148 H   0  0  0  0  0  0  0  0  0  0  0  0  # atno 6908 bound_to 6896
  151.5937  135.1054  160.0096 H   0  0  0  0  0  0  0  0  0  0  0  0  # atno 6909 bound_to 6896
  146.1102  139.5837  142.9357 H   0  0  0  0  0  0  0  0  0  0  0  0  # atno 7974 bound_to 7965
  155.2957  140.0450  157.3026 H   0  0  0  0  0  0  0  0  0  0  0  0  # atno 8008 bound_to 7997
  154.5515  140.2319  155.8444 H   0  0  0  0  0  0  0  0  0  0  0  0  # atno 8009 bound_to 7997
  156.1971  140.3035  155.9457 H   0  0  0  0  0  0  0  0  0  0  0  0  # atno 8010 bound_to 7997
  139.7073  144.7084  151.1085 H   0  0  0  0  0  0  0  0  0  0  0  0  # atno 10167 bound_to 10162
  156.5069  130.8417  151.2631 H   0  0  0  0  0  0  0  0  0  0  0  0  # atno 10718 bound_to 10713
  153.0617  135.5009  154.8107 H   0  0  0  0  0  0  0  0  0  0  0  0  # atno 10763 bound_to 10752
  154.6892  135.2981  154.9506 H   0  0  0  0  0  0  0  0  0  0  0  0  # atno 10764 bound_to 10752
  154.0267  135.6735  153.4830 H   0  0  0  0  0  0  0  0  0  0  0  0  # atno 10765 bound_to 10752
  140.1461  134.4521  155.8414 H   0  0  0  0  0  0  0  0  0  0  0  0  # atno 11005 bound_to 11000
  145.5678  141.0397  143.2190 LP  0  0  0  0  0  0  0  0  0  0  0  0  # atno 17320 bound_to 7965
  144.7505  139.7206  143.7275 LP  0  0  0  0  0  0  0  0  0  0  0  0  # atno 17321 bound_to 7965
  140.7725  143.5340  150.9389 LP  0  0  0  0  0  0  0  0  0  0  0  0  # atno 17342 bound_to 10162
  139.9024  143.6819  152.3129 LP  0  0  0  0  0  0  0  0  0  0  0  0  # atno 17343 bound_to 10162
  157.7455  130.9963  150.2773 LP  0  0  0  0  0  0  0  0  0  0  0  0  # atno 17370 bound_to 10713
  156.3278  130.3795  149.7518 LP  0  0  0  0  0  0  0  0  0  0  0  0  # atno 17371 bound_to 10713
  141.2193  133.6853  156.7336 LP  0  0  0  0  0  0  0  0  0  0  0  0  # atno 17394 bound_to 11000
  140.2662  134.8428  157.3805 LP  0  0  0  0  0  0  0  0  0  0  0  0  # atno 17395 bound_to 11000

$$$$
