AV-unprocessed.smi:282|AV-procd|sdf|2118|dock2
  -GOLD-   2262021413D 1   1.00000     0.00000
 Structure written by MMmdl.
 65 69  0  0  0  0  0  0  0  0  2 V2000
  149.4261  140.8184  154.2850 C   0  0  0  0  0  0  0  0  0  0  0  0
  149.1310  141.2835  155.7177 C   0  0  0  0  0  0  0  0  0  0  0  0
  150.3976  141.5398  156.5772 C   0  0  1  0  0  0  0  0  0  0  0  0
  150.1127  142.5784  157.6876 C   0  0  0  0  0  0  0  0  0  0  0  0
  151.2842  142.7953  158.5726 N   0  3  1  0  0  0  0  0  0  0  0  0
  151.0155  143.8314  159.6034 C   0  0  0  0  0  0  0  0  0  0  0  0
  152.2668  144.1204  160.4472 C   0  0  0  0  0  0  0  0  0  0  0  0
  152.7970  142.8347  161.0920 C   0  0  0  0  0  0  0  0  0  0  0  0
  153.0529  141.7779  160.0107 C   0  0  0  0  0  0  0  0  0  0  0  0
  151.7913  141.5245  159.1614 C   0  0  2  0  0  0  0  0  0  0  0  0
  152.0809  140.4993  158.0529 C   0  0  0  0  0  0  0  0  0  0  0  0
  150.9253  140.3097  157.1832 N   0  0  0  0  0  0  0  0  0  0  0  0
  151.1291  139.2646  156.3499 C   0  0  0  0  0  0  0  0  0  0  0  0
  151.8848  139.4927  155.2486 N   0  0  0  0  0  0  0  0  0  0  0  0
  152.1275  138.4982  154.3894 C   0  0  0  0  0  0  0  0  0  0  0  0
  151.7170  137.2294  154.4439 N   0  0  0  0  0  0  0  0  0  0  0  0
  150.9526  136.9986  155.5499 C   0  0  0  0  0  0  0  0  0  0  0  0
  150.6048  137.9555  156.5440 C   0  0  0  0  0  0  0  0  0  0  0  0
  149.7987  137.3662  157.5094 N   0  0  0  0  0  0  0  0  0  0  0  0
  149.6786  136.1300  157.1091 C   0  0  0  0  0  0  0  0  0  0  0  0
  150.3567  135.8153  155.9522 N   0  0  0  0  0  0  0  0  0  0  0  0
  150.3927  134.5187  155.2892 C   0  0  0  0  0  0  0  0  0  0  0  0
  148.9952  133.8798  155.0085 C   0  0  0  0  0  0  0  0  0  0  0  0
  147.9937  134.9381  154.4734 C   0  0  0  0  0  0  0  0  0  0  0  0
  146.6979  134.4039  154.2868 O   0  0  0  0  0  0  0  0  0  0  0  0
  149.1287  132.7374  153.9703 C   0  0  0  0  0  0  0  0  0  0  0  0
  149.8239  131.4875  154.5404 C   0  0  0  0  0  0  0  0  0  0  0  0
  149.1296  131.0278  155.6925 O   0  0  0  0  0  0  0  0  0  0  0  0
  149.1174  131.9837  156.7446 C   0  0  0  0  0  0  0  0  0  0  0  0
  148.3809  133.2559  156.2872 C   0  0  0  0  0  0  0  0  0  0  0  0
  148.5009  140.5618  153.7682 H   0  0  0  0  0  0  0  0  0  0  0  0
  150.0623  139.9329  154.2816 H   0  0  0  0  0  0  0  0  0  0  0  0
  149.9180  141.5926  153.6972 H   0  0  0  0  0  0  0  0  0  0  0  0
  148.5137  142.1823  155.6899 H   0  0  0  0  0  0  0  0  0  0  0  0
  148.5125  140.5104  156.1736 H   0  0  0  0  0  0  0  0  0  0  0  0
  151.1738  141.9501  155.9307 H   0  0  0  0  0  0  0  0  0  0  0  0
  149.8376  143.5358  157.2458 H   0  0  0  0  0  0  0  0  0  0  0  0
  149.2648  142.2517  158.2924 H   0  0  0  0  0  0  0  0  0  0  0  0
  150.6848  144.7512  159.1195 H   0  0  0  0  0  0  0  0  0  0  0  0
  150.1988  143.5015  160.2476 H   0  0  0  0  0  0  0  0  0  0  0  0
  153.0404  144.5636  159.8187 H   0  0  0  0  0  0  0  0  0  0  0  0
  152.0350  144.8553  161.2186 H   0  0  0  0  0  0  0  0  0  0  0  0
  153.7146  143.0398  161.6441 H   0  0  0  0  0  0  0  0  0  0  0  0
  152.0735  142.4567  161.8156 H   0  0  0  0  0  0  0  0  0  0  0  0
  153.8713  142.1079  159.3691 H   0  0  0  0  0  0  0  0  0  0  0  0
  153.3828  140.8488  160.4766 H   0  0  0  0  0  0  0  0  0  0  0  0
  151.0110  141.1202  159.8091 H   0  0  0  0  0  0  0  0  0  0  0  0
  152.9283  140.8339  157.4522 H   0  0  0  0  0  0  0  0  0  0  0  0
  152.3672  139.5466  158.5018 H   0  0  0  0  0  0  0  0  0  0  0  0
  152.7400  138.7547  153.5376 H   0  0  0  0  0  0  0  0  0  0  0  0
  149.0913  135.4056  157.6547 H   0  0  0  0  0  0  0  0  0  0  0  0
  150.9382  134.6443  154.3532 H   0  0  0  0  0  0  0  0  0  0  0  0
  151.0139  133.8579  155.8922 H   0  0  0  0  0  0  0  0  0  0  0  0
  147.9111  135.7724  155.1708 H   0  0  0  0  0  0  0  0  0  0  0  0
  148.3372  135.3660  153.5316 H   0  0  0  0  0  0  0  0  0  0  0  0
  146.4055  134.0332  155.1053 H   0  0  0  0  0  0  0  0  0  0  0  0
  148.1377  132.4425  153.6226 H   0  0  0  0  0  0  0  0  0  0  0  0
  149.6656  133.0841  153.0866 H   0  0  0  0  0  0  0  0  0  0  0  0
  149.8217  130.6922  153.7950 H   0  0  0  0  0  0  0  0  0  0  0  0
  150.8688  131.6834  154.7820 H   0  0  0  0  0  0  0  0  0  0  0  0
  148.6050  131.5486  157.6028 H   0  0  0  0  0  0  0  0  0  0  0  0
  150.1362  132.1982  157.0670 H   0  0  0  0  0  0  0  0  0  0  0  0
  148.3437  133.9815  157.0992 H   0  0  0  0  0  0  0  0  0  0  0  0
  147.3424  132.9836  156.0938 H   0  0  0  0  0  0  0  0  0  0  0  0
  152.0241  143.1544  157.9863 H   0  0  0  0  0  0  0  0  0  0  0  0
  1  2  1  0  0  0  0
  1 31  1  0  0  0  0
  1 32  1  0  0  0  0
  1 33  1  0  0  0  0
  2  3  1  0  0  0  0
  2 34  1  0  0  0  0
  2 35  1  0  0  0  0
  3 12  1  0  0  0  0
  3  4  1  0  0  0  0
  3 36  1  0  0  0  0
  4  5  1  0  0  0  0
  4 37  1  0  0  0  0
  4 38  1  0  0  0  0
  5 10  1  0  0  0  0
  5  6  1  0  0  0  0
  5 65  1  0  0  0  0
  6  7  1  0  0  0  0
  6 39  1  0  0  0  0
  6 40  1  0  0  0  0
  7  8  1  0  0  0  0
  7 41  1  0  0  0  0
  7 42  1  0  0  0  0
  8  9  1  0  0  0  0
  8 43  1  0  0  0  0
  8 44  1  0  0  0  0
  9 10  1  0  0  0  0
  9 45  1  0  0  0  0
  9 46  1  0  0  0  0
 10 11  1  0  0  0  0
 10 47  1  0  0  0  0
 11 12  1  0  0  0  0
 11 48  1  0  0  0  0
 11 49  1  0  0  0  0
 12 13  1  0  0  0  0
 13 18  1  0  0  0  0
 13 14  2  0  0  0  0
 14 15  1  0  0  0  0
 15 16  2  0  0  0  0
 15 50  1  0  0  0  0
 16 17  1  0  0  0  0
 17 21  1  0  0  0  0
 17 18  2  0  0  0  0
 18 19  1  0  0  0  0
 19 20  2  0  0  0  0
 20 21  1  0  0  0  0
 20 51  1  0  0  0  0
 21 22  1  0  0  0  0
 22 23  1  0  0  0  0
 22 52  1  0  0  0  0
 22 53  1  0  0  0  0
 23 30  1  0  0  0  0
 23 24  1  0  0  0  0
 23 26  1  0  0  0  0
 24 25  1  0  0  0  0
 24 54  1  0  0  0  0
 24 55  1  0  0  0  0
 25 56  1  0  0  0  0
 26 27  1  0  0  0  0
 26 57  1  0  0  0  0
 26 58  1  0  0  0  0
 27 28  1  0  0  0  0
 27 59  1  0  0  0  0
 27 60  1  0  0  0  0
 28 29  1  0  0  0  0
 29 30  1  0  0  0  0
 29 61  1  0  0  0  0
 29 62  1  0  0  0  0
 30 63  1  0  0  0  0
 30 64  1  0  0  0  0
M  CHG  1   5   1
M  END
> <s_m_source_file>
AV-unprocessed.smi

> <i_m_source_file_index>
282

> <i_lp_mmshare_version>
43012

> <i_f3d_flags>
0

> <s_epik_input>
W0NIMl0xW0NIMl1bQ0gyXVtDSDJdW0NAQEhdKE4xMilbQ0gyXU4oW0NAQEhdKFtDSDJdMilbQ0gyXVtDSDNdKWMobltjSF1uMyljKGMzNCluW2NIXW40W0NIMl1DNShbQ0gyXVtPSF0pW0NIMl1bQ0gyXU9bQ0gyXVtDSDJdNQ==

> <s_epik_cmdline>
J2VwaWtfcHl0aG9uJywgJy1waCcsICc3LjAnLCAnLXRuJywgJzgnLCAnLW1hJywgJzIwMCcsICctbWV0YWxfYmluZGluZycsICctaW1hZScsICc8aW5maWxlLm1hZT4nLCAnLW9tYWUnLCAnPG91dGZpbGUubWFlPic=

> <r_lp_tautomer_probability>
1

> <r_epik_Ionization_Penalty>
0.00308583

> <r_epik_Ionization_Penalty_Charging>
0.00300384

> <r_epik_Ionization_Penalty_Neutral>
8.19894e-05

> <r_epik_State_Penalty>
-0

> <r_epik_Charging_Adjusted_Penalty>
0.00300384

> <i_epik_Tot_Q>
1

> <i_epik_Tot_abs_Q>
1

> <r_epik_Metal_State_Penalty>
-0

> <b_epik_Metal_Only>
0

> <s_lp_Force_Field>
OPLS_2005

> <r_lp_Energy>
55.6254

> <b_lp_Chiralities_Consistent>
1

> <s_lp_Variant>
AV-unprocessed.smi:282-2

> <Gold.Version>
5.8.1

> <Gold.Id.Protein>
6NUR|6NUR_protein|mol2

> <Gold.PLP.Fitness>
47.9669

> <Gold.PLP.PLP>
-45.6648

> <Gold.PLP.part.hbond>
-1.7163

> <Gold.PLP.part.metal>
0.0000

> <Gold.PLP.part.buried>
-7.3320

> <Gold.PLP.part.nonpolar>
-37.1563

> <Gold.PLP.part.repulsive>
0.2232

> <Gold.PLP.ligand.clash>
0.0000

> <Gold.PLP.ligand.torsion>
0.8777

> <Gold.PLP.Chemscore.Hbond>
1.2633

> <Gold.PLP.Chemscore.CHOScore>
0.0000

> <Gold.PLP.Chemscore.Metal>
0.0000

> <Gold.Chemscore.Hbonds>
donor molecule, donor type, donor heavy atom, donor atom, acceptor molecule, acceptor atom, score
      P1  H  7989  7998       L1    14  0.20
      P1  H 10752 10765       L1    16  1.00

> <Gold.PLP.Chemscore.Internal.Correction>
0.2677

> <Gold.Rescore>
     Score         DG    S(hbond)    S(metal)    S(lipo)     H(rot)  DE(clash)    DE(int)     intcor
     14.87     -15.87       0.90        0.00     117.04       2.46       0.10       0.91       ----

> <Gold.Chemscore.Fitness>
14.8693

> <Gold.Chemscore.DG>
-15.8718

> <Gold.Chemscore.ZeroCoef>
-5.4800

> <Gold.Chemscore.Hbond>
0.8952

> <Gold.Chemscore.Metal>
0.0000

> <Gold.Chemscore.Lipo>
117.0383

> <Gold.Chemscore.Internal_Hbond>
0.0000

> <Gold.Chemscore.DEClash>
0.0963

> <Gold.Chemscore.DEInternal>
0.9063

> <Gold.Chemscore.Rot>
2.4576

> <Gold.Chemscore.Internal.Correction>
   9.000000E+99

> <Gold.Chemscore.Hbonds>
donor molecule, donor type, donor heavy atom, donor atom, acceptor molecule, acceptor atom, score
      P1  H  7989  7998       L1    14  0.01
      P1  H 10752 10765       L1    16  0.52

> <Gold.Chemscore.Hbond.Weighted>
-2.9899

> <Gold.Chemscore.Metal.Weighted>
-0.0000

> <Gold.Chemscore.Lipo.Weighted>
-13.6935

> <Gold.Chemscore.Internal_Hbond.Weighted>
0.0000

> <Gold.Chemscore.DEClash.Weighted>
0.0963

> <Gold.Chemscore.DEInternal.Weighted>
0.9063

> <Gold.Chemscore.Rot.Weighted>
6.2915

> <Gold.Chemscore.Internal.Correction.Weighted>
   9.000000E+99

> <Gold.Protein.RotatedTorsions>
[ 6907 6896 6895 6894 ] final  122.93 input  -60.11 | X-H torsion
[ 7974 7965 7964 7962 ] final  -82.40 input  175.53 | X-H torsion
[ 8008 7997 7996 7995 ] final  172.95 input   59.86 | X-H torsion
[ 10167 10162 10161 10158 ] final  119.55 input  -65.29 | X-H torsion
[ 10718 10713 10712 10709 ] final  135.84 input   66.30 | X-H torsion
[ 10763 10752 10751 10750 ] final  162.99 input  -60.55 | X-H torsion
[ 11005 11000 10999 10996 ] final   98.63 input  -57.11 | X-H torsion

> <Gold.Protein.ActiveResidues>
 VAL166  LYS551  ARG553  GLY616  TRP617  ASP618  TYR619  PRO620  LYS621  CYS622 
 ASP623  PHE694  ASN695  SER759  ASP760  ASP761  ALA762  ILE779  LEU786  VAL792 
 PHE793  MET794  SER795  GLU796  ALA797  LYS798  CYS799  TRP800  GLU811  SER814 

> <Gold.Protein.RotatedAtoms>
  152.4203  133.7105  159.6475 H   0  0  0  0  0  0  0  0  0  0  0  0  # atno 6907 bound_to 6896
  150.8079  133.8465  159.3202 H   0  0  0  0  0  0  0  0  0  0  0  0  # atno 6908 bound_to 6896
  151.6184  135.1036  160.0148 H   0  0  0  0  0  0  0  0  0  0  0  0  # atno 6909 bound_to 6896
  145.5338  140.9518  143.1588 H   0  0  0  0  0  0  0  0  0  0  0  0  # atno 7974 bound_to 7965
  156.1124  140.1473  156.9320 H   0  0  0  0  0  0  0  0  0  0  0  0  # atno 8008 bound_to 7997
  154.4776  140.0889  156.7343 H   0  0  0  0  0  0  0  0  0  0  0  0  # atno 8009 bound_to 7997
  155.4573  140.3437  155.4310 H   0  0  0  0  0  0  0  0  0  0  0  0  # atno 8010 bound_to 7997
  139.6039  144.7064  151.2999 H   0  0  0  0  0  0  0  0  0  0  0  0  # atno 10167 bound_to 10162
  157.4529  131.1067  151.0012 H   0  0  0  0  0  0  0  0  0  0  0  0  # atno 10718 bound_to 10713
  154.2868  135.2762  155.2673 H   0  0  0  0  0  0  0  0  0  0  0  0  # atno 10763 bound_to 10752
  154.5169  135.5767  153.6653 H   0  0  0  0  0  0  0  0  0  0  0  0  # atno 10764 bound_to 10752
  152.9920  135.6195  154.3030 H   0  0  0  0  0  0  0  0  0  0  0  0  # atno 10765 bound_to 10752
  139.8772  134.9058  156.4485 H   0  0  0  0  0  0  0  0  0  0  0  0  # atno 11005 bound_to 11000
  144.7612  139.6953  143.7233 LP  0  0  0  0  0  0  0  0  0  0  0  0  # atno 17320 bound_to 7965
  146.2026  139.5331  142.9733 LP  0  0  0  0  0  0  0  0  0  0  0  0  # atno 17321 bound_to 7965
  140.7270  143.6975  150.7872 LP  0  0  0  0  0  0  0  0  0  0  0  0  # atno 17342 bound_to 10162
  140.0557  143.5205  152.2652 LP  0  0  0  0  0  0  0  0  0  0  0  0  # atno 17343 bound_to 10162
  157.0836  130.5913  149.5425 LP  0  0  0  0  0  0  0  0  0  0  0  0  # atno 17370 bound_to 10713
  155.9994  130.5071  150.7608 LP  0  0  0  0  0  0  0  0  0  0  0  0  # atno 17371 bound_to 10713
  140.8949  133.7821  155.9614 LP  0  0  0  0  0  0  0  0  0  0  0  0  # atno 17394 bound_to 11000
  140.8714  134.2722  157.5189 LP  0  0  0  0  0  0  0  0  0  0  0  0  # atno 17395 bound_to 11000

$$$$
