AV-unprocessed.smi:202|AV-procd|sdf|1581|dock8
  -GOLD-   2262019473D 1   1.00000     0.00000
 Structure written by MMmdl.
 49 52  0  0  0  0  0  0  0  0  1 V2000
  153.0364  141.5103  160.0285 C   0  0  0  0  0  0  0  0  0  0  0  0
  151.8802  141.4431  159.0203 C   0  0  0  0  0  0  0  0  0  0  0  0
  150.9081  142.6048  159.3084 C   0  0  0  0  0  0  0  0  0  0  0  0
  151.2865  143.9824  158.7228 C   0  0  0  0  0  0  0  0  0  0  0  0
  150.5235  144.9090  159.3014 F   0  0  0  0  0  0  0  0  0  0  0  0
  152.5614  144.2785  158.9721 F   0  0  0  0  0  0  0  0  0  0  0  0
  151.0718  144.0371  157.4092 F   0  0  0  0  0  0  0  0  0  0  0  0
  152.3146  141.3099  157.5505 C   0  0  0  0  0  0  0  0  0  0  0  0
  152.1516  139.8718  157.6918 N   0  0  0  0  0  0  0  0  0  0  0  0
  151.6069  139.2366  156.5426 C   0  0  0  0  0  0  0  0  0  0  0  0
  151.2028  139.9531  155.4579 N   0  0  0  0  0  0  0  0  0  0  0  0
  150.6981  139.3419  154.3821 C   0  0  0  0  0  0  0  0  0  0  0  0
  150.5132  138.0377  154.1751 N   0  0  0  0  0  0  0  0  0  0  0  0
  150.9216  137.3079  155.2512 C   0  0  0  0  0  0  0  0  0  0  0  0
  151.4713  137.8245  156.4585 C   0  0  0  0  0  0  0  0  0  0  0  0
  151.7679  136.7830  157.3280 N   0  0  0  0  0  0  0  0  0  0  0  0
  151.4153  135.7112  156.6719 C   0  0  0  0  0  0  0  0  0  0  0  0
  150.9044  135.9333  155.4126 N   0  0  0  0  0  0  0  0  0  0  0  0
  150.4361  134.9255  154.4724 C   0  0  0  0  0  0  0  0  0  0  0  0
  149.4216  133.9158  155.0760 C   0  0  0  0  0  0  0  0  0  0  0  0
  148.3336  134.6606  155.5922 O   0  0  0  0  0  0  0  0  0  0  0  0
  148.8558  132.9656  154.0018 C   0  0  0  0  0  0  0  0  0  0  0  0
  149.8823  131.8924  153.5959 C   0  0  0  0  0  0  0  0  0  0  0  0
  150.3112  131.1697  154.7447 O   0  0  0  0  0  0  0  0  0  0  0  0
  150.9642  131.9897  155.7077 C   0  0  0  0  0  0  0  0  0  0  0  0
  149.9916  133.0622  156.2297 C   0  0  0  0  0  0  0  0  0  0  0  0
  151.2502  140.0537  158.8217 C   0  0  0  0  0  0  0  0  0  0  0  0
  153.4234  142.5237  160.1408 H   0  0  0  0  0  0  0  0  0  0  0  0
  153.8732  140.8839  159.7177 H   0  0  0  0  0  0  0  0  0  0  0  0
  152.7357  141.1543  161.0133 H   0  0  0  0  0  0  0  0  0  0  0  0
  149.9047  142.3413  158.9714 H   0  0  0  0  0  0  0  0  0  0  0  0
  150.8164  142.7256  160.3887 H   0  0  0  0  0  0  0  0  0  0  0  0
  151.6140  141.7600  156.8447 H   0  0  0  0  0  0  0  0  0  0  0  0
  153.3424  141.6147  157.3525 H   0  0  0  0  0  0  0  0  0  0  0  0
  150.4020  139.9905  153.5709 H   0  0  0  0  0  0  0  0  0  0  0  0
  151.5228  134.7207  157.0899 H   0  0  0  0  0  0  0  0  0  0  0  0
  149.9874  135.4433  153.6237 H   0  0  0  0  0  0  0  0  0  0  0  0
  151.3083  134.4074  154.0747 H   0  0  0  0  0  0  0  0  0  0  0  0
  147.7774  134.0771  156.0854 H   0  0  0  0  0  0  0  0  0  0  0  0
  147.9700  132.4592  154.3890 H   0  0  0  0  0  0  0  0  0  0  0  0
  148.5282  133.5255  153.1250 H   0  0  0  0  0  0  0  0  0  0  0  0
  149.4297  131.1924  152.8935 H   0  0  0  0  0  0  0  0  0  0  0  0
  150.7408  132.3326  153.0873 H   0  0  0  0  0  0  0  0  0  0  0  0
  151.3002  131.3601  156.5318 H   0  0  0  0  0  0  0  0  0  0  0  0
  151.8569  132.4383  155.2715 H   0  0  0  0  0  0  0  0  0  0  0  0
  150.4770  133.6819  156.9837 H   0  0  0  0  0  0  0  0  0  0  0  0
  149.1745  132.5543  156.7443 H   0  0  0  0  0  0  0  0  0  0  0  0
  151.4341  139.3577  159.6405 H   0  0  0  0  0  0  0  0  0  0  0  0
  150.1927  140.0972  158.5583 H   0  0  0  0  0  0  0  0  0  0  0  0
  1  2  1  0  0  0  0
  1 28  1  0  0  0  0
  1 29  1  0  0  0  0
  1 30  1  0  0  0  0
  2 27  1  0  0  0  0
  2  3  1  0  0  0  0
  2  8  1  0  0  0  0
  3  4  1  0  0  0  0
  3 31  1  0  0  0  0
  3 32  1  0  0  0  0
  4  5  1  0  0  0  0
  4  6  1  0  0  0  0
  4  7  1  0  0  0  0
  8  9  1  0  0  0  0
  8 33  1  0  0  0  0
  8 34  1  0  0  0  0
  9 10  1  0  0  0  0
  9 27  1  0  0  0  0
 10 15  1  0  0  0  0
 10 11  2  0  0  0  0
 11 12  1  0  0  0  0
 12 13  2  0  0  0  0
 12 35  1  0  0  0  0
 13 14  1  0  0  0  0
 14 18  1  0  0  0  0
 14 15  2  0  0  0  0
 15 16  1  0  0  0  0
 16 17  2  0  0  0  0
 17 18  1  0  0  0  0
 17 36  1  0  0  0  0
 18 19  1  0  0  0  0
 19 20  1  0  0  0  0
 19 37  1  0  0  0  0
 19 38  1  0  0  0  0
 20 26  1  0  0  0  0
 20 21  1  0  0  0  0
 20 22  1  0  0  0  0
 21 39  1  0  0  0  0
 22 23  1  0  0  0  0
 22 40  1  0  0  0  0
 22 41  1  0  0  0  0
 23 24  1  0  0  0  0
 23 42  1  0  0  0  0
 23 43  1  0  0  0  0
 24 25  1  0  0  0  0
 25 26  1  0  0  0  0
 25 44  1  0  0  0  0
 25 45  1  0  0  0  0
 26 46  1  0  0  0  0
 26 47  1  0  0  0  0
 27 48  1  0  0  0  0
 27 49  1  0  0  0  0
M  END
> <s_m_source_file>
AV-unprocessed.smi

> <i_m_source_file_index>
202

> <i_lp_mmshare_version>
43012

> <i_f3d_flags>
0

> <s_epik_input>
RkMoRikoRilbQ0gyXUMxKFtDSDNdKVtDSDJdTihbQ0gyXTEpYyhuW2NIXW4yKWMoYzIzKW5bY0hdbjNbQ0gyXUM0KFtPSF0pW0NIMl1bQ0gyXU9bQ0gyXVtDSDJdNA==

> <s_epik_cmdline>
J2VwaWtfcHl0aG9uJywgJy1waCcsICc3LjAnLCAnLXRuJywgJzgnLCAnLW1hJywgJzIwMCcsICctbWV0YWxfYmluZGluZycsICctaW1hZScsICc8aW5maWxlLm1hZT4nLCAnLW9tYWUnLCAnPG91dGZpbGUubWFlPic=

> <r_lp_tautomer_probability>
1

> <r_epik_Ionization_Penalty>
0.00132063

> <r_epik_Ionization_Penalty_Charging>
0

> <r_epik_Ionization_Penalty_Neutral>
0.00132063

> <r_epik_State_Penalty>
0.000845314

> <r_epik_Charging_Adjusted_Penalty>
0.000845314

> <i_epik_Tot_Q>
0

> <i_epik_Tot_abs_Q>
0

> <r_epik_Metal_State_Penalty>
-0

> <b_epik_Metal_Only>
0

> <s_lp_Force_Field>
OPLS_2005

> <r_lp_Energy>
42.0456

> <b_lp_Chiralities_Consistent>
1

> <s_lp_Variant>
AV-unprocessed.smi:202-1

> <Gold.Version>
5.8.1

> <Gold.Id.Protein>
6NUR|6NUR_protein|mol2

> <Gold.PLP.Fitness>
41.3291

> <Gold.PLP.PLP>
-38.9711

> <Gold.PLP.part.hbond>
-0.5803

> <Gold.PLP.part.metal>
0.0000

> <Gold.PLP.part.buried>
-3.1143

> <Gold.PLP.part.nonpolar>
-35.2867

> <Gold.PLP.part.repulsive>
0.2624

> <Gold.PLP.ligand.clash>
0.0000

> <Gold.PLP.ligand.torsion>
0.9071

> <Gold.PLP.Chemscore.Hbond>
0.0000

> <Gold.PLP.Chemscore.CHOScore>
1.0000

> <Gold.PLP.Chemscore.Metal>
0.0000

> <Gold.Chemscore.Hbonds>
donor molecule, donor type, donor heavy atom, donor atom, acceptor molecule, acceptor atom, score
      L1  C    12    35       P1  7957  1.00

> <Gold.PLP.Chemscore.Internal.Correction>
1.1721

> <Gold.Rescore>
     Score         DG    S(hbond)    S(metal)    S(lipo)     H(rot)  DE(clash)    DE(int)     intcor
      5.80      -8.40       0.00        0.00      81.48       2.58       0.73       1.87       ----

> <Gold.Chemscore.Fitness>
5.7977

> <Gold.Chemscore.DG>
-8.3969

> <Gold.Chemscore.ZeroCoef>
-5.4800

> <Gold.Chemscore.Hbond>
0.0000

> <Gold.Chemscore.Metal>
0.0000

> <Gold.Chemscore.Lipo>
81.4805

> <Gold.Chemscore.Internal_Hbond>
0.0000

> <Gold.Chemscore.DEClash>
0.7251

> <Gold.Chemscore.DEInternal>
1.8741

> <Gold.Chemscore.Rot>
2.5845

> <Gold.Chemscore.Internal.Correction>
   9.000000E+99

> <Gold.Chemscore.Hbond.Weighted>
-0.0000

> <Gold.Chemscore.Metal.Weighted>
-0.0000

> <Gold.Chemscore.Lipo.Weighted>
-9.5332

> <Gold.Chemscore.Internal_Hbond.Weighted>
0.0000

> <Gold.Chemscore.DEClash.Weighted>
0.7251

> <Gold.Chemscore.DEInternal.Weighted>
1.8741

> <Gold.Chemscore.Rot.Weighted>
6.6163

> <Gold.Chemscore.Internal.Correction.Weighted>
   9.000000E+99

> <Gold.Protein.RotatedTorsions>
[ 6907 6896 6895 6894 ] final  -59.41 input  -60.11 | X-H torsion
[ 7974 7965 7964 7962 ] final  -63.78 input  175.53 | X-H torsion
[ 8008 7997 7996 7995 ] final  -68.45 input   59.86 | X-H torsion
[ 10167 10162 10161 10158 ] final   91.13 input  -65.29 | X-H torsion
[ 10718 10713 10712 10709 ] final  -88.08 input   66.30 | X-H torsion
[ 10763 10752 10751 10750 ] final  -55.35 input  -60.55 | X-H torsion
[ 11005 11000 10999 10996 ] final   23.67 input  -57.11 | X-H torsion

> <Gold.Protein.ActiveResidues>
 VAL166  LYS551  ARG553  GLY616  TRP617  ASP618  TYR619  PRO620  LYS621  CYS622 
 ASP623  PHE694  ASN695  SER759  ASP760  ASP761  ALA762  ILE779  LEU786  VAL792 
 PHE793  MET794  SER795  GLU796  ALA797  LYS798  CYS799  TRP800  GLU811  SER814 

> <Gold.Protein.RotatedAtoms>
  150.7933  134.6972  159.6529 H   0  0  0  0  0  0  0  0  0  0  0  0  # atno 6907 bound_to 6896
  152.4041  134.6233  160.0066 H   0  0  0  0  0  0  0  0  0  0  0  0  # atno 6908 bound_to 6896
  151.6496  133.3285  159.3185 H   0  0  0  0  0  0  0  0  0  0  0  0  # atno 6909 bound_to 6896
  145.7748  140.8793  143.0361 H   0  0  0  0  0  0  0  0  0  0  0  0  # atno 7974 bound_to 7965
  154.4869  140.0872  156.7507 H   0  0  0  0  0  0  0  0  0  0  0  0  # atno 8008 bound_to 7997
  155.4328  140.3450  155.4263 H   0  0  0  0  0  0  0  0  0  0  0  0  # atno 8009 bound_to 7997
  156.1274  140.1491  156.9104 H   0  0  0  0  0  0  0  0  0  0  0  0  # atno 8010 bound_to 7997
  139.8405  144.6643  150.9289 H   0  0  0  0  0  0  0  0  0  0  0  0  # atno 10167 bound_to 10162
  155.9984  130.4823  150.4965 H   0  0  0  0  0  0  0  0  0  0  0  0  # atno 10718 bound_to 10713
  154.1894  135.6430  153.5056 H   0  0  0  0  0  0  0  0  0  0  0  0  # atno 10763 bound_to 10752
  153.0039  135.5425  154.6430 H   0  0  0  0  0  0  0  0  0  0  0  0  # atno 10764 bound_to 10752
  154.5815  135.2925  155.0700 H   0  0  0  0  0  0  0  0  0  0  0  0  # atno 10765 bound_to 10752
  140.3671  134.2063  155.7669 H   0  0  0  0  0  0  0  0  0  0  0  0  # atno 11005 bound_to 11000
  144.6806  139.9906  143.7484 LP  0  0  0  0  0  0  0  0  0  0  0  0  # atno 17320 bound_to 7965
  146.0133  139.3188  143.0857 LP  0  0  0  0  0  0  0  0  0  0  0  0  # atno 17321 bound_to 7965
  140.7798  143.3917  151.1299 LP  0  0  0  0  0  0  0  0  0  0  0  0  # atno 17342 bound_to 10162
  139.7563  143.8702  152.3089 LP  0  0  0  0  0  0  0  0  0  0  0  0  # atno 17343 bound_to 10162
  157.2954  131.0634  151.2105 LP  0  0  0  0  0  0  0  0  0  0  0  0  # atno 17370 bound_to 10713
  157.3103  130.6886  149.6212 LP  0  0  0  0  0  0  0  0  0  0  0  0  # atno 17371 bound_to 10713
  141.1966  133.8078  157.0664 LP  0  0  0  0  0  0  0  0  0  0  0  0  # atno 17394 bound_to 11000
  140.0581  134.9769  157.1256 LP  0  0  0  0  0  0  0  0  0  0  0  0  # atno 17395 bound_to 11000

$$$$
