AV-unprocessed.smi:1389|AV-procd|sdf|5648|dock6
  -GOLD-   22720 5263D 1   1.00000     0.00000
 Structure written by MMmdl.
 52 54  0  0  0  0  0  0  0  0  2 V2000
  141.7086  135.6007  154.0003 C   0  0  0  0  0  0  0  0  0  0  0  0
  143.2359  135.6150  153.7469 C   0  0  2  0  0  0  0  0  0  0  0  0
  143.5672  136.5306  152.5395 C   0  0  0  0  0  0  0  0  0  0  0  0
  144.1885  137.7912  152.9339 N   0  0  0  0  0  0  0  0  0  0  0  0
  145.4153  137.9079  153.4603 C   0  0  0  0  0  0  0  0  0  0  0  0
  146.1587  136.9483  153.6640 O   0  0  0  0  0  0  0  0  0  0  0  0
  145.7114  139.1930  153.7160 N   0  0  0  0  0  0  0  0  0  0  0  0
  146.9379  139.7440  154.1844 C   0  0  0  0  0  0  0  0  0  0  0  0
  148.1021  138.9520  154.3415 C   0  0  0  0  0  0  0  0  0  0  0  0
  149.2671  139.5346  154.8695 C   0  0  0  0  0  0  0  0  0  0  0  0
  149.2245  140.8889  155.2389 C   0  0  0  0  0  0  0  0  0  0  0  0
  148.1215  141.6526  155.1100 N   0  0  0  0  0  0  0  0  0  0  0  0
  146.9940  141.1091  154.5889 C   0  0  0  0  0  0  0  0  0  0  0  0
  145.8728  141.9615  154.4643 N   0  0  0  0  0  0  0  0  0  0  0  0
  145.1213  142.3732  155.6450 C   0  0  0  0  0  0  0  0  0  0  0  0
  144.2666  143.5472  155.1771 C   0  0  0  0  0  0  0  0  0  0  0  0
  145.1863  144.2413  154.1770 C   0  0  0  0  0  0  0  0  0  0  0  0
  145.9682  143.0874  153.5395 C   0  0  0  0  0  0  0  0  0  0  0  0
  143.8217  134.2509  153.5346 N   0  3  0  0  0  0  0  0  0  0  0  0
  143.5935  133.7422  152.1547 C   0  0  0  0  0  0  0  0  0  0  0  0
  144.1146  132.3040  152.0025 C   0  0  0  0  0  0  0  0  0  0  0  0
  145.4986  132.2673  152.3180 O   0  0  0  0  0  0  0  0  0  0  0  0
  145.7367  132.6546  153.6632 C   0  0  0  0  0  0  0  0  0  0  0  0
  145.2611  134.1011  153.8857 C   0  0  0  0  0  0  0  0  0  0  0  0
  141.3111  136.6074  154.1287 H   0  0  0  0  0  0  0  0  0  0  0  0
  141.4498  135.0655  154.9140 H   0  0  0  0  0  0  0  0  0  0  0  0
  141.1706  135.1420  153.1699 H   0  0  0  0  0  0  0  0  0  0  0  0
  143.6967  136.0333  154.6436 H   0  0  0  0  0  0  0  0  0  0  0  0
  144.2223  136.0395  151.8208 H   0  0  0  0  0  0  0  0  0  0  0  0
  142.6516  136.7667  151.9960 H   0  0  0  0  0  0  0  0  0  0  0  0
  143.6465  138.6319  152.7963 H   0  0  0  0  0  0  0  0  0  0  0  0
  145.0213  139.8717  153.4284 H   0  0  0  0  0  0  0  0  0  0  0  0
  148.1167  137.9031  154.0893 H   0  0  0  0  0  0  0  0  0  0  0  0
  150.1677  138.9529  154.9999 H   0  0  0  0  0  0  0  0  0  0  0  0
  150.0968  141.3714  155.6546 H   0  0  0  0  0  0  0  0  0  0  0  0
  144.5122  141.5566  156.0338 H   0  0  0  0  0  0  0  0  0  0  0  0
  145.7940  142.7073  156.4359 H   0  0  0  0  0  0  0  0  0  0  0  0
  143.3728  143.1807  154.6700 H   0  0  0  0  0  0  0  0  0  0  0  0
  143.9530  144.1969  155.9947 H   0  0  0  0  0  0  0  0  0  0  0  0
  144.6447  144.8409  153.4451 H   0  0  0  0  0  0  0  0  0  0  0  0
  145.8734  144.9006  154.7094 H   0  0  0  0  0  0  0  0  0  0  0  0
  147.0032  143.3698  153.3405 H   0  0  0  0  0  0  0  0  0  0  0  0
  145.5057  142.8056  152.5934 H   0  0  0  0  0  0  0  0  0  0  0  0
  142.5360  133.7567  151.8978 H   0  0  0  0  0  0  0  0  0  0  0  0
  144.0987  134.3929  151.4388 H   0  0  0  0  0  0  0  0  0  0  0  0
  143.5598  131.6160  152.6430 H   0  0  0  0  0  0  0  0  0  0  0  0
  143.9787  131.9623  150.9763 H   0  0  0  0  0  0  0  0  0  0  0  0
  145.2316  131.9692  154.3458 H   0  0  0  0  0  0  0  0  0  0  0  0
  146.8046  132.5757  153.8684 H   0  0  0  0  0  0  0  0  0  0  0  0
  145.8594  134.7894  153.2864 H   0  0  0  0  0  0  0  0  0  0  0  0
  145.4330  134.3425  154.9342 H   0  0  0  0  0  0  0  0  0  0  0  0
  143.3252  133.6329  154.1604 H   0  0  0  0  0  0  0  0  0  0  0  0
  1  2  1  0  0  0  0
  1 25  1  0  0  0  0
  1 26  1  0  0  0  0
  1 27  1  0  0  0  0
  2  3  1  0  0  0  0
  2 19  1  0  0  0  0
  2 28  1  0  0  0  0
  3  4  1  0  0  0  0
  3 29  1  0  0  0  0
  3 30  1  0  0  0  0
  4  5  1  0  0  0  0
  4 31  1  0  0  0  0
  5  6  2  0  0  0  0
  5  7  1  0  0  0  0
  7  8  1  0  0  0  0
  7 32  1  0  0  0  0
  8 13  1  0  0  0  0
  8  9  2  0  0  0  0
  9 10  1  0  0  0  0
  9 33  1  0  0  0  0
 10 11  2  0  0  0  0
 10 34  1  0  0  0  0
 11 12  1  0  0  0  0
 11 35  1  0  0  0  0
 12 13  2  0  0  0  0
 13 14  1  0  0  0  0
 14 18  1  0  0  0  0
 14 15  1  0  0  0  0
 15 16  1  0  0  0  0
 15 36  1  0  0  0  0
 15 37  1  0  0  0  0
 16 17  1  0  0  0  0
 16 38  1  0  0  0  0
 16 39  1  0  0  0  0
 17 18  1  0  0  0  0
 17 40  1  0  0  0  0
 17 41  1  0  0  0  0
 18 42  1  0  0  0  0
 18 43  1  0  0  0  0
 19 24  1  0  0  0  0
 19 20  1  0  0  0  0
 19 52  1  0  0  0  0
 20 21  1  0  0  0  0
 20 44  1  0  0  0  0
 20 45  1  0  0  0  0
 21 22  1  0  0  0  0
 21 46  1  0  0  0  0
 21 47  1  0  0  0  0
 22 23  1  0  0  0  0
 23 24  1  0  0  0  0
 23 48  1  0  0  0  0
 23 49  1  0  0  0  0
 24 50  1  0  0  0  0
 24 51  1  0  0  0  0
M  CHG  1  19   1
M  END
> <s_m_source_file>
AV-unprocessed.smi

> <i_m_source_file_index>
1389

> <i_lp_mmshare_version>
43012

> <i_f3d_flags>
0

> <s_epik_input>
W0NIMl0xW0NIMl1PW0NIMl1bQ0gyXU4xW0NASF0oW0NIM10pW0NIMl1bTkhdQyg9TylbTkhdYzJbY0hdW2NIXVtjSF1uYzJOM1tDSDJdW0NIMl1bQ0gyXVtDSDJdMw==

> <s_epik_cmdline>
J2VwaWtfcHl0aG9uJywgJy1waCcsICc3LjAnLCAnLXRuJywgJzgnLCAnLW1hJywgJzIwMCcsICctbWV0YWxfYmluZGluZycsICctaW1hZScsICc8aW5maWxlLm1hZT4nLCAnLW9tYWUnLCAnPG91dGZpbGUubWFlPic=

> <r_lp_tautomer_probability>
1

> <r_epik_Ionization_Penalty>
0.686

> <r_epik_Ionization_Penalty_Charging>
0.602531

> <r_epik_Ionization_Penalty_Neutral>
0.08347

> <r_epik_State_Penalty>
0.679975

> <r_epik_Charging_Adjusted_Penalty>
1.28251

> <i_epik_Tot_Q>
1

> <i_epik_Tot_abs_Q>
1

> <r_epik_Metal_State_Penalty>
0.679055

> <b_epik_Metal_Only>
0

> <s_lp_Force_Field>
OPLS_2005

> <r_lp_Energy>
48.7477

> <b_lp_Chiralities_Consistent>
1

> <s_lp_Variant>
AV-unprocessed.smi:1389-3

> <Gold.Version>
5.8.1

> <Gold.Id.Protein>
6NUR|6NUR_protein|mol2

> <Gold.PLP.Fitness>
43.9824

> <Gold.PLP.PLP>
-34.4330

> <Gold.PLP.part.hbond>
-3.7890

> <Gold.PLP.part.metal>
0.0000

> <Gold.PLP.part.buried>
-8.7376

> <Gold.PLP.part.nonpolar>
-25.7217

> <Gold.PLP.part.repulsive>
0.8217

> <Gold.PLP.ligand.clash>
0.0000

> <Gold.PLP.ligand.torsion>
1.3255

> <Gold.PLP.Chemscore.Hbond>
3.9425

> <Gold.PLP.Chemscore.CHOScore>
0.0000

> <Gold.PLP.Chemscore.Metal>
0.0000

> <Gold.Chemscore.Hbonds>
donor molecule, donor type, donor heavy atom, donor atom, acceptor molecule, acceptor atom, score
      L1  H     4    31       P1 10175  0.96
      L1  H     7    32       P1 10175  1.00
      L1  H    19    52       P1 10957  1.76

> <Gold.PLP.Chemscore.Internal.Correction>
0.3730

> <Gold.Rescore>
     Score         DG    S(hbond)    S(metal)    S(lipo)     H(rot)  DE(clash)    DE(int)     intcor
     16.60     -19.39       2.76        0.00      75.84       1.63       0.31       2.48       ----

> <Gold.Chemscore.Fitness>
16.6047

> <Gold.Chemscore.DG>
-19.3923

> <Gold.Chemscore.ZeroCoef>
-5.4800

> <Gold.Chemscore.Hbond>
2.7586

> <Gold.Chemscore.Metal>
0.0000

> <Gold.Chemscore.Lipo>
75.8395

> <Gold.Chemscore.Internal_Hbond>
0.0000

> <Gold.Chemscore.DEClash>
0.3064

> <Gold.Chemscore.DEInternal>
2.4813

> <Gold.Chemscore.Rot>
1.6307

> <Gold.Chemscore.Internal.Correction>
   9.000000E+99

> <Gold.Chemscore.Hbonds>
donor molecule, donor type, donor heavy atom, donor atom, acceptor molecule, acceptor atom, score
      L1  H     4    31       P1 10175  0.92
      L1  H     7    32       P1 10175  0.99
      L1  H    19    52       P1 10957  0.83

> <Gold.Chemscore.Hbond.Weighted>
-9.2137

> <Gold.Chemscore.Metal.Weighted>
-0.0000

> <Gold.Chemscore.Lipo.Weighted>
-8.8732

> <Gold.Chemscore.Internal_Hbond.Weighted>
0.0000

> <Gold.Chemscore.DEClash.Weighted>
0.3064

> <Gold.Chemscore.DEInternal.Weighted>
2.4813

> <Gold.Chemscore.Rot.Weighted>
4.1746

> <Gold.Chemscore.Internal.Correction.Weighted>
   9.000000E+99

> <Gold.Protein.RotatedTorsions>
[ 6907 6896 6895 6894 ] final   42.92 input  -60.11 | X-H torsion
[ 7974 7965 7964 7962 ] final  -33.87 input  175.53 | X-H torsion
[ 8008 7997 7996 7995 ] final   73.80 input   59.86 | X-H torsion
[ 10167 10162 10161 10158 ] final  169.13 input  -65.29 | X-H torsion
[ 10718 10713 10712 10709 ] final -134.95 input   66.30 | X-H torsion
[ 10763 10752 10751 10750 ] final  116.29 input  -60.55 | X-H torsion
[ 11005 11000 10999 10996 ] final -169.67 input  -57.11 | X-H torsion

> <Gold.Protein.ActiveResidues>
 VAL166  LYS551  ARG553  GLY616  TRP617  ASP618  TYR619  PRO620  LYS621  CYS622 
 ASP623  PHE694  ASN695  SER759  ASP760  ASP761  ALA762  ILE779  LEU786  VAL792 
 PHE793  MET794  SER795  GLU796  ALA797  LYS798  CYS799  TRP800  GLU811  SER814 

> <Gold.Protein.RotatedAtoms>
  152.2138  134.8477  160.0493 H   0  0  0  0  0  0  0  0  0  0  0  0  # atno 6907 bound_to 6896
  151.9285  133.3599  159.3930 H   0  0  0  0  0  0  0  0  0  0  0  0  # atno 6908 bound_to 6896
  150.6983  134.4486  159.5370 H   0  0  0  0  0  0  0  0  0  0  0  0  # atno 6909 bound_to 6896
  146.0875  140.5970  142.8879 H   0  0  0  0  0  0  0  0  0  0  0  0  # atno 7974 bound_to 7965
  155.7889  140.3480  155.5338 H   0  0  0  0  0  0  0  0  0  0  0  0  # atno 8008 bound_to 7997
  155.8653  140.0978  157.1607 H   0  0  0  0  0  0  0  0  0  0  0  0  # atno 8009 bound_to 7997
  154.4014  140.1350  156.3999 H   0  0  0  0  0  0  0  0  0  0  0  0  # atno 8010 bound_to 7997
  139.4984  144.3740  151.9694 H   0  0  0  0  0  0  0  0  0  0  0  0  # atno 10167 bound_to 10162
  156.2610  130.7209  151.1143 H   0  0  0  0  0  0  0  0  0  0  0  0  # atno 10718 bound_to 10713
  153.5349  135.3570  155.2692 H   0  0  0  0  0  0  0  0  0  0  0  0  # atno 10763 bound_to 10752
  154.8723  135.4077  154.3109 H   0  0  0  0  0  0  0  0  0  0  0  0  # atno 10764 bound_to 10752
  153.3805  135.7068  153.6637 H   0  0  0  0  0  0  0  0  0  0  0  0  # atno 10765 bound_to 10752
  140.5282  134.5642  157.5067 H   0  0  0  0  0  0  0  0  0  0  0  0  # atno 11005 bound_to 11000
  144.7336  140.4745  143.6920 LP  0  0  0  0  0  0  0  0  0  0  0  0  # atno 17320 bound_to 7965
  145.6101  139.1512  143.3080 LP  0  0  0  0  0  0  0  0  0  0  0  0  # atno 17321 bound_to 7965
  140.3176  144.3465  150.6017 LP  0  0  0  0  0  0  0  0  0  0  0  0  # atno 17342 bound_to 10162
  140.5749  143.2177  151.7534 LP  0  0  0  0  0  0  0  0  0  0  0  0  # atno 17343 bound_to 10162
  157.7250  131.0656  150.5970 LP  0  0  0  0  0  0  0  0  0  0  0  0  # atno 17370 bound_to 10713
  156.6058  130.4366  149.5879 LP  0  0  0  0  0  0  0  0  0  0  0  0  # atno 17371 bound_to 10713
  139.9569  134.7520  156.0323 LP  0  0  0  0  0  0  0  0  0  0  0  0  # atno 17394 bound_to 11000
  141.1296  133.6590  156.3429 LP  0  0  0  0  0  0  0  0  0  0  0  0  # atno 17395 bound_to 11000

$$$$
