AV-unprocessed.smi:2941|AV-procd|sdf|11264|dock4
  -GOLD-   2272016153D 1   1.00000     0.00000
 Structure written by MMmdl.
 36 37  0  0  0  0  0  0  0  0  1 V2000
  151.9741  141.8090  160.3341 C   0  0  0  0  0  0  0  0  0  0  0  0
  152.3189  142.1232  158.9963 O   0  0  0  0  0  0  0  0  0  0  0  0
  151.4060  141.5806  158.0575 C   0  0  0  0  0  0  0  0  0  0  0  0
  151.5819  142.3120  156.7183 C   0  0  0  0  0  0  0  0  0  0  0  0
  151.1633  141.4736  155.5868 N   0  0  0  0  0  0  0  0  0  0  0  0
  150.2573  142.0447  154.6721 C   0  0  0  0  0  0  0  0  0  0  0  0
  149.8130  141.3766  153.5912 C   0  0  0  0  0  0  0  0  0  0  0  0
  148.8621  142.0150  152.6499 C   0  0  0  0  0  0  0  0  0  0  0  0
  148.6308  141.5176  151.5470 O   0  0  0  0  0  0  0  0  0  0  0  0
  148.2011  143.2899  153.0566 C   0  0  0  0  0  0  0  0  0  0  0  0
  148.3570  144.4123  152.2118 C   0  0  0  0  0  0  0  0  0  0  0  0
  147.7673  145.6473  152.5408 C   0  0  0  0  0  0  0  0  0  0  0  0
  147.9321  146.7149  151.7246 F   0  0  0  0  0  0  0  0  0  0  0  0
  147.0082  145.7727  153.7178 C   0  0  0  0  0  0  0  0  0  0  0  0
  146.8329  144.6598  154.5606 C   0  0  0  0  0  0  0  0  0  0  0  0
  147.4188  143.4189  154.2369 C   0  0  0  0  0  0  0  0  0  0  0  0
  147.1835  142.3602  155.0698 O   0  0  0  0  0  0  0  0  0  0  0  0
  150.2850  140.0197  153.3968 C   0  0  0  0  0  0  0  0  0  0  0  0
  151.1447  139.4645  154.2735 C   0  0  0  0  0  0  0  0  0  0  0  0
  151.6209  138.1321  154.1010 C   0  0  0  0  0  0  0  0  0  0  0  0
  151.9827  137.0416  153.9621 N   0  0  0  0  0  0  0  0  0  0  0  0
  151.6342  140.1967  155.4501 C   0  0  0  0  0  0  0  0  0  0  0  0
  152.4138  139.7003  156.2649 O   0  0  0  0  0  0  0  0  0  0  0  0
  152.6988  142.2570  161.0139 H   0  0  0  0  0  0  0  0  0  0  0  0
  151.9799  140.7311  160.4996 H   0  0  0  0  0  0  0  0  0  0  0  0
  150.9876  142.1978  160.5898 H   0  0  0  0  0  0  0  0  0  0  0  0
  151.5901  140.5122  157.9345 H   0  0  0  0  0  0  0  0  0  0  0  0
  150.3838  141.7003  158.4202 H   0  0  0  0  0  0  0  0  0  0  0  0
  151.0069  143.2391  156.7323 H   0  0  0  0  0  0  0  0  0  0  0  0
  152.6202  142.6268  156.6004 H   0  0  0  0  0  0  0  0  0  0  0  0
  149.9571  143.0562  154.9082 H   0  0  0  0  0  0  0  0  0  0  0  0
  148.9411  144.3363  151.3056 H   0  0  0  0  0  0  0  0  0  0  0  0
  146.5549  146.7197  153.9714 H   0  0  0  0  0  0  0  0  0  0  0  0
  146.2369  144.7604  155.4560 H   0  0  0  0  0  0  0  0  0  0  0  0
  147.2744  141.5229  154.6408 H   0  0  0  0  0  0  0  0  0  0  0  0
  149.9478  139.4387  152.5503 H   0  0  0  0  0  0  0  0  0  0  0  0
  1  2  1  0  0  0  0
  1 24  1  0  0  0  0
  1 25  1  0  0  0  0
  1 26  1  0  0  0  0
  2  3  1  0  0  0  0
  3  4  1  0  0  0  0
  3 27  1  0  0  0  0
  3 28  1  0  0  0  0
  4  5  1  0  0  0  0
  4 29  1  0  0  0  0
  4 30  1  0  0  0  0
  5 22  1  0  0  0  0
  5  6  1  0  0  0  0
  6  7  2  0  0  0  0
  6 31  1  0  0  0  0
  7  8  1  0  0  0  0
  7 18  1  0  0  0  0
  8  9  2  0  0  0  0
  8 10  1  0  0  0  0
 10 16  1  0  0  0  0
 10 11  2  0  0  0  0
 11 12  1  0  0  0  0
 11 32  1  0  0  0  0
 12 13  1  0  0  0  0
 12 14  2  0  0  0  0
 14 15  1  0  0  0  0
 14 33  1  0  0  0  0
 15 16  2  0  0  0  0
 15 34  1  0  0  0  0
 16 17  1  0  0  0  0
 17 35  1  0  0  0  0
 18 19  2  0  0  0  0
 18 36  1  0  0  0  0
 19 20  1  0  0  0  0
 19 22  1  0  0  0  0
 20 21  3  0  0  0  0
 22 23  2  0  0  0  0
M  END
> <s_m_source_file>
AV-unprocessed.smi

> <i_m_source_file_index>
2941

> <i_lp_mmshare_version>
43012

> <i_f3d_flags>
0

> <s_epik_input>
W0NIM11PW0NIMl1bQ0gyXW4xW2NIXWMoW2NIXWMoQyNOKWMxPU8pQyg9TyljMltjSF1jKEYpW2NIXVtjSF1jMltPSF0=

> <s_epik_cmdline>
J2VwaWtfcHl0aG9uJywgJy1waCcsICc3LjAnLCAnLXRuJywgJzgnLCAnLW1hJywgJzIwMCcsICctbWV0YWxfYmluZGluZycsICctaW1hZScsICc8aW5maWxlLm1hZT4nLCAnLW9tYWUnLCAnPG91dGZpbGUubWFlPic=

> <r_epik_Ionization_Penalty>
0.27579

> <r_epik_Ionization_Penalty_Charging>
5.62591e-11

> <r_epik_Ionization_Penalty_Neutral>
0.27579

> <r_epik_State_Penalty>
0.26814

> <r_epik_Charging_Adjusted_Penalty>
0.26814

> <i_epik_Tot_Q>
0

> <i_epik_Tot_abs_Q>
0

> <r_epik_Metal_State_Penalty>
0.26814

> <b_epik_Metal_Only>
0

> <s_lp_Force_Field>
OPLS_2005

> <r_lp_Energy>
22.041

> <b_lp_Chiralities_Consistent>
1

> <s_lp_Variant>
AV-unprocessed.smi:2941-1

> <Gold.Version>
5.8.1

> <Gold.Id.Protein>
6NUR|6NUR_protein|mol2

> <Gold.PLP.Fitness>
57.5603

> <Gold.PLP.PLP>
-49.6647

> <Gold.PLP.part.hbond>
-2.0000

> <Gold.PLP.part.metal>
0.0000

> <Gold.PLP.part.buried>
-7.9813

> <Gold.PLP.part.nonpolar>
-40.8210

> <Gold.PLP.part.repulsive>
0.5422

> <Gold.PLP.ligand.clash>
0.0000

> <Gold.PLP.ligand.torsion>
1.4146

> <Gold.PLP.Chemscore.Hbond>
2.0000

> <Gold.PLP.Chemscore.CHOScore>
1.0000

> <Gold.PLP.Chemscore.Metal>
0.0000

> <Gold.Chemscore.Hbonds>
donor molecule, donor type, donor heavy atom, donor atom, acceptor molecule, acceptor atom, score
      P1  H  7997  8009       L1    23  1.00
      P1  H 10752 10764       L1    21  0.93
      L1  C     6    31       P1  8028  1.00

> <Gold.PLP.Chemscore.Internal.Correction>
1.7248

> <Gold.Rescore>
     Score         DG    S(hbond)    S(metal)    S(lipo)     H(rot)  DE(clash)    DE(int)     intcor
     13.90     -16.90       1.95        0.00      86.59       2.04       0.12       2.88       ----

> <Gold.Chemscore.Fitness>
13.8993

> <Gold.Chemscore.DG>
-16.8992

> <Gold.Chemscore.ZeroCoef>
-5.4800

> <Gold.Chemscore.Hbond>
1.9454

> <Gold.Chemscore.Metal>
0.0000

> <Gold.Chemscore.Lipo>
86.5936

> <Gold.Chemscore.Internal_Hbond>
0.0000

> <Gold.Chemscore.DEClash>
0.1223

> <Gold.Chemscore.DEInternal>
2.8776

> <Gold.Chemscore.Rot>
2.0351

> <Gold.Chemscore.Internal.Correction>
   9.000000E+99

> <Gold.Chemscore.Hbonds>
donor molecule, donor type, donor heavy atom, donor atom, acceptor molecule, acceptor atom, score
      P1  H  7997  8009       L1    23  0.98
      P1  H 10752 10764       L1    21  0.91

> <Gold.Chemscore.Hbond.Weighted>
-6.4977

> <Gold.Chemscore.Metal.Weighted>
-0.0000

> <Gold.Chemscore.Lipo.Weighted>
-10.1315

> <Gold.Chemscore.Internal_Hbond.Weighted>
0.0000

> <Gold.Chemscore.DEClash.Weighted>
0.1223

> <Gold.Chemscore.DEInternal.Weighted>
2.8776

> <Gold.Chemscore.Rot.Weighted>
5.2099

> <Gold.Chemscore.Internal.Correction.Weighted>
   9.000000E+99

> <Gold.Protein.RotatedTorsions>
[ 6907 6896 6895 6894 ] final -147.27 input  -60.11 | X-H torsion
[ 7974 7965 7964 7962 ] final  132.16 input  175.53 | X-H torsion
[ 8008 7997 7996 7995 ] final -164.43 input   59.86 | X-H torsion
[ 10167 10162 10161 10158 ] final   12.63 input  -65.29 | X-H torsion
[ 10718 10713 10712 10709 ] final   -3.88 input   66.30 | X-H torsion
[ 10763 10752 10751 10750 ] final  -71.76 input  -60.55 | X-H torsion
[ 11005 11000 10999 10996 ] final  137.37 input  -57.11 | X-H torsion

> <Gold.Protein.ActiveResidues>
 VAL166  LYS551  ARG553  GLY616  TRP617  ASP618  TYR619  PRO620  LYS621  CYS622 
 ASP623  PHE694  ASN695  SER759  ASP760  ASP761  ALA762  ILE779  LEU786  VAL792 
 PHE793  MET794  SER795  GLU796  ALA797  LYS798  CYS799  TRP800  GLU811  SER814 

> <Gold.Protein.RotatedAtoms>
  151.1534  133.4892  159.2594 H   0  0  0  0  0  0  0  0  0  0  0  0  # atno 6907 bound_to 6896
  151.1530  135.0236  159.8687 H   0  0  0  0  0  0  0  0  0  0  0  0  # atno 6908 bound_to 6896
  152.5463  134.1416  159.8534 H   0  0  0  0  0  0  0  0  0  0  0  0  # atno 6909 bound_to 6896
  144.9997  139.4324  143.5298 H   0  0  0  0  0  0  0  0  0  0  0  0  # atno 7974 bound_to 7965
  155.8354  140.0940  157.1767 H   0  0  0  0  0  0  0  0  0  0  0  0  # atno 8008 bound_to 7997
  154.3980  140.1411  156.3726 H   0  0  0  0  0  0  0  0  0  0  0  0  # atno 8009 bound_to 7997
  155.8121  140.3449  155.5466 H   0  0  0  0  0  0  0  0  0  0  0  0  # atno 8010 bound_to 7997
  140.6055  143.8516  150.7009 H   0  0  0  0  0  0  0  0  0  0  0  0  # atno 10167 bound_to 10162
  156.7695  130.5295  149.5770 H   0  0  0  0  0  0  0  0  0  0  0  0  # atno 10718 bound_to 10713
  154.4363  135.5951  153.6100 H   0  0  0  0  0  0  0  0  0  0  0  0  # atno 10763 bound_to 10752
  152.9802  135.5987  154.3777 H   0  0  0  0  0  0  0  0  0  0  0  0  # atno 10764 bound_to 10752
  154.3622  135.2841  155.2292 H   0  0  0  0  0  0  0  0  0  0  0  0  # atno 10765 bound_to 10752
  140.0109  134.9439  157.0276 H   0  0  0  0  0  0  0  0  0  0  0  0  # atno 11005 bound_to 11000
  146.3449  139.9379  142.8745 LP  0  0  0  0  0  0  0  0  0  0  0  0  # atno 17320 bound_to 7965
  145.2170  140.9919  143.4068 LP  0  0  0  0  0  0  0  0  0  0  0  0  # atno 17321 bound_to 7965
  140.2072  143.3912  152.1746 LP  0  0  0  0  0  0  0  0  0  0  0  0  # atno 17342 bound_to 10162
  139.5322  144.7171  151.5017 LP  0  0  0  0  0  0  0  0  0  0  0  0  # atno 17343 bound_to 10162
  156.1287  130.6162  151.0301 LP  0  0  0  0  0  0  0  0  0  0  0  0  # atno 17370 bound_to 10713
  157.6697  131.0864  150.7642 LP  0  0  0  0  0  0  0  0  0  0  0  0  # atno 17371 bound_to 10713
  140.4556  134.1537  155.7186 LP  0  0  0  0  0  0  0  0  0  0  0  0  # atno 17394 bound_to 11000
  141.1710  133.8608  157.1570 LP  0  0  0  0  0  0  0  0  0  0  0  0  # atno 17395 bound_to 11000

$$$$
