AV-unprocessed.smi:1612|AV-procd|sdf|6476|dock5
  -GOLD-   22720 7133D 1   1.00000     0.00000
 Structure written by MMmdl.
 37 38  0  0  0  0  0  0  0  0  1 V2000
  150.6788  133.8168  155.7118 C   0  0  0  0  0  0  0  0  0  0  0  0
  149.7594  135.0249  155.4646 C   0  0  2  0  0  0  0  0  0  0  0  0
  149.0570  134.8022  154.2007 N   0  0  0  0  0  0  0  0  0  0  0  0
  148.2806  133.7430  153.9258 C   0  0  0  0  0  0  0  0  0  0  0  0
  148.0936  132.8170  154.7161 O   0  0  0  0  0  0  0  0  0  0  0  0
  147.7458  133.8379  152.6957 N   0  0  0  0  0  0  0  0  0  0  0  0
  146.8794  132.9216  152.0421 C   0  0  0  0  0  0  0  0  0  0  0  0
  146.5361  133.2656  150.7149 C   0  0  0  0  0  0  0  0  0  0  0  0
  145.6828  132.4211  149.9788 C   0  0  0  0  0  0  0  0  0  0  0  0
  145.1935  131.2526  150.5894 C   0  0  0  0  0  0  0  0  0  0  0  0
  145.5839  130.9839  151.9142 C   0  0  0  0  0  0  0  0  0  0  0  0
  146.4024  131.7914  152.6213 N   0  0  0  0  0  0  0  0  0  0  0  0
  150.6439  136.2887  155.3786 C   0  0  0  0  0  0  0  0  0  0  0  0
  151.8550  136.1906  155.5879 O   0  0  0  0  0  0  0  0  0  0  0  0
  150.0669  137.4759  155.0938 N   0  0  0  0  0  0  0  0  0  0  0  0
  150.8189  138.7244  154.9776 C   0  0  0  0  0  0  0  0  0  0  0  0
  149.8419  139.7457  154.3958 C   0  0  0  0  0  0  0  0  0  0  0  0
  148.4734  139.2311  154.8184 C   0  0  0  0  0  0  0  0  0  0  0  0
  148.6424  137.7121  154.8594 C   0  0  0  0  0  0  0  0  0  0  0  0
  151.2253  133.9182  156.6501 H   0  0  0  0  0  0  0  0  0  0  0  0
  151.4113  133.6923  154.9126 H   0  0  0  0  0  0  0  0  0  0  0  0
  150.1002  132.8946  155.7740 H   0  0  0  0  0  0  0  0  0  0  0  0
  149.0240  135.0963  156.2664 H   0  0  0  0  0  0  0  0  0  0  0  0
  149.1509  135.5204  153.4977 H   0  0  0  0  0  0  0  0  0  0  0  0
  147.9851  134.6625  152.1652 H   0  0  0  0  0  0  0  0  0  0  0  0
  146.9205  134.1677  150.2609 H   0  0  0  0  0  0  0  0  0  0  0  0
  145.4085  132.6664  148.9634 H   0  0  0  0  0  0  0  0  0  0  0  0
  144.5371  130.5800  150.0574 H   0  0  0  0  0  0  0  0  0  0  0  0
  145.2306  130.0970  152.4193 H   0  0  0  0  0  0  0  0  0  0  0  0
  151.1498  139.0326  155.9704 H   0  0  0  0  0  0  0  0  0  0  0  0
  151.7009  138.6161  154.3442 H   0  0  0  0  0  0  0  0  0  0  0  0
  150.0381  140.7621  154.7386 H   0  0  0  0  0  0  0  0  0  0  0  0
  149.9129  139.7402  153.3073 H   0  0  0  0  0  0  0  0  0  0  0  0
  148.2382  139.6004  155.8176 H   0  0  0  0  0  0  0  0  0  0  0  0
  147.6748  139.5500  154.1480 H   0  0  0  0  0  0  0  0  0  0  0  0
  148.3625  137.2738  153.9001 H   0  0  0  0  0  0  0  0  0  0  0  0
  148.0153  137.2705  155.6350 H   0  0  0  0  0  0  0  0  0  0  0  0
  1  2  1  0  0  0  0
  1 20  1  0  0  0  0
  1 21  1  0  0  0  0
  1 22  1  0  0  0  0
  2  3  1  0  0  0  0
  2 13  1  0  0  0  0
  2 23  1  0  0  0  0
  3  4  1  0  0  0  0
  3 24  1  0  0  0  0
  4  5  2  0  0  0  0
  4  6  1  0  0  0  0
  6  7  1  0  0  0  0
  6 25  1  0  0  0  0
  7 12  1  0  0  0  0
  7  8  2  0  0  0  0
  8  9  1  0  0  0  0
  8 26  1  0  0  0  0
  9 10  2  0  0  0  0
  9 27  1  0  0  0  0
 10 11  1  0  0  0  0
 10 28  1  0  0  0  0
 11 12  2  0  0  0  0
 11 29  1  0  0  0  0
 13 14  2  0  0  0  0
 13 15  1  0  0  0  0
 15 19  1  0  0  0  0
 15 16  1  0  0  0  0
 16 17  1  0  0  0  0
 16 30  1  0  0  0  0
 16 31  1  0  0  0  0
 17 18  1  0  0  0  0
 17 32  1  0  0  0  0
 17 33  1  0  0  0  0
 18 19  1  0  0  0  0
 18 34  1  0  0  0  0
 18 35  1  0  0  0  0
 19 36  1  0  0  0  0
 19 37  1  0  0  0  0
M  END
> <s_m_source_file>
AV-unprocessed.smi

> <i_m_source_file_index>
1612

> <i_lp_mmshare_version>
43012

> <i_f3d_flags>
0

> <s_epik_input>
W0NIMl0xW0NIMl1bQ0gyXVtDSDJdTjFDKD1PKVtDQEhdKFtDSDNdKVtOSF1DKD1PKVtOSF1jMltjSF1bY0hdW2NIXVtjSF1uMg==

> <s_epik_cmdline>
J2VwaWtfcHl0aG9uJywgJy1waCcsICc3LjAnLCAnLXRuJywgJzgnLCAnLW1hJywgJzIwMCcsICctbWV0YWxfYmluZGluZycsICctaW1hZScsICc8aW5maWxlLm1hZT4nLCAnLW9tYWUnLCAnPG91dGZpbGUubWFlPic=

> <r_lp_tautomer_probability>
1

> <r_epik_Ionization_Penalty>
3.95281e-05

> <r_epik_Ionization_Penalty_Charging>
0

> <r_epik_Ionization_Penalty_Neutral>
3.95281e-05

> <r_epik_State_Penalty>
-0

> <r_epik_Charging_Adjusted_Penalty>
0

> <i_epik_Tot_Q>
0

> <i_epik_Tot_abs_Q>
0

> <r_epik_Metal_State_Penalty>
-0

> <b_epik_Metal_Only>
0

> <s_lp_Force_Field>
OPLS_2005

> <r_lp_Energy>
30.1614

> <b_lp_Chiralities_Consistent>
1

> <s_lp_Variant>
AV-unprocessed.smi:1612-1

> <Gold.Version>
5.8.1

> <Gold.Id.Protein>
6NUR|6NUR_protein|mol2

> <Gold.PLP.Fitness>
39.6321

> <Gold.PLP.PLP>
-30.6921

> <Gold.PLP.part.hbond>
-2.9941

> <Gold.PLP.part.metal>
0.0000

> <Gold.PLP.part.buried>
-4.1462

> <Gold.PLP.part.nonpolar>
-23.7895

> <Gold.PLP.part.repulsive>
0.2357

> <Gold.PLP.ligand.clash>
0.0000

> <Gold.PLP.ligand.torsion>
0.0353

> <Gold.PLP.Chemscore.Hbond>
3.0000

> <Gold.PLP.Chemscore.CHOScore>
0.0000

> <Gold.PLP.Chemscore.Metal>
0.0000

> <Gold.Chemscore.Hbonds>
donor molecule, donor type, donor heavy atom, donor atom, acceptor molecule, acceptor atom, score
      L1  H     3    24       P1  7948  1.00
      L1  H     6    25       P1  7948  1.00
      P1  H 10752 10765       L1    14  1.00

> <Gold.PLP.Chemscore.Internal.Correction>
0.0105

> <Gold.Rescore>
     Score         DG    S(hbond)    S(metal)    S(lipo)     H(rot)  DE(clash)    DE(int)     intcor
     15.63     -18.13       2.63        0.00      61.49       1.30       0.00       2.50       ----

> <Gold.Chemscore.Fitness>
15.6263

> <Gold.Chemscore.DG>
-18.1284

> <Gold.Chemscore.ZeroCoef>
-5.4800

> <Gold.Chemscore.Hbond>
2.6307

> <Gold.Chemscore.Metal>
0.0000

> <Gold.Chemscore.Lipo>
61.4876

> <Gold.Chemscore.Internal_Hbond>
0.0000

> <Gold.Chemscore.DEClash>
0.0000

> <Gold.Chemscore.DEInternal>
2.5021

> <Gold.Chemscore.Rot>
1.3016

> <Gold.Chemscore.Internal.Correction>
   9.000000E+99

> <Gold.Chemscore.Hbonds>
donor molecule, donor type, donor heavy atom, donor atom, acceptor molecule, acceptor atom, score
      L1  H     3    24       P1  7948  0.54
      L1  H     6    25       P1  7948  0.34
      P1  H 10752 10765       L1    14  0.94

> <Gold.Chemscore.Hbond.Weighted>
-8.7865

> <Gold.Chemscore.Metal.Weighted>
-0.0000

> <Gold.Chemscore.Lipo.Weighted>
-7.1940

> <Gold.Chemscore.Internal_Hbond.Weighted>
0.0000

> <Gold.Chemscore.DEClash.Weighted>
0.0000

> <Gold.Chemscore.DEInternal.Weighted>
2.5021

> <Gold.Chemscore.Rot.Weighted>
3.3322

> <Gold.Chemscore.Internal.Correction.Weighted>
   9.000000E+99

> <Gold.Protein.RotatedTorsions>
[ 6907 6896 6895 6894 ] final  145.20 input  -60.11 | X-H torsion
[ 7974 7965 7964 7962 ] final  101.00 input  175.53 | X-H torsion
[ 8008 7997 7996 7995 ] final  -65.30 input   59.86 | X-H torsion
[ 10167 10162 10161 10158 ] final  -75.13 input  -65.29 | X-H torsion
[ 10718 10713 10712 10709 ] final  178.80 input   66.30 | X-H torsion
[ 10763 10752 10751 10750 ] final -174.46 input  -60.55 | X-H torsion
[ 11005 11000 10999 10996 ] final -117.58 input  -57.11 | X-H torsion

> <Gold.Protein.ActiveResidues>
 VAL166  LYS551  ARG553  GLY616  TRP617  ASP618  TYR619  PRO620  LYS621  CYS622 
 ASP623  PHE694  ASN695  SER759  ASP760  ASP761  ALA762  ILE779  LEU786  VAL792 
 PHE793  MET794  SER795  GLU796  ALA797  LYS798  CYS799  TRP800  GLU811  SER814 

> <Gold.Protein.RotatedAtoms>
  152.1839  133.4726  159.4972 H   0  0  0  0  0  0  0  0  0  0  0  0  # atno 6907 bound_to 6896
  150.6939  134.1798  159.4253 H   0  0  0  0  0  0  0  0  0  0  0  0  # atno 6908 bound_to 6896
  151.9710  135.0076  160.0603 H   0  0  0  0  0  0  0  0  0  0  0  0  # atno 6909 bound_to 6896
  145.3782  139.2385  143.3418 H   0  0  0  0  0  0  0  0  0  0  0  0  # atno 7974 bound_to 7965
  154.4663  140.0936  156.7029 H   0  0  0  0  0  0  0  0  0  0  0  0  # atno 8008 bound_to 7997
  155.4849  140.3469  155.4327 H   0  0  0  0  0  0  0  0  0  0  0  0  # atno 8009 bound_to 7997
  156.0962  140.1410  156.9516 H   0  0  0  0  0  0  0  0  0  0  0  0  # atno 8010 bound_to 7997
  140.4968  143.2369  151.7817 H   0  0  0  0  0  0  0  0  0  0  0  0  # atno 10167 bound_to 10162
  156.8853  130.9829  151.3057 H   0  0  0  0  0  0  0  0  0  0  0  0  # atno 10718 bound_to 10713
  154.5959  135.2849  155.0586 H   0  0  0  0  0  0  0  0  0  0  0  0  # atno 10763 bound_to 10752
  154.1869  135.6447  153.5053 H   0  0  0  0  0  0  0  0  0  0  0  0  # atno 10764 bound_to 10752
  153.0138  135.5437  154.6661 H   0  0  0  0  0  0  0  0  0  0  0  0  # atno 10765 bound_to 10752
  141.0345  133.9930  157.3092 H   0  0  0  0  0  0  0  0  0  0  0  0  # atno 11005 bound_to 11000
  146.2854  140.4445  142.8760 LP  0  0  0  0  0  0  0  0  0  0  0  0  # atno 17320 bound_to 7965
  144.8527  140.7025  143.6158 LP  0  0  0  0  0  0  0  0  0  0  0  0  # atno 17321 bound_to 7965
  139.4863  144.4576  151.9580 LP  0  0  0  0  0  0  0  0  0  0  0  0  # atno 17342 bound_to 10162
  140.3663  144.2910  150.5926 LP  0  0  0  0  0  0  0  0  0  0  0  0  # atno 17343 bound_to 10162
  157.6116  130.8587  149.8961 LP  0  0  0  0  0  0  0  0  0  0  0  0  # atno 17370 bound_to 10713
  156.0656  130.3692  150.0885 LP  0  0  0  0  0  0  0  0  0  0  0  0  # atno 17371 bound_to 10713
  139.9231  135.0201  156.8136 LP  0  0  0  0  0  0  0  0  0  0  0  0  # atno 17394 bound_to 11000
  140.6347  133.9873  155.7678 LP  0  0  0  0  0  0  0  0  0  0  0  0  # atno 17395 bound_to 11000

$$$$
