#       Name:                AV-unprocessed.smi:2083
#       Creating user name   scv26
#       Creation time:       Fri Mar 27 11:22:59 2020


#       File generated by GOLD software.
#

@<TRIPOS>MOLECULE
AV-unprocessed.smi:2083
    50    51     1
SMALL
NO_CHARGES


@<TRIPOS>ATOM
      1 ****        -6.1921   5.7739  -1.9625 C.3            1 S1                 0.0000
      2 ****        -5.3806   4.5865  -1.5732 C.2            1 S1                 0.0000
      3 ****        -4.0950   4.4417  -1.1334 C.2            1 S1                 0.0000
      4 ****        -3.9750   3.0385  -0.9478 C.2            1 S1                 0.0000
      5 ****        -2.7567   2.4708  -0.4892 N.am           1 S1                 0.0000
      6 ****        -2.4710   1.1804  -0.2354 C.2            1 S1                 0.0000
      7 ****        -3.3373   0.3093  -0.3787 O.2            1 S1                 0.0000
      8 ****        -1.1833   1.0088   0.1712 N.pl3          1 S1                -1.0000
      9 ****        -0.5885  -0.2801   0.5231 C.3            1 S1                 0.0000
     10 ****         0.9596  -0.1792   0.5329 C.3            1 S1                 0.0000
     11 ****         1.5313   0.7539   1.6308 C.3            1 S1                 0.0000
     12 ****         1.5740  -1.5442   0.5515 N.4            1 S1                 1.0000
     13 ****         1.7807  -2.1545   1.8982 C.3            1 S1                 0.0000
     14 ****         2.1811  -3.6317   1.7705 C.3            1 S1                 0.0000
     15 ****         3.4443  -3.7816   0.9130 C.3            1 S1                 0.0000
     16 ****         3.2412  -3.1158  -0.4585 C.3            1 S1                 0.0000
     17 ****         4.5015  -3.2262  -1.3283 C.3            1 S1                 0.0000
     18 ****         2.8013  -1.6474  -0.2844 C.3            1 S1                 0.0000
     19 ****        -5.0880   2.3864  -1.2500 N.2            1 S1                 0.0000
     20 ****        -5.9942   3.3749  -1.6516 O.3            1 S1                 0.0000
     21 ****        -5.6140   6.6921  -1.8577 H              1 S1                 0.0000
     22 ****        -7.0782   5.8582  -1.3332 H              1 S1                 0.0000
     23 ****        -6.5182   5.6960  -2.9998 H              1 S1                 0.0000
     24 ****        -3.3602   5.2158  -0.9700 H              1 S1                 0.0000
     25 ****        -2.0025   3.1237  -0.3370 H              1 S1                 0.0000
     26 ****        -0.9317  -0.6338   1.4959 H              1 S1                 0.0000
     27 ****        -0.8747  -1.0561  -0.1889 H              1 S1                 0.0000
     28 ****         1.2250   0.2713  -0.4249 H              1 S1                 0.0000
     29 ****         1.1934   1.7839   1.5044 H              1 S1                 0.0000
     30 ****         2.6203   0.7796   1.5890 H              1 S1                 0.0000
     31 ****         1.2493   0.4444   2.6387 H              1 S1                 0.0000
     32 ****         2.5594  -1.6148   2.4389 H              1 S1                 0.0000
     33 ****         0.8717  -2.0833   2.4961 H              1 S1                 0.0000
     34 ****         2.3505  -4.0585   2.7593 H              1 S1                 0.0000
     35 ****         1.3618  -4.1973   1.3245 H              1 S1                 0.0000
     36 ****         4.2923  -3.3262   1.4265 H              1 S1                 0.0000
     37 ****         3.6853  -4.8381   0.7898 H              1 S1                 0.0000
     38 ****         2.4400  -3.6471  -0.9749 H              1 S1                 0.0000
     39 ****         5.3470  -2.7127  -0.8696 H              1 S1                 0.0000
     40 ****         4.3394  -2.7872  -2.3131 H              1 S1                 0.0000
     41 ****         4.7859  -4.2683  -1.4769 H              1 S1                 0.0000
     42 ****         2.6123  -1.2213  -1.2705 H              1 S1                 0.0000
     43 ****         3.6006  -1.0587   0.1683 H              1 S1                 0.0000
     44 ****         0.8927  -2.1269   0.0860 H              1 S1                 0.0000
     45 ****        -4.2551   0.5625  -0.6845 LP             1 S1                 0.0000
     46 ****        -3.1199  -0.6481  -0.1888 LP             1 S1                 0.0000
     47 ****        -0.6033   1.8211   0.2337 LP             1 S1                 0.0000
     48 ****        -5.2466   1.4003  -1.2016 LP             1 S1                 0.0000
     49 ****        -6.2829   3.2042  -2.5937 LP             1 S1                 0.0000
     50 ****        -6.7935   3.3629  -1.0507 LP             1 S1                 0.0000
@<TRIPOS>BOND
    1    1    2 1     
    2    1   21 1     
    3    1   22 1     
    4    1   23 1     
    5    2   20 1     
    6    2    3 2     
    7    3    4 1     
    8    3   24 1     
    9    4    5 1     
   10    4   19 2     
   11    5    6 am    
   12    5   25 1     
   13    6    7 2     
   14    6    8 1     
   15    8    9 1     
   16    9   10 1     
   17    9   26 1     
   18    9   27 1     
   19   10   11 1     
   20   10   12 1     
   21   10   28 1     
   22   11   29 1     
   23   11   30 1     
   24   11   31 1     
   25   12   18 1     
   26   12   13 1     
   27   12   44 1     
   28   13   14 1     
   29   13   32 1     
   30   13   33 1     
   31   14   15 1     
   32   14   34 1     
   33   14   35 1     
   34   15   16 1     
   35   15   36 1     
   36   15   37 1     
   37   16   17 1     
   38   16   18 1     
   39   16   38 1     
   40   17   39 1     
   41   17   40 1     
   42   17   41 1     
   43   18   42 1     
   44   18   43 1     
   45   19   20 1     
   46    7   45 1     
   47    7   46 1     
   48    8   47 1     
   49   19   48 1     
   50   20   49 1     
   51   20   50 1     
@<TRIPOS>SUBSTRUCTURE
      1 S1             1
@<TRIPOS>SET
LONE_PAIRS      STATIC     ATOMS    <user>   **** ""
6 45 46 47 48 49 50
DONOR_HYDROGENS      STATIC     ATOMS    <user>   **** ""
2 25 44
ATOM$BLUE        STATIC     ATOMS    COLORGROUP SYSTEM
6 45 46 47 48 49 50
ATOM$RED        STATIC     ATOMS    COLORGROUP SYSTEM
2 25 44
