AV-unprocessed.smi:1702|AV-procd|sdf|6850|dock5
  -GOLD-   22720 8 33D 1   1.00000     0.00000
 Structure written by MMmdl.
 45 47  0  0  0  0  0  0  0  0  3 V2000
  146.9031  133.4245  154.7724 C   0  0  0  0  0  0  0  0  0  0  0  0
  147.9498  134.4945  155.1142 C   0  0  2  0  0  0  0  0  0  0  0  0
  147.4259  135.9129  154.8342 C   0  0  0  0  0  0  0  0  0  0  0  0
  148.4934  136.9749  155.1469 C   0  0  0  0  0  0  0  0  0  0  0  0
  149.7400  136.7242  154.3787 N   0  3  1  0  0  0  0  0  0  0  0  0
  150.7358  137.8143  154.5461 C   0  0  0  0  0  0  0  0  0  0  0  0
  150.8013  138.3407  155.9939 C   0  0  1  0  0  0  0  0  0  0  0  0
  151.1106  137.2643  156.8589 O   0  0  0  0  0  0  0  0  0  0  0  0
  151.8676  139.4432  156.1548 C   0  0  0  0  0  0  0  0  0  0  0  0
  151.2932  140.7525  156.4941 N   0  0  0  0  0  0  0  0  0  0  0  0
  150.3690  141.5016  155.8325 C   0  0  0  0  0  0  0  0  0  0  0  0
  150.1688  142.6393  156.5542 N   0  3  0  0  0  0  0  0  0  0  0  0
  150.9752  142.6166  157.6944 C   0  0  0  0  0  0  0  0  0  0  0  0
  151.1237  143.5387  158.7255 C   0  0  0  0  0  0  0  0  0  0  0  0
  152.0399  143.2084  159.7458 C   0  0  0  0  0  0  0  0  0  0  0  0
  152.2258  144.0723  160.7716 F   0  0  0  0  0  0  0  0  0  0  0  0
  152.7654  141.9983  159.7172 C   0  0  0  0  0  0  0  0  0  0  0  0
  153.6361  141.7199  160.7162 F   0  0  0  0  0  0  0  0  0  0  0  0
  152.6042  141.0697  158.6675 C   0  0  0  0  0  0  0  0  0  0  0  0
  151.6989  141.4063  157.6624 C   0  0  0  0  0  0  0  0  0  0  0  0
  150.2906  135.3728  154.6649 C   0  0  0  0  0  0  0  0  0  0  0  0
  149.2617  134.2764  154.3410 C   0  0  0  0  0  0  0  0  0  0  0  0
  146.6425  133.4471  153.7139 H   0  0  0  0  0  0  0  0  0  0  0  0
  145.9869  133.5748  155.3440 H   0  0  0  0  0  0  0  0  0  0  0  0
  147.2738  132.4253  155.0022 H   0  0  0  0  0  0  0  0  0  0  0  0
  148.1667  134.4169  156.1807 H   0  0  0  0  0  0  0  0  0  0  0  0
  147.1244  135.9976  153.7890 H   0  0  0  0  0  0  0  0  0  0  0  0
  146.5324  136.1058  155.4289 H   0  0  0  0  0  0  0  0  0  0  0  0
  148.0969  137.9600  154.8973 H   0  0  0  0  0  0  0  0  0  0  0  0
  148.7173  136.9836  156.2150 H   0  0  0  0  0  0  0  0  0  0  0  0
  151.7279  137.4564  154.2654 H   0  0  0  0  0  0  0  0  0  0  0  0
  150.5008  138.6238  153.8533 H   0  0  0  0  0  0  0  0  0  0  0  0
  149.8352  138.7443  156.2938 H   0  0  0  0  0  0  0  0  0  0  0  0
  150.3057  136.8428  157.1201 H   0  0  0  0  0  0  0  0  0  0  0  0
  152.5694  139.1798  156.9476 H   0  0  0  0  0  0  0  0  0  0  0  0
  152.4579  139.5522  155.2440 H   0  0  0  0  0  0  0  0  0  0  0  0
  149.8842  141.2430  154.9018 H   0  0  0  0  0  0  0  0  0  0  0  0
  150.5701  144.4658  158.7520 H   0  0  0  0  0  0  0  0  0  0  0  0
  153.1631  140.1463  158.6568 H   0  0  0  0  0  0  0  0  0  0  0  0
  151.1907  135.1955  154.0778 H   0  0  0  0  0  0  0  0  0  0  0  0
  150.5832  135.3121  155.7144 H   0  0  0  0  0  0  0  0  0  0  0  0
  149.6797  133.2987  154.5837 H   0  0  0  0  0  0  0  0  0  0  0  0
  149.0635  134.2695  153.2682 H   0  0  0  0  0  0  0  0  0  0  0  0
  149.4731  136.7343  153.4042 H   0  0  0  0  0  0  0  0  0  0  0  0
  149.5284  143.3756  156.2853 H   0  0  0  0  0  0  0  0  0  0  0  0
  1  2  1  0  0  0  0
  1 23  1  0  0  0  0
  1 24  1  0  0  0  0
  1 25  1  0  0  0  0
  2 22  1  0  0  0  0
  2  3  1  0  0  0  0
  2 26  1  0  0  0  0
  3  4  1  0  0  0  0
  3 27  1  0  0  0  0
  3 28  1  0  0  0  0
  4  5  1  0  0  0  0
  4 29  1  0  0  0  0
  4 30  1  0  0  0  0
  5  6  1  0  0  0  0
  5 21  1  0  0  0  0
  5 44  1  0  0  0  0
  6  7  1  0  0  0  0
  6 31  1  0  0  0  0
  6 32  1  0  0  0  0
  7  8  1  0  0  0  0
  7  9  1  0  0  0  0
  7 33  1  0  0  0  0
  8 34  1  0  0  0  0
  9 10  1  0  0  0  0
  9 35  1  0  0  0  0
  9 36  1  0  0  0  0
 10 20  1  0  0  0  0
 10 11  1  0  0  0  0
 11 12  2  0  0  0  0
 11 37  1  0  0  0  0
 12 13  1  0  0  0  0
 12 45  1  0  0  0  0
 13 20  2  0  0  0  0
 13 14  1  0  0  0  0
 14 15  2  0  0  0  0
 14 38  1  0  0  0  0
 15 16  1  0  0  0  0
 15 17  1  0  0  0  0
 17 18  1  0  0  0  0
 17 19  2  0  0  0  0
 19 20  1  0  0  0  0
 19 39  1  0  0  0  0
 21 22  1  0  0  0  0
 21 40  1  0  0  0  0
 21 41  1  0  0  0  0
 22 42  1  0  0  0  0
 22 43  1  0  0  0  0
M  CHG  1   5   1
M  CHG  1  12   1
M  END
> <s_m_source_file>
AV-unprocessed.smi

> <i_m_source_file_index>
1702

> <i_lp_mmshare_version>
43012

> <i_f3d_flags>
0

> <s_epik_input>
W0NIM11bQ0hdMVtDSDJdW0NIMl1OKFtDSDJdW0NIMl0xKVtDSDJdW0NASF0oW09IXSlbQ0gyXW4oW2NIXW4yKWMoYzIzKVtjSF1jKEYpYyhGKVtjSF0z

> <s_epik_cmdline>
J2VwaWtfcHl0aG9uJywgJy1waCcsICc3LjAnLCAnLXRuJywgJzgnLCAnLW1hJywgJzIwMCcsICctbWV0YWxfYmluZGluZycsICctaW1hZScsICc8aW5maWxlLm1hZT4nLCAnLW9tYWUnLCAnPG91dGZpbGUubWFlPic=

> <r_epik_Ionization_Penalty>
2.33291

> <r_epik_Ionization_Penalty_Charging>
2.33291

> <r_epik_Ionization_Penalty_Neutral>
6.90208e-07

> <r_epik_State_Penalty>
2.4838

> <r_epik_Charging_Adjusted_Penalty>
4.81672

> <i_epik_Tot_Q>
2

> <i_epik_Tot_abs_Q>
2

> <r_epik_Metal_State_Penalty>
6.56754

> <b_epik_Metal_Only>
0

> <s_lp_Force_Field>
OPLS_2005

> <r_lp_Energy>
29.8556

> <b_lp_Chiralities_Consistent>
1

> <s_lp_Variant>
AV-unprocessed.smi:1702-6

> <Gold.Version>
5.8.1

> <Gold.Id.Protein>
6NUR|6NUR_protein|mol2

> <Gold.PLP.Fitness>
52.6199

> <Gold.PLP.PLP>
-42.5881

> <Gold.PLP.part.hbond>
-2.2200

> <Gold.PLP.part.metal>
0.0000

> <Gold.PLP.part.buried>
-5.0548

> <Gold.PLP.part.nonpolar>
-35.4873

> <Gold.PLP.part.repulsive>
0.1290

> <Gold.PLP.ligand.clash>
0.0000

> <Gold.PLP.ligand.torsion>
0.9990

> <Gold.PLP.Chemscore.Hbond>
4.0000

> <Gold.PLP.Chemscore.CHOScore>
0.0000

> <Gold.PLP.Chemscore.Metal>
0.0000

> <Gold.Chemscore.Hbonds>
donor molecule, donor type, donor heavy atom, donor atom, acceptor molecule, acceptor atom, score
      L1  H     5    44       P1  7948  2.00
      L1  H    12    45       P1  8028  2.00

> <Gold.PLP.Chemscore.Internal.Correction>
0.0299

> <Gold.Rescore>
     Score         DG    S(hbond)    S(metal)    S(lipo)     H(rot)  DE(clash)    DE(int)     intcor
     15.78     -16.90       1.94        0.00      93.01       2.32       0.02       1.10       ----

> <Gold.Chemscore.Fitness>
15.7795

> <Gold.Chemscore.DG>
-16.8982

> <Gold.Chemscore.ZeroCoef>
-5.4800

> <Gold.Chemscore.Hbond>
1.9393

> <Gold.Chemscore.Metal>
0.0000

> <Gold.Chemscore.Lipo>
93.0127

> <Gold.Chemscore.Internal_Hbond>
0.0000

> <Gold.Chemscore.DEClash>
0.0219

> <Gold.Chemscore.DEInternal>
1.0968

> <Gold.Chemscore.Rot>
2.3210

> <Gold.Chemscore.Internal.Correction>
   9.000000E+99

> <Gold.Chemscore.Hbonds>
donor molecule, donor type, donor heavy atom, donor atom, acceptor molecule, acceptor atom, score
      L1  H     5    44       P1  7948  0.82
      L1  H    12    45       P1  8028  0.99

> <Gold.Chemscore.Hbond.Weighted>
-6.4773

> <Gold.Chemscore.Metal.Weighted>
-0.0000

> <Gold.Chemscore.Lipo.Weighted>
-10.8825

> <Gold.Chemscore.Internal_Hbond.Weighted>
0.0000

> <Gold.Chemscore.DEClash.Weighted>
0.0219

> <Gold.Chemscore.DEInternal.Weighted>
1.0968

> <Gold.Chemscore.Rot.Weighted>
5.9416

> <Gold.Chemscore.Internal.Correction.Weighted>
   9.000000E+99

> <Gold.Protein.RotatedTorsions>
[ 6907 6896 6895 6894 ] final -145.41 input  -60.11 | X-H torsion
[ 7974 7965 7964 7962 ] final -178.73 input  175.53 | X-H torsion
[ 8008 7997 7996 7995 ] final -152.77 input   59.86 | X-H torsion
[ 10167 10162 10161 10158 ] final  102.85 input  -65.29 | X-H torsion
[ 10718 10713 10712 10709 ] final   26.67 input   66.30 | X-H torsion
[ 10763 10752 10751 10750 ] final  135.46 input  -60.55 | X-H torsion
[ 11005 11000 10999 10996 ] final  -37.69 input  -57.11 | X-H torsion

> <Gold.Protein.ActiveResidues>
 VAL166  LYS551  ARG553  GLY616  TRP617  ASP618  TYR619  PRO620  LYS621  CYS622 
 ASP623  PHE694  ASN695  SER759  ASP760  ASP761  ALA762  ILE779  LEU786  VAL792 
 PHE793  MET794  SER795  GLU796  ALA797  LYS798  CYS799  TRP800  GLU811  SER814 

> <Gold.Protein.RotatedAtoms>
  151.1274  133.5061  159.2599 H   0  0  0  0  0  0  0  0  0  0  0  0  # atno 6907 bound_to 6896
  151.1795  135.0354  159.8796 H   0  0  0  0  0  0  0  0  0  0  0  0  # atno 6908 bound_to 6896
  152.5458  134.1128  159.8419 H   0  0  0  0  0  0  0  0  0  0  0  0  # atno 6909 bound_to 6896
  144.7132  140.0825  143.6425 H   0  0  0  0  0  0  0  0  0  0  0  0  # atno 7974 bound_to 7965
  155.6604  140.0722  157.2556 H   0  0  0  0  0  0  0  0  0  0  0  0  # atno 8008 bound_to 7997
  154.4143  140.1717  156.1821 H   0  0  0  0  0  0  0  0  0  0  0  0  # atno 8009 bound_to 7997
  155.9702  140.3362  155.6572 H   0  0  0  0  0  0  0  0  0  0  0  0  # atno 8010 bound_to 7997
  139.7314  144.7035  151.0717 H   0  0  0  0  0  0  0  0  0  0  0  0  # atno 10167 bound_to 10162
  157.2099  130.6929  149.6224 H   0  0  0  0  0  0  0  0  0  0  0  0  # atno 10718 bound_to 10713
  153.8403  135.3092  155.3425 H   0  0  0  0  0  0  0  0  0  0  0  0  # atno 10763 bound_to 10752
  154.7935  135.4769  154.0110 H   0  0  0  0  0  0  0  0  0  0  0  0  # atno 10764 bound_to 10752
  153.1580  135.6855  153.8876 H   0  0  0  0  0  0  0  0  0  0  0  0  # atno 10765 bound_to 10752
  140.9971  133.6974  156.1954 H   0  0  0  0  0  0  0  0  0  0  0  0  # atno 11005 bound_to 11000
  145.9690  139.2856  143.1110 LP  0  0  0  0  0  0  0  0  0  0  0  0  # atno 17320 bound_to 7965
  145.9137  140.9162  143.0440 LP  0  0  0  0  0  0  0  0  0  0  0  0  # atno 17321 bound_to 7965
  140.7772  143.5039  150.9736 LP  0  0  0  0  0  0  0  0  0  0  0  0  # atno 17342 bound_to 10162
  139.8727  143.7172  152.3165 LP  0  0  0  0  0  0  0  0  0  0  0  0  # atno 17343 bound_to 10162
  155.9691  130.4554  150.5888 LP  0  0  0  0  0  0  0  0  0  0  0  0  # atno 17370 bound_to 10713
  157.3683  131.0761  151.1579 LP  0  0  0  0  0  0  0  0  0  0  0  0  # atno 17371 bound_to 10713
  140.6948  134.4627  157.5588 LP  0  0  0  0  0  0  0  0  0  0  0  0  # atno 17394 bound_to 11000
  139.9020  134.8534  156.1857 LP  0  0  0  0  0  0  0  0  0  0  0  0  # atno 17395 bound_to 11000

$$$$
