AV-unprocessed.smi:1033|AV-procd|sdf|4494|dock4
  -GOLD-   22720 2483D 1   1.00000     0.00000
 Structure written by MMmdl.
 56 58  0  0  0  0  0  0  0  0  2 V2000
  152.9923  143.5592  161.5339 C   0  0  0  0  0  0  0  0  0  0  0  0
  152.5569  142.9179  160.2280 C   0  0  0  0  0  0  0  0  0  0  0  0
  152.9994  141.6113  159.9234 C   0  0  0  0  0  0  0  0  0  0  0  0
  152.6029  140.9727  158.7284 C   0  0  0  0  0  0  0  0  0  0  0  0
  152.8864  139.7049  158.2524 N   0  0  0  0  0  0  0  0  0  0  0  0
  152.1938  139.6835  157.1176 C   0  0  0  0  0  0  0  0  0  0  0  0
  151.4861  140.7861  156.8057 N   0  0  0  0  0  0  0  0  0  0  0  0
  150.6289  140.9668  155.6475 C   0  0  0  0  0  0  0  0  0  0  0  0
  150.1493  139.6236  155.0570 C   0  0  2  0  0  0  0  0  0  0  0  0
  150.3385  139.6865  153.6589 O   0  0  0  0  0  0  0  0  0  0  0  0
  148.6554  139.3211  155.3323 C   0  0  0  0  0  0  0  0  0  0  0  0
  147.7386  139.5699  154.2126 N   0  0  0  0  0  0  0  0  0  0  0  0
  146.4272  138.9309  154.3448 C   0  0  0  0  0  0  0  0  0  0  0  0
  145.5423  139.5513  155.4455 C   0  0  0  0  0  0  0  0  0  0  0  0
  145.3806  141.0180  155.2606 N   0  3  0  0  0  0  0  0  0  0  0  0
  144.5984  141.6647  156.3475 C   0  0  0  0  0  0  0  0  0  0  0  0
  144.3081  143.1604  156.1078 C   0  0  2  0  0  0  0  0  0  0  0  0
  144.2302  143.9762  157.4065 C   0  0  0  0  0  0  0  0  0  0  0  0
  143.0639  143.2651  155.4487 O   0  0  0  0  0  0  0  0  0  0  0  0
  146.6982  141.6824  155.0779 C   0  0  0  0  0  0  0  0  0  0  0  0
  147.5210  140.9947  153.9692 C   0  0  0  0  0  0  0  0  0  0  0  0
  151.7454  141.6829  157.8374 C   0  0  0  0  0  0  0  0  0  0  0  0
  151.3163  142.9922  158.1199 C   0  0  0  0  0  0  0  0  0  0  0  0
  151.7163  143.6125  159.3217 C   0  0  0  0  0  0  0  0  0  0  0  0
  151.2299  145.0178  159.6275 C   0  0  0  0  0  0  0  0  0  0  0  0
  153.6166  142.8845  162.1207 H   0  0  0  0  0  0  0  0  0  0  0  0
  152.1245  143.8221  162.1394 H   0  0  0  0  0  0  0  0  0  0  0  0
  153.5681  144.4647  161.3408 H   0  0  0  0  0  0  0  0  0  0  0  0
  153.6416  141.0821  160.6122 H   0  0  0  0  0  0  0  0  0  0  0  0
  152.1844  138.8083  156.4843 H   0  0  0  0  0  0  0  0  0  0  0  0
  149.7791  141.5898  155.9294 H   0  0  0  0  0  0  0  0  0  0  0  0
  151.1918  141.5283  154.9001 H   0  0  0  0  0  0  0  0  0  0  0  0
  150.7913  138.8253  155.4284 H   0  0  0  0  0  0  0  0  0  0  0  0
  149.5087  139.8848  153.2519 H   0  0  0  0  0  0  0  0  0  0  0  0
  148.5489  138.2908  155.6622 H   0  0  0  0  0  0  0  0  0  0  0  0
  148.3358  139.9096  156.1939 H   0  0  0  0  0  0  0  0  0  0  0  0
  145.9019  139.0083  153.3919 H   0  0  0  0  0  0  0  0  0  0  0  0
  146.5377  137.8628  154.5279 H   0  0  0  0  0  0  0  0  0  0  0  0
  144.5718  139.0577  155.4231 H   0  0  0  0  0  0  0  0  0  0  0  0
  145.9629  139.3661  156.4278 H   0  0  0  0  0  0  0  0  0  0  0  0
  143.6611  141.1205  156.4794 H   0  0  0  0  0  0  0  0  0  0  0  0
  145.1472  141.5609  157.2853 H   0  0  0  0  0  0  0  0  0  0  0  0
  145.0504  143.5989  155.4417 H   0  0  0  0  0  0  0  0  0  0  0  0
  145.1821  143.9663  157.9378 H   0  0  0  0  0  0  0  0  0  0  0  0
  143.4683  143.5820  158.0799 H   0  0  0  0  0  0  0  0  0  0  0  0
  143.9836  145.0181  157.2003 H   0  0  0  0  0  0  0  0  0  0  0  0
  143.1528  142.9205  154.5728 H   0  0  0  0  0  0  0  0  0  0  0  0
  146.5399  142.7279  154.8114 H   0  0  0  0  0  0  0  0  0  0  0  0
  147.2474  141.6830  156.0204 H   0  0  0  0  0  0  0  0  0  0  0  0
  148.4804  141.5006  153.8539 H   0  0  0  0  0  0  0  0  0  0  0  0
  147.0054  141.1188  153.0158 H   0  0  0  0  0  0  0  0  0  0  0  0
  150.6667  143.5064  157.4270 H   0  0  0  0  0  0  0  0  0  0  0  0
  150.6075  145.4077  158.8215 H   0  0  0  0  0  0  0  0  0  0  0  0
  152.0748  145.6952  159.7539 H   0  0  0  0  0  0  0  0  0  0  0  0
  150.6372  145.0271  160.5428 H   0  0  0  0  0  0  0  0  0  0  0  0
  144.8682  141.1524  154.4006 H   0  0  0  0  0  0  0  0  0  0  0  0
  1  2  1  0  0  0  0
  1 26  1  0  0  0  0
  1 27  1  0  0  0  0
  1 28  1  0  0  0  0
  2 24  1  0  0  0  0
  2  3  2  0  0  0  0
  3  4  1  0  0  0  0
  3 29  1  0  0  0  0
  4 22  2  0  0  0  0
  4  5  1  0  0  0  0
  5  6  2  0  0  0  0
  6  7  1  0  0  0  0
  6 30  1  0  0  0  0
  7  8  1  0  0  0  0
  7 22  1  0  0  0  0
  8  9  1  0  0  0  0
  8 31  1  0  0  0  0
  8 32  1  0  0  0  0
  9 10  1  0  0  0  0
  9 11  1  0  0  0  0
  9 33  1  0  0  0  0
 10 34  1  0  0  0  0
 11 12  1  0  0  0  0
 11 35  1  0  0  0  0
 11 36  1  0  0  0  0
 12 21  1  0  0  0  0
 12 13  1  0  0  0  0
 13 14  1  0  0  0  0
 13 37  1  0  0  0  0
 13 38  1  0  0  0  0
 14 15  1  0  0  0  0
 14 39  1  0  0  0  0
 14 40  1  0  0  0  0
 15 16  1  0  0  0  0
 15 20  1  0  0  0  0
 15 56  1  0  0  0  0
 16 17  1  0  0  0  0
 16 41  1  0  0  0  0
 16 42  1  0  0  0  0
 17 18  1  0  0  0  0
 17 19  1  0  0  0  0
 17 43  1  0  0  0  0
 18 44  1  0  0  0  0
 18 45  1  0  0  0  0
 18 46  1  0  0  0  0
 19 47  1  0  0  0  0
 20 21  1  0  0  0  0
 20 48  1  0  0  0  0
 20 49  1  0  0  0  0
 21 50  1  0  0  0  0
 21 51  1  0  0  0  0
 22 23  1  0  0  0  0
 23 24  2  0  0  0  0
 23 52  1  0  0  0  0
 24 25  1  0  0  0  0
 25 53  1  0  0  0  0
 25 54  1  0  0  0  0
 25 55  1  0  0  0  0
M  CHG  1  15   1
M  END
> <s_m_source_file>
AV-unprocessed.smi

> <i_m_source_file_index>
1033

> <i_lp_mmshare_version>
43012

> <i_f3d_flags>
0

> <s_epik_input>
W0NIM11jKFtjSF0xKWMoW0NIM10pW2NIXWMoYzEyKW4oW2NIXW4yKVtDSDJdW0NASF0oW09IXSlbQ0gyXU4zW0NIMl1bQ0gyXU4oW0NIMl1bQ0gyXTMpW0NIMl1bQ0BIXShbQ0gzXSlbT0hd

> <s_epik_cmdline>
J2VwaWtfcHl0aG9uJywgJy1waCcsICc3LjAnLCAnLXRuJywgJzgnLCAnLW1hJywgJzIwMCcsICctbWV0YWxfYmluZGluZycsICctaW1hZScsICc8aW5maWxlLm1hZT4nLCAnLW9tYWUnLCAnPG91dGZpbGUubWFlPic=

> <r_epik_Ionization_Penalty>
0.129152

> <r_epik_Ionization_Penalty_Charging>
0.00083231

> <r_epik_Ionization_Penalty_Neutral>
0.128319

> <r_epik_State_Penalty>
0.556973

> <r_epik_Charging_Adjusted_Penalty>
0.557805

> <i_epik_Tot_Q>
1

> <i_epik_Tot_abs_Q>
1

> <r_epik_Metal_State_Penalty>
0.490047

> <b_epik_Metal_Only>
0

> <s_lp_Force_Field>
OPLS_2005

> <r_lp_Energy>
33.6507

> <b_lp_Chiralities_Consistent>
1

> <s_lp_Variant>
AV-unprocessed.smi:1033-5

> <Gold.Version>
5.8.1

> <Gold.Id.Protein>
6NUR|6NUR_protein|mol2

> <Gold.PLP.Fitness>
53.9832

> <Gold.PLP.PLP>
-45.2301

> <Gold.PLP.part.hbond>
-4.0000

> <Gold.PLP.part.metal>
0.0000

> <Gold.PLP.part.buried>
-4.6286

> <Gold.PLP.part.nonpolar>
-36.8685

> <Gold.PLP.part.repulsive>
0.1525

> <Gold.PLP.ligand.clash>
0.0000

> <Gold.PLP.ligand.torsion>
2.1106

> <Gold.PLP.Chemscore.Hbond>
4.2862

> <Gold.PLP.Chemscore.CHOScore>
0.0000

> <Gold.PLP.Chemscore.Metal>
0.0000

> <Gold.Chemscore.Hbonds>
donor molecule, donor type, donor heavy atom, donor atom, acceptor molecule, acceptor atom, score
      L1  H    10    34       P1  7957  0.23
      L1  H    15    56       P1 10175  0.46
      P1  H  7989  7998       L1    10  0.90

> <Gold.PLP.Chemscore.Internal.Correction>
0.1155

> <Gold.Rescore>
     Score         DG    S(hbond)    S(metal)    S(lipo)     H(rot)  DE(clash)    DE(int)     intcor
     16.42     -19.32       2.21        0.00     122.27       3.07       0.63       2.28       ----

> <Gold.Chemscore.Fitness>
16.4153

> <Gold.Chemscore.DG>
-19.3240

> <Gold.Chemscore.ZeroCoef>
-5.4800

> <Gold.Chemscore.Hbond>
2.2110

> <Gold.Chemscore.Metal>
0.0000

> <Gold.Chemscore.Lipo>
122.2698

> <Gold.Chemscore.Internal_Hbond>
0.0000

> <Gold.Chemscore.DEClash>
0.6309

> <Gold.Chemscore.DEInternal>
2.2777

> <Gold.Chemscore.Rot>
3.0650

> <Gold.Chemscore.Internal.Correction>
   9.000000E+99

> <Gold.Chemscore.Hbonds>
donor molecule, donor type, donor heavy atom, donor atom, acceptor molecule, acceptor atom, score
      L1  H    10    34       P1  7957  0.21
      L1  H    15    56       P1 10175  0.19
      L1  H    19    47       P1 10174  0.01
      P1  H  7989  7998       L1    10  0.37

> <Gold.Chemscore.Hbond.Weighted>
-7.3849

> <Gold.Chemscore.Metal.Weighted>
-0.0000

> <Gold.Chemscore.Lipo.Weighted>
-14.3056

> <Gold.Chemscore.Internal_Hbond.Weighted>
0.0000

> <Gold.Chemscore.DEClash.Weighted>
0.6309

> <Gold.Chemscore.DEInternal.Weighted>
2.2777

> <Gold.Chemscore.Rot.Weighted>
7.8465

> <Gold.Chemscore.Internal.Correction.Weighted>
   9.000000E+99

> <Gold.Protein.RotatedTorsions>
[ 6907 6896 6895 6894 ] final   75.09 input  -60.11 | X-H torsion
[ 7974 7965 7964 7962 ] final  -37.08 input  175.53 | X-H torsion
[ 8008 7997 7996 7995 ] final   58.44 input   59.86 | X-H torsion
[ 10167 10162 10161 10158 ] final   87.85 input  -65.29 | X-H torsion
[ 10718 10713 10712 10709 ] final  175.26 input   66.30 | X-H torsion
[ 10763 10752 10751 10750 ] final   41.81 input  -60.55 | X-H torsion
[ 11005 11000 10999 10996 ] final  113.41 input  -57.11 | X-H torsion

> <Gold.Protein.ActiveResidues>
 VAL166  LYS551  ARG553  GLY616  TRP617  ASP618  TYR619  PRO620  LYS621  CYS622 
 ASP623  PHE694  ASN695  SER759  ASP760  ASP761  ALA762  ILE779  LEU786  VAL792 
 PHE793  MET794  SER795  GLU796  ALA797  LYS798  CYS799  TRP800  GLU811  SER814 

> <Gold.Protein.RotatedAtoms>
  152.5009  134.4173  159.9468 H   0  0  0  0  0  0  0  0  0  0  0  0  # atno 6907 bound_to 6896
  151.4144  133.3711  159.2756 H   0  0  0  0  0  0  0  0  0  0  0  0  # atno 6908 bound_to 6896
  150.9268  134.8706  159.7584 H   0  0  0  0  0  0  0  0  0  0  0  0  # atno 6909 bound_to 6896
  146.0606  140.6354  142.8999 H   0  0  0  0  0  0  0  0  0  0  0  0  # atno 7974 bound_to 7965
  155.5500  140.3486  155.4466 H   0  0  0  0  0  0  0  0  0  0  0  0  # atno 8008 bound_to 7997
  156.0590  140.1335  156.9989 H   0  0  0  0  0  0  0  0  0  0  0  0  # atno 8009 bound_to 7997
  154.4470  140.0989  156.6473 H   0  0  0  0  0  0  0  0  0  0  0  0  # atno 8010 bound_to 7997
  139.8732  144.6481  150.8925 H   0  0  0  0  0  0  0  0  0  0  0  0  # atno 10167 bound_to 10162
  156.9374  130.9990  151.2975 H   0  0  0  0  0  0  0  0  0  0  0  0  # atno 10718 bound_to 10713
  152.9898  135.6150  154.2848 H   0  0  0  0  0  0  0  0  0  0  0  0  # atno 10763 bound_to 10752
  154.2576  135.2783  155.2793 H   0  0  0  0  0  0  0  0  0  0  0  0  # atno 10764 bound_to 10752
  154.5234  135.5808  153.6757 H   0  0  0  0  0  0  0  0  0  0  0  0  # atno 10765 bound_to 10752
  139.8952  134.9549  156.6734 H   0  0  0  0  0  0  0  0  0  0  0  0  # atno 11005 bound_to 11000
  144.7172  140.4252  143.7035 LP  0  0  0  0  0  0  0  0  0  0  0  0  # atno 17320 bound_to 7965
  145.6567  139.1574  143.2831 LP  0  0  0  0  0  0  0  0  0  0  0  0  # atno 17321 bound_to 7965
  140.7757  143.3646  151.1763 LP  0  0  0  0  0  0  0  0  0  0  0  0  # atno 17342 bound_to 10162
  139.7264  143.9141  152.3004 LP  0  0  0  0  0  0  0  0  0  0  0  0  # atno 17343 bound_to 10162
  157.5807  130.8374  149.8519 LP  0  0  0  0  0  0  0  0  0  0  0  0  # atno 17370 bound_to 10713
  156.0420  130.3737  150.1413 LP  0  0  0  0  0  0  0  0  0  0  0  0  # atno 17371 bound_to 10713
  140.7355  133.9022  155.8241 LP  0  0  0  0  0  0  0  0  0  0  0  0  # atno 17394 bound_to 11000
  141.0119  134.1009  157.4212 LP  0  0  0  0  0  0  0  0  0  0  0  0  # atno 17395 bound_to 11000

$$$$
