AV-unprocessed.smi:36|AV-procd|sdf|294|dock5
  -GOLD-   2262016 83D 1   1.00000     0.00000
 Structure written by MMmdl.
 64 67  0  0  0  0  0  0  0  0  1 V2000
  155.4279  133.1094  163.0249 C   0  0  0  0  0  0  0  0  0  0  0  0
  155.9048  132.6886  164.4249 C   0  0  0  0  0  0  0  0  0  0  0  0
  155.3227  133.6396  165.4838 C   0  0  0  0  0  0  0  0  0  0  0  0
  155.4559  131.2468  164.7214 C   0  0  0  0  0  0  0  0  0  0  0  0
  157.8125  132.7651  164.4960 Si  0  0  0  0  0  0  0  0  0  0  0  0
  158.4392  132.1895  166.1978 C   0  0  0  0  0  0  0  0  0  0  0  0
  158.5957  131.6919  163.1389 C   0  0  0  0  0  0  0  0  0  0  0  0
  158.2642  134.3736  164.2107 O   0  0  0  0  0  0  0  0  0  0  0  0
  159.4920  134.9543  164.6023 C   0  0  0  0  0  0  0  0  0  0  0  0
  159.3994  136.4709  164.3927 C   0  0  1  0  0  0  0  0  0  0  0  0
  158.0338  136.8642  164.2799 O   0  0  0  0  0  0  0  0  0  0  0  0
  157.8396  138.1188  164.8570 C   0  0  2  0  0  0  0  0  0  0  0  0
  157.2315  139.0271  163.8371 N   0  0  0  0  0  0  0  0  0  0  0  0
  157.6081  140.2931  163.5796 C   0  0  0  0  0  0  0  0  0  0  0  0
  156.9094  140.9165  162.6347 N   0  0  0  0  0  0  0  0  0  0  0  0
  155.9877  139.9484  162.2502 C   0  0  0  0  0  0  0  0  0  0  0  0
  154.9117  140.0046  161.2367 C   0  0  0  0  0  0  0  0  0  0  0  0
  154.7705  141.1092  160.5690 N   0  0  0  0  0  0  0  0  0  0  0  0
  153.7850  141.2161  159.5959 C   0  0  0  0  0  0  0  0  0  0  0  0
  153.4468  140.3881  158.7454 O   0  0  0  0  0  0  0  0  0  0  0  0
  153.0156  142.4958  159.6714 C   0  0  0  0  0  0  0  0  0  0  0  0
  152.2960  142.9593  158.5491 C   0  0  0  0  0  0  0  0  0  0  0  0
  151.5753  144.1675  158.6213 C   0  0  0  0  0  0  0  0  0  0  0  0
  151.5701  144.9151  159.8146 C   0  0  0  0  0  0  0  0  0  0  0  0
  152.2868  144.4553  160.9363 C   0  0  0  0  0  0  0  0  0  0  0  0
  153.0099  143.2486  160.8650 C   0  0  0  0  0  0  0  0  0  0  0  0
  154.2269  138.7832  161.2012 N   0  0  0  0  0  0  0  0  0  0  0  0
  154.5061  137.6602  161.9945 C   0  0  0  0  0  0  0  0  0  0  0  0
  155.4569  137.5958  162.8875 N   0  0  0  0  0  0  0  0  0  0  0  0
  156.1668  138.7859  162.9693 C   0  0  0  0  0  0  0  0  0  0  0  0
  159.2076  138.6257  165.3090 C   0  0  0  0  0  0  0  0  0  0  0  0
  159.9251  137.3147  165.5558 C   0  0  2  0  0  0  0  0  0  0  0  0
  161.3260  137.4885  165.5080 O   0  0  0  0  0  0  0  0  0  0  0  0
  154.3405  133.0759  162.9506 H   0  0  0  0  0  0  0  0  0  0  0  0
  155.8294  132.4513  162.2538 H   0  0  0  0  0  0  0  0  0  0  0  0
  155.7426  134.1259  162.7872 H   0  0  0  0  0  0  0  0  0  0  0  0
  155.6152  134.6727  165.2948 H   0  0  0  0  0  0  0  0  0  0  0  0
  155.6688  133.3775  166.4841 H   0  0  0  0  0  0  0  0  0  0  0  0
  154.2329  133.6042  165.4924 H   0  0  0  0  0  0  0  0  0  0  0  0
  154.3692  131.1577  164.7070 H   0  0  0  0  0  0  0  0  0  0  0  0
  155.7999  130.9197  165.7033 H   0  0  0  0  0  0  0  0  0  0  0  0
  155.8515  130.5450  163.9869 H   0  0  0  0  0  0  0  0  0  0  0  0
  158.2340  131.1315  166.3586 H   0  0  0  0  0  0  0  0  0  0  0  0
  157.9605  132.7340  167.0110 H   0  0  0  0  0  0  0  0  0  0  0  0
  159.5150  132.3272  166.3011 H   0  0  0  0  0  0  0  0  0  0  0  0
  158.3129  130.6447  163.2426 H   0  0  0  0  0  0  0  0  0  0  0  0
  159.6839  131.7394  163.1724 H   0  0  0  0  0  0  0  0  0  0  0  0
  158.2889  132.0157  162.1447 H   0  0  0  0  0  0  0  0  0  0  0  0
  159.7453  134.7052  165.6332 H   0  0  0  0  0  0  0  0  0  0  0  0
  160.2735  134.5348  163.9685 H   0  0  0  0  0  0  0  0  0  0  0  0
  159.9217  136.7540  163.4774 H   0  0  0  0  0  0  0  0  0  0  0  0
  157.1103  138.0502  165.6656 H   0  0  0  0  0  0  0  0  0  0  0  0
  158.4205  140.7746  164.1037 H   0  0  0  0  0  0  0  0  0  0  0  0
  152.2955  142.3922  157.6293 H   0  0  0  0  0  0  0  0  0  0  0  0
  151.0264  144.5208  157.7610 H   0  0  0  0  0  0  0  0  0  0  0  0
  151.0166  145.8408  159.8692 H   0  0  0  0  0  0  0  0  0  0  0  0
  152.2833  145.0289  161.8514 H   0  0  0  0  0  0  0  0  0  0  0  0
  153.5582  142.9036  161.7298 H   0  0  0  0  0  0  0  0  0  0  0  0
  153.8485  136.8099  161.8078 H   0  0  0  0  0  0  0  0  0  0  0  0
  159.6814  139.1872  164.5015 H   0  0  0  0  0  0  0  0  0  0  0  0
  159.1257  139.2621  166.1905 H   0  0  0  0  0  0  0  0  0  0  0  0
  159.6248  136.8894  166.5147 H   0  0  0  0  0  0  0  0  0  0  0  0
  161.6093  137.8664  166.3267 H   0  0  0  0  0  0  0  0  0  0  0  0
  153.4633  138.7055  160.5446 H   0  0  0  0  0  0  0  0  0  0  0  0
  1  2  1  0  0  0  0
  1 34  1  0  0  0  0
  1 35  1  0  0  0  0
  1 36  1  0  0  0  0
  2  3  1  0  0  0  0
  2  4  1  0  0  0  0
  2  5  1  0  0  0  0
  3 37  1  0  0  0  0
  3 38  1  0  0  0  0
  3 39  1  0  0  0  0
  4 40  1  0  0  0  0
  4 41  1  0  0  0  0
  4 42  1  0  0  0  0
  5  6  1  0  0  0  0
  5  7  1  0  0  0  0
  5  8  1  0  0  0  0
  6 43  1  0  0  0  0
  6 44  1  0  0  0  0
  6 45  1  0  0  0  0
  7 46  1  0  0  0  0
  7 47  1  0  0  0  0
  7 48  1  0  0  0  0
  8  9  1  0  0  0  0
  9 10  1  0  0  0  0
  9 49  1  0  0  0  0
  9 50  1  0  0  0  0
 10 32  1  0  0  0  0
 10 11  1  0  0  0  0
 10 51  1  0  0  0  0
 11 12  1  0  0  0  0
 12 13  1  0  0  0  0
 12 31  1  0  0  0  0
 12 52  1  0  0  0  0
 13 30  1  0  0  0  0
 13 14  1  0  0  0  0
 14 15  2  0  0  0  0
 14 53  1  0  0  0  0
 15 16  1  0  0  0  0
 16 30  2  0  0  0  0
 16 17  1  0  0  0  0
 17 18  2  0  0  0  0
 17 27  1  0  0  0  0
 18 19  1  0  0  0  0
 19 20  2  0  0  0  0
 19 21  1  0  0  0  0
 21 26  1  0  0  0  0
 21 22  2  0  0  0  0
 22 23  1  0  0  0  0
 22 54  1  0  0  0  0
 23 24  2  0  0  0  0
 23 55  1  0  0  0  0
 24 25  1  0  0  0  0
 24 56  1  0  0  0  0
 25 26  2  0  0  0  0
 25 57  1  0  0  0  0
 26 58  1  0  0  0  0
 27 28  1  0  0  0  0
 27 64  1  0  0  0  0
 28 29  2  0  0  0  0
 28 59  1  0  0  0  0
 29 30  1  0  0  0  0
 31 32  1  0  0  0  0
 31 60  1  0  0  0  0
 31 61  1  0  0  0  0
 32 33  1  0  0  0  0
 32 62  1  0  0  0  0
 33 63  1  0  0  0  0
M  END
> <s_m_source_file>
AV-unprocessed.smi

> <i_m_source_file_index>
36

> <i_lp_mmshare_version>
43012

> <i_f3d_flags>
0

> <s_epik_input>
W0NIM11DKFtDSDNdKShbQ0gzXSlbU2ldKFtDSDNdKShbQ0gzXSlPW0NIMl1bQ0BASF0xT1tDQEhdKFtDSDJdW0NASF0xW09IXSluKFtjSF1uMiljKGMyMyluW2NIXW5jM1tOSF1DKD1PKWM0W2NIXVtjSF1bY0hdW2NIXVtjSF00

> <s_epik_cmdline>
J2VwaWtfcHl0aG9uJywgJy1waCcsICc3LjAnLCAnLXRuJywgJzgnLCAnLW1hJywgJzIwMCcsICctbWV0YWxfYmluZGluZycsICctaW1hZScsICc8aW5maWxlLm1hZT4nLCAnLW9tYWUnLCAnPG91dGZpbGUubWFlPic=

> <r_epik_Ionization_Penalty>
0.0850405

> <r_epik_Ionization_Penalty_Charging>
0.0850403

> <r_epik_Ionization_Penalty_Neutral>
1.47497e-07

> <r_epik_State_Penalty>
2.6133

> <r_epik_Charging_Adjusted_Penalty>
2.69834

> <i_epik_Tot_Q>
0

> <i_epik_Tot_abs_Q>
0

> <r_epik_Metal_State_Penalty>
2.92945

> <b_epik_Metal_Only>
0

> <s_epik_Chemistry_Notes>
This compound contains an acetal/aminal-like group ( X-CH(R)-Y where X, Y are N, S, or O) that may be acid/base labile, releasing an aldehyde.

> <s_lp_Force_Field>
OPLS_2005

> <r_lp_Energy>
45.0835

> <b_lp_Chiralities_Consistent>
1

> <s_lp_Variant>
AV-unprocessed.smi:36-16

> <Gold.Version>
5.8.1

> <Gold.Id.Protein>
6NUR|6NUR_protein|mol2

> <Gold.PLP.Fitness>
51.1940

> <Gold.PLP.PLP>
-52.3271

> <Gold.PLP.part.hbond>
-2.1323

> <Gold.PLP.part.metal>
0.0000

> <Gold.PLP.part.buried>
-5.7920

> <Gold.PLP.part.nonpolar>
-44.3957

> <Gold.PLP.part.repulsive>
0.1633

> <Gold.PLP.ligand.clash>
0.0000

> <Gold.PLP.ligand.torsion>
1.9578

> <Gold.PLP.Chemscore.Hbond>
0.8268

> <Gold.PLP.Chemscore.CHOScore>
0.0000

> <Gold.PLP.Chemscore.Metal>
0.0000

> <Gold.Chemscore.Hbonds>
donor molecule, donor type, donor heavy atom, donor atom, acceptor molecule, acceptor atom, score
      P1  H  7997  8008       L1    20  0.77

> <Gold.PLP.Chemscore.Internal.Correction>
0.3022

> <Gold.Rescore>
     Score         DG    S(hbond)    S(metal)    S(lipo)     H(rot)  DE(clash)    DE(int)     intcor
     12.02     -15.35       0.94        0.00     116.70       2.70       0.76       2.57       ----

> <Gold.Chemscore.Fitness>
12.0216

> <Gold.Chemscore.DG>
-15.3521

> <Gold.Chemscore.ZeroCoef>
-5.4800

> <Gold.Chemscore.Hbond>
0.9401

> <Gold.Chemscore.Metal>
0.0000

> <Gold.Chemscore.Lipo>
116.7050

> <Gold.Chemscore.Internal_Hbond>
0.0000

> <Gold.Chemscore.DEClash>
0.7639

> <Gold.Chemscore.DEInternal>
2.5666

> <Gold.Chemscore.Rot>
2.7041

> <Gold.Chemscore.Internal.Correction>
   9.000000E+99

> <Gold.Chemscore.Hbonds>
donor molecule, donor type, donor heavy atom, donor atom, acceptor molecule, acceptor atom, score
      P1  H  7997  8008       L1    20  0.71

> <Gold.Chemscore.Hbond.Weighted>
-3.1401

> <Gold.Chemscore.Metal.Weighted>
-0.0000

> <Gold.Chemscore.Lipo.Weighted>
-13.6545

> <Gold.Chemscore.Internal_Hbond.Weighted>
0.0000

> <Gold.Chemscore.DEClash.Weighted>
0.7639

> <Gold.Chemscore.DEInternal.Weighted>
2.5666

> <Gold.Chemscore.Rot.Weighted>
6.9225

> <Gold.Chemscore.Internal.Correction.Weighted>
   9.000000E+99

> <Gold.Protein.RotatedTorsions>
[ 6907 6896 6895 6894 ] final  -60.94 input  -60.11 | X-H torsion
[ 7974 7965 7964 7962 ] final   66.48 input  175.53 | X-H torsion
[ 8008 7997 7996 7995 ] final  -96.16 input   59.86 | X-H torsion
[ 10167 10162 10161 10158 ] final -109.38 input  -65.29 | X-H torsion
[ 10718 10713 10712 10709 ] final   72.28 input   66.30 | X-H torsion
[ 10763 10752 10751 10750 ] final   21.22 input  -60.55 | X-H torsion
[ 11005 11000 10999 10996 ] final -119.90 input  -57.11 | X-H torsion

> <Gold.Protein.ActiveResidues>
 VAL166  LYS551  ARG553  GLY616  TRP617  ASP618  TYR619  PRO620  LYS621  CYS622 
 ASP623  PHE694  ASN695  SER759  ASP760  ASP761  ALA762  ILE779  LEU786  VAL792 
 PHE793  MET794  SER795  GLU796  ALA797  LYS798  CYS799  TRP800  GLU811  SER814 

> <Gold.Protein.RotatedAtoms>
  150.7820  134.6771  159.6423 H   0  0  0  0  0  0  0  0  0  0  0  0  # atno 6907 bound_to 6896
  152.3907  134.6443  160.0117 H   0  0  0  0  0  0  0  0  0  0  0  0  # atno 6908 bound_to 6896
  151.6744  133.3276  159.3240 H   0  0  0  0  0  0  0  0  0  0  0  0  # atno 6909 bound_to 6896
  145.8261  139.3112  143.1015 H   0  0  0  0  0  0  0  0  0  0  0  0  # atno 7974 bound_to 7965
  154.7708  140.0474  157.1049 H   0  0  0  0  0  0  0  0  0  0  0  0  # atno 8008 bound_to 7997
  154.9823  140.3103  155.4921 H   0  0  0  0  0  0  0  0  0  0  0  0  # atno 8009 bound_to 7997
  156.2921  140.2234  156.4923 H   0  0  0  0  0  0  0  0  0  0  0  0  # atno 8010 bound_to 7997
  140.1559  143.4160  152.1461 H   0  0  0  0  0  0  0  0  0  0  0  0  # atno 10167 bound_to 10162
  157.6493  130.9570  150.0906 H   0  0  0  0  0  0  0  0  0  0  0  0  # atno 10718 bound_to 10713
  153.1013  135.6673  153.9667 H   0  0  0  0  0  0  0  0  0  0  0  0  # atno 10763 bound_to 10752
  153.9237  135.3011  155.3448 H   0  0  0  0  0  0  0  0  0  0  0  0  # atno 10764 bound_to 10752
  154.7434  135.5069  153.9237 H   0  0  0  0  0  0  0  0  0  0  0  0  # atno 10765 bound_to 10752
  141.0183  134.0163  157.3319 H   0  0  0  0  0  0  0  0  0  0  0  0  # atno 11005 bound_to 11000
  145.9622  140.8827  143.0205 LP  0  0  0  0  0  0  0  0  0  0  0  0  # atno 17320 bound_to 7965
  144.6743  140.1828  143.7404 LP  0  0  0  0  0  0  0  0  0  0  0  0  # atno 17321 bound_to 7965
  139.5404  144.7250  151.4754 LP  0  0  0  0  0  0  0  0  0  0  0  0  # atno 17342 bound_to 10162
  140.6673  143.8370  150.6957 LP  0  0  0  0  0  0  0  0  0  0  0  0  # atno 17343 bound_to 10162
  156.1856  130.3652  149.8977 LP  0  0  0  0  0  0  0  0  0  0  0  0  # atno 17370 bound_to 10713
  156.6918  130.8899  151.3589 LP  0  0  0  0  0  0  0  0  0  0  0  0  # atno 17371 bound_to 10713
  139.9130  135.0193  156.7769 LP  0  0  0  0  0  0  0  0  0  0  0  0  # atno 17394 bound_to 11000
  140.6617  133.9639  155.7808 LP  0  0  0  0  0  0  0  0  0  0  0  0  # atno 17395 bound_to 11000

$$$$
