AV-unprocessed.smi:72|AV-procd|sdf|751|dock7
  -GOLD-   2262017 83D 1   1.00000     0.00000
 Structure written by MMmdl.
 29 30  0  0  0  0  0  0  0  0  1 V2000
  152.9190  139.4805  159.7069 N   0  0  0  0  0  0  0  0  0  0  0  0
  152.3196  139.6336  158.4740 C   0  0  0  0  0  0  0  0  0  0  0  0
  151.1974  140.4726  158.4262 N   0  0  0  0  0  0  0  0  0  0  0  0
  150.6361  140.6245  157.2685 C   0  0  0  0  0  0  0  0  0  0  0  0
  151.1566  139.9619  156.0859 N   0  0  0  0  0  0  0  0  0  0  0  0
  150.4980  140.1396  154.7333 C   0  0  2  0  0  0  0  0  0  0  0  0
  149.5300  141.1361  154.8335 O   0  0  0  0  0  0  0  0  0  0  0  0
  148.4926  140.8552  153.9070 C   0  0  2  0  0  0  0  0  0  0  0  0
  147.2127  141.6040  154.3090 C   0  0  0  0  0  0  0  0  0  0  0  0
  147.3205  142.9698  153.9684 O   0  0  0  0  0  0  0  0  0  0  0  0
  148.3647  139.3306  153.9991 C   0  0  1  0  0  0  0  0  0  0  0  0
  147.8350  138.8108  152.7956 O   0  0  0  0  0  0  0  0  0  0  0  0
  149.8030  138.8631  154.2057 C   0  0  2  0  0  0  0  0  0  0  0  0
  149.8472  137.7587  155.0915 O   0  0  0  0  0  0  0  0  0  0  0  0
  152.2855  139.1072  156.2102 C   0  0  0  0  0  0  0  0  0  0  0  0
  152.7198  138.5057  155.2278 O   0  0  0  0  0  0  0  0  0  0  0  0
  152.8567  138.9818  157.4825 N   0  0  0  0  0  0  0  0  0  0  0  0
  151.2688  140.5056  154.0533 H   0  0  0  0  0  0  0  0  0  0  0  0
  148.8229  141.1414  152.9057 H   0  0  0  0  0  0  0  0  0  0  0  0
  147.7373  139.0546  154.8487 H   0  0  0  0  0  0  0  0  0  0  0  0
  150.2798  138.5921  153.2624 H   0  0  0  0  0  0  0  0  0  0  0  0
  153.7311  138.9009  159.8616 H   0  0  0  0  0  0  0  0  0  0  0  0
  152.5898  139.9349  160.5463 H   0  0  0  0  0  0  0  0  0  0  0  0
  149.7510  141.2419  157.1082 H   0  0  0  0  0  0  0  0  0  0  0  0
  146.3565  141.2005  153.7676 H   0  0  0  0  0  0  0  0  0  0  0  0
  147.0048  141.4913  155.3734 H   0  0  0  0  0  0  0  0  0  0  0  0
  147.7107  143.4307  154.6952 H   0  0  0  0  0  0  0  0  0  0  0  0
  148.0792  137.9005  152.7290 H   0  0  0  0  0  0  0  0  0  0  0  0
  149.3149  137.9585  155.8465 H   0  0  0  0  0  0  0  0  0  0  0  0
  1  2  1  0  0  0  0
  1 22  1  0  0  0  0
  1 23  1  0  0  0  0
  2 17  2  0  0  0  0
  2  3  1  0  0  0  0
  3  4  2  0  0  0  0
  4  5  1  0  0  0  0
  4 24  1  0  0  0  0
  5  6  1  0  0  0  0
  5 15  1  0  0  0  0
  6 18  1  0  0  0  0
  6 13  1  0  0  0  0
  6  7  1  0  0  0  0
  7  8  1  0  0  0  0
  8 19  1  0  0  0  0
  8  9  1  0  0  0  0
  8 11  1  0  0  0  0
  9 10  1  0  0  0  0
  9 25  1  0  0  0  0
  9 26  1  0  0  0  0
 10 27  1  0  0  0  0
 11 20  1  0  0  0  0
 11 12  1  0  0  0  0
 11 13  1  0  0  0  0
 12 28  1  0  0  0  0
 13 21  1  0  0  0  0
 13 14  1  0  0  0  0
 14 29  1  0  0  0  0
 15 16  2  0  0  0  0
 15 17  1  0  0  0  0
M  END
> <s_m_source_file>
AV-unprocessed.smi

> <i_m_source_file_index>
72

> <i_lp_mmshare_version>
43012

> <i_f3d_flags>
0

> <s_epik_input>
W05IMl1jMW5bY0hdbihjKD1PKW4xKVtDQEBIXTJPW0NASF0oW0NIMl1bT0hdKVtDQEBIXShbT0hdKVtDQEhdMltPSF0=

> <s_epik_cmdline>
J2VwaWtfcHl0aG9uJywgJy1waCcsICc3LjAnLCAnLXRuJywgJzgnLCAnLW1hJywgJzIwMCcsICctbWV0YWxfYmluZGluZycsICctaW1hZScsICc8aW5maWxlLm1hZT4nLCAnLW9tYWUnLCAnPG91dGZpbGUubWFlPic=

> <r_lp_tautomer_probability>
4.77166e-05

> <r_epik_Ionization_Penalty>
1.3546

> <r_epik_Ionization_Penalty_Charging>
1.46833e-10

> <r_epik_Ionization_Penalty_Neutral>
1.3546

> <r_epik_State_Penalty>
3.51908

> <r_epik_Charging_Adjusted_Penalty>
3.51908

> <i_epik_Tot_Q>
0

> <i_epik_Tot_abs_Q>
0

> <r_epik_Metal_State_Penalty>
3.44088

> <b_epik_Metal_Only>
1

> <s_epik_Chemistry_Notes>
This compound contains an acetal/aminal-like group ( X-CH(R)-Y where X, Y are N, S, or O) that may be acid/base labile, releasing an aldehyde.

> <s_lp_Force_Field>
OPLS_2005

> <r_lp_Energy>
32.6436

> <b_lp_Chiralities_Consistent>
1

> <s_lp_Variant>
AV-unprocessed.smi:72-89

> <Gold.Version>
5.8.1

> <Gold.Id.Protein>
6NUR|6NUR_protein|mol2

> <Gold.PLP.Fitness>
34.1628

> <Gold.PLP.PLP>
-26.0083

> <Gold.PLP.part.hbond>
-6.3200

> <Gold.PLP.part.metal>
0.0000

> <Gold.PLP.part.buried>
1.0030

> <Gold.PLP.part.nonpolar>
-20.7641

> <Gold.PLP.part.repulsive>
0.2077

> <Gold.PLP.ligand.clash>
0.0000

> <Gold.PLP.ligand.torsion>
0.2146

> <Gold.PLP.Chemscore.Hbond>
2.7680

> <Gold.PLP.Chemscore.CHOScore>
0.0000

> <Gold.PLP.Chemscore.Metal>
0.0000

> <Gold.Chemscore.Hbonds>
donor molecule, donor type, donor heavy atom, donor atom, acceptor molecule, acceptor atom, score
      L1  H    10    27       P1  8028  1.00
      L1  H    12    28       P1  7948  0.93
      P1  H  7997  8010       L1    17  0.34

> <Gold.PLP.Chemscore.Internal.Correction>
0.2798

> <Gold.Rescore>
     Score         DG    S(hbond)    S(metal)    S(lipo)     H(rot)  DE(clash)    DE(int)     intcor
      3.80      -4.43       1.89        0.00      25.92       4.06       0.16       0.48       ----

> <Gold.Chemscore.Fitness>
3.7991

> <Gold.Chemscore.DG>
-4.4326

> <Gold.Chemscore.ZeroCoef>
-5.4800

> <Gold.Chemscore.Hbond>
1.8904

> <Gold.Chemscore.Metal>
0.0000

> <Gold.Chemscore.Lipo>
25.9178

> <Gold.Chemscore.Internal_Hbond>
0.0000

> <Gold.Chemscore.DEClash>
0.1558

> <Gold.Chemscore.DEInternal>
0.4776

> <Gold.Chemscore.Rot>
4.0600

> <Gold.Chemscore.Internal.Correction>
   9.000000E+99

> <Gold.Chemscore.Hbonds>
donor molecule, donor type, donor heavy atom, donor atom, acceptor molecule, acceptor atom, score
      L1  H    10    27       P1  8028  0.44
      L1  H    12    28       P1  7948  0.87
      P1  H  7997  8010       L1    17  0.04

> <Gold.Chemscore.Hbond.Weighted>
-6.3138

> <Gold.Chemscore.Metal.Weighted>
-0.0000

> <Gold.Chemscore.Lipo.Weighted>
-3.0324

> <Gold.Chemscore.Internal_Hbond.Weighted>
0.0000

> <Gold.Chemscore.DEClash.Weighted>
0.1558

> <Gold.Chemscore.DEInternal.Weighted>
0.4776

> <Gold.Chemscore.Rot.Weighted>
10.3936

> <Gold.Chemscore.Internal.Correction.Weighted>
   9.000000E+99

> <Gold.Protein.RotatedTorsions>
[ 6907 6896 6895 6894 ] final  137.80 input  -60.11 | X-H torsion
[ 7974 7965 7964 7962 ] final -173.07 input  175.53 | X-H torsion
[ 8008 7997 7996 7995 ] final   16.04 input   59.86 | X-H torsion
[ 10167 10162 10161 10158 ] final  -58.70 input  -65.29 | X-H torsion
[ 10718 10713 10712 10709 ] final   32.22 input   66.30 | X-H torsion
[ 10763 10752 10751 10750 ] final  -12.64 input  -60.55 | X-H torsion
[ 11005 11000 10999 10996 ] final  113.20 input  -57.11 | X-H torsion

> <Gold.Protein.ActiveResidues>
 VAL166  LYS551  ARG553  GLY616  TRP617  ASP618  TYR619  PRO620  LYS621  CYS622 
 ASP623  PHE694  ASN695  SER759  ASP760  ASP761  ALA762  ILE779  LEU786  VAL792 
 PHE793  MET794  SER795  GLU796  ALA797  LYS798  CYS799  TRP800  GLU811  SER814 

> <Gold.Protein.RotatedAtoms>
  152.2740  133.5408  159.5456 H   0  0  0  0  0  0  0  0  0  0  0  0  # atno 6907 bound_to 6896
  150.7170  134.0658  159.3856 H   0  0  0  0  0  0  0  0  0  0  0  0  # atno 6908 bound_to 6896
  151.8571  135.0537  160.0516 H   0  0  0  0  0  0  0  0  0  0  0  0  # atno 6909 bound_to 6896
  144.7141  140.1678  143.6370 H   0  0  0  0  0  0  0  0  0  0  0  0  # atno 7974 bound_to 7965
  154.8712  140.2959  155.5480 H   0  0  0  0  0  0  0  0  0  0  0  0  # atno 8008 bound_to 7997
  156.3021  140.2460  156.3635 H   0  0  0  0  0  0  0  0  0  0  0  0  # atno 8009 bound_to 7997
  154.8815  140.0397  157.1774 H   0  0  0  0  0  0  0  0  0  0  0  0  # atno 8010 bound_to 7997
  140.6181  143.2409  151.5547 H   0  0  0  0  0  0  0  0  0  0  0  0  # atno 10167 bound_to 10162
  157.2824  130.7262  149.6564 H   0  0  0  0  0  0  0  0  0  0  0  0  # atno 10718 bound_to 10713
  153.5014  135.7017  153.5829 H   0  0  0  0  0  0  0  0  0  0  0  0  # atno 10763 bound_to 10752
  153.3959  135.3884  155.1955 H   0  0  0  0  0  0  0  0  0  0  0  0  # atno 10764 bound_to 10752
  154.8710  135.3869  154.4485 H   0  0  0  0  0  0  0  0  0  0  0  0  # atno 10765 bound_to 10752
  139.8947  134.9545  156.6702 H   0  0  0  0  0  0  0  0  0  0  0  0  # atno 11005 bound_to 11000
  145.8971  139.2409  143.1515 LP  0  0  0  0  0  0  0  0  0  0  0  0  # atno 17320 bound_to 7965
  145.9846  140.8654  143.0097 LP  0  0  0  0  0  0  0  0  0  0  0  0  # atno 17321 bound_to 7965
  139.5416  144.2633  152.1361 LP  0  0  0  0  0  0  0  0  0  0  0  0  # atno 17342 bound_to 10162
  140.1847  144.4810  150.6510 LP  0  0  0  0  0  0  0  0  0  0  0  0  # atno 17343 bound_to 10162
  155.9665  130.4334  150.5004 LP  0  0  0  0  0  0  0  0  0  0  0  0  # atno 17370 bound_to 10713
  157.2950  131.0634  151.2107 LP  0  0  0  0  0  0  0  0  0  0  0  0  # atno 17371 bound_to 10713
  140.7379  133.9003  155.8257 LP  0  0  0  0  0  0  0  0  0  0  0  0  # atno 17394 bound_to 11000
  141.0101  134.1032  157.4230 LP  0  0  0  0  0  0  0  0  0  0  0  0  # atno 17395 bound_to 11000

$$$$
