AV-unprocessed.smi:168|AV-procd|sdf|1396|dock6
  -GOLD-   2262019143D 1   1.00000     0.00000
 Structure written by MMmdl.
 62 66  0  0  0  0  0  0  0  0  1 V2000
  153.1006  139.9327  158.5317 C   0  0  0  0  0  0  0  0  0  0  0  0
  151.6261  139.9730  158.9694 C   0  0  0  0  0  0  0  0  0  0  0  0
  151.0162  138.5717  158.7966 C   0  0  0  0  0  0  0  0  0  0  0  0
  150.8224  141.0311  158.1952 C   0  0  2  0  0  0  0  0  0  0  0  0
  151.1552  141.0992  156.7748 N   0  0  0  0  0  0  0  0  0  0  0  0
  150.3599  140.3114  155.8988 C   0  0  0  0  0  0  0  0  0  0  0  0
  151.0305  139.5859  154.9688 N   0  0  0  0  0  0  0  0  0  0  0  0
  150.3825  138.8026  154.1027 C   0  0  0  0  0  0  0  0  0  0  0  0
  149.0707  138.6005  153.9833 N   0  0  0  0  0  0  0  0  0  0  0  0
  148.3776  139.3306  154.9019 C   0  0  0  0  0  0  0  0  0  0  0  0
  148.9361  140.1960  155.8871 C   0  0  0  0  0  0  0  0  0  0  0  0
  147.9142  140.7517  156.6495 N   0  0  0  0  0  0  0  0  0  0  0  0
  146.8226  140.2397  156.1518 C   0  0  0  0  0  0  0  0  0  0  0  0
  147.0062  139.3998  155.0779 N   0  0  0  0  0  0  0  0  0  0  0  0
  145.9886  138.6785  154.3699 C   0  0  0  0  0  0  0  0  0  0  0  0
  146.0918  137.1628  154.1626 C   0  0  0  0  0  0  0  0  0  0  0  0
  145.4854  137.3051  152.7480 C   0  0  0  0  0  0  0  0  0  0  0  0
  146.1786  136.5097  151.6258 C   0  0  0  0  0  0  0  0  0  0  0  0
  146.3037  137.2474  150.4259 O   0  0  0  0  0  0  0  0  0  0  0  0
  143.9857  136.9669  152.6126 C   0  0  0  0  0  0  0  0  0  0  0  0
  143.1528  138.1082  152.5811 O   0  0  0  0  0  0  0  0  0  0  0  0
  145.8421  138.8061  152.8485 C   0  0  0  0  0  0  0  0  0  0  0  0
  150.8454  142.5196  156.7431 C   0  0  0  0  0  0  0  0  0  0  0  0
  151.1656  142.5404  158.2467 C   0  0  0  0  0  0  0  0  0  0  0  0
  152.6162  142.9450  158.5973 C   0  0  0  0  0  0  0  0  0  0  0  0
  152.8837  144.4458  158.3899 C   0  0  0  0  0  0  0  0  0  0  0  0
  151.9056  145.3012  159.2054 C   0  0  0  0  0  0  0  0  0  0  0  0
  150.4509  144.9058  158.9204 C   0  0  0  0  0  0  0  0  0  0  0  0
  150.2344  143.3964  159.1197 C   0  0  0  0  0  0  0  0  0  0  0  0
  153.1913  139.7526  157.4600 H   0  0  0  0  0  0  0  0  0  0  0  0
  153.6433  139.1414  159.0493 H   0  0  0  0  0  0  0  0  0  0  0  0
  153.6123  140.8677  158.7563 H   0  0  0  0  0  0  0  0  0  0  0  0
  151.6042  140.2093  160.0339 H   0  0  0  0  0  0  0  0  0  0  0  0
  151.0378  138.2607  157.7518 H   0  0  0  0  0  0  0  0  0  0  0  0
  149.9802  138.5292  159.1266 H   0  0  0  0  0  0  0  0  0  0  0  0
  151.5679  137.8296  159.3742 H   0  0  0  0  0  0  0  0  0  0  0  0
  149.7506  140.9011  158.3458 H   0  0  0  0  0  0  0  0  0  0  0  0
  151.0049  138.2622  153.4048 H   0  0  0  0  0  0  0  0  0  0  0  0
  145.8468  140.4694  156.5543 H   0  0  0  0  0  0  0  0  0  0  0  0
  145.0510  138.9315  154.8664 H   0  0  0  0  0  0  0  0  0  0  0  0
  147.1263  136.8171  154.1625 H   0  0  0  0  0  0  0  0  0  0  0  0
  145.4923  136.5772  154.8603 H   0  0  0  0  0  0  0  0  0  0  0  0
  147.1792  136.2015  151.9310 H   0  0  0  0  0  0  0  0  0  0  0  0
  145.6250  135.5980  151.3981 H   0  0  0  0  0  0  0  0  0  0  0  0
  145.6387  137.9189  150.4147 H   0  0  0  0  0  0  0  0  0  0  0  0
  143.7989  136.3979  151.7013 H   0  0  0  0  0  0  0  0  0  0  0  0
  143.6559  136.3416  153.4431 H   0  0  0  0  0  0  0  0  0  0  0  0
  143.6918  138.8768  152.6899 H   0  0  0  0  0  0  0  0  0  0  0  0
  145.0503  139.4864  152.5334 H   0  0  0  0  0  0  0  0  0  0  0  0
  146.7840  139.0627  152.3619 H   0  0  0  0  0  0  0  0  0  0  0  0
  151.5283  143.0980  156.1208 H   0  0  0  0  0  0  0  0  0  0  0  0
  149.8024  142.7465  156.5189 H   0  0  0  0  0  0  0  0  0  0  0  0
  152.8449  142.6968  159.6324 H   0  0  0  0  0  0  0  0  0  0  0  0
  153.3278  142.3771  157.9969 H   0  0  0  0  0  0  0  0  0  0  0  0
  153.9092  144.6837  158.6733 H   0  0  0  0  0  0  0  0  0  0  0  0
  152.7926  144.6944  157.3322 H   0  0  0  0  0  0  0  0  0  0  0  0
  152.1136  145.1732  160.2684 H   0  0  0  0  0  0  0  0  0  0  0  0
  152.0576  146.3582  158.9850 H   0  0  0  0  0  0  0  0  0  0  0  0
  149.7796  145.4671  159.5710 H   0  0  0  0  0  0  0  0  0  0  0  0
  150.1907  145.1805  157.8976 H   0  0  0  0  0  0  0  0  0  0  0  0
  149.1920  143.1596  158.9039 H   0  0  0  0  0  0  0  0  0  0  0  0
  150.3781  143.1495  160.1723 H   0  0  0  0  0  0  0  0  0  0  0  0
  1  2  1  0  0  0  0
  1 30  1  0  0  0  0
  1 31  1  0  0  0  0
  1 32  1  0  0  0  0
  2  3  1  0  0  0  0
  2  4  1  0  0  0  0
  2 33  1  0  0  0  0
  3 34  1  0  0  0  0
  3 35  1  0  0  0  0
  3 36  1  0  0  0  0
  4 24  1  0  0  0  0
  4  5  1  0  0  0  0
  4 37  1  0  0  0  0
  5  6  1  0  0  0  0
  5 23  1  0  0  0  0
  6 11  1  0  0  0  0
  6  7  2  0  0  0  0
  7  8  1  0  0  0  0
  8  9  2  0  0  0  0
  8 38  1  0  0  0  0
  9 10  1  0  0  0  0
 10 14  1  0  0  0  0
 10 11  2  0  0  0  0
 11 12  1  0  0  0  0
 12 13  2  0  0  0  0
 13 14  1  0  0  0  0
 13 39  1  0  0  0  0
 14 15  1  0  0  0  0
 15 22  1  0  0  0  0
 15 16  1  0  0  0  0
 15 40  1  0  0  0  0
 16 17  1  0  0  0  0
 16 41  1  0  0  0  0
 16 42  1  0  0  0  0
 17 18  1  0  0  0  0
 17 20  1  0  0  0  0
 17 22  1  0  0  0  0
 18 19  1  0  0  0  0
 18 43  1  0  0  0  0
 18 44  1  0  0  0  0
 19 45  1  0  0  0  0
 20 21  1  0  0  0  0
 20 46  1  0  0  0  0
 20 47  1  0  0  0  0
 21 48  1  0  0  0  0
 22 49  1  0  0  0  0
 22 50  1  0  0  0  0
 23 24  1  0  0  0  0
 23 51  1  0  0  0  0
 23 52  1  0  0  0  0
 24 29  1  0  0  0  0
 24 25  1  0  0  0  0
 25 26  1  0  0  0  0
 25 53  1  0  0  0  0
 25 54  1  0  0  0  0
 26 27  1  0  0  0  0
 26 55  1  0  0  0  0
 26 56  1  0  0  0  0
 27 28  1  0  0  0  0
 27 57  1  0  0  0  0
 27 58  1  0  0  0  0
 28 29  1  0  0  0  0
 28 59  1  0  0  0  0
 28 60  1  0  0  0  0
 29 61  1  0  0  0  0
 29 62  1  0  0  0  0
M  END
> <s_m_source_file>
AV-unprocessed.smi

> <i_m_source_file_index>
168

> <i_lp_mmshare_version>
43012

> <i_f3d_flags>
0

> <s_epik_input>
W0NIMl0xW0NIMl1bQ0gyXVtDSDJdW0NIMl1DMTJbQ0BIXShbQ0hdKFtDSDNdKVtDSDNdKU4oW0NIMl0yKWMobltjSF1uMyljKGMzNCluW2NIXW40W0NIXShbQ0gyXTUpW0NIMl1DNShbQ0gyXVtPSF0pW0NIMl1bT0hd

> <s_epik_cmdline>
J2VwaWtfcHl0aG9uJywgJy1waCcsICc3LjAnLCAnLXRuJywgJzgnLCAnLW1hJywgJzIwMCcsICctbWV0YWxfYmluZGluZycsICctaW1hZScsICc8aW5maWxlLm1hZT4nLCAnLW9tYWUnLCAnPG91dGZpbGUubWFlPic=

> <r_lp_tautomer_probability>
1

> <r_epik_Ionization_Penalty>
0.00324652

> <r_epik_Ionization_Penalty_Charging>
0

> <r_epik_Ionization_Penalty_Neutral>
0.00324652

> <r_epik_State_Penalty>
0.00223464

> <r_epik_Charging_Adjusted_Penalty>
0.00223464

> <i_epik_Tot_Q>
0

> <i_epik_Tot_abs_Q>
0

> <r_epik_Metal_State_Penalty>
-0

> <b_epik_Metal_Only>
0

> <s_lp_Force_Field>
OPLS_2005

> <r_lp_Energy>
66.0346

> <b_lp_Chiralities_Consistent>
1

> <s_lp_Variant>
AV-unprocessed.smi:168-1

> <Gold.Version>
5.8.1

> <Gold.Id.Protein>
6NUR|6NUR_protein|mol2

> <Gold.PLP.Fitness>
46.2431

> <Gold.PLP.PLP>
-39.7162

> <Gold.PLP.part.hbond>
-5.1566

> <Gold.PLP.part.metal>
0.0000

> <Gold.PLP.part.buried>
0.7288

> <Gold.PLP.part.nonpolar>
-36.4364

> <Gold.PLP.part.repulsive>
0.3537

> <Gold.PLP.ligand.clash>
0.0000

> <Gold.PLP.ligand.torsion>
2.0887

> <Gold.PLP.Chemscore.Hbond>
3.2818

> <Gold.PLP.Chemscore.CHOScore>
0.0000

> <Gold.PLP.Chemscore.Metal>
0.0000

> <Gold.Chemscore.Hbonds>
donor molecule, donor type, donor heavy atom, donor atom, acceptor molecule, acceptor atom, score
      L1  H    19    45       P1 10171  1.00
      L1  H    21    48       P1 10175  0.80
      P1  H  7954  7966       L1    19  0.85
      P1  H  7989  7998       L1     7  0.63

> <Gold.PLP.Chemscore.Internal.Correction>
0.8590

> <Gold.Rescore>
     Score         DG    S(hbond)    S(metal)    S(lipo)     H(rot)  DE(clash)    DE(int)     intcor
     15.01     -19.56       2.44        0.00     118.99       3.12       2.38       2.18       ----

> <Gold.Chemscore.Fitness>
15.0052

> <Gold.Chemscore.DG>
-19.5630

> <Gold.Chemscore.ZeroCoef>
-5.4800

> <Gold.Chemscore.Hbond>
2.4382

> <Gold.Chemscore.Metal>
0.0000

> <Gold.Chemscore.Lipo>
118.9879

> <Gold.Chemscore.Internal_Hbond>
0.0000

> <Gold.Chemscore.DEClash>
2.3823

> <Gold.Chemscore.DEInternal>
2.1754

> <Gold.Chemscore.Rot>
3.1181

> <Gold.Chemscore.Internal.Correction>
   9.000000E+99

> <Gold.Chemscore.Hbonds>
donor molecule, donor type, donor heavy atom, donor atom, acceptor molecule, acceptor atom, score
      L1  H    19    45       P1 10171  0.93
      L1  H    21    48       P1 10175  0.77
      P1  H  7954  7966       L1    19  0.68
      P1  H  7989  7998       L1     7  0.03

> <Gold.Chemscore.Hbond.Weighted>
-8.1437

> <Gold.Chemscore.Metal.Weighted>
-0.0000

> <Gold.Chemscore.Lipo.Weighted>
-13.9216

> <Gold.Chemscore.Internal_Hbond.Weighted>
0.0000

> <Gold.Chemscore.DEClash.Weighted>
2.3823

> <Gold.Chemscore.DEInternal.Weighted>
2.1754

> <Gold.Chemscore.Rot.Weighted>
7.9823

> <Gold.Chemscore.Internal.Correction.Weighted>
   9.000000E+99

> <Gold.Protein.RotatedTorsions>
[ 6907 6896 6895 6894 ] final   17.24 input  -60.11 | X-H torsion
[ 7974 7965 7964 7962 ] final  -74.35 input  175.53 | X-H torsion
[ 8008 7997 7996 7995 ] final  -68.00 input   59.86 | X-H torsion
[ 10167 10162 10161 10158 ] final  110.93 input  -65.29 | X-H torsion
[ 10718 10713 10712 10709 ] final -103.03 input   66.30 | X-H torsion
[ 10763 10752 10751 10750 ] final  137.31 input  -60.55 | X-H torsion
[ 11005 11000 10999 10996 ] final   62.17 input  -57.11 | X-H torsion

> <Gold.Protein.ActiveResidues>
 VAL166  LYS551  ARG553  GLY616  TRP617  ASP618  TYR619  PRO620  LYS621  CYS622 
 ASP623  PHE694  ASN695  SER759  ASP760  ASP761  ALA762  ILE779  LEU786  VAL792 
 PHE793  MET794  SER795  GLU796  ALA797  LYS798  CYS799  TRP800  GLU811  SER814 

> <Gold.Protein.RotatedAtoms>
  151.8464  135.0572  160.0453 H   0  0  0  0  0  0  0  0  0  0  0  0  # atno 6907 bound_to 6896
  152.2769  133.5430  159.5482 H   0  0  0  0  0  0  0  0  0  0  0  0  # atno 6908 bound_to 6896
  150.7174  134.0534  159.3848 H   0  0  0  0  0  0  0  0  0  0  0  0  # atno 6909 bound_to 6896
  145.6403  140.9313  143.1039 H   0  0  0  0  0  0  0  0  0  0  0  0  # atno 7974 bound_to 7965
  154.4838  140.0881  156.7439 H   0  0  0  0  0  0  0  0  0  0  0  0  # atno 8008 bound_to 7997
  155.4403  140.3453  155.4271 H   0  0  0  0  0  0  0  0  0  0  0  0  # atno 8009 bound_to 7997
  156.1231  140.1479  156.9164 H   0  0  0  0  0  0  0  0  0  0  0  0  # atno 8010 bound_to 7997
  139.6650  144.7128  151.1793 H   0  0  0  0  0  0  0  0  0  0  0  0  # atno 10167 bound_to 10162
  156.0250  130.5448  150.7195 H   0  0  0  0  0  0  0  0  0  0  0  0  # atno 10718 bound_to 10713
  153.8709  135.3056  155.3442 H   0  0  0  0  0  0  0  0  0  0  0  0  # atno 10763 bound_to 10752
  154.7806  135.4837  153.9839 H   0  0  0  0  0  0  0  0  0  0  0  0  # atno 10764 bound_to 10752
  153.1407  135.6823  153.9128 H   0  0  0  0  0  0  0  0  0  0  0  0  # atno 10765 bound_to 10752
  140.0110  134.6296  155.9780 H   0  0  0  0  0  0  0  0  0  0  0  0  # atno 11005 bound_to 11000
  144.7160  139.8196  143.7398 LP  0  0  0  0  0  0  0  0  0  0  0  0  # atno 17320 bound_to 7965
  146.1286  139.4317  143.0183 LP  0  0  0  0  0  0  0  0  0  0  0  0  # atno 17321 bound_to 7965
  140.7596  143.5933  150.8773 LP  0  0  0  0  0  0  0  0  0  0  0  0  # atno 17342 bound_to 10162
  139.9594  143.6181  152.3006 LP  0  0  0  0  0  0  0  0  0  0  0  0  # atno 17343 bound_to 10162
  157.4814  131.0902  151.0532 LP  0  0  0  0  0  0  0  0  0  0  0  0  # atno 17370 bound_to 10713
  157.0964  130.5964  149.5450 LP  0  0  0  0  0  0  0  0  0  0  0  0  # atno 17371 bound_to 10713
  141.1711  133.6537  156.4655 LP  0  0  0  0  0  0  0  0  0  0  0  0  # atno 17394 bound_to 11000
  140.4554  134.6890  157.5060 LP  0  0  0  0  0  0  0  0  0  0  0  0  # atno 17395 bound_to 11000

$$$$
