AV-unprocessed.smi:332|AV-procd|sdf|2356|dock6
  -GOLD-   2262022263D 1   1.00000     0.00000
 Structure written by MMmdl.
 42 44  0  0  0  0  0  0  0  0  1 V2000
  150.7226  139.0993  157.4808 C   0  0  0  0  0  0  0  0  0  0  0  0
  151.6386  139.9822  156.6163 C   0  0  2  0  0  0  0  0  0  0  0  0
  152.5112  140.7825  157.4680 N   0  0  0  0  0  0  0  0  0  0  0  0
  153.3559  140.3133  158.4012 C   0  0  0  0  0  0  0  0  0  0  0  0
  153.4184  139.1241  158.7098 O   0  0  0  0  0  0  0  0  0  0  0  0
  154.2980  141.3191  159.0852 C   0  0  0  0  0  0  0  0  0  0  0  0
  153.6565  142.1544  160.1180 N   0  0  0  0  0  0  0  0  0  0  0  0
  152.6066  142.9967  159.7011 C   0  0  0  0  0  0  0  0  0  0  0  0
  151.9668  143.8098  160.5564 C   0  0  0  0  0  0  0  0  0  0  0  0
  152.3798  143.8072  161.9398 C   0  0  0  0  0  0  0  0  0  0  0  0
  153.3859  143.0089  162.3485 C   0  0  0  0  0  0  0  0  0  0  0  0
  154.0912  142.1217  161.4166 C   0  0  0  0  0  0  0  0  0  0  0  0
  155.0222  141.4016  161.7779 O   0  0  0  0  0  0  0  0  0  0  0  0
  150.8329  140.9223  155.6896 C   0  0  2  0  0  0  0  0  0  0  0  0
  149.6726  141.6732  156.3800 C   0  0  0  0  0  0  0  0  0  0  0  0
  148.4794  141.3991  155.4453 C   0  0  2  0  0  0  0  0  0  0  0  0
  148.0283  139.9368  155.6192 C   0  0  0  0  0  0  0  0  0  0  0  0
  149.1531  139.1501  154.9221 C   0  0  0  0  0  0  0  0  0  0  0  0
  150.1225  140.2643  154.4783 C   0  0  1  0  0  0  0  0  0  0  0  0
  149.1456  141.3631  154.0744 C   0  0  0  0  0  0  0  0  0  0  0  0
  150.0747  138.4780  156.8623 H   0  0  0  0  0  0  0  0  0  0  0  0
  150.0850  139.7019  158.1286 H   0  0  0  0  0  0  0  0  0  0  0  0
  151.3034  138.4295  158.1155 H   0  0  0  0  0  0  0  0  0  0  0  0
  152.2559  139.3264  156.0001 H   0  0  0  0  0  0  0  0  0  0  0  0
  152.5235  141.7760  157.2871 H   0  0  0  0  0  0  0  0  0  0  0  0
  155.1318  140.7611  159.5129 H   0  0  0  0  0  0  0  0  0  0  0  0
  154.7472  141.9524  158.3182 H   0  0  0  0  0  0  0  0  0  0  0  0
  152.3645  142.9442  158.6494 H   0  0  0  0  0  0  0  0  0  0  0  0
  151.1674  144.4522  160.2175 H   0  0  0  0  0  0  0  0  0  0  0  0
  151.8798  144.4485  162.6506 H   0  0  0  0  0  0  0  0  0  0  0  0
  153.6826  143.0215  163.3872 H   0  0  0  0  0  0  0  0  0  0  0  0
  151.5255  141.6645  155.2876 H   0  0  0  0  0  0  0  0  0  0  0  0
  149.4790  141.3229  157.3946 H   0  0  0  0  0  0  0  0  0  0  0  0
  149.8890  142.7408  156.4353 H   0  0  0  0  0  0  0  0  0  0  0  0
  147.6691  142.1213  155.5469 H   0  0  0  0  0  0  0  0  0  0  0  0
  147.9160  139.6599  156.6682 H   0  0  0  0  0  0  0  0  0  0  0  0
  147.0731  139.7607  155.1232 H   0  0  0  0  0  0  0  0  0  0  0  0
  149.6150  138.4059  155.5701 H   0  0  0  0  0  0  0  0  0  0  0  0
  148.7613  138.6210  154.0525 H   0  0  0  0  0  0  0  0  0  0  0  0
  150.8039  139.9565  153.6845 H   0  0  0  0  0  0  0  0  0  0  0  0
  148.4687  141.0682  153.2707 H   0  0  0  0  0  0  0  0  0  0  0  0
  149.6334  142.3015  153.8045 H   0  0  0  0  0  0  0  0  0  0  0  0
  1  2  1  0  0  0  0
  1 21  1  0  0  0  0
  1 22  1  0  0  0  0
  1 23  1  0  0  0  0
  2  3  1  0  0  0  0
  2 14  1  0  0  0  0
  2 24  1  0  0  0  0
  3  4  1  0  0  0  0
  3 25  1  0  0  0  0
  4  5  2  0  0  0  0
  4  6  1  0  0  0  0
  6  7  1  0  0  0  0
  6 26  1  0  0  0  0
  6 27  1  0  0  0  0
  7 12  1  0  0  0  0
  7  8  1  0  0  0  0
  8  9  2  0  0  0  0
  8 28  1  0  0  0  0
  9 10  1  0  0  0  0
  9 29  1  0  0  0  0
 10 11  2  0  0  0  0
 10 30  1  0  0  0  0
 11 12  1  0  0  0  0
 11 31  1  0  0  0  0
 12 13  2  0  0  0  0
 14 19  1  0  0  0  0
 14 15  1  0  0  0  0
 14 32  1  0  0  0  0
 15 16  1  0  0  0  0
 15 33  1  0  0  0  0
 15 34  1  0  0  0  0
 16 20  1  0  0  0  0
 16 17  1  0  0  0  0
 16 35  1  0  0  0  0
 17 18  1  0  0  0  0
 17 36  1  0  0  0  0
 17 37  1  0  0  0  0
 18 19  1  0  0  0  0
 18 38  1  0  0  0  0
 18 39  1  0  0  0  0
 19 20  1  0  0  0  0
 19 40  1  0  0  0  0
 20 41  1  0  0  0  0
 20 42  1  0  0  0  0
M  END
> <s_m_source_file>
AV-unprocessed.smi

> <i_m_source_file_index>
332

> <i_lp_mmshare_version>
43012

> <i_f3d_flags>
0

> <s_epik_input>
W0NIMl0xW0NIMl1bQ0BIXShbQ0gyXTIpW0NAQEhdKFtDSDJdW0NAQEhdMTIpW0NASF0oW0NIM10pW05IXUMoPU8pW0NIMl1uM1tjSF1bY0hdW2NIXVtjSF1jMz1P

> <s_epik_cmdline>
J2VwaWtfcHl0aG9uJywgJy1waCcsICc3LjAnLCAnLXRuJywgJzgnLCAnLW1hJywgJzIwMCcsICctbWV0YWxfYmluZGluZycsICctaW1hZScsICc8aW5maWxlLm1hZT4nLCAnLW9tYWUnLCAnPG91dGZpbGUubWFlPic=

> <r_lp_tautomer_probability>
1

> <r_epik_Ionization_Penalty>
4.05802e-07

> <r_epik_Ionization_Penalty_Charging>
3.84175e-07

> <r_epik_Ionization_Penalty_Neutral>
2.16269e-08

> <r_epik_State_Penalty>
-0

> <r_epik_Charging_Adjusted_Penalty>
3.84175e-07

> <i_epik_Tot_Q>
0

> <i_epik_Tot_abs_Q>
0

> <r_epik_Metal_State_Penalty>
-0

> <b_epik_Metal_Only>
0

> <s_lp_Force_Field>
OPLS_2005

> <r_lp_Energy>
59.3935

> <b_lp_Chiralities_Consistent>
1

> <s_lp_Variant>
AV-unprocessed.smi:332-5

> <Gold.Version>
5.8.1

> <Gold.Id.Protein>
6NUR|6NUR_protein|mol2

> <Gold.PLP.Fitness>
41.0573

> <Gold.PLP.PLP>
-41.8852

> <Gold.PLP.part.hbond>
-0.6282

> <Gold.PLP.part.metal>
0.0000

> <Gold.PLP.part.buried>
-3.1432

> <Gold.PLP.part.nonpolar>
-36.9093

> <Gold.PLP.part.repulsive>
0.0854

> <Gold.PLP.ligand.clash>
0.0000

> <Gold.PLP.ligand.torsion>
0.4231

> <Gold.PLP.Chemscore.Hbond>
0.0000

> <Gold.PLP.Chemscore.CHOScore>
0.0000

> <Gold.PLP.Chemscore.Metal>
0.0000

> <Gold.PLP.Chemscore.Internal.Correction>
0.0182

> <Gold.Rescore>
     Score         DG    S(hbond)    S(metal)    S(lipo)     H(rot)  DE(clash)    DE(int)     intcor
     10.21     -13.44       0.00        0.00     101.70       1.54       0.34       2.88       ----

> <Gold.Chemscore.Fitness>
10.2142

> <Gold.Chemscore.DG>
-13.4373

> <Gold.Chemscore.ZeroCoef>
-5.4800

> <Gold.Chemscore.Hbond>
0.0000

> <Gold.Chemscore.Metal>
0.0000

> <Gold.Chemscore.Lipo>
101.7027

> <Gold.Chemscore.Internal_Hbond>
0.0000

> <Gold.Chemscore.DEClash>
0.3391

> <Gold.Chemscore.DEInternal>
2.8840

> <Gold.Chemscore.Rot>
1.5398

> <Gold.Chemscore.Internal.Correction>
   9.000000E+99

> <Gold.Chemscore.Hbond.Weighted>
-0.0000

> <Gold.Chemscore.Metal.Weighted>
-0.0000

> <Gold.Chemscore.Lipo.Weighted>
-11.8992

> <Gold.Chemscore.Internal_Hbond.Weighted>
0.0000

> <Gold.Chemscore.DEClash.Weighted>
0.3391

> <Gold.Chemscore.DEInternal.Weighted>
2.8840

> <Gold.Chemscore.Rot.Weighted>
3.9419

> <Gold.Chemscore.Internal.Correction.Weighted>
   9.000000E+99

> <Gold.Protein.RotatedTorsions>
[ 6907 6896 6895 6894 ] final   55.23 input  -60.11 | X-H torsion
[ 7974 7965 7964 7962 ] final   44.37 input  175.53 | X-H torsion
[ 8008 7997 7996 7995 ] final  -12.28 input   59.86 | X-H torsion
[ 10167 10162 10161 10158 ] final -103.82 input  -65.29 | X-H torsion
[ 10718 10713 10712 10709 ] final  -87.66 input   66.30 | X-H torsion
[ 10763 10752 10751 10750 ] final   20.40 input  -60.55 | X-H torsion
[ 11005 11000 10999 10996 ] final  130.07 input  -57.11 | X-H torsion

> <Gold.Protein.ActiveResidues>
 VAL166  LYS551  ARG553  GLY616  TRP617  ASP618  TYR619  PRO620  LYS621  CYS622 
 ASP623  PHE694  ASN695  SER759  ASP760  ASP761  ALA762  ILE779  LEU786  VAL792 
 PHE793  MET794  SER795  GLU796  ALA797  LYS798  CYS799  TRP800  GLU811  SER814 

> <Gold.Protein.RotatedAtoms>
  152.3517  134.6996  160.0233 H   0  0  0  0  0  0  0  0  0  0  0  0  # atno 6907 bound_to 6896
  151.7347  133.3314  159.3358 H   0  0  0  0  0  0  0  0  0  0  0  0  # atno 6908 bound_to 6896
  150.7545  134.6265  159.6208 H   0  0  0  0  0  0  0  0  0  0  0  0  # atno 6909 bound_to 6896
  146.0575  139.5082  142.9679 H   0  0  0  0  0  0  0  0  0  0  0  0  # atno 7974 bound_to 7965
  154.5391  140.2280  155.8672 H   0  0  0  0  0  0  0  0  0  0  0  0  # atno 8008 bound_to 7997
  156.1840  140.3093  155.9166 H   0  0  0  0  0  0  0  0  0  0  0  0  # atno 8009 bound_to 7997
  155.3295  140.0444  157.3033 H   0  0  0  0  0  0  0  0  0  0  0  0  # atno 8010 bound_to 7997
  140.2158  143.3712  152.1011 H   0  0  0  0  0  0  0  0  0  0  0  0  # atno 10167 bound_to 10162
  155.9985  130.4808  150.4901 H   0  0  0  0  0  0  0  0  0  0  0  0  # atno 10718 bound_to 10713
  153.1081  135.6690  153.9550 H   0  0  0  0  0  0  0  0  0  0  0  0  # atno 10763 bound_to 10752
  153.9101  135.3026  155.3450 H   0  0  0  0  0  0  0  0  0  0  0  0  # atno 10764 bound_to 10752
  154.7501  135.5038  153.9351 H   0  0  0  0  0  0  0  0  0  0  0  0  # atno 10765 bound_to 10752
  139.9651  134.9592  156.9241 H   0  0  0  0  0  0  0  0  0  0  0  0  # atno 11005 bound_to 11000
  145.6619  141.0238  143.1704 LP  0  0  0  0  0  0  0  0  0  0  0  0  # atno 17320 bound_to 7965
  144.7156  139.8210  143.7400 LP  0  0  0  0  0  0  0  0  0  0  0  0  # atno 17321 bound_to 7965
  139.5162  144.6974  151.5590 LP  0  0  0  0  0  0  0  0  0  0  0  0  # atno 17342 bound_to 10162
  140.6290  143.9112  150.6589 LP  0  0  0  0  0  0  0  0  0  0  0  0  # atno 17343 bound_to 10162
  157.2897  131.0623  151.2142 LP  0  0  0  0  0  0  0  0  0  0  0  0  # atno 17370 bound_to 10713
  157.3159  130.6913  149.6242 LP  0  0  0  0  0  0  0  0  0  0  0  0  # atno 17371 bound_to 10713
  140.5414  134.0716  155.7342 LP  0  0  0  0  0  0  0  0  0  0  0  0  # atno 17394 bound_to 11000
  141.1330  133.9269  157.2494 LP  0  0  0  0  0  0  0  0  0  0  0  0  # atno 17395 bound_to 11000

$$$$
