AV-unprocessed.smi:3198|AV-procd|sdf|12228|dock7
  -GOLD-   2272018 63D 1   1.00000     0.00000
 Structure written by MMmdl.
 38 39  0  0  0  0  0  0  0  0  2 V2000
  150.7599  138.0634  154.0536 C   0  0  0  0  0  0  0  0  0  0  0  0
  149.6922  139.1356  154.0109 C   0  0  0  0  0  0  0  0  0  0  0  0
  149.8197  140.3544  154.7086 C   0  0  0  0  0  0  0  0  0  0  0  0
  148.7829  141.3041  154.6208 C   0  0  0  0  0  0  0  0  0  0  0  0
  147.6461  141.0179  153.8378 C   0  0  0  0  0  0  0  0  0  0  0  0
  147.5697  139.7846  153.1456 C   0  0  0  0  0  0  0  0  0  0  0  0
  146.5031  139.4006  152.3192 N   0  0  0  0  0  0  0  0  0  0  0  0
  146.5198  138.1054  151.6491 C   0  0  0  0  0  0  0  0  0  0  0  0
  145.3292  137.2211  152.0519 C   0  0  0  0  0  0  0  0  0  0  0  0
  145.6180  135.8784  151.7079 O   0  0  0  0  0  0  0  0  0  0  0  0
  144.4715  135.0530  151.6072 C   0  0  0  0  0  0  0  0  0  0  0  0
  144.8618  133.7378  150.9182 C   0  0  1  0  0  0  0  0  0  0  0  0
  146.1281  133.0618  151.4519 C   0  0  0  0  0  0  0  0  0  0  0  0
  145.8654  131.5765  151.2383 C   0  0  0  0  0  0  0  0  0  0  0  0
  144.4268  131.5119  150.7195 C   0  0  0  0  0  0  0  0  0  0  0  0
  143.8540  132.7548  151.0949 O   0  0  0  0  0  0  0  0  0  0  0  0
  148.5867  138.9023  153.2689 N   0  3  0  0  0  0  0  0  0  0  0  0
  151.5222  138.2983  154.7970 H   0  0  0  0  0  0  0  0  0  0  0  0
  151.2458  137.9743  153.0817 H   0  0  0  0  0  0  0  0  0  0  0  0
  150.3218  137.0984  154.3104 H   0  0  0  0  0  0  0  0  0  0  0  0
  150.6978  140.5612  155.3030 H   0  0  0  0  0  0  0  0  0  0  0  0
  148.8595  142.2445  155.1462 H   0  0  0  0  0  0  0  0  0  0  0  0
  146.8573  141.7517  153.7731 H   0  0  0  0  0  0  0  0  0  0  0  0
  145.5953  139.7948  152.5197 H   0  0  0  0  0  0  0  0  0  0  0  0
  146.4607  138.3041  150.5787 H   0  0  0  0  0  0  0  0  0  0  0  0
  147.4664  137.5885  151.8037 H   0  0  0  0  0  0  0  0  0  0  0  0
  145.1283  137.3193  153.1200 H   0  0  0  0  0  0  0  0  0  0  0  0
  144.4325  137.5395  151.5190 H   0  0  0  0  0  0  0  0  0  0  0  0
  144.0682  134.8397  152.5984 H   0  0  0  0  0  0  0  0  0  0  0  0
  143.6943  135.5650  151.0381 H   0  0  0  0  0  0  0  0  0  0  0  0
  144.9728  133.9133  149.8463 H   0  0  0  0  0  0  0  0  0  0  0  0
  147.0234  133.4090  150.9356 H   0  0  0  0  0  0  0  0  0  0  0  0
  146.2638  133.2551  152.5165 H   0  0  0  0  0  0  0  0  0  0  0  0
  146.5626  131.1316  150.5278 H   0  0  0  0  0  0  0  0  0  0  0  0
  145.9617  131.0383  152.1818 H   0  0  0  0  0  0  0  0  0  0  0  0
  144.4148  131.4257  149.6318 H   0  0  0  0  0  0  0  0  0  0  0  0
  143.8674  130.6729  151.1338 H   0  0  0  0  0  0  0  0  0  0  0  0
  148.5225  138.0152  152.7693 H   0  0  0  0  0  0  0  0  0  0  0  0
  1  2  1  0  0  0  0
  1 18  1  0  0  0  0
  1 19  1  0  0  0  0
  1 20  1  0  0  0  0
  2 17  1  0  0  0  0
  2  3  2  0  0  0  0
  3  4  1  0  0  0  0
  3 21  1  0  0  0  0
  4  5  2  0  0  0  0
  4 22  1  0  0  0  0
  5  6  1  0  0  0  0
  5 23  1  0  0  0  0
  6  7  1  0  0  0  0
  6 17  2  0  0  0  0
  7  8  1  0  0  0  0
  7 24  1  0  0  0  0
  8  9  1  0  0  0  0
  8 25  1  0  0  0  0
  8 26  1  0  0  0  0
  9 10  1  0  0  0  0
  9 27  1  0  0  0  0
  9 28  1  0  0  0  0
 10 11  1  0  0  0  0
 11 12  1  0  0  0  0
 11 29  1  0  0  0  0
 11 30  1  0  0  0  0
 12 16  1  0  0  0  0
 12 13  1  0  0  0  0
 12 31  1  0  0  0  0
 13 14  1  0  0  0  0
 13 32  1  0  0  0  0
 13 33  1  0  0  0  0
 14 15  1  0  0  0  0
 14 34  1  0  0  0  0
 14 35  1  0  0  0  0
 15 16  1  0  0  0  0
 15 36  1  0  0  0  0
 15 37  1  0  0  0  0
 17 38  1  0  0  0  0
M  CHG  1  17   1
M  END
> <s_m_source_file>
AV-unprocessed.smi

> <i_m_source_file_index>
3198

> <i_lp_mmshare_version>
43012

> <i_f3d_flags>
0

> <s_epik_input>
W0NIM11jMVtjSF1bY0hdW2NIXWMobjEpW05IXVtDSDJdW0NIMl1PW0NIMl1bQ0BASF0yW0NIMl1bQ0gyXVtDSDJdTzI=

> <s_epik_cmdline>
J2VwaWtfcHl0aG9uJywgJy1waCcsICc3LjAnLCAnLXRuJywgJzgnLCAnLW1hJywgJzIwMCcsICctbWV0YWxfYmluZGluZycsICctaW1hZScsICc8aW5maWxlLm1hZT4nLCAnLW9tYWUnLCAnPG91dGZpbGUubWFlPic=

> <r_lp_tautomer_probability>
0.999994

> <r_epik_Ionization_Penalty>
0.0710016

> <r_epik_Ionization_Penalty_Charging>
0.0710012

> <r_epik_Ionization_Penalty_Neutral>
3.47026e-07

> <r_epik_State_Penalty>
0.0622974

> <r_epik_Charging_Adjusted_Penalty>
0.133299

> <i_epik_Tot_Q>
1

> <i_epik_Tot_abs_Q>
1

> <r_epik_Metal_State_Penalty>
2.79497

> <b_epik_Metal_Only>
0

> <s_lp_Force_Field>
OPLS_2005

> <r_lp_Energy>
24.0011

> <b_lp_Chiralities_Consistent>
1

> <s_lp_Variant>
AV-unprocessed.smi:3198-2

> <Gold.Version>
5.8.1

> <Gold.Id.Protein>
6NUR|6NUR_protein|mol2

> <Gold.PLP.Fitness>
45.4694

> <Gold.PLP.PLP>
-34.3153

> <Gold.PLP.part.hbond>
-3.0000

> <Gold.PLP.part.metal>
0.0000

> <Gold.PLP.part.buried>
1.4036

> <Gold.PLP.part.nonpolar>
-33.1651

> <Gold.PLP.part.repulsive>
0.4948

> <Gold.PLP.ligand.clash>
0.2098

> <Gold.PLP.ligand.torsion>
0.3067

> <Gold.PLP.Chemscore.Hbond>
3.9825

> <Gold.PLP.Chemscore.CHOScore>
0.0000

> <Gold.PLP.Chemscore.Metal>
0.0000

> <Gold.Chemscore.Hbonds>
donor molecule, donor type, donor heavy atom, donor atom, acceptor molecule, acceptor atom, score
      L1  H     7    24       P1 10175  2.00
      L1  H    17    38       P1  7948  2.00

> <Gold.PLP.Chemscore.Internal.Correction>
0.0298

> <Gold.Rescore>
     Score         DG    S(hbond)    S(metal)    S(lipo)     H(rot)  DE(clash)    DE(int)     intcor
     17.18     -17.79       1.90        0.00      88.33       1.71       0.35       0.27       ----

> <Gold.Chemscore.Fitness>
17.1757

> <Gold.Chemscore.DG>
-17.7934

> <Gold.Chemscore.ZeroCoef>
-5.4800

> <Gold.Chemscore.Hbond>
1.9002

> <Gold.Chemscore.Metal>
0.0000

> <Gold.Chemscore.Lipo>
88.3330

> <Gold.Chemscore.Internal_Hbond>
0.0000

> <Gold.Chemscore.DEClash>
0.3504

> <Gold.Chemscore.DEInternal>
0.2673

> <Gold.Chemscore.Rot>
1.7063

> <Gold.Chemscore.Internal.Correction>
   9.000000E+99

> <Gold.Chemscore.Hbonds>
donor molecule, donor type, donor heavy atom, donor atom, acceptor molecule, acceptor atom, score
      L1  H     7    24       P1 10175  0.92
      L1  H    17    38       P1  7948  0.93

> <Gold.Chemscore.Hbond.Weighted>
-6.3466

> <Gold.Chemscore.Metal.Weighted>
-0.0000

> <Gold.Chemscore.Lipo.Weighted>
-10.3350

> <Gold.Chemscore.Internal_Hbond.Weighted>
0.0000

> <Gold.Chemscore.DEClash.Weighted>
0.3504

> <Gold.Chemscore.DEInternal.Weighted>
0.2673

> <Gold.Chemscore.Rot.Weighted>
4.3681

> <Gold.Chemscore.Internal.Correction.Weighted>
   9.000000E+99

> <Gold.Protein.RotatedTorsions>
[ 6907 6896 6895 6894 ] final -139.52 input  -60.11 | X-H torsion
[ 7974 7965 7964 7962 ] final   12.40 input  175.53 | X-H torsion
[ 8008 7997 7996 7995 ] final   50.31 input   59.86 | X-H torsion
[ 10167 10162 10161 10158 ] final   12.19 input  -65.29 | X-H torsion
[ 10718 10713 10712 10709 ] final  -76.88 input   66.30 | X-H torsion
[ 10763 10752 10751 10750 ] final -163.59 input  -60.55 | X-H torsion
[ 11005 11000 10999 10996 ] final   50.05 input  -57.11 | X-H torsion

> <Gold.Protein.ActiveResidues>
 VAL166  LYS551  ARG553  GLY616  TRP617  ASP618  TYR619  PRO620  LYS621  CYS622 
 ASP623  PHE694  ASN695  SER759  ASP760  ASP761  ALA762  ILE779  LEU786  VAL792 
 PHE793  MET794  SER795  GLU796  ALA797  LYS798  CYS799  TRP800  GLU811  SER814 

> <Gold.Protein.RotatedAtoms>
  151.0488  133.5642  159.2643 H   0  0  0  0  0  0  0  0  0  0  0  0  # atno 6907 bound_to 6896
  151.2661  135.0669  159.9126 H   0  0  0  0  0  0  0  0  0  0  0  0  # atno 6908 bound_to 6896
  152.5378  134.0226  159.8042 H   0  0  0  0  0  0  0  0  0  0  0  0  # atno 6909 bound_to 6896
  146.2352  139.9342  142.8492 H   0  0  0  0  0  0  0  0  0  0  0  0  # atno 7974 bound_to 7965
  155.4166  140.3444  155.4268 H   0  0  0  0  0  0  0  0  0  0  0  0  # atno 8008 bound_to 7997
  156.1418  140.1544  156.8941 H   0  0  0  0  0  0  0  0  0  0  0  0  # atno 8009 bound_to 7997
  154.4977  140.0823  156.7712 H   0  0  0  0  0  0  0  0  0  0  0  0  # atno 8010 bound_to 7997
  140.6084  143.8460  150.7038 H   0  0  0  0  0  0  0  0  0  0  0  0  # atno 10167 bound_to 10162
  156.0161  130.4477  150.3261 H   0  0  0  0  0  0  0  0  0  0  0  0  # atno 10718 bound_to 10713
  154.7108  135.3006  154.9199 H   0  0  0  0  0  0  0  0  0  0  0  0  # atno 10763 bound_to 10752
  154.0102  135.6696  153.4769 H   0  0  0  0  0  0  0  0  0  0  0  0  # atno 10764 bound_to 10752
  153.0754  135.5038  154.8306 H   0  0  0  0  0  0  0  0  0  0  0  0  # atno 10765 bound_to 10752
  140.1050  134.5030  155.8728 H   0  0  0  0  0  0  0  0  0  0  0  0  # atno 11005 bound_to 11000
  145.2015  140.9856  143.4153 LP  0  0  0  0  0  0  0  0  0  0  0  0  # atno 17320 bound_to 7965
  144.9769  139.3822  143.6281 LP  0  0  0  0  0  0  0  0  0  0  0  0  # atno 17321 bound_to 7965
  140.2023  143.3949  152.1782 LP  0  0  0  0  0  0  0  0  0  0  0  0  # atno 17342 bound_to 10162
  139.5342  144.7192  151.4951 LP  0  0  0  0  0  0  0  0  0  0  0  0  # atno 17343 bound_to 10162
  157.1360  131.0284  151.2948 LP  0  0  0  0  0  0  0  0  0  0  0  0  # atno 17370 bound_to 10713
  157.4511  130.7599  149.7152 LP  0  0  0  0  0  0  0  0  0  0  0  0  # atno 17371 bound_to 10713
  141.2116  133.6708  156.6593 LP  0  0  0  0  0  0  0  0  0  0  0  0  # atno 17394 bound_to 11000
  140.3168  134.8041  157.4220 LP  0  0  0  0  0  0  0  0  0  0  0  0  # atno 17395 bound_to 11000

$$$$
