#       Name:                AV-unprocessed.smi:1006
#       Creating user name   scv26
#       Creation time:       Fri Mar 27 02:32:38 2020


#       File generated by GOLD software.
#

@<TRIPOS>MOLECULE
AV-unprocessed.smi:1006
    50    52     1
SMALL
NO_CHARGES


@<TRIPOS>ATOM
      1 ****        -3.6593   2.5286  -3.2070 C.3            1 S1                 0.0000
      2 ****        -2.8969   2.6288  -1.9030 C.ar           1 S1                 0.0000
      3 ****        -3.5345   2.4372  -0.6575 C.ar           1 S1                 0.0000
      4 ****        -2.7172   2.5530   0.4866 C.ar           1 S1                 0.0000
      5 ****        -3.2487   2.3822   1.7622 N.pl3          1 S1                 0.0000
      6 ****        -1.3983   2.8281   0.3947 N.ar           1 S1                 0.0000
      7 ****        -0.9133   2.9915  -0.8386 C.ar           1 S1                 0.0000
      8 ****         0.8257   3.3170  -0.9600 S.3            1 S1                 0.0000
      9 ****         1.4318   1.6149  -0.8092 C.3            1 S1                 0.0000
     10 ****         2.9689   1.5242  -0.8275 C.3            1 S1                 0.0000
     11 ****         3.4545   2.0006  -2.0660 O.3            1 S1                 0.0000
     12 ****         3.5108   0.0943  -0.6257 C.3            1 S1                 0.0000
     13 ****         3.0954  -0.5014   0.6521 N.pl3          1 S1                 0.0000
     14 ****         3.6439  -0.3622   1.8895 C.2            1 S1                 0.0000
     15 ****         2.8973  -1.1014   2.7556 N.pl3          1 S1                 1.0000
     16 ****         1.8559  -1.7215   2.0622 C.ar           1 S1                 0.0000
     17 ****         0.8403  -2.5601   2.5059 C.ar           1 S1                 0.0000
     18 ****        -0.0828  -3.0219   1.5407 C.ar           1 S1                 0.0000
     19 ****        -1.2094  -3.9352   1.9932 C.3            1 S1                 0.0000
     20 ****         0.0336  -2.6412   0.1788 C.ar           1 S1                 0.0000
     21 ****        -0.9705  -3.1340  -0.8493 C.3            1 S1                 0.0000
     22 ****         1.0790  -1.7947  -0.2537 C.ar           1 S1                 0.0000
     23 ****         1.9783  -1.3444   0.7106 C.ar           1 S1                 0.0000
     24 ****        -1.5772   2.9064  -1.9929 N.ar           1 S1                 0.0000
     25 ****        -4.7092   2.2925  -3.0320 H              1 S1                 0.0000
     26 ****        -3.2343   1.7454  -3.8354 H              1 S1                 0.0000
     27 ****        -3.6080   3.4725  -3.7501 H              1 S1                 0.0000
     28 ****        -4.5895   2.2160  -0.5851 H              1 S1                 0.0000
     29 ****        -4.2264   2.1723   1.9021 H              1 S1                 0.0000
     30 ****        -2.6961   2.5629   2.5877 H              1 S1                 0.0000
     31 ****         1.0405   1.2194   0.1276 H              1 S1                 0.0000
     32 ****         1.0025   1.0156  -1.6129 H              1 S1                 0.0000
     33 ****         3.3717   2.1670  -0.0436 H              1 S1                 0.0000
     34 ****         3.0829   1.4768  -2.7593 H              1 S1                 0.0000
     35 ****         3.2115  -0.5622  -1.4430 H              1 S1                 0.0000
     36 ****         4.6016   0.1072  -0.6307 H              1 S1                 0.0000
     37 ****         4.5115   0.2315   2.1394 H              1 S1                 0.0000
     38 ****         0.7562  -2.8425   3.5451 H              1 S1                 0.0000
     39 ****        -1.1836  -4.8777   1.4455 H              1 S1                 0.0000
     40 ****        -2.1768  -3.4611   1.8235 H              1 S1                 0.0000
     41 ****        -1.1326  -4.1671   3.0561 H              1 S1                 0.0000
     42 ****        -0.7610  -2.7266  -1.8389 H              1 S1                 0.0000
     43 ****        -1.9811  -2.8317  -0.5739 H              1 S1                 0.0000
     44 ****        -0.9407  -4.2212  -0.9229 H              1 S1                 0.0000
     45 ****         1.1626  -1.5050  -1.2906 H              1 S1                 0.0000
     46 ****         3.0845  -1.1718   3.7477 H              1 S1                 0.0000
     47 ****        -0.8173   2.9051   1.2050 LP             1 S1                 0.0000
     48 ****         4.4517   1.9277  -2.0869 LP             1 S1                 0.0000
     49 ****         3.1876   2.9567  -2.1867 LP             1 S1                 0.0000
     50 ****        -1.1241   3.0403  -2.8743 LP             1 S1                 0.0000
@<TRIPOS>BOND
    1    1    2 1     
    2    1   25 1     
    3    1   26 1     
    4    1   27 1     
    5    2   24 ar    
    6    2    3 ar    
    7    3    4 ar    
    8    3   28 1     
    9    4    5 1     
   10    4    6 ar    
   11    5   29 1     
   12    5   30 1     
   13    6    7 ar    
   14    7    8 1     
   15    7   24 ar    
   16    8    9 1     
   17    9   10 1     
   18    9   31 1     
   19    9   32 1     
   20   10   11 1     
   21   10   12 1     
   22   10   33 1     
   23   11   34 1     
   24   12   13 1     
   25   12   35 1     
   26   12   36 1     
   27   13   23 1     
   28   13   14 1     
   29   14   15 2     
   30   14   37 1     
   31   15   16 1     
   32   15   46 1     
   33   16   23 ar    
   34   16   17 ar    
   35   17   18 ar    
   36   17   38 1     
   37   18   19 1     
   38   18   20 ar    
   39   19   39 1     
   40   19   40 1     
   41   19   41 1     
   42   20   21 1     
   43   20   22 ar    
   44   21   42 1     
   45   21   43 1     
   46   21   44 1     
   47   22   23 ar    
   48   22   45 1     
   49    6   47 1     
   50   11   48 1     
   51   11   49 1     
   52   24   50 1     
@<TRIPOS>SUBSTRUCTURE
      1 S1             1
@<TRIPOS>SET
LONE_PAIRS      STATIC     ATOMS    <user>   **** ""
4 47 48 49 50
DONOR_HYDROGENS      STATIC     ATOMS    <user>   **** ""
4 29 30 34 46
ATOM$BLUE        STATIC     ATOMS    COLORGROUP SYSTEM
4 47 48 49 50
ATOM$RED        STATIC     ATOMS    COLORGROUP SYSTEM
4 29 30 34 46
