AV-unprocessed.smi:1131|AV-procd|sdf|4853|dock10
  -GOLD-   22720 3423D 1   1.00000     0.00000
 Structure written by MMmdl.
 32 33  0  0  0  0  0  0  0  0  2 V2000
  149.8843  134.1638  157.6379 O   0  0  0  0  0  0  0  0  0  0  0  0
  149.0146  135.0063  157.4110 C   0  0  0  0  0  0  0  0  0  0  0  0
  147.6402  134.9163  158.0880 C   0  0  0  0  0  0  0  0  0  0  0  0
  147.6394  135.4420  159.4627 N   0  0  0  0  0  0  0  0  0  0  0  0
  147.3380  134.5476  160.5049 C   0  0  0  0  0  0  0  0  0  0  0  0
  147.3106  134.9405  161.7927 C   0  0  0  0  0  0  0  0  0  0  0  0
  147.6050  136.3357  162.0949 C   0  0  0  0  0  0  0  0  0  0  0  0
  147.5910  136.7109  163.2658 O   0  0  0  0  0  0  0  0  0  0  0  0
  147.8862  137.1661  161.0484 N   0  5  0  0  0  0  0  0  0  0  0  0
  147.9078  136.7530  159.7431 C   0  0  0  0  0  0  0  0  0  0  0  0
  148.1622  137.5196  158.8132 O   0  0  0  0  0  0  0  0  0  0  0  0
  149.2037  136.0603  156.6025 N   0  0  0  0  0  0  0  0  0  0  0  0
  150.4293  136.3565  155.8675 C   0  0  0  0  0  0  0  0  0  0  0  0
  150.2451  137.5375  154.8959 C   0  0  1  0  0  0  0  0  0  0  0  0
  149.1108  138.4858  155.2351 C   0  0  0  0  0  0  0  0  0  0  0  0
  149.4889  139.7321  154.4402 C   0  0  0  0  0  0  0  0  0  0  0  0
  150.9120  139.7320  154.3647 O   0  0  0  0  0  0  0  0  0  0  0  0
  151.4280  138.5044  154.8700 C   0  0  0  0  0  0  0  0  0  0  0  0
  146.9243  135.4618  157.4722 H   0  0  0  0  0  0  0  0  0  0  0  0
  147.2923  133.8817  158.0823 H   0  0  0  0  0  0  0  0  0  0  0  0
  147.1261  133.5348  160.1954 H   0  0  0  0  0  0  0  0  0  0  0  0
  147.0743  134.2419  162.5816 H   0  0  0  0  0  0  0  0  0  0  0  0
  148.4337  136.7019  156.4793 H   0  0  0  0  0  0  0  0  0  0  0  0
  151.2582  136.5446  156.5524 H   0  0  0  0  0  0  0  0  0  0  0  0
  150.6992  135.4631  155.3040 H   0  0  0  0  0  0  0  0  0  0  0  0
  150.0897  137.1548  153.8856 H   0  0  0  0  0  0  0  0  0  0  0  0
  148.1282  138.0962  154.9676 H   0  0  0  0  0  0  0  0  0  0  0  0
  149.1093  138.7103  156.3027 H   0  0  0  0  0  0  0  0  0  0  0  0
  149.0897  139.6730  153.4269 H   0  0  0  0  0  0  0  0  0  0  0  0
  149.1137  140.6471  154.8994 H   0  0  0  0  0  0  0  0  0  0  0  0
  151.8060  138.6804  155.8781 H   0  0  0  0  0  0  0  0  0  0  0  0
  152.2540  138.1388  154.2597 H   0  0  0  0  0  0  0  0  0  0  0  0
  1  2  2  0  0  0  0
  2  3  1  0  0  0  0
  2 12  1  0  0  0  0
  3  4  1  0  0  0  0
  3 19  1  0  0  0  0
  3 20  1  0  0  0  0
  4 10  1  0  0  0  0
  4  5  1  0  0  0  0
  5  6  2  0  0  0  0
  5 21  1  0  0  0  0
  6  7  1  0  0  0  0
  6 22  1  0  0  0  0
  7  8  2  0  0  0  0
  7  9  1  0  0  0  0
  9 10  1  0  0  0  0
 10 11  2  0  0  0  0
 12 13  1  0  0  0  0
 12 23  1  0  0  0  0
 13 14  1  0  0  0  0
 13 24  1  0  0  0  0
 13 25  1  0  0  0  0
 14 18  1  0  0  0  0
 14 15  1  0  0  0  0
 14 26  1  0  0  0  0
 15 16  1  0  0  0  0
 15 27  1  0  0  0  0
 15 28  1  0  0  0  0
 16 17  1  0  0  0  0
 16 29  1  0  0  0  0
 16 30  1  0  0  0  0
 17 18  1  0  0  0  0
 18 31  1  0  0  0  0
 18 32  1  0  0  0  0
M  CHG  1   9  -1
M  END
> <s_m_source_file>
AV-unprocessed.smi

> <i_m_source_file_index>
1131

> <i_lp_mmshare_version>
43012

> <i_f3d_flags>
0

> <s_epik_input>
W0NIMl0xT1tDSDJdW0NIMl1bQ0BIXTFbQ0gyXVtOSF1DKD1PKVtDSDJdbjJbY0hdW2NIXWMoPU8pW25IXWMyPU8=

> <s_epik_cmdline>
J2VwaWtfcHl0aG9uJywgJy1waCcsICc3LjAnLCAnLXRuJywgJzgnLCAnLW1hJywgJzIwMCcsICctbWV0YWxfYmluZGluZycsICctaW1hZScsICc8aW5maWxlLm1hZT4nLCAnLW9tYWUnLCAnPG91dGZpbGUubWFlPic=

> <r_lp_tautomer_probability>
0.999537

> <r_epik_Ionization_Penalty>
3.07866

> <r_epik_Ionization_Penalty_Charging>
2.6898e-08

> <r_epik_Ionization_Penalty_Neutral>
3.07866

> <r_epik_State_Penalty>
3.07769

> <r_epik_Charging_Adjusted_Penalty>
3.07769

> <i_epik_Tot_Q>
-1

> <i_epik_Tot_abs_Q>
1

> <r_epik_Metal_State_Penalty>
0.459839

> <b_epik_Metal_Only>
1

> <s_lp_Force_Field>
OPLS_2005

> <r_lp_Energy>
26.9978

> <b_lp_Chiralities_Consistent>
1

> <s_lp_Variant>
AV-unprocessed.smi:1131-4

> <Gold.Version>
5.8.1

> <Gold.Id.Protein>
6NUR|6NUR_protein|mol2

> <Gold.PLP.Fitness>
40.4185

> <Gold.PLP.PLP>
-25.4998

> <Gold.PLP.part.hbond>
-4.0000

> <Gold.PLP.part.metal>
0.0000

> <Gold.PLP.part.buried>
-4.8513

> <Gold.PLP.part.nonpolar>
-17.7065

> <Gold.PLP.part.repulsive>
0.1731

> <Gold.PLP.ligand.clash>
0.0000

> <Gold.PLP.ligand.torsion>
0.8894

> <Gold.PLP.Chemscore.Hbond>
5.5620

> <Gold.PLP.Chemscore.CHOScore>
0.0000

> <Gold.PLP.Chemscore.Metal>
0.0000

> <Gold.Chemscore.Hbonds>
donor molecule, donor type, donor heavy atom, donor atom, acceptor molecule, acceptor atom, score
      P1  H  6896  6909       L1     1  0.98
      P1  H  6931  6943       L1     9  1.73
      P1  H  6934  6947       L1     9  1.57
      P1  H  7989  7998       L1    17  1.00

> <Gold.PLP.Chemscore.Internal.Correction>
0.0116

> <Gold.Rescore>
     Score         DG    S(hbond)    S(metal)    S(lipo)     H(rot)  DE(clash)    DE(int)     intcor
     13.62     -14.64       2.87        0.00      41.03       2.05       0.00       1.02       ----

> <Gold.Chemscore.Fitness>
13.6218

> <Gold.Chemscore.DG>
-14.6441

> <Gold.Chemscore.ZeroCoef>
-5.4800

> <Gold.Chemscore.Hbond>
2.8749

> <Gold.Chemscore.Metal>
0.0000

> <Gold.Chemscore.Lipo>
41.0295

> <Gold.Chemscore.Internal_Hbond>
0.0000

> <Gold.Chemscore.DEClash>
0.0000

> <Gold.Chemscore.DEInternal>
1.0223

> <Gold.Chemscore.Rot>
2.0463

> <Gold.Chemscore.Internal.Correction>
   9.000000E+99

> <Gold.Chemscore.Hbonds>
donor molecule, donor type, donor heavy atom, donor atom, acceptor molecule, acceptor atom, score
      P1  H  6896  6909       L1     1  0.93
      P1  H  6931  6943       L1     9  0.16
      P1  H  6934  6947       L1     9  0.34
      P1  H  7989  7998       L1    17  0.96

> <Gold.Chemscore.Hbond.Weighted>
-9.6023

> <Gold.Chemscore.Metal.Weighted>
-0.0000

> <Gold.Chemscore.Lipo.Weighted>
-4.8005

> <Gold.Chemscore.Internal_Hbond.Weighted>
0.0000

> <Gold.Chemscore.DEClash.Weighted>
0.0000

> <Gold.Chemscore.DEInternal.Weighted>
1.0223

> <Gold.Chemscore.Rot.Weighted>
5.2386

> <Gold.Chemscore.Internal.Correction.Weighted>
   9.000000E+99

> <Gold.Protein.RotatedTorsions>
[ 6907 6896 6895 6894 ] final    3.11 input  -60.11 | X-H torsion
[ 7974 7965 7964 7962 ] final  -23.25 input  175.53 | X-H torsion
[ 8008 7997 7996 7995 ] final  175.97 input   59.86 | X-H torsion
[ 10167 10162 10161 10158 ] final  -55.19 input  -65.29 | X-H torsion
[ 10718 10713 10712 10709 ] final  133.19 input   66.30 | X-H torsion
[ 10763 10752 10751 10750 ] final  105.65 input  -60.55 | X-H torsion
[ 11005 11000 10999 10996 ] final  -34.09 input  -57.11 | X-H torsion

> <Gold.Protein.ActiveResidues>
 VAL166  LYS551  ARG553  GLY616  TRP617  ASP618  TYR619  PRO620  LYS621  CYS622 
 ASP623  PHE694  ASN695  SER759  ASP760  ASP761  ALA762  ILE779  LEU786  VAL792 
 PHE793  MET794  SER795  GLU796  ALA797  LYS798  CYS799  TRP800  GLU811  SER814 

> <Gold.Protein.RotatedAtoms>
  151.6198  135.1033  160.0098 H   0  0  0  0  0  0  0  0  0  0  0  0  # atno 6907 bound_to 6896
  152.4164  133.7040  159.6451 H   0  0  0  0  0  0  0  0  0  0  0  0  # atno 6908 bound_to 6896
  150.8052  133.8450  159.3230 H   0  0  0  0  0  0  0  0  0  0  0  0  # atno 6909 bound_to 6896
  146.1627  140.4590  142.8564 H   0  0  0  0  0  0  0  0  0  0  0  0  # atno 7974 bound_to 7965
  156.0815  140.1395  156.9706 H   0  0  0  0  0  0  0  0  0  0  0  0  # atno 8008 bound_to 7997
  154.4588  140.0951  156.6882 H   0  0  0  0  0  0  0  0  0  0  0  0  # atno 8009 bound_to 7997
  155.5068  140.3452  155.4383 H   0  0  0  0  0  0  0  0  0  0  0  0  # atno 8010 bound_to 7997
  140.6388  143.2496  151.5045 H   0  0  0  0  0  0  0  0  0  0  0  0  # atno 10167 bound_to 10162
  157.4797  131.1085  150.9698 H   0  0  0  0  0  0  0  0  0  0  0  0  # atno 10718 bound_to 10713
  153.3822  135.3903  155.1864 H   0  0  0  0  0  0  0  0  0  0  0  0  # atno 10763 bound_to 10752
  154.8709  135.3728  154.4843 H   0  0  0  0  0  0  0  0  0  0  0  0  # atno 10764 bound_to 10752
  153.5321  135.7085  153.5739 H   0  0  0  0  0  0  0  0  0  0  0  0  # atno 10765 bound_to 10752
  140.9688  133.7122  156.1489 H   0  0  0  0  0  0  0  0  0  0  0  0  # atno 11005 bound_to 11000
  144.8049  140.6282  143.6453 LP  0  0  0  0  0  0  0  0  0  0  0  0  # atno 17320 bound_to 7965
  145.4546  139.1519  143.3899 LP  0  0  0  0  0  0  0  0  0  0  0  0  # atno 17321 bound_to 7965
  139.5598  144.2185  152.1672 LP  0  0  0  0  0  0  0  0  0  0  0  0  # atno 17342 bound_to 10162
  140.1450  144.5167  150.6721 LP  0  0  0  0  0  0  0  0  0  0  0  0  # atno 17343 bound_to 10162
  157.0435  130.5758  149.5359 LP  0  0  0  0  0  0  0  0  0  0  0  0  # atno 17370 bound_to 10713
  156.0115  130.5207  150.8003 LP  0  0  0  0  0  0  0  0  0  0  0  0  # atno 17371 bound_to 10713
  140.7360  134.4202  157.5560 LP  0  0  0  0  0  0  0  0  0  0  0  0  # atno 17394 bound_to 11000
  139.8904  134.8805  156.2370 LP  0  0  0  0  0  0  0  0  0  0  0  0  # atno 17395 bound_to 11000

$$$$
