#       Name:                AV-unprocessed.smi:3037
#       Creating user name   scv26
#       Creation time:       Fri Mar 27 16:56:06 2020


#       File generated by GOLD software.
#

@<TRIPOS>MOLECULE
AV-unprocessed.smi:3037
    50    51     1
SMALL
NO_CHARGES


@<TRIPOS>ATOM
      1 ****        -7.2774  -0.3422   2.5137 C.3            1 S1                 0.0000
      2 ****        -6.0088  -1.0731   2.1801 C.2            1 S1                 0.0000
      3 ****        -5.8569  -2.4449   1.8299 C.2            1 S1                 0.0000
      4 ****        -4.5984  -2.7792   1.5954 N.2            1 S1                 0.0000
      5 ****        -3.9049  -1.6368   1.7852 N.pl3          1 S1                 0.0000
      6 ****        -2.4632  -1.6286   1.6122 C.3            1 S1                 0.0000
      7 ****        -2.0180  -0.9861   0.2822 C.3            1 S1                 0.0000
      8 ****        -2.6272  -1.6880  -0.9481 C.3            1 S1                 0.0000
      9 ****        -0.5389  -0.9834   0.2193 N.4            1 S1                 1.0000
     10 ****         0.0563  -0.0456  -0.7563 C.3            1 S1                 0.0000
     11 ****         1.5927  -0.0510  -0.6545 C.3            1 S1                 0.0000
     12 ****         2.2845   0.8731  -1.6725 C.2            1 S1                 0.0000
     13 ****         1.5868   1.5294  -2.4472 O.2            1 S1                 0.0000
     14 ****         3.6387   0.9382  -1.6890 N.am           1 S1                 0.0000
     15 ****         4.3777   1.8268  -2.5969 C.3            1 S1                 0.0000
     16 ****         5.0364   2.9493  -1.7741 C.3            1 S1                 0.0000
     17 ****         5.9402   2.3668  -0.6719 C.3            1 S1                 0.0000
     18 ****         5.2030   1.3018   0.1611 C.3            1 S1                 0.0000
     19 ****         4.5393   0.2532  -0.7503 C.3            1 S1                 0.0000
     20 ****        -4.7307  -0.5920   2.1425 C.2            1 S1                 0.0000
     21 ****        -8.1595  -0.8864   2.1755 H              1 S1                 0.0000
     22 ****        -7.3105   0.6427   2.0475 H              1 S1                 0.0000
     23 ****        -7.3841  -0.1942   3.5884 H              1 S1                 0.0000
     24 ****        -6.6207  -3.2034   1.7409 H              1 S1                 0.0000
     25 ****        -2.0292  -1.0882   2.4546 H              1 S1                 0.0000
     26 ****        -2.0944  -2.6539   1.6794 H              1 S1                 0.0000
     27 ****        -2.3542   0.0520   0.2897 H              1 S1                 0.0000
     28 ****        -3.7166  -1.6642  -0.9225 H              1 S1                 0.0000
     29 ****        -2.3210  -2.7333  -0.9984 H              1 S1                 0.0000
     30 ****        -2.3298  -1.2083  -1.8800 H              1 S1                 0.0000
     31 ****        -0.1980  -0.7185   1.1324 H              1 S1                 0.0000
     32 ****        -0.2487  -0.3281  -1.7640 H              1 S1                 0.0000
     33 ****        -0.3279   0.9582  -0.5680 H              1 S1                 0.0000
     34 ****         1.8881   0.2519   0.3511 H              1 S1                 0.0000
     35 ****         1.9535  -1.0687  -0.8088 H              1 S1                 0.0000
     36 ****         5.1398   1.2508  -3.1238 H              1 S1                 0.0000
     37 ****         3.7473   2.2610  -3.3738 H              1 S1                 0.0000
     38 ****         5.6167   3.6023  -2.4263 H              1 S1                 0.0000
     39 ****         4.2626   3.5709  -1.3218 H              1 S1                 0.0000
     40 ****         6.8179   1.9131  -1.1340 H              1 S1                 0.0000
     41 ****         6.3093   3.1636  -0.0257 H              1 S1                 0.0000
     42 ****         5.8989   0.8177   0.8467 H              1 S1                 0.0000
     43 ****         4.4427   1.7819   0.7786 H              1 S1                 0.0000
     44 ****         4.0495  -0.5035  -0.1403 H              1 S1                 0.0000
     45 ****         5.3028  -0.2824  -1.3166 H              1 S1                 0.0000
     46 ****        -4.3452   0.3980   2.3375 H              1 S1                 0.0000
     47 ****        -0.2196  -1.9204   0.0188 H              1 S1                 0.0000
     48 ****        -4.2413  -3.6764   1.3359 LP             1 S1                 0.0000
     49 ****         0.5903   1.4559  -2.4071 LP             1 S1                 0.0000
     50 ****         2.0169   2.1357  -3.1161 LP             1 S1                 0.0000
@<TRIPOS>BOND
    1    1    2 1     
    2    1   21 1     
    3    1   22 1     
    4    1   23 1     
    5    2   20 2     
    6    2    3 1     
    7    3    4 2     
    8    3   24 1     
    9    4    5 1     
   10    5    6 1     
   11    5   20 1     
   12    6    7 1     
   13    6   25 1     
   14    6   26 1     
   15    7    8 1     
   16    7    9 1     
   17    7   27 1     
   18    8   28 1     
   19    8   29 1     
   20    8   30 1     
   21    9   10 1     
   22    9   31 1     
   23    9   47 1     
   24   10   11 1     
   25   10   32 1     
   26   10   33 1     
   27   11   12 1     
   28   11   34 1     
   29   11   35 1     
   30   12   13 2     
   31   12   14 am    
   32   14   19 1     
   33   14   15 1     
   34   15   16 1     
   35   15   36 1     
   36   15   37 1     
   37   16   17 1     
   38   16   38 1     
   39   16   39 1     
   40   17   18 1     
   41   17   40 1     
   42   17   41 1     
   43   18   19 1     
   44   18   42 1     
   45   18   43 1     
   46   19   44 1     
   47   19   45 1     
   48   20   46 1     
   49    4   48 1     
   50   13   49 1     
   51   13   50 1     
@<TRIPOS>SUBSTRUCTURE
      1 S1             1
@<TRIPOS>SET
LONE_PAIRS      STATIC     ATOMS    <user>   **** ""
3 48 49 50
DONOR_HYDROGENS      STATIC     ATOMS    <user>   **** ""
2 31 47
ATOM$BLUE        STATIC     ATOMS    COLORGROUP SYSTEM
3 48 49 50
ATOM$RED        STATIC     ATOMS    COLORGROUP SYSTEM
2 31 47
