#       Name:                AV-unprocessed.smi:2438
#       Creating user name   scv26
#       Creation time:       Fri Mar 27 13:23:39 2020


#       File generated by GOLD software.
#

@<TRIPOS>MOLECULE
AV-unprocessed.smi:2438
    48    49     1
SMALL
NO_CHARGES


@<TRIPOS>ATOM
      1 ****        -1.5533  -0.0208  -2.7505 C.3            1 S1                 0.0000
      2 ****        -0.6135   0.9618  -3.2739 N.3            1 S1                 0.0000
      3 ****        -1.1128   1.8240  -4.3379 C.3            1 S1                 0.0000
      4 ****         0.6999   0.4716  -3.4207 C.ar           1 S1                 0.0000
      5 ****         1.1415   0.1971  -4.6699 N.ar           1 S1                 0.0000
      6 ****         2.3746  -0.2881  -4.8479 C.ar           1 S1                 0.0000
      7 ****         3.2195  -0.5167  -3.8342 N.pl3          1 S1                 1.0000
      8 ****         2.8285  -0.2547  -2.5644 C.ar           1 S1                 0.0000
      9 ****         1.5333   0.2487  -2.2984 C.ar           1 S1                 0.0000
     10 ****         1.0774   0.5812  -0.9915 N.am           1 S1                 0.0000
     11 ****         1.4892   0.0766   0.1828 C.2            1 S1                 0.0000
     12 ****         2.3980  -0.7413   0.3234 O.2            1 S1                 0.0000
     13 ****         0.7623   0.5617   1.1986 N.am           1 S1                 0.0000
     14 ****         0.9053   0.1800   2.6029 C.3            1 S1                 0.0000
     15 ****         0.2879   1.2583   3.5134 C.3            1 S1                 0.0000
     16 ****        -1.2477   1.2845   3.4224 C.3            1 S1                 0.0000
     17 ****        -1.8513  -0.1001   3.7071 C.3            1 S1                 0.0000
     18 ****        -1.2701  -1.1795   2.7700 C.3            1 S1                 0.0000
     19 ****        -1.8863  -2.5689   3.0306 C.3            1 S1                 0.0000
     20 ****        -1.6167  -2.9837   4.2687 F              1 S1                 0.0000
     21 ****        -3.2088  -2.5181   2.8709 F              1 S1                 0.0000
     22 ****        -1.3973  -3.4544   2.1624 F              1 S1                 0.0000
     23 ****         0.2710  -1.2006   2.8819 C.3            1 S1                 0.0000
     24 ****        -1.1245  -0.6108  -1.9404 H              1 S1                 0.0000
     25 ****        -1.8636  -0.7059  -3.5403 H              1 S1                 0.0000
     26 ****        -2.4428   0.4781  -2.3650 H              1 S1                 0.0000
     27 ****        -0.3698   2.5732  -4.6142 H              1 S1                 0.0000
     28 ****        -2.0092   2.3491  -4.0075 H              1 S1                 0.0000
     29 ****        -1.3672   1.2424  -5.2249 H              1 S1                 0.0000
     30 ****         2.7349  -0.5095  -5.8418 H              1 S1                 0.0000
     31 ****         3.5823  -0.4453  -1.8158 H              1 S1                 0.0000
     32 ****         0.2746   1.1930  -0.9563 H              1 S1                 0.0000
     33 ****         0.0372   1.2314   0.9860 H              1 S1                 0.0000
     34 ****         1.9721   0.1248   2.8273 H              1 S1                 0.0000
     35 ****         0.5779   1.0607   4.5461 H              1 S1                 0.0000
     36 ****         0.6949   2.2401   3.2683 H              1 S1                 0.0000
     37 ****        -1.6465   2.0135   4.1283 H              1 S1                 0.0000
     38 ****        -1.5540   1.6200   2.4310 H              1 S1                 0.0000
     39 ****        -1.6605  -0.3712   4.7462 H              1 S1                 0.0000
     40 ****        -2.9348  -0.0506   3.5967 H              1 S1                 0.0000
     41 ****        -1.5291  -0.9033   1.7466 H              1 S1                 0.0000
     42 ****         0.6877  -1.9477   2.2060 H              1 S1                 0.0000
     43 ****         0.5528  -1.5202   3.8858 H              1 S1                 0.0000
     44 ****         4.1570  -0.8798  -4.0081 H              1 S1                 0.0000
     45 ****        -0.5268   1.6311  -2.5360 LP             1 S1                 0.0000
     46 ****         0.5471   0.3567  -5.4580 LP             1 S1                 0.0000
     47 ****         2.8930  -1.0811  -0.4763 LP             1 S1                 0.0000
     48 ****         2.6414  -1.0661   1.2373 LP             1 S1                 0.0000
@<TRIPOS>BOND
    1    1    2 1     
    2    1   24 1     
    3    1   25 1     
    4    1   26 1     
    5    2    3 1     
    6    2    4 1     
    7    3   27 1     
    8    3   28 1     
    9    3   29 1     
   10    4    9 ar    
   11    4    5 ar    
   12    5    6 ar    
   13    6    7 ar    
   14    6   30 1     
   15    7    8 ar    
   16    7   44 1     
   17    8    9 ar    
   18    8   31 1     
   19    9   10 1     
   20   10   11 am    
   21   10   32 1     
   22   11   12 2     
   23   11   13 am    
   24   13   14 1     
   25   13   33 1     
   26   14   23 1     
   27   14   15 1     
   28   14   34 1     
   29   15   16 1     
   30   15   35 1     
   31   15   36 1     
   32   16   17 1     
   33   16   37 1     
   34   16   38 1     
   35   17   18 1     
   36   17   39 1     
   37   17   40 1     
   38   18   19 1     
   39   18   23 1     
   40   18   41 1     
   41   19   20 1     
   42   19   21 1     
   43   19   22 1     
   44   23   42 1     
   45   23   43 1     
   46    2   45 1     
   47    5   46 1     
   48   12   47 1     
   49   12   48 1     
@<TRIPOS>SUBSTRUCTURE
      1 S1             1
@<TRIPOS>SET
LONE_PAIRS      STATIC     ATOMS    <user>   **** ""
4 45 46 47 48
DONOR_HYDROGENS      STATIC     ATOMS    <user>   **** ""
3 44 32 33
ATOM$BLUE        STATIC     ATOMS    COLORGROUP SYSTEM
4 45 46 47 48
ATOM$RED        STATIC     ATOMS    COLORGROUP SYSTEM
3 44 32 33
