AV-unprocessed.smi:1057|AV-procd|sdf|4650|dock9
  -GOLD-   22720 3153D 1   1.00000     0.00000
 Structure written by MMmdl.
 44 45  0  0  0  0  0  0  0  0  1 V2000
  143.7265  147.0559  155.9852 C   0  0  0  0  0  0  0  0  0  0  0  0
  143.5385  145.9811  155.4369 C   0  0  0  0  0  0  0  0  0  0  0  0
  143.2932  144.6825  154.7869 C   0  0  0  0  0  0  0  0  0  0  0  0
  144.5048  144.0985  154.2232 N   0  0  0  0  0  0  0  0  0  0  0  0
  145.1483  143.0170  154.6983 C   0  0  0  0  0  0  0  0  0  0  0  0
  144.7640  142.3956  155.6882 O   0  0  0  0  0  0  0  0  0  0  0  0
  146.4219  142.5504  153.9746 C   0  0  0  0  0  0  0  0  0  0  0  0
  147.6322  142.5721  154.7963 N   0  0  0  0  0  0  0  0  0  0  0  0
  148.3641  141.4979  155.1257 C   0  0  0  0  0  0  0  0  0  0  0  0
  148.0747  140.3479  154.7957 O   0  0  0  0  0  0  0  0  0  0  0  0
  149.4540  141.8516  155.8251 N   0  0  0  0  0  0  0  0  0  0  0  0
  150.5064  141.0121  156.2847 C   0  0  0  0  0  0  0  0  0  0  0  0
  150.6940  139.6920  155.8098 C   0  0  0  0  0  0  0  0  0  0  0  0
  151.7455  138.9193  156.3361 C   0  0  0  0  0  0  0  0  0  0  0  0
  152.5671  139.4911  157.3247 C   0  0  0  0  0  0  0  0  0  0  0  0
  152.3931  140.7426  157.7973 N   0  0  0  0  0  0  0  0  0  0  0  0
  151.3816  141.4892  157.2928 C   0  0  0  0  0  0  0  0  0  0  0  0
  151.2238  142.7891  157.8010 N   0  0  0  0  0  0  0  0  0  0  0  0
  150.0341  142.9519  158.6312 C   0  0  0  0  0  0  0  0  0  0  0  0
  149.7886  144.4390  158.9395 C   0  0  0  0  0  0  0  0  0  0  0  0
  151.0373  145.0843  159.5633 C   0  0  0  0  0  0  0  0  0  0  0  0
  152.2640  144.8506  158.6658 C   0  0  0  0  0  0  0  0  0  0  0  0
  152.4469  143.3530  158.3656 C   0  0  0  0  0  0  0  0  0  0  0  0
  143.8844  147.9949  156.4664 H   0  0  0  0  0  0  0  0  0  0  0  0
  142.8290  144.0106  155.5100 H   0  0  0  0  0  0  0  0  0  0  0  0
  142.5721  144.8391  153.9846 H   0  0  0  0  0  0  0  0  0  0  0  0
  144.8857  144.5482  153.4034 H   0  0  0  0  0  0  0  0  0  0  0  0
  146.2652  141.5261  153.6361 H   0  0  0  0  0  0  0  0  0  0  0  0
  146.5625  143.1525  153.0753 H   0  0  0  0  0  0  0  0  0  0  0  0
  147.9480  143.4774  155.1119 H   0  0  0  0  0  0  0  0  0  0  0  0
  149.6115  142.8425  155.9373 H   0  0  0  0  0  0  0  0  0  0  0  0
  150.0428  139.2586  155.0661 H   0  0  0  0  0  0  0  0  0  0  0  0
  151.9151  137.9094  155.9934 H   0  0  0  0  0  0  0  0  0  0  0  0
  153.3830  138.9268  157.7514 H   0  0  0  0  0  0  0  0  0  0  0  0
  149.1675  142.5290  158.1209 H   0  0  0  0  0  0  0  0  0  0  0  0
  150.1614  142.3958  159.5610 H   0  0  0  0  0  0  0  0  0  0  0  0
  149.5287  144.9634  158.0189 H   0  0  0  0  0  0  0  0  0  0  0  0
  148.9353  144.5463  159.6095 H   0  0  0  0  0  0  0  0  0  0  0  0
  150.8763  146.1523  159.7126 H   0  0  0  0  0  0  0  0  0  0  0  0
  151.2177  144.6541  160.5492 H   0  0  0  0  0  0  0  0  0  0  0  0
  152.1413  145.3972  157.7298 H   0  0  0  0  0  0  0  0  0  0  0  0
  153.1600  145.2486  159.1425 H   0  0  0  0  0  0  0  0  0  0  0  0
  152.7043  142.8200  159.2820 H   0  0  0  0  0  0  0  0  0  0  0  0
  153.2744  143.2112  157.6690 H   0  0  0  0  0  0  0  0  0  0  0  0
  1  2  3  0  0  0  0
  1 24  1  0  0  0  0
  2  3  1  0  0  0  0
  3  4  1  0  0  0  0
  3 25  1  0  0  0  0
  3 26  1  0  0  0  0
  4  5  1  0  0  0  0
  4 27  1  0  0  0  0
  5  6  2  0  0  0  0
  5  7  1  0  0  0  0
  7  8  1  0  0  0  0
  7 28  1  0  0  0  0
  7 29  1  0  0  0  0
  8  9  1  0  0  0  0
  8 30  1  0  0  0  0
  9 10  2  0  0  0  0
  9 11  1  0  0  0  0
 11 12  1  0  0  0  0
 11 31  1  0  0  0  0
 12 17  1  0  0  0  0
 12 13  2  0  0  0  0
 13 14  1  0  0  0  0
 13 32  1  0  0  0  0
 14 15  2  0  0  0  0
 14 33  1  0  0  0  0
 15 16  1  0  0  0  0
 15 34  1  0  0  0  0
 16 17  2  0  0  0  0
 17 18  1  0  0  0  0
 18 23  1  0  0  0  0
 18 19  1  0  0  0  0
 19 20  1  0  0  0  0
 19 35  1  0  0  0  0
 19 36  1  0  0  0  0
 20 21  1  0  0  0  0
 20 37  1  0  0  0  0
 20 38  1  0  0  0  0
 21 22  1  0  0  0  0
 21 39  1  0  0  0  0
 21 40  1  0  0  0  0
 22 23  1  0  0  0  0
 22 41  1  0  0  0  0
 22 42  1  0  0  0  0
 23 43  1  0  0  0  0
 23 44  1  0  0  0  0
M  END
> <s_m_source_file>
AV-unprocessed.smi

> <i_m_source_file_index>
1057

> <i_lp_mmshare_version>
43012

> <i_f3d_flags>
0

> <s_epik_input>
W0NIXSNDW0NIMl1bTkhdQyg9TylbQ0gyXVtOSF1DKD1PKVtOSF1jMVtjSF1bY0hdW2NIXW5jMU4yW0NIMl1bQ0gyXVtDSDJdW0NIMl1bQ0gyXTI=

> <s_epik_cmdline>
J2VwaWtfcHl0aG9uJywgJy1waCcsICc3LjAnLCAnLXRuJywgJzgnLCAnLW1hJywgJzIwMCcsICctbWV0YWxfYmluZGluZycsICctaW1hZScsICc8aW5maWxlLm1hZT4nLCAnLW9tYWUnLCAnPG91dGZpbGUubWFlPic=

> <r_lp_tautomer_probability>
1

> <r_epik_Ionization_Penalty>
0.251144

> <r_epik_Ionization_Penalty_Charging>
0

> <r_epik_Ionization_Penalty_Neutral>
0.251144

> <r_epik_State_Penalty>
0.236346

> <r_epik_Charging_Adjusted_Penalty>
0.236346

> <i_epik_Tot_Q>
0

> <i_epik_Tot_abs_Q>
0

> <r_epik_Metal_State_Penalty>
0.166327

> <b_epik_Metal_Only>
0

> <s_lp_Force_Field>
OPLS_2005

> <r_lp_Energy>
16.5817

> <b_lp_Chiralities_Consistent>
1

> <s_lp_Variant>
AV-unprocessed.smi:1057-1

> <Gold.Version>
5.8.1

> <Gold.Id.Protein>
6NUR|6NUR_protein|mol2

> <Gold.PLP.Fitness>
45.5382

> <Gold.PLP.PLP>
-40.7305

> <Gold.PLP.part.hbond>
-2.8687

> <Gold.PLP.part.metal>
0.0000

> <Gold.PLP.part.buried>
-2.8718

> <Gold.PLP.part.nonpolar>
-35.7928

> <Gold.PLP.part.repulsive>
0.6481

> <Gold.PLP.ligand.clash>
0.0000

> <Gold.PLP.ligand.torsion>
0.5573

> <Gold.PLP.Chemscore.Hbond>
1.9040

> <Gold.PLP.Chemscore.CHOScore>
0.0000

> <Gold.PLP.Chemscore.Metal>
0.0000

> <Gold.Chemscore.Hbonds>
donor molecule, donor type, donor heavy atom, donor atom, acceptor molecule, acceptor atom, score
      L1  H     8    30       P1  8028  1.00
      L1  H    11    31       P1  8028  0.92

> <Gold.PLP.Chemscore.Internal.Correction>
0.2102

> <Gold.Rescore>
     Score         DG    S(hbond)    S(metal)    S(lipo)     H(rot)  DE(clash)    DE(int)     intcor
     14.91     -17.03       1.38        0.00      98.40       1.79       0.23       1.89       ----

> <Gold.Chemscore.Fitness>
14.9105

> <Gold.Chemscore.DG>
-17.0324

> <Gold.Chemscore.ZeroCoef>
-5.4800

> <Gold.Chemscore.Hbond>
1.3809

> <Gold.Chemscore.Metal>
0.0000

> <Gold.Chemscore.Lipo>
98.3958

> <Gold.Chemscore.Internal_Hbond>
0.0000

> <Gold.Chemscore.DEClash>
0.2316

> <Gold.Chemscore.DEInternal>
1.8903

> <Gold.Chemscore.Rot>
1.7860

> <Gold.Chemscore.Internal.Correction>
   9.000000E+99

> <Gold.Chemscore.Hbonds>
donor molecule, donor type, donor heavy atom, donor atom, acceptor molecule, acceptor atom, score
      L1  H     8    30       P1  8028  0.60
      L1  H    11    31       P1  8028  0.84

> <Gold.Chemscore.Hbond.Weighted>
-4.6121

> <Gold.Chemscore.Metal.Weighted>
-0.0000

> <Gold.Chemscore.Lipo.Weighted>
-11.5123

> <Gold.Chemscore.Internal_Hbond.Weighted>
0.0000

> <Gold.Chemscore.DEClash.Weighted>
0.2316

> <Gold.Chemscore.DEInternal.Weighted>
1.8903

> <Gold.Chemscore.Rot.Weighted>
4.5721

> <Gold.Chemscore.Internal.Correction.Weighted>
   9.000000E+99

> <Gold.Protein.RotatedTorsions>
[ 6907 6896 6895 6894 ] final  -21.91 input  -60.11 | X-H torsion
[ 7974 7965 7964 7962 ] final  136.99 input  175.53 | X-H torsion
[ 8008 7997 7996 7995 ] final  -96.11 input   59.86 | X-H torsion
[ 10167 10162 10161 10158 ] final -104.67 input  -65.29 | X-H torsion
[ 10718 10713 10712 10709 ] final  -40.07 input   66.30 | X-H torsion
[ 10763 10752 10751 10750 ] final  123.26 input  -60.55 | X-H torsion
[ 11005 11000 10999 10996 ] final   37.29 input  -57.11 | X-H torsion

> <Gold.Protein.ActiveResidues>
 VAL166  LYS551  ARG553  GLY616  TRP617  ASP618  TYR619  PRO620  LYS621  CYS622 
 ASP623  PHE694  ASN695  SER759  ASP760  ASP761  ALA762  ILE779  LEU786  VAL792 
 PHE793  MET794  SER795  GLU796  ALA797  LYS798  CYS799  TRP800  GLU811  SER814 

> <Gold.Protein.RotatedAtoms>
  151.2263  135.0538  159.8969 H   0  0  0  0  0  0  0  0  0  0  0  0  # atno 6907 bound_to 6896
  152.5410  134.0585  159.8152 H   0  0  0  0  0  0  0  0  0  0  0  0  # atno 6908 bound_to 6896
  151.0759  133.5380  159.2655 H   0  0  0  0  0  0  0  0  0  0  0  0  # atno 6909 bound_to 6896
  144.9511  139.4817  143.5525 H   0  0  0  0  0  0  0  0  0  0  0  0  # atno 7974 bound_to 7965
  154.7702  140.0474  157.1045 H   0  0  0  0  0  0  0  0  0  0  0  0  # atno 8008 bound_to 7997
  154.9830  140.3104  155.4919 H   0  0  0  0  0  0  0  0  0  0  0  0  # atno 8009 bound_to 7997
  156.2920  140.2232  156.4930 H   0  0  0  0  0  0  0  0  0  0  0  0  # atno 8010 bound_to 7997
  140.2067  143.3777  152.1084 H   0  0  0  0  0  0  0  0  0  0  0  0  # atno 10167 bound_to 10162
  156.2854  130.4222  149.8293 H   0  0  0  0  0  0  0  0  0  0  0  0  # atno 10718 bound_to 10713
  153.6427  135.3376  155.3076 H   0  0  0  0  0  0  0  0  0  0  0  0  # atno 10763 bound_to 10752
  154.8556  135.4322  154.1987 H   0  0  0  0  0  0  0  0  0  0  0  0  # atno 10764 bound_to 10752
  153.2910  135.7017  153.7367 H   0  0  0  0  0  0  0  0  0  0  0  0  # atno 10765 bound_to 10752
  140.2240  134.3606  155.7992 H   0  0  0  0  0  0  0  0  0  0  0  0  # atno 11005 bound_to 11000
  146.3321  139.8597  142.8858 LP  0  0  0  0  0  0  0  0  0  0  0  0  # atno 17320 bound_to 7965
  145.2842  141.0148  143.3700 LP  0  0  0  0  0  0  0  0  0  0  0  0  # atno 17321 bound_to 7965
  139.5195  144.7021  151.5463 LP  0  0  0  0  0  0  0  0  0  0  0  0  # atno 17342 bound_to 10162
  140.6352  143.8998  150.6641 LP  0  0  0  0  0  0  0  0  0  0  0  0  # atno 17343 bound_to 10162
  156.5726  130.8431  151.3361 LP  0  0  0  0  0  0  0  0  0  0  0  0  # atno 17370 bound_to 10713
  157.7327  130.9719  150.1940 LP  0  0  0  0  0  0  0  0  0  0  0  0  # atno 17371 bound_to 10713
  141.2221  133.7209  156.8623 LP  0  0  0  0  0  0  0  0  0  0  0  0  # atno 17394 bound_to 11000
  140.1819  134.9027  157.2959 LP  0  0  0  0  0  0  0  0  0  0  0  0  # atno 17395 bound_to 11000

$$$$
