AV-unprocessed.smi:1570|AV-procd|sdf|6321|dock6
  -GOLD-   22720 6533D 1   1.00000     0.00000
 Structure written by MMmdl.
 52 54  0  0  0  0  0  0  0  0  2 V2000
  155.8941  140.0707  160.2369 C   0  0  0  0  0  0  0  0  0  0  0  0
  154.5295  140.1633  160.9318 C   0  0  0  0  0  0  0  0  0  0  0  0
  153.5523  140.8456  160.0873 N   0  0  0  0  0  0  0  0  0  0  0  0
  153.0938  140.4268  158.8849 C   0  0  0  0  0  0  0  0  0  0  0  0
  153.4392  139.4041  158.2929 O   0  0  0  0  0  0  0  0  0  0  0  0
  152.1715  141.3186  158.4515 N   0  0  0  0  0  0  0  0  0  0  0  0
  151.4200  141.2469  157.1991 C   0  0  0  0  0  0  0  0  0  0  0  0
  150.5401  139.9822  157.1305 C   0  0  1  0  0  0  0  0  0  0  0  0
  149.2599  140.3050  157.6378 O   0  0  0  0  0  0  0  0  0  0  0  0
  150.3583  139.4909  155.6805 C   0  0  0  0  0  0  0  0  0  0  0  0
  149.0368  139.8722  155.1219 N   0  3  1  0  0  0  0  0  0  0  0  0
  148.9820  141.2903  154.6968 C   0  0  0  0  0  0  0  0  0  0  0  0
  147.5729  141.6652  154.1964 C   0  0  2  0  0  0  0  0  0  0  0  0
  146.5381  141.8087  155.3268 C   0  0  0  0  0  0  0  0  0  0  0  0
  147.1472  140.7494  153.1871 O   0  0  0  0  0  0  0  0  0  0  0  0
  147.1621  139.3777  153.5752 C   0  0  1  0  0  0  0  0  0  0  0  0
  146.6880  138.5433  152.3800 C   0  0  0  0  0  0  0  0  0  0  0  0
  148.5824  138.9887  154.0213 C   0  0  0  0  0  0  0  0  0  0  0  0
  152.0259  142.3313  159.4111 C   0  0  0  0  0  0  0  0  0  0  0  0
  151.1944  143.4647  159.4454 C   0  0  0  0  0  0  0  0  0  0  0  0
  151.2854  144.2994  160.5841 C   0  0  0  0  0  0  0  0  0  0  0  0
  152.1808  143.9927  161.6413 C   0  0  0  0  0  0  0  0  0  0  0  0
  153.0039  142.8440  161.5831 C   0  0  0  0  0  0  0  0  0  0  0  0
  152.8953  142.0329  160.4401 C   0  0  0  0  0  0  0  0  0  0  0  0
  156.6193  139.5625  160.8727 H   0  0  0  0  0  0  0  0  0  0  0  0
  156.2890  141.0611  160.0087 H   0  0  0  0  0  0  0  0  0  0  0  0
  155.8243  139.5135  159.3022 H   0  0  0  0  0  0  0  0  0  0  0  0
  154.1665  139.1651  161.1786 H   0  0  0  0  0  0  0  0  0  0  0  0
  154.6329  140.6905  161.8815 H   0  0  0  0  0  0  0  0  0  0  0  0
  150.8299  142.1493  157.0362 H   0  0  0  0  0  0  0  0  0  0  0  0
  152.1510  141.2280  156.3889 H   0  0  0  0  0  0  0  0  0  0  0  0
  150.9748  139.1918  157.7412 H   0  0  0  0  0  0  0  0  0  0  0  0
  149.1707  139.9267  158.4996 H   0  0  0  0  0  0  0  0  0  0  0  0
  151.1608  139.9040  155.0667 H   0  0  0  0  0  0  0  0  0  0  0  0
  150.4648  138.4064  155.6240 H   0  0  0  0  0  0  0  0  0  0  0  0
  149.2679  141.9434  155.5227 H   0  0  0  0  0  0  0  0  0  0  0  0
  149.7105  141.4507  153.9004 H   0  0  0  0  0  0  0  0  0  0  0  0
  147.6427  142.6386  153.7095 H   0  0  0  0  0  0  0  0  0  0  0  0
  146.8209  142.6108  156.0091 H   0  0  0  0  0  0  0  0  0  0  0  0
  146.4416  140.8994  155.9195 H   0  0  0  0  0  0  0  0  0  0  0  0
  145.5547  142.0522  154.9242 H   0  0  0  0  0  0  0  0  0  0  0  0
  146.4630  139.2185  154.3966 H   0  0  0  0  0  0  0  0  0  0  0  0
  146.6675  137.4811  152.6255 H   0  0  0  0  0  0  0  0  0  0  0  0
  147.3452  138.6753  151.5199 H   0  0  0  0  0  0  0  0  0  0  0  0
  145.6816  138.8334  152.0772 H   0  0  0  0  0  0  0  0  0  0  0  0
  149.2757  139.0664  153.1817 H   0  0  0  0  0  0  0  0  0  0  0  0
  148.5881  137.9469  154.3402 H   0  0  0  0  0  0  0  0  0  0  0  0
  150.5106  143.6937  158.6421 H   0  0  0  0  0  0  0  0  0  0  0  0
  150.6639  145.1802  160.6505 H   0  0  0  0  0  0  0  0  0  0  0  0
  152.2331  144.6432  162.5019 H   0  0  0  0  0  0  0  0  0  0  0  0
  153.6843  142.6032  162.3865 H   0  0  0  0  0  0  0  0  0  0  0  0
  148.3718  139.7765  155.8768 H   0  0  0  0  0  0  0  0  0  0  0  0
  1  2  1  0  0  0  0
  1 25  1  0  0  0  0
  1 26  1  0  0  0  0
  1 27  1  0  0  0  0
  2  3  1  0  0  0  0
  2 28  1  0  0  0  0
  2 29  1  0  0  0  0
  3 24  1  0  0  0  0
  3  4  1  0  0  0  0
  4  5  2  0  0  0  0
  4  6  1  0  0  0  0
  6  7  1  0  0  0  0
  6 19  1  0  0  0  0
  7  8  1  0  0  0  0
  7 30  1  0  0  0  0
  7 31  1  0  0  0  0
  8  9  1  0  0  0  0
  8 10  1  0  0  0  0
  8 32  1  0  0  0  0
  9 33  1  0  0  0  0
 10 11  1  0  0  0  0
 10 34  1  0  0  0  0
 10 35  1  0  0  0  0
 11 18  1  0  0  0  0
 11 12  1  0  0  0  0
 11 52  1  0  0  0  0
 12 13  1  0  0  0  0
 12 36  1  0  0  0  0
 12 37  1  0  0  0  0
 13 14  1  0  0  0  0
 13 15  1  0  0  0  0
 13 38  1  0  0  0  0
 14 39  1  0  0  0  0
 14 40  1  0  0  0  0
 14 41  1  0  0  0  0
 15 16  1  0  0  0  0
 16 17  1  0  0  0  0
 16 18  1  0  0  0  0
 16 42  1  0  0  0  0
 17 43  1  0  0  0  0
 17 44  1  0  0  0  0
 17 45  1  0  0  0  0
 18 46  1  0  0  0  0
 18 47  1  0  0  0  0
 19 24  2  0  0  0  0
 19 20  1  0  0  0  0
 20 21  2  0  0  0  0
 20 48  1  0  0  0  0
 21 22  1  0  0  0  0
 21 49  1  0  0  0  0
 22 23  2  0  0  0  0
 22 50  1  0  0  0  0
 23 24  1  0  0  0  0
 23 51  1  0  0  0  0
M  CHG  1  11   1
M  END
> <s_m_source_file>
AV-unprocessed.smi

> <i_m_source_file_index>
1570

> <i_lp_mmshare_version>
43012

> <i_f3d_flags>
0

> <s_epik_input>
W2NIXTFbY0hdW2NIXVtjSF1jKGMxMiluKFtDSDJdW0NIM10pYyg9TyluMltDSDJdW0NASF0oW09IXSlbQ0gyXU4zW0NIMl1bQ0BASF0oW0NIM10pT1tDQEBIXShbQ0gzXSlbQ0gyXTM=

> <s_epik_cmdline>
J2VwaWtfcHl0aG9uJywgJy1waCcsICc3LjAnLCAnLXRuJywgJzgnLCAnLW1hJywgJzIwMCcsICctbWV0YWxfYmluZGluZycsICctaW1hZScsICc8aW5maWxlLm1hZT4nLCAnLW9tYWUnLCAnPG91dGZpbGUubWFlPic=

> <r_epik_Ionization_Penalty>
0.706332

> <r_epik_Ionization_Penalty_Charging>
0.706318

> <r_epik_Ionization_Penalty_Neutral>
1.42224e-05

> <r_epik_State_Penalty>
0.729493

> <r_epik_Charging_Adjusted_Penalty>
1.43581

> <i_epik_Tot_Q>
1

> <i_epik_Tot_abs_Q>
1

> <r_epik_Metal_State_Penalty>
0.729493

> <b_epik_Metal_Only>
0

> <s_lp_Force_Field>
OPLS_2005

> <r_lp_Energy>
54.8336

> <b_lp_Chiralities_Consistent>
1

> <s_lp_Variant>
AV-unprocessed.smi:1570-10

> <Gold.Version>
5.8.1

> <Gold.Id.Protein>
6NUR|6NUR_protein|mol2

> <Gold.PLP.Fitness>
52.4455

> <Gold.PLP.PLP>
-51.7751

> <Gold.PLP.part.hbond>
-1.0000

> <Gold.PLP.part.metal>
0.0000

> <Gold.PLP.part.buried>
-4.9372

> <Gold.PLP.part.nonpolar>
-46.1028

> <Gold.PLP.part.repulsive>
0.3871

> <Gold.PLP.ligand.clash>
0.0000

> <Gold.PLP.ligand.torsion>
1.2224

> <Gold.PLP.Chemscore.Hbond>
1.0000

> <Gold.PLP.Chemscore.CHOScore>
0.0000

> <Gold.PLP.Chemscore.Metal>
0.0000

> <Gold.Chemscore.Hbonds>
donor molecule, donor type, donor heavy atom, donor atom, acceptor molecule, acceptor atom, score
      P1  H  7997  8010       L1     5  1.00

> <Gold.PLP.Chemscore.Internal.Correction>
0.1152

> <Gold.Rescore>
     Score         DG    S(hbond)    S(metal)    S(lipo)     H(rot)  DE(clash)    DE(int)     intcor
     17.64     -19.25       0.97        0.00     136.55       2.13       0.29       1.33       ----

> <Gold.Chemscore.Fitness>
17.6368

> <Gold.Chemscore.DG>
-19.2501

> <Gold.Chemscore.ZeroCoef>
-5.4800

> <Gold.Chemscore.Hbond>
0.9723

> <Gold.Chemscore.Metal>
0.0000

> <Gold.Chemscore.Lipo>
136.5495

> <Gold.Chemscore.Internal_Hbond>
0.0000

> <Gold.Chemscore.DEClash>
0.2877

> <Gold.Chemscore.DEInternal>
1.3256

> <Gold.Chemscore.Rot>
2.1303

> <Gold.Chemscore.Internal.Correction>
   9.000000E+99

> <Gold.Chemscore.Hbonds>
donor molecule, donor type, donor heavy atom, donor atom, acceptor molecule, acceptor atom, score
      P1  H  7997  8010       L1     5  0.39

> <Gold.Chemscore.Hbond.Weighted>
-3.2474

> <Gold.Chemscore.Metal.Weighted>
-0.0000

> <Gold.Chemscore.Lipo.Weighted>
-15.9763

> <Gold.Chemscore.Internal_Hbond.Weighted>
0.0000

> <Gold.Chemscore.DEClash.Weighted>
0.2877

> <Gold.Chemscore.DEInternal.Weighted>
1.3256

> <Gold.Chemscore.Rot.Weighted>
5.4535

> <Gold.Chemscore.Internal.Correction.Weighted>
   9.000000E+99

> <Gold.Protein.RotatedTorsions>
[ 6907 6896 6895 6894 ] final   56.13 input  -60.11 | X-H torsion
[ 7974 7965 7964 7962 ] final   -9.58 input  175.53 | X-H torsion
[ 8008 7997 7996 7995 ] final   42.73 input   59.86 | X-H torsion
[ 10167 10162 10161 10158 ] final  -99.20 input  -65.29 | X-H torsion
[ 10718 10713 10712 10709 ] final  -98.81 input   66.30 | X-H torsion
[ 10763 10752 10751 10750 ] final  -53.70 input  -60.55 | X-H torsion
[ 11005 11000 10999 10996 ] final  127.82 input  -57.11 | X-H torsion

> <Gold.Protein.ActiveResidues>
 VAL166  LYS551  ARG553  GLY616  TRP617  ASP618  TYR619  PRO620  LYS621  CYS622 
 ASP623  PHE694  ASN695  SER759  ASP760  ASP761  ALA762  ILE779  LEU786  VAL792 
 PHE793  MET794  SER795  GLU796  ALA797  LYS798  CYS799  TRP800  GLU811  SER814 

> <Gold.Protein.RotatedAtoms>
  152.3606  134.6877  160.0208 H   0  0  0  0  0  0  0  0  0  0  0  0  # atno 6907 bound_to 6896
  151.7202  133.3309  159.3321 H   0  0  0  0  0  0  0  0  0  0  0  0  # atno 6908 bound_to 6896
  150.7602  134.6389  159.6271 H   0  0  0  0  0  0  0  0  0  0  0  0  # atno 6909 bound_to 6896
  146.2247  140.2637  142.8353 H   0  0  0  0  0  0  0  0  0  0  0  0  # atno 7974 bound_to 7965
  155.2910  140.3379  155.4252 H   0  0  0  0  0  0  0  0  0  0  0  0  # atno 8008 bound_to 7997
  156.2046  140.1746  156.7868 H   0  0  0  0  0  0  0  0  0  0  0  0  # atno 8009 bound_to 7997
  154.5603  140.0688  156.8793 H   0  0  0  0  0  0  0  0  0  0  0  0  # atno 8010 bound_to 7997
  140.2649  143.3382  152.0590 H   0  0  0  0  0  0  0  0  0  0  0  0  # atno 10167 bound_to 10162
  156.0117  130.5255  150.6578 H   0  0  0  0  0  0  0  0  0  0  0  0  # atno 10718 bound_to 10713
  154.1630  135.6471  153.4990 H   0  0  0  0  0  0  0  0  0  0  0  0  # atno 10763 bound_to 10752
  153.0105  135.5365  154.6691 H   0  0  0  0  0  0  0  0  0  0  0  0  # atno 10764 bound_to 10752
  154.6010  135.2943  155.0507 H   0  0  0  0  0  0  0  0  0  0  0  0  # atno 10765 bound_to 10752
  139.9528  134.9619  156.8912 H   0  0  0  0  0  0  0  0  0  0  0  0  # atno 11005 bound_to 11000
  144.9320  140.7985  143.5683 LP  0  0  0  0  0  0  0  0  0  0  0  0  # atno 17320 bound_to 7965
  145.2582  139.2003  143.4906 LP  0  0  0  0  0  0  0  0  0  0  0  0  # atno 17321 bound_to 7965
  139.5006  144.6694  151.6278 LP  0  0  0  0  0  0  0  0  0  0  0  0  # atno 17342 bound_to 10162
  140.5936  143.9735  150.6340 LP  0  0  0  0  0  0  0  0  0  0  0  0  # atno 17343 bound_to 10162
  157.4326  131.0851  151.1023 LP  0  0  0  0  0  0  0  0  0  0  0  0  # atno 17370 bound_to 10713
  157.1591  130.6217  149.5605 LP  0  0  0  0  0  0  0  0  0  0  0  0  # atno 17371 bound_to 10713
  140.5679  134.0471  155.7420 LP  0  0  0  0  0  0  0  0  0  0  0  0  # atno 17394 bound_to 11000
  141.1194  133.9487  157.2759 LP  0  0  0  0  0  0  0  0  0  0  0  0  # atno 17395 bound_to 11000

$$$$
