AV-unprocessed.smi:1912|AV-procd|sdf|7749|dock2
  -GOLD-   22720 9483D 1   1.00000     0.00000
 Structure written by MMmdl.
 43 45  0  0  0  0  0  0  0  0  1 V2000
  143.1705  143.7535  158.2116 C   0  0  0  0  0  0  0  0  0  0  0  0
  144.4284  143.2029  158.5728 O   0  0  0  0  0  0  0  0  0  0  0  0
  145.1966  142.6331  157.5803 C   0  0  0  0  0  0  0  0  0  0  0  0
  144.7908  142.5091  156.2309 C   0  0  0  0  0  0  0  0  0  0  0  0
  145.6374  141.9026  155.2851 C   0  0  0  0  0  0  0  0  0  0  0  0
  146.9098  141.4062  155.6612 C   0  0  0  0  0  0  0  0  0  0  0  0
  147.7674  140.7806  154.7793 O   0  0  0  0  0  0  0  0  0  0  0  0
  147.3375  140.5932  153.4395 C   0  0  0  0  0  0  0  0  0  0  0  0
  147.3237  141.5375  157.0097 C   0  0  0  0  0  0  0  0  0  0  0  0
  148.6715  140.9792  157.4660 C   0  0  1  0  0  0  0  0  0  0  0  0
  148.7261  139.5681  157.4004 O   0  0  0  0  0  0  0  0  0  0  0  0
  149.8481  141.5402  156.6390 C   0  0  0  0  0  0  0  0  0  0  0  0
  151.1453  141.1830  157.1980 N   0  0  0  0  0  0  0  0  0  0  0  0
  152.0453  140.2926  156.7135 C   0  0  0  0  0  0  0  0  0  0  0  0
  151.8028  139.5345  155.4472 C   0  0  0  0  0  0  0  0  0  0  0  0
  153.1530  140.1316  157.4375 N   0  0  0  0  0  0  0  0  0  0  0  0
  152.9541  141.0016  158.4921 C   0  0  0  0  0  0  0  0  0  0  0  0
  153.7672  141.2875  159.6122 C   0  0  0  0  0  0  0  0  0  0  0  0
  153.3471  142.2244  160.5788 C   0  0  0  0  0  0  0  0  0  0  0  0
  152.1114  142.8886  160.4394 C   0  0  0  0  0  0  0  0  0  0  0  0
  151.2872  142.6202  159.3301 C   0  0  0  0  0  0  0  0  0  0  0  0
  151.7095  141.6819  158.3690 C   0  0  0  0  0  0  0  0  0  0  0  0
  146.4632  142.1445  157.9516 C   0  0  0  0  0  0  0  0  0  0  0  0
  142.6836  144.1499  159.1025 H   0  0  0  0  0  0  0  0  0  0  0  0
  142.5116  142.9958  157.7855 H   0  0  0  0  0  0  0  0  0  0  0  0
  143.2820  144.5760  157.5039 H   0  0  0  0  0  0  0  0  0  0  0  0
  143.8301  142.8683  155.8945 H   0  0  0  0  0  0  0  0  0  0  0  0
  145.2819  141.8274  154.2689 H   0  0  0  0  0  0  0  0  0  0  0  0
  148.0773  139.9960  152.9067 H   0  0  0  0  0  0  0  0  0  0  0  0
  147.2406  141.5447  152.9153 H   0  0  0  0  0  0  0  0  0  0  0  0
  146.3892  140.0554  153.3968 H   0  0  0  0  0  0  0  0  0  0  0  0
  148.8229  141.2222  158.5173 H   0  0  0  0  0  0  0  0  0  0  0  0
  149.6165  139.2955  157.5615 H   0  0  0  0  0  0  0  0  0  0  0  0
  149.8017  141.1695  155.6145 H   0  0  0  0  0  0  0  0  0  0  0  0
  149.7822  142.6267  156.5692 H   0  0  0  0  0  0  0  0  0  0  0  0
  152.6305  138.8538  155.2455 H   0  0  0  0  0  0  0  0  0  0  0  0
  151.7127  140.2224  154.6064 H   0  0  0  0  0  0  0  0  0  0  0  0
  150.8884  138.9467  155.5242 H   0  0  0  0  0  0  0  0  0  0  0  0
  154.7151  140.7836  159.7284 H   0  0  0  0  0  0  0  0  0  0  0  0
  153.9760  142.4342  161.4316 H   0  0  0  0  0  0  0  0  0  0  0  0
  151.7957  143.6029  161.1856 H   0  0  0  0  0  0  0  0  0  0  0  0
  150.3373  143.1230  159.2249 H   0  0  0  0  0  0  0  0  0  0  0  0
  146.7690  142.2271  158.9843 H   0  0  0  0  0  0  0  0  0  0  0  0
  1  2  1  0  0  0  0
  1 24  1  0  0  0  0
  1 25  1  0  0  0  0
  1 26  1  0  0  0  0
  2  3  1  0  0  0  0
  3 23  1  0  0  0  0
  3  4  2  0  0  0  0
  4  5  1  0  0  0  0
  4 27  1  0  0  0  0
  5  6  2  0  0  0  0
  5 28  1  0  0  0  0
  6  7  1  0  0  0  0
  6  9  1  0  0  0  0
  7  8  1  0  0  0  0
  8 29  1  0  0  0  0
  8 30  1  0  0  0  0
  8 31  1  0  0  0  0
  9 10  1  0  0  0  0
  9 23  2  0  0  0  0
 10 11  1  0  0  0  0
 10 12  1  0  0  0  0
 10 32  1  0  0  0  0
 11 33  1  0  0  0  0
 12 13  1  0  0  0  0
 12 34  1  0  0  0  0
 12 35  1  0  0  0  0
 13 22  1  0  0  0  0
 13 14  1  0  0  0  0
 14 15  1  0  0  0  0
 14 16  2  0  0  0  0
 15 36  1  0  0  0  0
 15 37  1  0  0  0  0
 15 38  1  0  0  0  0
 16 17  1  0  0  0  0
 17 22  2  0  0  0  0
 17 18  1  0  0  0  0
 18 19  2  0  0  0  0
 18 39  1  0  0  0  0
 19 20  1  0  0  0  0
 19 40  1  0  0  0  0
 20 21  2  0  0  0  0
 20 41  1  0  0  0  0
 21 22  1  0  0  0  0
 21 42  1  0  0  0  0
 23 43  1  0  0  0  0
M  END
> <s_m_source_file>
AV-unprocessed.smi

> <i_m_source_file_index>
1912

> <i_lp_mmshare_version>
43012

> <i_f3d_flags>
0

> <s_epik_input>
W0NIM11PYzFbY0hdW2NIXWMoT1tDSDNdKWMoW2NIXTEpW0NASF0oW09IXSlbQ0gyXW4oYyhuMilbQ0gzXSljKGMyMylbY0hdW2NIXVtjSF1bY0hdMw==

> <s_epik_cmdline>
J2VwaWtfcHl0aG9uJywgJy1waCcsICc3LjAnLCAnLXRuJywgJzgnLCAnLW1hJywgJzIwMCcsICctbWV0YWxfYmluZGluZycsICctaW1hZScsICc8aW5maWxlLm1hZT4nLCAnLW9tYWUnLCAnPG91dGZpbGUubWFlPic=

> <r_lp_tautomer_probability>
1

> <r_epik_Ionization_Penalty>
0.129663

> <r_epik_Ionization_Penalty_Charging>
0

> <r_epik_Ionization_Penalty_Neutral>
0.129663

> <r_epik_State_Penalty>
0.119073

> <r_epik_Charging_Adjusted_Penalty>
0.119073

> <i_epik_Tot_Q>
0

> <i_epik_Tot_abs_Q>
0

> <r_epik_Metal_State_Penalty>
0.000131867

> <b_epik_Metal_Only>
0

> <s_lp_Force_Field>
OPLS_2005

> <r_lp_Energy>
18.0714

> <b_lp_Chiralities_Consistent>
1

> <s_lp_Variant>
AV-unprocessed.smi:1912-2

> <Gold.Version>
5.8.1

> <Gold.Id.Protein>
6NUR|6NUR_protein|mol2

> <Gold.PLP.Fitness>
41.3440

> <Gold.PLP.PLP>
-38.8853

> <Gold.PLP.part.hbond>
-1.0000

> <Gold.PLP.part.metal>
0.0000

> <Gold.PLP.part.buried>
-3.4936

> <Gold.PLP.part.nonpolar>
-33.8069

> <Gold.PLP.part.repulsive>
0.2121

> <Gold.PLP.ligand.clash>
0.0000

> <Gold.PLP.ligand.torsion>
0.2445

> <Gold.PLP.Chemscore.Hbond>
0.9600

> <Gold.PLP.Chemscore.CHOScore>
0.0000

> <Gold.PLP.Chemscore.Metal>
0.0000

> <Gold.Chemscore.Hbonds>
donor molecule, donor type, donor heavy atom, donor atom, acceptor molecule, acceptor atom, score
      P1  H  7997  8009       L1    16  0.75

> <Gold.PLP.Chemscore.Internal.Correction>
0.0678

> <Gold.Rescore>
     Score         DG    S(hbond)    S(metal)    S(lipo)     H(rot)  DE(clash)    DE(int)     intcor
     12.74     -14.27       0.66        0.00     103.59       2.17       0.25       1.27       ----

> <Gold.Chemscore.Fitness>
12.7436

> <Gold.Chemscore.DG>
-14.2675

> <Gold.Chemscore.ZeroCoef>
-5.4800

> <Gold.Chemscore.Hbond>
0.6645

> <Gold.Chemscore.Metal>
0.0000

> <Gold.Chemscore.Lipo>
103.5949

> <Gold.Chemscore.Internal_Hbond>
0.0000

> <Gold.Chemscore.DEClash>
0.2519

> <Gold.Chemscore.DEInternal>
1.2720

> <Gold.Chemscore.Rot>
2.1690

> <Gold.Chemscore.Internal.Correction>
   9.000000E+99

> <Gold.Chemscore.Hbonds>
donor molecule, donor type, donor heavy atom, donor atom, acceptor molecule, acceptor atom, score
      P1  H  7997  8009       L1    16  0.54

> <Gold.Chemscore.Hbond.Weighted>
-2.2195

> <Gold.Chemscore.Metal.Weighted>
-0.0000

> <Gold.Chemscore.Lipo.Weighted>
-12.1206

> <Gold.Chemscore.Internal_Hbond.Weighted>
0.0000

> <Gold.Chemscore.DEClash.Weighted>
0.2519

> <Gold.Chemscore.DEInternal.Weighted>
1.2720

> <Gold.Chemscore.Rot.Weighted>
5.5526

> <Gold.Chemscore.Internal.Correction.Weighted>
   9.000000E+99

> <Gold.Protein.RotatedTorsions>
[ 6907 6896 6895 6894 ] final  -87.67 input  -60.11 | X-H torsion
[ 7974 7965 7964 7962 ] final  103.02 input  175.53 | X-H torsion
[ 8008 7997 7996 7995 ] final  149.63 input   59.86 | X-H torsion
[ 10167 10162 10161 10158 ] final  -41.79 input  -65.29 | X-H torsion
[ 10718 10713 10712 10709 ] final  -43.93 input   66.30 | X-H torsion
[ 10763 10752 10751 10750 ] final   48.11 input  -60.55 | X-H torsion
[ 11005 11000 10999 10996 ] final -136.89 input  -57.11 | X-H torsion

> <Gold.Protein.ActiveResidues>
 VAL166  LYS551  ARG553  GLY616  TRP617  ASP618  TYR619  PRO620  LYS621  CYS622 
 ASP623  PHE694  ASN695  SER759  ASP760  ASP761  ALA762  ILE779  LEU786  VAL792 
 PHE793  MET794  SER795  GLU796  ALA797  LYS798  CYS799  TRP800  GLU811  SER814 

> <Gold.Protein.RotatedAtoms>
  150.6867  134.2860  159.4646 H   0  0  0  0  0  0  0  0  0  0  0  0  # atno 6907 bound_to 6896
  152.0770  134.9494  160.0583 H   0  0  0  0  0  0  0  0  0  0  0  0  # atno 6908 bound_to 6896
  152.0861  133.4142  159.4560 H   0  0  0  0  0  0  0  0  0  0  0  0  # atno 6909 bound_to 6896
  145.3514  139.2438  143.3556 H   0  0  0  0  0  0  0  0  0  0  0  0  # atno 7974 bound_to 7965
  156.2747  140.2096  156.5888 H   0  0  0  0  0  0  0  0  0  0  0  0  # atno 8008 bound_to 7997
  154.6999  140.0522  157.0471 H   0  0  0  0  0  0  0  0  0  0  0  0  # atno 8009 bound_to 7997
  155.0749  140.3180  155.4622 H   0  0  0  0  0  0  0  0  0  0  0  0  # atno 8010 bound_to 7997
  140.6991  143.3074  151.3116 H   0  0  0  0  0  0  0  0  0  0  0  0  # atno 10167 bound_to 10162
  156.2438  130.4182  149.8729 H   0  0  0  0  0  0  0  0  0  0  0  0  # atno 10718 bound_to 10713
  152.9794  135.5955  154.3872 H   0  0  0  0  0  0  0  0  0  0  0  0  # atno 10763 bound_to 10752
  154.3531  135.2767  155.2363 H   0  0  0  0  0  0  0  0  0  0  0  0  # atno 10764 bound_to 10752
  154.4393  135.6017  153.6174 H   0  0  0  0  0  0  0  0  0  0  0  0  # atno 10765 bound_to 10752
  140.8762  134.1988  157.4620 H   0  0  0  0  0  0  0  0  0  0  0  0  # atno 11005 bound_to 11000
  146.2966  140.4131  142.8719 LP  0  0  0  0  0  0  0  0  0  0  0  0  # atno 17320 bound_to 7965
  144.8715  140.7278  143.6044 LP  0  0  0  0  0  0  0  0  0  0  0  0  # atno 17321 bound_to 7965
  139.6485  144.0406  152.2609 LP  0  0  0  0  0  0  0  0  0  0  0  0  # atno 17342 bound_to 10162
  139.9935  144.6345  150.7793 LP  0  0  0  0  0  0  0  0  0  0  0  0  # atno 17343 bound_to 10162
  156.6301  130.8662  151.3493 LP  0  0  0  0  0  0  0  0  0  0  0  0  # atno 17370 bound_to 10713
  157.7186  130.9529  150.1351 LP  0  0  0  0  0  0  0  0  0  0  0  0  # atno 17371 bound_to 10713
  139.8716  134.9797  156.5046 LP  0  0  0  0  0  0  0  0  0  0  0  0  # atno 17394 bound_to 11000
  140.8515  133.8129  155.9173 LP  0  0  0  0  0  0  0  0  0  0  0  0  # atno 17395 bound_to 11000

$$$$
