AV-unprocessed.smi:314|AV-procd|sdf|2314|dock3
  -GOLD-   2262022213D 1   1.00000     0.00000
 Structure written by MMmdl.
 48 49  0  0  0  0  0  0  0  0  1 V2000
  147.4246  128.0738  152.4844 C   0  0  0  0  0  0  0  0  0  0  0  0
  148.3206  128.5951  153.4599 O   0  0  0  0  0  0  0  0  0  0  0  0
  148.5272  129.9589  153.4970 C   0  0  0  0  0  0  0  0  0  0  0  0
  147.5604  130.8031  152.9152 C   0  0  0  0  0  0  0  0  0  0  0  0
  147.7600  132.1962  152.9548 C   0  0  0  0  0  0  0  0  0  0  0  0
  148.9223  132.7021  153.5834 C   0  0  0  0  0  0  0  0  0  0  0  0
  149.2416  134.0832  153.6686 N   0  0  0  0  0  0  0  0  0  0  0  0
  149.8563  134.7309  154.6726 C   0  0  0  0  0  0  0  0  0  0  0  0
  150.2796  134.2064  155.7028 O   0  0  0  0  0  0  0  0  0  0  0  0
  149.9813  136.0380  154.4026 N   0  0  0  0  0  0  0  0  0  0  0  0
  150.6347  137.0106  155.2711 C   0  0  0  0  0  0  0  0  0  0  0  0
  150.8962  138.3368  154.5292 C   0  0  0  0  0  0  0  0  0  0  0  0
  151.6976  139.3624  155.3488 C   0  0  0  0  0  0  0  0  0  0  0  0
  152.8574  139.6166  155.0199 O   0  0  0  0  0  0  0  0  0  0  0  0
  151.1001  139.9630  156.4060 N   0  0  0  0  0  0  0  0  0  0  0  0
  149.7179  139.7598  156.8505 C   0  0  0  0  0  0  0  0  0  0  0  0
  148.9247  141.0691  156.6556 C   0  0  2  0  0  0  0  0  0  0  0  0
  148.6346  141.4096  155.1826 C   0  0  0  0  0  0  0  0  0  0  0  0
  149.5949  142.1451  157.3203 O   0  0  0  0  0  0  0  0  0  0  0  0
  150.9695  142.3287  156.9719 C   0  0  1  0  0  0  0  0  0  0  0  0
  151.5235  143.4778  157.8214 C   0  0  0  0  0  0  0  0  0  0  0  0
  151.7387  141.0132  157.2014 C   0  0  0  0  0  0  0  0  0  0  0  0
  149.8382  131.7727  154.1180 C   0  0  0  0  0  0  0  0  0  0  0  0
  149.6512  130.4366  154.0865 N   0  0  0  0  0  0  0  0  0  0  0  0
  147.3782  126.9891  152.5799 H   0  0  0  0  0  0  0  0  0  0  0  0
  147.7608  128.3022  151.4719 H   0  0  0  0  0  0  0  0  0  0  0  0
  146.4143  128.4614  152.6226 H   0  0  0  0  0  0  0  0  0  0  0  0
  146.6813  130.3891  152.4435 H   0  0  0  0  0  0  0  0  0  0  0  0
  147.0308  132.8444  152.4940 H   0  0  0  0  0  0  0  0  0  0  0  0
  149.0380  134.6281  152.8436 H   0  0  0  0  0  0  0  0  0  0  0  0
  149.6064  136.3841  153.5315 H   0  0  0  0  0  0  0  0  0  0  0  0
  149.9849  137.1820  156.1300 H   0  0  0  0  0  0  0  0  0  0  0  0
  151.5643  136.5913  155.6611 H   0  0  0  0  0  0  0  0  0  0  0  0
  151.4448  138.1303  153.6095 H   0  0  0  0  0  0  0  0  0  0  0  0
  149.9420  138.7820  154.2449 H   0  0  0  0  0  0  0  0  0  0  0  0
  149.2069  138.9381  156.3512 H   0  0  0  0  0  0  0  0  0  0  0  0
  149.7280  139.4923  157.9081 H   0  0  0  0  0  0  0  0  0  0  0  0
  147.9615  140.9546  157.1535 H   0  0  0  0  0  0  0  0  0  0  0  0
  148.0375  140.6261  154.7155 H   0  0  0  0  0  0  0  0  0  0  0  0
  149.5447  141.5174  154.5933 H   0  0  0  0  0  0  0  0  0  0  0  0
  148.0745  142.3414  155.1037 H   0  0  0  0  0  0  0  0  0  0  0  0
  151.0437  142.6169  155.9228 H   0  0  0  0  0  0  0  0  0  0  0  0
  152.5696  143.6727  157.5841 H   0  0  0  0  0  0  0  0  0  0  0  0
  151.4577  143.2498  158.8856 H   0  0  0  0  0  0  0  0  0  0  0  0
  150.9660  144.3975  157.6426 H   0  0  0  0  0  0  0  0  0  0  0  0
  151.7126  140.7346  158.2560 H   0  0  0  0  0  0  0  0  0  0  0  0
  152.7919  141.1499  156.9526 H   0  0  0  0  0  0  0  0  0  0  0  0
  150.7474  132.1102  154.5939 H   0  0  0  0  0  0  0  0  0  0  0  0
  1  2  1  0  0  0  0
  1 25  1  0  0  0  0
  1 26  1  0  0  0  0
  1 27  1  0  0  0  0
  2  3  1  0  0  0  0
  3 24  1  0  0  0  0
  3  4  2  0  0  0  0
  4  5  1  0  0  0  0
  4 28  1  0  0  0  0
  5  6  2  0  0  0  0
  5 29  1  0  0  0  0
  6  7  1  0  0  0  0
  6 23  1  0  0  0  0
  7  8  1  0  0  0  0
  7 30  1  0  0  0  0
  8  9  2  0  0  0  0
  8 10  1  0  0  0  0
 10 11  1  0  0  0  0
 10 31  1  0  0  0  0
 11 12  1  0  0  0  0
 11 32  1  0  0  0  0
 11 33  1  0  0  0  0
 12 13  1  0  0  0  0
 12 34  1  0  0  0  0
 12 35  1  0  0  0  0
 13 14  2  0  0  0  0
 13 15  1  0  0  0  0
 15 22  1  0  0  0  0
 15 16  1  0  0  0  0
 16 17  1  0  0  0  0
 16 36  1  0  0  0  0
 16 37  1  0  0  0  0
 17 18  1  0  0  0  0
 17 19  1  0  0  0  0
 17 38  1  0  0  0  0
 18 39  1  0  0  0  0
 18 40  1  0  0  0  0
 18 41  1  0  0  0  0
 19 20  1  0  0  0  0
 20 21  1  0  0  0  0
 20 22  1  0  0  0  0
 20 42  1  0  0  0  0
 21 43  1  0  0  0  0
 21 44  1  0  0  0  0
 21 45  1  0  0  0  0
 22 46  1  0  0  0  0
 22 47  1  0  0  0  0
 23 24  2  0  0  0  0
 23 48  1  0  0  0  0
M  END
> <s_m_source_file>
AV-unprocessed.smi

> <i_m_source_file_index>
314

> <i_lp_mmshare_version>
43012

> <i_f3d_flags>
0

> <s_epik_input>
W0NIM11PYzFbY0hdW2NIXWMoW2NIXW4xKVtOSF1DKD1PKVtOSF1bQ0gyXVtDSDJdQyg9TylOMltDSDJdW0NAQEhdKFtDSDNdKU9bQ0BASF0oW0NIM10pW0NIMl0y

> <s_epik_cmdline>
J2VwaWtfcHl0aG9uJywgJy1waCcsICc3LjAnLCAnLXRuJywgJzgnLCAnLW1hJywgJzIwMCcsICctbWV0YWxfYmluZGluZycsICctaW1hZScsICc8aW5maWxlLm1hZT4nLCAnLW9tYWUnLCAnPG91dGZpbGUubWFlPic=

> <r_lp_tautomer_probability>
1

> <r_epik_Ionization_Penalty>
8.55977e-05

> <r_epik_Ionization_Penalty_Charging>
0

> <r_epik_Ionization_Penalty_Neutral>
8.55977e-05

> <r_epik_State_Penalty>
-0

> <r_epik_Charging_Adjusted_Penalty>
0

> <i_epik_Tot_Q>
0

> <i_epik_Tot_abs_Q>
0

> <r_epik_Metal_State_Penalty>
-0

> <b_epik_Metal_Only>
0

> <s_lp_Force_Field>
OPLS_2005

> <r_lp_Energy>
25.8744

> <b_lp_Chiralities_Consistent>
1

> <s_lp_Variant>
AV-unprocessed.smi:314-2

> <Gold.Version>
5.8.1

> <Gold.Id.Protein>
6NUR|6NUR_protein|mol2

> <Gold.PLP.Fitness>
47.4361

> <Gold.PLP.PLP>
-40.1889

> <Gold.PLP.part.hbond>
-4.2303

> <Gold.PLP.part.metal>
0.0000

> <Gold.PLP.part.buried>
-4.4849

> <Gold.PLP.part.nonpolar>
-31.8249

> <Gold.PLP.part.repulsive>
0.4778

> <Gold.PLP.ligand.clash>
0.0000

> <Gold.PLP.ligand.torsion>
0.7489

> <Gold.PLP.Chemscore.Hbond>
2.9061

> <Gold.PLP.Chemscore.CHOScore>
0.0000

> <Gold.PLP.Chemscore.Metal>
0.0000

> <Gold.Chemscore.Hbonds>
donor molecule, donor type, donor heavy atom, donor atom, acceptor molecule, acceptor atom, score
      L1  H     7    30       P1  7948  0.40
      L1  H    10    31       P1  7948  1.00
      P1  H  7997  8008       L1    14  1.00

> <Gold.PLP.Chemscore.Internal.Correction>
0.0269

> <Gold.Rescore>
     Score         DG    S(hbond)    S(metal)    S(lipo)     H(rot)  DE(clash)    DE(int)     intcor
     16.90     -18.89       2.63        0.00      79.14       1.81       0.05       1.95       ----

> <Gold.Chemscore.Fitness>
16.8967

> <Gold.Chemscore.DG>
-18.8948

> <Gold.Chemscore.ZeroCoef>
-5.4800

> <Gold.Chemscore.Hbond>
2.6288

> <Gold.Chemscore.Metal>
0.0000

> <Gold.Chemscore.Lipo>
79.1434

> <Gold.Chemscore.Internal_Hbond>
0.0000

> <Gold.Chemscore.DEClash>
0.0515

> <Gold.Chemscore.DEInternal>
1.9466

> <Gold.Chemscore.Rot>
1.8067

> <Gold.Chemscore.Internal.Correction>
   9.000000E+99

> <Gold.Chemscore.Hbonds>
donor molecule, donor type, donor heavy atom, donor atom, acceptor molecule, acceptor atom, score
      L1  H     7    30       P1  7948  0.01
      L1  H    10    31       P1  7948  0.49
      P1  H  7997  8008       L1    14  1.00

> <Gold.Chemscore.Hbond.Weighted>
-8.7802

> <Gold.Chemscore.Metal.Weighted>
-0.0000

> <Gold.Chemscore.Lipo.Weighted>
-9.2598

> <Gold.Chemscore.Internal_Hbond.Weighted>
0.0000

> <Gold.Chemscore.DEClash.Weighted>
0.0515

> <Gold.Chemscore.DEInternal.Weighted>
1.9466

> <Gold.Chemscore.Rot.Weighted>
4.6252

> <Gold.Chemscore.Internal.Correction.Weighted>
   9.000000E+99

> <Gold.Protein.RotatedTorsions>
[ 6907 6896 6895 6894 ] final  109.69 input  -60.11 | X-H torsion
[ 7974 7965 7964 7962 ] final    3.90 input  175.53 | X-H torsion
[ 8008 7997 7996 7995 ] final  -19.98 input   59.86 | X-H torsion
[ 10167 10162 10161 10158 ] final -169.82 input  -65.29 | X-H torsion
[ 10718 10713 10712 10709 ] final  176.68 input   66.30 | X-H torsion
[ 10763 10752 10751 10750 ] final  105.38 input  -60.55 | X-H torsion
[ 11005 11000 10999 10996 ] final    1.09 input  -57.11 | X-H torsion

> <Gold.Protein.ActiveResidues>
 VAL166  LYS551  ARG553  GLY616  TRP617  ASP618  TYR619  PRO620  LYS621  CYS622 
 ASP623  PHE694  ASN695  SER759  ASP760  ASP761  ALA762  ILE779  LEU786  VAL792 
 PHE793  MET794  SER795  GLU796  ALA797  LYS798  CYS799  TRP800  GLU811  SER814 

> <Gold.Protein.RotatedAtoms>
  152.5055  133.8908  159.7392 H   0  0  0  0  0  0  0  0  0  0  0  0  # atno 6907 bound_to 6896
  150.9347  133.6717  159.2810 H   0  0  0  0  0  0  0  0  0  0  0  0  # atno 6908 bound_to 6896
  151.4049  135.0981  159.9620 H   0  0  0  0  0  0  0  0  0  0  0  0  # atno 6909 bound_to 6896
  146.2445  140.0616  142.8368 H   0  0  0  0  0  0  0  0  0  0  0  0  # atno 7974 bound_to 7965
  154.4800  140.2074  155.9786 H   0  0  0  0  0  0  0  0  0  0  0  0  # atno 8008 bound_to 7997
  156.1150  140.3223  155.8096 H   0  0  0  0  0  0  0  0  0  0  0  0  # atno 8009 bound_to 7997
  155.4569  140.0521  157.2986 H   0  0  0  0  0  0  0  0  0  0  0  0  # atno 8010 bound_to 7997
  139.5899  144.1235  152.1622 H   0  0  0  0  0  0  0  0  0  0  0  0  # atno 10167 bound_to 10162
  156.9165  130.9927  151.3012 H   0  0  0  0  0  0  0  0  0  0  0  0  # atno 10718 bound_to 10713
  153.3786  135.3912  155.1841 H   0  0  0  0  0  0  0  0  0  0  0  0  # atno 10763 bound_to 10752
  154.8704  135.3720  154.4885 H   0  0  0  0  0  0  0  0  0  0  0  0  # atno 10764 bound_to 10752
  153.5360  135.7085  153.5721 H   0  0  0  0  0  0  0  0  0  0  0  0  # atno 10765 bound_to 10752
  140.6193  133.9676  155.8216 H   0  0  0  0  0  0  0  0  0  0  0  0  # atno 11005 bound_to 11000
  145.0895  140.9275  143.4777 LP  0  0  0  0  0  0  0  0  0  0  0  0  # atno 17320 bound_to 7965
  145.0785  139.2977  143.5795 LP  0  0  0  0  0  0  0  0  0  0  0  0  # atno 17321 bound_to 7965
  140.0807  144.5702  150.7124 LP  0  0  0  0  0  0  0  0  0  0  0  0  # atno 17342 bound_to 10162
  140.7164  143.2548  151.4420 LP  0  0  0  0  0  0  0  0  0  0  0  0  # atno 17343 bound_to 10162
  157.5934  130.8460  149.8693 LP  0  0  0  0  0  0  0  0  0  0  0  0  # atno 17370 bound_to 10713
  156.0511  130.3717  150.1199 LP  0  0  0  0  0  0  0  0  0  0  0  0  # atno 17371 bound_to 10713
  141.0754  134.0143  157.3466 LP  0  0  0  0  0  0  0  0  0  0  0  0  # atno 17394 bound_to 11000
  139.9160  135.0196  156.7882 LP  0  0  0  0  0  0  0  0  0  0  0  0  # atno 17395 bound_to 11000

$$$$
