AV-unprocessed.smi:232|AV-procd|sdf|1767|dock8
  -GOLD-   2262020303D 1   1.00000     0.00000
 Structure written by MMmdl.
 52 55  0  0  0  0  0  0  0  0  1 V2000
  151.5478  145.0395  159.1778 C   0  0  0  0  0  0  0  0  0  0  0  0
  151.8213  143.7621  158.3720 C   0  0  0  0  0  0  0  0  0  0  0  0
  151.6664  142.4364  159.1521 C   0  0  2  0  0  0  0  0  0  0  0  0
  152.2861  142.5316  160.5489 C   0  0  0  0  0  0  0  0  0  0  0  0
  152.5567  141.0752  160.9051 C   0  0  0  0  0  0  0  0  0  0  0  0
  152.9469  140.4367  159.5654 C   0  0  1  0  0  0  0  0  0  0  0  0
  152.5510  138.9455  159.5078 C   0  0  0  0  0  0  0  0  0  0  0  0
  152.3509  141.2984  158.5375 N   0  0  0  0  0  0  0  0  0  0  0  0
  151.8935  140.7362  157.3937 C   0  0  0  0  0  0  0  0  0  0  0  0
  152.6668  139.8460  156.7190 N   0  0  0  0  0  0  0  0  0  0  0  0
  152.2259  139.3079  155.5780 C   0  0  0  0  0  0  0  0  0  0  0  0
  151.0711  139.5239  154.9444 N   0  0  0  0  0  0  0  0  0  0  0  0
  150.2961  140.4213  155.6187 C   0  0  0  0  0  0  0  0  0  0  0  0
  150.6276  141.0671  156.8417 C   0  0  0  0  0  0  0  0  0  0  0  0
  149.5948  141.9091  157.2334 N   0  0  0  0  0  0  0  0  0  0  0  0
  148.7021  141.7719  156.2914 C   0  0  0  0  0  0  0  0  0  0  0  0
  149.0511  140.9153  155.2707 N   0  0  0  0  0  0  0  0  0  0  0  0
  148.2537  140.5857  154.1023 C   0  0  0  0  0  0  0  0  0  0  0  0
  147.9544  139.0754  153.9591 C   0  0  2  0  0  0  0  0  0  0  0  0
  149.1235  138.5063  153.4056 O   0  0  0  0  0  0  0  0  0  0  0  0
  146.7814  138.7145  153.0173 C   0  0  2  0  0  0  0  0  0  0  0  0
  146.2825  137.2669  153.0793 C   0  0  0  0  0  0  0  0  0  0  0  0
  145.7060  137.0081  151.6963 C   0  0  0  0  0  0  0  0  0  0  0  0
  146.2288  138.1732  150.8569 C   0  0  0  0  0  0  0  0  0  0  0  0
  147.2224  138.7807  151.6683 O   0  0  0  0  0  0  0  0  0  0  0  0
  151.8222  145.9224  158.6006 H   0  0  0  0  0  0  0  0  0  0  0  0
  152.1251  145.0552  160.1024 H   0  0  0  0  0  0  0  0  0  0  0  0
  150.4934  145.1392  159.4321 H   0  0  0  0  0  0  0  0  0  0  0  0
  151.1897  143.7480  157.4828 H   0  0  0  0  0  0  0  0  0  0  0  0
  152.8474  143.8219  158.0076 H   0  0  0  0  0  0  0  0  0  0  0  0
  150.6080  142.1972  159.2662 H   0  0  0  0  0  0  0  0  0  0  0  0
  153.2304  143.0773  160.5118 H   0  0  0  0  0  0  0  0  0  0  0  0
  151.6359  143.0313  161.2674 H   0  0  0  0  0  0  0  0  0  0  0  0
  153.3273  140.9600  161.6677 H   0  0  0  0  0  0  0  0  0  0  0  0
  151.6387  140.6261  161.2875 H   0  0  0  0  0  0  0  0  0  0  0  0
  154.0278  140.5163  159.4453 H   0  0  0  0  0  0  0  0  0  0  0  0
  152.9792  138.4020  160.3502 H   0  0  0  0  0  0  0  0  0  0  0  0
  152.9128  138.4615  158.6008 H   0  0  0  0  0  0  0  0  0  0  0  0
  151.4687  138.8176  159.5494 H   0  0  0  0  0  0  0  0  0  0  0  0
  152.8963  138.6071  155.1029 H   0  0  0  0  0  0  0  0  0  0  0  0
  147.7622  142.3044  156.3096 H   0  0  0  0  0  0  0  0  0  0  0  0
  147.3241  141.1559  154.1280 H   0  0  0  0  0  0  0  0  0  0  0  0
  148.8078  140.9397  153.2314 H   0  0  0  0  0  0  0  0  0  0  0  0
  147.7954  138.6326  154.9429 H   0  0  0  0  0  0  0  0  0  0  0  0
  148.8824  137.7236  152.9341 H   0  0  0  0  0  0  0  0  0  0  0  0
  145.9421  139.3981  153.1624 H   0  0  0  0  0  0  0  0  0  0  0  0
  147.1163  136.5855  153.2515 H   0  0  0  0  0  0  0  0  0  0  0  0
  145.5462  137.1095  153.8669 H   0  0  0  0  0  0  0  0  0  0  0  0
  146.0483  136.0479  151.3088 H   0  0  0  0  0  0  0  0  0  0  0  0
  144.6155  136.9975  151.7077 H   0  0  0  0  0  0  0  0  0  0  0  0
  146.6422  137.8510  149.9008 H   0  0  0  0  0  0  0  0  0  0  0  0
  145.4338  138.8942  150.6607 H   0  0  0  0  0  0  0  0  0  0  0  0
  1  2  1  0  0  0  0
  1 26  1  0  0  0  0
  1 27  1  0  0  0  0
  1 28  1  0  0  0  0
  2  3  1  0  0  0  0
  2 29  1  0  0  0  0
  2 30  1  0  0  0  0
  3  8  1  0  0  0  0
  3  4  1  0  0  0  0
  3 31  1  0  0  0  0
  4  5  1  0  0  0  0
  4 32  1  0  0  0  0
  4 33  1  0  0  0  0
  5  6  1  0  0  0  0
  5 34  1  0  0  0  0
  5 35  1  0  0  0  0
  6  7  1  0  0  0  0
  6  8  1  0  0  0  0
  6 36  1  0  0  0  0
  7 37  1  0  0  0  0
  7 38  1  0  0  0  0
  7 39  1  0  0  0  0
  8  9  1  0  0  0  0
  9 14  1  0  0  0  0
  9 10  2  0  0  0  0
 10 11  1  0  0  0  0
 11 12  2  0  0  0  0
 11 40  1  0  0  0  0
 12 13  1  0  0  0  0
 13 17  1  0  0  0  0
 13 14  2  0  0  0  0
 14 15  1  0  0  0  0
 15 16  2  0  0  0  0
 16 17  1  0  0  0  0
 16 41  1  0  0  0  0
 17 18  1  0  0  0  0
 18 19  1  0  0  0  0
 18 42  1  0  0  0  0
 18 43  1  0  0  0  0
 19 20  1  0  0  0  0
 19 21  1  0  0  0  0
 19 44  1  0  0  0  0
 20 45  1  0  0  0  0
 21 25  1  0  0  0  0
 21 22  1  0  0  0  0
 21 46  1  0  0  0  0
 22 23  1  0  0  0  0
 22 47  1  0  0  0  0
 22 48  1  0  0  0  0
 23 24  1  0  0  0  0
 23 49  1  0  0  0  0
 23 50  1  0  0  0  0
 24 25  1  0  0  0  0
 24 51  1  0  0  0  0
 24 52  1  0  0  0  0
M  END
> <s_m_source_file>
AV-unprocessed.smi

> <i_m_source_file_index>
232

> <i_lp_mmshare_version>
43012

> <i_f3d_flags>
0

> <s_epik_input>
W0NIM11bQ0gyXVtDQEBIXTFbQ0gyXVtDSDJdW0NAQEhdKFtDSDNdKU4xYyhuW2NIXW4yKWMoYzIzKW5bY0hdbjNbQ0gyXVtDQEhdKFtPSF0pW0NAQEhdNFtDSDJdW0NIMl1bQ0gyXU80

> <s_epik_cmdline>
J2VwaWtfcHl0aG9uJywgJy1waCcsICc3LjAnLCAnLXRuJywgJzgnLCAnLW1hJywgJzIwMCcsICctbWV0YWxfYmluZGluZycsICctaW1hZScsICc8aW5maWxlLm1hZT4nLCAnLW9tYWUnLCAnPG91dGZpbGUubWFlPic=

> <r_lp_tautomer_probability>
1

> <r_epik_Ionization_Penalty>
0.00258048

> <r_epik_Ionization_Penalty_Charging>
0

> <r_epik_Ionization_Penalty_Neutral>
0.00258048

> <r_epik_State_Penalty>
0.00168551

> <r_epik_Charging_Adjusted_Penalty>
0.00168551

> <i_epik_Tot_Q>
0

> <i_epik_Tot_abs_Q>
0

> <r_epik_Metal_State_Penalty>
-0

> <b_epik_Metal_Only>
0

> <s_lp_Force_Field>
OPLS_2005

> <r_lp_Energy>
58.3797

> <b_lp_Chiralities_Consistent>
1

> <s_lp_Variant>
AV-unprocessed.smi:232-1

> <Gold.Version>
5.8.1

> <Gold.Id.Protein>
6NUR|6NUR_protein|mol2

> <Gold.PLP.Fitness>
51.7905

> <Gold.PLP.PLP>
-44.5430

> <Gold.PLP.part.hbond>
-4.1008

> <Gold.PLP.part.metal>
0.0000

> <Gold.PLP.part.buried>
-0.2201

> <Gold.PLP.part.nonpolar>
-42.2868

> <Gold.PLP.part.repulsive>
2.5019

> <Gold.PLP.ligand.clash>
0.0000

> <Gold.PLP.ligand.torsion>
1.0506

> <Gold.PLP.Chemscore.Hbond>
2.6500

> <Gold.PLP.Chemscore.CHOScore>
0.2805

> <Gold.PLP.Chemscore.Metal>
0.0000

> <Gold.Chemscore.Hbonds>
donor molecule, donor type, donor heavy atom, donor atom, acceptor molecule, acceptor atom, score
      L1  H    20    45       P1  7948  1.00
      P1  H  7989  7998       L1    12  0.71
      P1  H  7997  8009       L1    10  1.00
      L1  C    16    41       P1  8028  0.16

> <Gold.PLP.Chemscore.Internal.Correction>
0.5572

> <Gold.Rescore>
     Score         DG    S(hbond)    S(metal)    S(lipo)     H(rot)  DE(clash)    DE(int)     intcor
     13.02     -18.70       1.76        0.00     110.26       2.18       1.74       3.93       ----

> <Gold.Chemscore.Fitness>
13.0247

> <Gold.Chemscore.DG>
-18.6976

> <Gold.Chemscore.ZeroCoef>
-5.4800

> <Gold.Chemscore.Hbond>
1.7640

> <Gold.Chemscore.Metal>
0.0000

> <Gold.Chemscore.Lipo>
110.2567

> <Gold.Chemscore.Internal_Hbond>
0.0000

> <Gold.Chemscore.DEClash>
1.7389

> <Gold.Chemscore.DEInternal>
3.9340

> <Gold.Chemscore.Rot>
2.1775

> <Gold.Chemscore.Internal.Correction>
   9.000000E+99

> <Gold.Chemscore.Hbonds>
donor molecule, donor type, donor heavy atom, donor atom, acceptor molecule, acceptor atom, score
      L1  H    20    45       P1  7948  1.00
      P1  H  7989  7998       L1    12  0.03
      P1  H  7997  8009       L1    10  0.59

> <Gold.Chemscore.Hbond.Weighted>
-5.8919

> <Gold.Chemscore.Metal.Weighted>
-0.0000

> <Gold.Chemscore.Lipo.Weighted>
-12.9000

> <Gold.Chemscore.Internal_Hbond.Weighted>
0.0000

> <Gold.Chemscore.DEClash.Weighted>
1.7389

> <Gold.Chemscore.DEInternal.Weighted>
3.9340

> <Gold.Chemscore.Rot.Weighted>
5.5744

> <Gold.Chemscore.Internal.Correction.Weighted>
   9.000000E+99

> <Gold.Protein.RotatedTorsions>
[ 6907 6896 6895 6894 ] final   61.38 input  -60.11 | X-H torsion
[ 7974 7965 7964 7962 ] final  -22.23 input  175.53 | X-H torsion
[ 8008 7997 7996 7995 ] final -173.09 input   59.86 | X-H torsion
[ 10167 10162 10161 10158 ] final  134.71 input  -65.29 | X-H torsion
[ 10718 10713 10712 10709 ] final -176.62 input   66.30 | X-H torsion
[ 10763 10752 10751 10750 ] final  105.39 input  -60.55 | X-H torsion
[ 11005 11000 10999 10996 ] final -115.17 input  -57.11 | X-H torsion

> <Gold.Protein.ActiveResidues>
 VAL166  LYS551  ARG553  GLY616  TRP617  ASP618  TYR619  PRO620  LYS621  CYS622 
 ASP623  PHE694  ASN695  SER759  ASP760  ASP761  ALA762  ILE779  LEU786  VAL792 
 PHE793  MET794  SER795  GLU796  ALA797  LYS798  CYS799  TRP800  GLU811  SER814 

> <Gold.Protein.RotatedAtoms>
  152.4084  134.6167  160.0039 H   0  0  0  0  0  0  0  0  0  0  0  0  # atno 6907 bound_to 6896
  151.6352  133.3324  159.3126 H   0  0  0  0  0  0  0  0  0  0  0  0  # atno 6908 bound_to 6896
  150.7977  134.7089  159.6637 H   0  0  0  0  0  0  0  0  0  0  0  0  # atno 6909 bound_to 6896
  146.1688  140.4450  142.8541 H   0  0  0  0  0  0  0  0  0  0  0  0  # atno 7974 bound_to 7965
  155.9530  140.1130  157.0960 H   0  0  0  0  0  0  0  0  0  0  0  0  # atno 8008 bound_to 7997
  154.4114  140.1197  156.5144 H   0  0  0  0  0  0  0  0  0  0  0  0  # atno 8009 bound_to 7997
  155.6818  140.3473  155.4860 H   0  0  0  0  0  0  0  0  0  0  0  0  # atno 8010 bound_to 7997
  139.5245  144.6554  151.5179 H   0  0  0  0  0  0  0  0  0  0  0  0  # atno 10167 bound_to 10162
  156.8174  130.9608  151.3113 H   0  0  0  0  0  0  0  0  0  0  0  0  # atno 10718 bound_to 10713
  153.3787  135.3911  155.1841 H   0  0  0  0  0  0  0  0  0  0  0  0  # atno 10763 bound_to 10752
  154.8704  135.3720  154.4884 H   0  0  0  0  0  0  0  0  0  0  0  0  # atno 10764 bound_to 10752
  153.5359  135.7085  153.5721 H   0  0  0  0  0  0  0  0  0  0  0  0  # atno 10765 bound_to 10752
  141.0505  133.9694  157.2844 H   0  0  0  0  0  0  0  0  0  0  0  0  # atno 11005 bound_to 11000
  144.8131  140.6421  143.6402 LP  0  0  0  0  0  0  0  0  0  0  0  0  # atno 17320 bound_to 7965
  145.4397  139.1537  143.3977 LP  0  0  0  0  0  0  0  0  0  0  0  0  # atno 17321 bound_to 7965
  140.6377  143.8952  150.6662 LP  0  0  0  0  0  0  0  0  0  0  0  0  # atno 17342 bound_to 10162
  140.2276  143.3760  152.1592 LP  0  0  0  0  0  0  0  0  0  0  0  0  # atno 17343 bound_to 10162
  157.6474  130.8856  149.9566 LP  0  0  0  0  0  0  0  0  0  0  0  0  # atno 17370 bound_to 10713
  156.1008  130.3656  150.0221 LP  0  0  0  0  0  0  0  0  0  0  0  0  # atno 17371 bound_to 10713
  139.9347  135.0197  156.8515 LP  0  0  0  0  0  0  0  0  0  0  0  0  # atno 17394 bound_to 11000
  140.6064  134.0123  155.7558 LP  0  0  0  0  0  0  0  0  0  0  0  0  # atno 17395 bound_to 11000

$$$$
