AV-unprocessed.smi:1672|AV-procd|sdf|6708|dock8
  -GOLD-   22720 7453D 1   1.00000     0.00000
 Structure written by MMmdl.
 49 51  0  0  0  0  0  0  0  0  3 V2000
  147.1403  142.0319  156.6176 C   0  0  0  0  0  0  0  0  0  0  0  0
  146.0467  142.1451  155.5411 C   0  0  2  0  0  0  0  0  0  0  0  0
  144.9560  141.0679  155.6833 C   0  0  0  0  0  0  0  0  0  0  0  0
  145.4464  139.6794  155.2356 C   0  0  0  0  0  0  0  0  0  0  0  0
  145.9622  139.7161  153.8414 N   0  3  2  0  0  0  0  0  0  0  0  0
  146.3331  138.3769  153.3158 C   0  0  0  0  0  0  0  0  0  0  0  0
  145.1366  137.4028  153.2620 C   0  0  1  0  0  0  0  0  0  0  0  0
  144.4034  137.6431  152.0786 O   0  0  0  0  0  0  0  0  0  0  0  0
  145.5490  135.9156  153.2595 C   0  0  0  0  0  0  0  0  0  0  0  0
  144.5014  135.0176  152.7474 N   0  0  0  0  0  0  0  0  0  0  0  0
  143.1839  134.8955  153.0886 C   0  0  0  0  0  0  0  0  0  0  0  0
  142.4355  135.6807  154.1164 C   0  0  0  0  0  0  0  0  0  0  0  0
  141.1098  135.2295  154.2837 O   0  0  0  0  0  0  0  0  0  0  0  0
  142.6556  133.9116  152.3074 N   0  3  0  0  0  0  0  0  0  0  0  0
  143.6432  133.3855  151.4742 C   0  0  0  0  0  0  0  0  0  0  0  0
  143.5874  132.3732  150.5209 C   0  0  0  0  0  0  0  0  0  0  0  0
  144.7889  132.0724  149.8463 C   0  0  0  0  0  0  0  0  0  0  0  0
  145.9834  132.7660  150.1295 C   0  0  0  0  0  0  0  0  0  0  0  0
  146.0269  133.7917  151.0970 C   0  0  0  0  0  0  0  0  0  0  0  0
  144.8337  134.0855  151.7571 C   0  0  0  0  0  0  0  0  0  0  0  0
  147.0647  140.7008  153.6934 C   0  0  0  0  0  0  0  0  0  0  0  0
  146.6130  142.1122  154.1099 C   0  0  0  0  0  0  0  0  0  0  0  0
  147.6892  141.0929  156.5518 H   0  0  0  0  0  0  0  0  0  0  0  0
  146.7108  142.0931  157.6179 H   0  0  0  0  0  0  0  0  0  0  0  0
  147.8637  142.8423  156.5240 H   0  0  0  0  0  0  0  0  0  0  0  0
  145.5713  143.1161  155.6863 H   0  0  0  0  0  0  0  0  0  0  0  0
  144.5984  141.0258  156.7128 H   0  0  0  0  0  0  0  0  0  0  0  0
  144.0943  141.3504  155.0767 H   0  0  0  0  0  0  0  0  0  0  0  0
  146.2266  139.3168  155.9061 H   0  0  0  0  0  0  0  0  0  0  0  0
  144.6185  138.9766  155.3164 H   0  0  0  0  0  0  0  0  0  0  0  0
  146.7376  138.4756  152.3072 H   0  0  0  0  0  0  0  0  0  0  0  0
  147.1393  137.9740  153.9297 H   0  0  0  0  0  0  0  0  0  0  0  0
  144.4694  137.5784  154.1042 H   0  0  0  0  0  0  0  0  0  0  0  0
  144.0551  138.5215  152.1090 H   0  0  0  0  0  0  0  0  0  0  0  0
  146.4485  135.7623  152.6614 H   0  0  0  0  0  0  0  0  0  0  0  0
  145.7979  135.5943  154.2711 H   0  0  0  0  0  0  0  0  0  0  0  0
  142.9533  135.6073  155.0732 H   0  0  0  0  0  0  0  0  0  0  0  0
  142.4267  136.7354  153.8414 H   0  0  0  0  0  0  0  0  0  0  0  0
  140.8614  134.7386  153.5146 H   0  0  0  0  0  0  0  0  0  0  0  0
  142.6747  131.8372  150.3049 H   0  0  0  0  0  0  0  0  0  0  0  0
  144.7954  131.2920  149.0989 H   0  0  0  0  0  0  0  0  0  0  0  0
  146.8853  132.5045  149.5949 H   0  0  0  0  0  0  0  0  0  0  0  0
  146.9489  134.3131  151.3084 H   0  0  0  0  0  0  0  0  0  0  0  0
  147.9238  140.3812  154.2848 H   0  0  0  0  0  0  0  0  0  0  0  0
  147.3935  140.7291  152.6539 H   0  0  0  0  0  0  0  0  0  0  0  0
  145.8456  142.4557  153.4148 H   0  0  0  0  0  0  0  0  0  0  0  0
  147.4418  142.8145  154.0145 H   0  0  0  0  0  0  0  0  0  0  0  0
  145.2091  140.0493  153.2561 H   0  0  0  0  0  0  0  0  0  0  0  0
  141.6878  133.6184  152.3485 H   0  0  0  0  0  0  0  0  0  0  0  0
  1  2  1  0  0  0  0
  1 23  1  0  0  0  0
  1 24  1  0  0  0  0
  1 25  1  0  0  0  0
  2 22  1  0  0  0  0
  2  3  1  0  0  0  0
  2 26  1  0  0  0  0
  3  4  1  0  0  0  0
  3 27  1  0  0  0  0
  3 28  1  0  0  0  0
  4  5  1  0  0  0  0
  4 29  1  0  0  0  0
  4 30  1  0  0  0  0
  5  6  1  0  0  0  0
  5 21  1  0  0  0  0
  5 48  1  0  0  0  0
  6  7  1  0  0  0  0
  6 31  1  0  0  0  0
  6 32  1  0  0  0  0
  7  8  1  0  0  0  0
  7  9  1  0  0  0  0
  7 33  1  0  0  0  0
  8 34  1  0  0  0  0
  9 10  1  0  0  0  0
  9 35  1  0  0  0  0
  9 36  1  0  0  0  0
 10 20  1  0  0  0  0
 10 11  1  0  0  0  0
 11 12  1  0  0  0  0
 11 14  2  0  0  0  0
 12 13  1  0  0  0  0
 12 37  1  0  0  0  0
 12 38  1  0  0  0  0
 13 39  1  0  0  0  0
 14 15  1  0  0  0  0
 14 49  1  0  0  0  0
 15 20  2  0  0  0  0
 15 16  1  0  0  0  0
 16 17  2  0  0  0  0
 16 40  1  0  0  0  0
 17 18  1  0  0  0  0
 17 41  1  0  0  0  0
 18 19  2  0  0  0  0
 18 42  1  0  0  0  0
 19 20  1  0  0  0  0
 19 43  1  0  0  0  0
 21 22  1  0  0  0  0
 21 44  1  0  0  0  0
 21 45  1  0  0  0  0
 22 46  1  0  0  0  0
 22 47  1  0  0  0  0
M  CHG  1   5   1
M  CHG  1  14   1
M  END
> <s_m_source_file>
AV-unprocessed.smi

> <i_m_source_file_index>
1672

> <i_lp_mmshare_version>
43012

> <i_f3d_flags>
0

> <s_epik_input>
W0NIM11bQ0hdMVtDSDJdW0NIMl1OKFtDSDJdW0NIMl0xKVtDSDJdW0NASF0oW09IXSlbQ0gyXW4oYyhuMilbQ0gyXVtPSF0pYyhjMjMpW2NIXVtjSF1bY0hdW2NIXTM=

> <s_epik_cmdline>
J2VwaWtfcHl0aG9uJywgJy1waCcsICc3LjAnLCAnLXRuJywgJzgnLCAnLW1hJywgJzIwMCcsICctbWV0YWxfYmluZGluZycsICctaW1hZScsICc8aW5maWxlLm1hZT4nLCAnLW9tYWUnLCAnPG91dGZpbGUubWFlPic=

> <r_epik_Ionization_Penalty>
1.51642

> <r_epik_Ionization_Penalty_Charging>
1.51557

> <r_epik_Ionization_Penalty_Neutral>
0.000856474

> <r_epik_State_Penalty>
1.6048

> <r_epik_Charging_Adjusted_Penalty>
3.12037

> <i_epik_Tot_Q>
2

> <i_epik_Tot_abs_Q>
2

> <r_epik_Metal_State_Penalty>
5.65673

> <b_epik_Metal_Only>
0

> <s_lp_Force_Field>
OPLS_2005

> <r_lp_Energy>
31.8272

> <b_lp_Chiralities_Consistent>
1

> <s_lp_Variant>
AV-unprocessed.smi:1672-8

> <Gold.Version>
5.8.1

> <Gold.Id.Protein>
6NUR|6NUR_protein|mol2

> <Gold.PLP.Fitness>
50.5288

> <Gold.PLP.PLP>
-39.6245

> <Gold.PLP.part.hbond>
-4.3660

> <Gold.PLP.part.metal>
0.0000

> <Gold.PLP.part.buried>
-8.4663

> <Gold.PLP.part.nonpolar>
-27.5172

> <Gold.PLP.part.repulsive>
0.0031

> <Gold.PLP.ligand.clash>
0.0000

> <Gold.PLP.ligand.torsion>
0.5479

> <Gold.PLP.Chemscore.Hbond>
3.9920

> <Gold.PLP.Chemscore.CHOScore>
0.0000

> <Gold.PLP.Chemscore.Metal>
0.0000

> <Gold.Chemscore.Hbonds>
donor molecule, donor type, donor heavy atom, donor atom, acceptor molecule, acceptor atom, score
      L1  H     5    48       P1 10175  2.00
      L1  H     8    34       P1 10175  1.00
      P1  H 11000 11005       L1    13  0.94

> <Gold.PLP.Chemscore.Internal.Correction>
0.0241

> <Gold.Rescore>
     Score         DG    S(hbond)    S(metal)    S(lipo)     H(rot)  DE(clash)    DE(int)     intcor
     16.84     -17.50       2.76        0.00      88.49       2.96       0.19       0.47       ----

> <Gold.Chemscore.Fitness>
16.8371

> <Gold.Chemscore.DG>
-17.4955

> <Gold.Chemscore.ZeroCoef>
-5.4800

> <Gold.Chemscore.Hbond>
2.7631

> <Gold.Chemscore.Metal>
0.0000

> <Gold.Chemscore.Lipo>
88.4862

> <Gold.Chemscore.Internal_Hbond>
0.0000

> <Gold.Chemscore.DEClash>
0.1870

> <Gold.Chemscore.DEInternal>
0.4715

> <Gold.Chemscore.Rot>
2.9555

> <Gold.Chemscore.Internal.Correction>
   9.000000E+99

> <Gold.Chemscore.Hbonds>
donor molecule, donor type, donor heavy atom, donor atom, acceptor molecule, acceptor atom, score
      L1  H     5    48       P1 10175  1.00
      L1  H     8    34       P1 10175  0.97
      P1  H 11000 11005       L1    13  0.45

> <Gold.Chemscore.Hbond.Weighted>
-9.2286

> <Gold.Chemscore.Metal.Weighted>
-0.0000

> <Gold.Chemscore.Lipo.Weighted>
-10.3529

> <Gold.Chemscore.Internal_Hbond.Weighted>
0.0000

> <Gold.Chemscore.DEClash.Weighted>
0.1870

> <Gold.Chemscore.DEInternal.Weighted>
0.4715

> <Gold.Chemscore.Rot.Weighted>
7.5660

> <Gold.Chemscore.Internal.Correction.Weighted>
   9.000000E+99

> <Gold.Protein.RotatedTorsions>
[ 6907 6896 6895 6894 ] final  156.20 input  -60.11 | X-H torsion
[ 7974 7965 7964 7962 ] final -126.50 input  175.53 | X-H torsion
[ 8008 7997 7996 7995 ] final -169.74 input   59.86 | X-H torsion
[ 10167 10162 10161 10158 ] final  -31.36 input  -65.29 | X-H torsion
[ 10718 10713 10712 10709 ] final   11.48 input   66.30 | X-H torsion
[ 10763 10752 10751 10750 ] final  178.10 input  -60.55 | X-H torsion
[ 11005 11000 10999 10996 ] final   29.27 input  -57.11 | X-H torsion

> <Gold.Protein.ActiveResidues>
 VAL166  LYS551  ARG553  GLY616  TRP617  ASP618  TYR619  PRO620  LYS621  CYS622 
 ASP623  PHE694  ASN695  SER759  ASP760  ASP761  ALA762  ILE779  LEU786  VAL792 
 PHE793  MET794  SER795  GLU796  ALA797  LYS798  CYS799  TRP800  GLU811  SER814 

> <Gold.Protein.RotatedAtoms>
  152.0332  133.3946  159.4305 H   0  0  0  0  0  0  0  0  0  0  0  0  # atno 6907 bound_to 6896
  150.6881  134.3498  159.4913 H   0  0  0  0  0  0  0  0  0  0  0  0  # atno 6908 bound_to 6896
  152.1287  134.9151  160.0610 H   0  0  0  0  0  0  0  0  0  0  0  0  # atno 6909 bound_to 6896
  144.9866  140.7692  143.4579 H   0  0  0  0  0  0  0  0  0  0  0  0  # atno 7974 bound_to 7965
  155.9090  140.1054  157.1294 H   0  0  0  0  0  0  0  0  0  0  0  0  # atno 8008 bound_to 7997
  154.4036  140.1278  156.4597 H   0  0  0  0  0  0  0  0  0  0  0  0  # atno 8009 bound_to 7997
  155.7333  140.3468  155.5072 H   0  0  0  0  0  0  0  0  0  0  0  0  # atno 8010 bound_to 7997
  140.7237  143.3777  151.1659 H   0  0  0  0  0  0  0  0  0  0  0  0  # atno 10167 bound_to 10162
  156.9963  130.6062  149.5691 H   0  0  0  0  0  0  0  0  0  0  0  0  # atno 10718 bound_to 10713
  154.5032  135.2784  155.1404 H   0  0  0  0  0  0  0  0  0  0  0  0  # atno 10763 bound_to 10752
  154.3029  135.6244  153.5436 H   0  0  0  0  0  0  0  0  0  0  0  0  # atno 10764 bound_to 10752
  152.9906  135.5701  154.5480 H   0  0  0  0  0  0  0  0  0  0  0  0  # atno 10765 bound_to 10752
  140.3067  134.2696  155.7742 H   0  0  0  0  0  0  0  0  0  0  0  0  # atno 11005 bound_to 11000
  145.2344  139.2100  143.5026 LP  0  0  0  0  0  0  0  0  0  0  0  0  # atno 17320 bound_to 7965
  146.3421  140.2227  142.8592 LP  0  0  0  0  0  0  0  0  0  0  0  0  # atno 17321 bound_to 7965
  139.7360  143.8998  152.3035 LP  0  0  0  0  0  0  0  0  0  0  0  0  # atno 17342 bound_to 10162
  139.8803  144.7021  150.8885 LP  0  0  0  0  0  0  0  0  0  0  0  0  # atno 17343 bound_to 10162
  156.0188  130.5283  150.8214 LP  0  0  0  0  0  0  0  0  0  0  0  0  # atno 17370 bound_to 10713
  157.5423  131.0941  150.9811 LP  0  0  0  0  0  0  0  0  0  0  0  0  # atno 17371 bound_to 10713
  141.2117  133.7681  156.9847 LP  0  0  0  0  0  0  0  0  0  0  0  0  # atno 17394 bound_to 11000
  140.1061  134.9506  157.1996 LP  0  0  0  0  0  0  0  0  0  0  0  0  # atno 17395 bound_to 11000

$$$$
