AV-unprocessed.smi:2405|AV-procd|sdf|9514|dock3
  -GOLD-   2272013143D 1   1.00000     0.00000
 Structure written by MMmdl.
 36 37  0  0  0  0  0  0  0  0  2 V2000
  146.0750  130.5741  151.4236 C   0  0  0  0  0  0  0  0  0  0  0  0
  146.4137  132.0622  151.5618 C   0  0  0  0  0  0  0  0  0  0  0  0
  147.1655  132.3648  152.8145 C   0  0  0  0  0  0  0  0  0  0  0  0
  148.3339  133.0109  152.8335 N   0  0  0  0  0  0  0  0  0  0  0  0
  148.8279  133.1958  154.1290 C   0  0  0  0  0  0  0  0  0  0  0  0
  150.1430  133.8887  154.3381 C   0  0  0  0  0  0  0  0  0  0  0  0
  149.9600  135.1017  155.2509 C   0  0  0  0  0  0  0  0  0  0  0  0
  150.2107  135.0121  156.4530 O   0  0  0  0  0  0  0  0  0  0  0  0
  149.5199  136.2267  154.6679 N   0  0  0  0  0  0  0  0  0  0  0  0
  149.2739  137.4923  155.3512 C   0  0  2  0  0  0  0  0  0  0  0  0
  149.1470  138.6626  154.3540 C   0  0  0  0  0  0  0  0  0  0  0  0
  150.1346  139.7354  154.8270 C   0  0  0  0  0  0  0  0  0  0  0  0
  151.2401  138.9687  155.5671 C   0  0  2  0  0  0  0  0  0  0  0  0
  152.3137  138.4551  154.5831 C   0  0  0  0  0  0  0  0  0  0  0  0
  151.9755  137.5168  153.8287 O   0  0  0  0  0  0  0  0  0  0  0  0
  153.4408  138.9991  154.5789 O   0  5  0  0  0  0  0  0  0  0  0  0
  150.4570  137.8452  156.2728 C   0  0  0  0  0  0  0  0  0  0  0  0
  147.9952  132.6963  155.1002 C   0  0  0  0  0  0  0  0  0  0  0  0
  146.5669  131.9667  154.4205 S   0  0  0  0  0  0  0  0  0  0  0  0
  145.5275  130.3845  150.5002 H   0  0  0  0  0  0  0  0  0  0  0  0
  145.4562  130.2333  152.2539 H   0  0  0  0  0  0  0  0  0  0  0  0
  146.9791  129.9651  151.4067 H   0  0  0  0  0  0  0  0  0  0  0  0
  147.0103  132.3882  150.7095 H   0  0  0  0  0  0  0  0  0  0  0  0
  145.4986  132.6553  151.5477 H   0  0  0  0  0  0  0  0  0  0  0  0
  150.8772  133.2129  154.7791 H   0  0  0  0  0  0  0  0  0  0  0  0
  150.5595  134.2147  153.3844 H   0  0  0  0  0  0  0  0  0  0  0  0
  149.3295  136.2063  153.6752 H   0  0  0  0  0  0  0  0  0  0  0  0
  148.3691  137.4071  155.9560 H   0  0  0  0  0  0  0  0  0  0  0  0
  149.4201  138.3443  153.3465 H   0  0  0  0  0  0  0  0  0  0  0  0
  148.1279  139.0470  154.3027 H   0  0  0  0  0  0  0  0  0  0  0  0
  150.4983  140.3487  154.0012 H   0  0  0  0  0  0  0  0  0  0  0  0
  149.6362  140.4080  155.5262 H   0  0  0  0  0  0  0  0  0  0  0  0
  151.7393  139.6087  156.2953 H   0  0  0  0  0  0  0  0  0  0  0  0
  150.0661  138.2373  157.2124 H   0  0  0  0  0  0  0  0  0  0  0  0
  151.0659  136.9808  156.5431 H   0  0  0  0  0  0  0  0  0  0  0  0
  148.1380  132.7118  156.1706 H   0  0  0  0  0  0  0  0  0  0  0  0
  1  2  1  0  0  0  0
  1 20  1  0  0  0  0
  1 21  1  0  0  0  0
  1 22  1  0  0  0  0
  2  3  1  0  0  0  0
  2 23  1  0  0  0  0
  2 24  1  0  0  0  0
  3 19  1  0  0  0  0
  3  4  2  0  0  0  0
  4  5  1  0  0  0  0
  5  6  1  0  0  0  0
  5 18  2  0  0  0  0
  6  7  1  0  0  0  0
  6 25  1  0  0  0  0
  6 26  1  0  0  0  0
  7  8  2  0  0  0  0
  7  9  1  0  0  0  0
  9 10  1  0  0  0  0
  9 27  1  0  0  0  0
 10 17  1  0  0  0  0
 10 11  1  0  0  0  0
 10 28  1  0  0  0  0
 11 12  1  0  0  0  0
 11 29  1  0  0  0  0
 11 30  1  0  0  0  0
 12 13  1  0  0  0  0
 12 31  1  0  0  0  0
 12 32  1  0  0  0  0
 13 14  1  0  0  0  0
 13 17  1  0  0  0  0
 13 33  1  0  0  0  0
 14 15  2  0  0  0  0
 14 16  1  0  0  0  0
 17 34  1  0  0  0  0
 17 35  1  0  0  0  0
 18 19  1  0  0  0  0
 18 36  1  0  0  0  0
M  CHG  1  16  -1
M  END
> <s_m_source_file>
AV-unprocessed.smi

> <i_m_source_file_index>
2405

> <i_lp_mmshare_version>
43012

> <i_f3d_flags>
0

> <s_epik_input>
W0NIM11bQ0gyXWMxbmMoW2NIXXMxKVtDSDJdQyg9TylbTkhdW0NAQEhdMltDSDJdW0NIMl1bQ0BIXShbQ0gyXTIpQyg9TylbT0hd

> <s_epik_cmdline>
J2VwaWtfcHl0aG9uJywgJy1waCcsICc3LjAnLCAnLXRuJywgJzgnLCAnLW1hJywgJzIwMCcsICctbWV0YWxfYmluZGluZycsICctaW1hZScsICc8aW5maWxlLm1hZT4nLCAnLW9tYWUnLCAnPG91dGZpbGUubWFlPic=

> <r_epik_Ionization_Penalty>
0.000544611

> <r_epik_Ionization_Penalty_Charging>
0.000481685

> <r_epik_Ionization_Penalty_Neutral>
6.29266e-05

> <r_epik_State_Penalty>
0.00029893

> <r_epik_Charging_Adjusted_Penalty>
0.000780614

> <i_epik_Tot_Q>
-1

> <i_epik_Tot_abs_Q>
1

> <r_epik_Metal_State_Penalty>
-0

> <b_epik_Metal_Only>
0

> <s_lp_Force_Field>
OPLS_2005

> <r_lp_Energy>
7.32439

> <b_lp_Chiralities_Consistent>
1

> <s_lp_Variant>
AV-unprocessed.smi:2405-3

> <Gold.Version>
5.8.1

> <Gold.Id.Protein>
6NUR|6NUR_protein|mol2

> <Gold.PLP.Fitness>
41.6863

> <Gold.PLP.PLP>
-28.4991

> <Gold.PLP.part.hbond>
-3.0000

> <Gold.PLP.part.metal>
0.0000

> <Gold.PLP.part.buried>
-5.7267

> <Gold.PLP.part.nonpolar>
-21.9194

> <Gold.PLP.part.repulsive>
1.3778

> <Gold.PLP.ligand.clash>
0.0000

> <Gold.PLP.ligand.torsion>
0.8545

> <Gold.PLP.Chemscore.Hbond>
4.9520

> <Gold.PLP.Chemscore.CHOScore>
0.0000

> <Gold.PLP.Chemscore.Metal>
0.0000

> <Gold.Chemscore.Hbonds>
donor molecule, donor type, donor heavy atom, donor atom, acceptor molecule, acceptor atom, score
      L1  H     9    27       P1  7948  1.00
      P1  H  7997  8008       L1    16  2.00
      P1  H 10752 10764       L1    15  1.64

> <Gold.PLP.Chemscore.Internal.Correction>
0.0402

> <Gold.Rescore>
     Score         DG    S(hbond)    S(metal)    S(lipo)     H(rot)  DE(clash)    DE(int)     intcor
     13.30     -16.84       2.72        0.00      64.58       2.06       0.03       3.50       ----

> <Gold.Chemscore.Fitness>
13.3049

> <Gold.Chemscore.DG>
-16.8384

> <Gold.Chemscore.ZeroCoef>
-5.4800

> <Gold.Chemscore.Hbond>
2.7202

> <Gold.Chemscore.Metal>
0.0000

> <Gold.Chemscore.Lipo>
64.5764

> <Gold.Chemscore.Internal_Hbond>
0.0000

> <Gold.Chemscore.DEClash>
0.0333

> <Gold.Chemscore.DEInternal>
3.5002

> <Gold.Chemscore.Rot>
2.0635

> <Gold.Chemscore.Internal.Correction>
   9.000000E+99

> <Gold.Chemscore.Hbonds>
donor molecule, donor type, donor heavy atom, donor atom, acceptor molecule, acceptor atom, score
      L1  H     9    27       P1  7948  0.82
      P1  H  7997  8008       L1    16  0.93
      P1  H 10752 10764       L1    15  0.71

> <Gold.Chemscore.Hbond.Weighted>
-9.0854

> <Gold.Chemscore.Metal.Weighted>
-0.0000

> <Gold.Chemscore.Lipo.Weighted>
-7.5554

> <Gold.Chemscore.Internal_Hbond.Weighted>
0.0000

> <Gold.Chemscore.DEClash.Weighted>
0.0333

> <Gold.Chemscore.DEInternal.Weighted>
3.5002

> <Gold.Chemscore.Rot.Weighted>
5.2825

> <Gold.Chemscore.Internal.Correction.Weighted>
   9.000000E+99

> <Gold.Protein.RotatedTorsions>
[ 6907 6896 6895 6894 ] final  169.91 input  -60.11 | X-H torsion
[ 7974 7965 7964 7962 ] final  168.81 input  175.53 | X-H torsion
[ 8008 7997 7996 7995 ] final  -11.50 input   59.86 | X-H torsion
[ 10167 10162 10161 10158 ] final    6.88 input  -65.29 | X-H torsion
[ 10718 10713 10712 10709 ] final  179.70 input   66.30 | X-H torsion
[ 10763 10752 10751 10750 ] final  -90.19 input  -60.55 | X-H torsion
[ 11005 11000 10999 10996 ] final  141.99 input  -57.11 | X-H torsion

> <Gold.Protein.ActiveResidues>
 VAL166  LYS551  ARG553  GLY616  TRP617  ASP618  TYR619  PRO620  LYS621  CYS622 
 ASP623  PHE694  ASN695  SER759  ASP760  ASP761  ALA762  ILE779  LEU786  VAL792 
 PHE793  MET794  SER795  GLU796  ALA797  LYS798  CYS799  TRP800  GLU811  SER814 

> <Gold.Protein.RotatedAtoms>
  151.8244  133.3399  159.3593 H   0  0  0  0  0  0  0  0  0  0  0  0  # atno 6907 bound_to 6896
  150.7284  134.5543  159.5820 H   0  0  0  0  0  0  0  0  0  0  0  0  # atno 6908 bound_to 6896
  152.2982  134.7643  160.0414 H   0  0  0  0  0  0  0  0  0  0  0  0  # atno 6909 bound_to 6896
  144.7376  139.8962  143.6406 H   0  0  0  0  0  0  0  0  0  0  0  0  # atno 7974 bound_to 7965
  154.5459  140.2301  155.8563 H   0  0  0  0  0  0  0  0  0  0  0  0  # atno 8008 bound_to 7997
  156.1902  140.3079  155.9280 H   0  0  0  0  0  0  0  0  0  0  0  0  # atno 8009 bound_to 7997
  155.3165  140.0438  157.3028 H   0  0  0  0  0  0  0  0  0  0  0  0  # atno 8010 bound_to 7997
  140.6403  143.7789  150.7419 H   0  0  0  0  0  0  0  0  0  0  0  0  # atno 10167 bound_to 10162
  156.8718  130.9786  151.3072 H   0  0  0  0  0  0  0  0  0  0  0  0  # atno 10718 bound_to 10713
  154.6632  135.5313  153.8044 H   0  0  0  0  0  0  0  0  0  0  0  0  # atno 10763 bound_to 10752
  153.0455  135.6511  154.0839 H   0  0  0  0  0  0  0  0  0  0  0  0  # atno 10764 bound_to 10752
  154.0746  135.2951  155.3282 H   0  0  0  0  0  0  0  0  0  0  0  0  # atno 10765 bound_to 10752
  140.0443  134.9289  157.0900 H   0  0  0  0  0  0  0  0  0  0  0  0  # atno 11005 bound_to 11000
  146.1106  139.4110  143.0290 LP  0  0  0  0  0  0  0  0  0  0  0  0  # atno 17320 bound_to 7965
  145.7449  140.9994  143.1281 LP  0  0  0  0  0  0  0  0  0  0  0  0  # atno 17321 bound_to 7965
  140.1419  143.4433  152.2188 LP  0  0  0  0  0  0  0  0  0  0  0  0  # atno 17342 bound_to 10162
  139.5613  144.7407  151.4148 LP  0  0  0  0  0  0  0  0  0  0  0  0  # atno 17343 bound_to 10162
  157.6191  130.8641  149.9078 LP  0  0  0  0  0  0  0  0  0  0  0  0  # atno 17370 bound_to 10713
  156.0722  130.3683  150.0752 LP  0  0  0  0  0  0  0  0  0  0  0  0  # atno 17371 bound_to 10713
  140.4019  134.2073  155.7163 LP  0  0  0  0  0  0  0  0  0  0  0  0  # atno 17394 bound_to 11000
  141.1899  133.8229  157.0940 LP  0  0  0  0  0  0  0  0  0  0  0  0  # atno 17395 bound_to 11000

$$$$
