AV-unprocessed.smi:1555|AV-procd|sdf|6264|dock7
  -GOLD-   22720 6453D 1   1.00000     0.00000
 Structure written by MMmdl.
 42 43  0  0  0  0  0  0  0  0  2 V2000
  148.4958  140.6175  157.2975 C   0  0  0  0  0  0  0  0  0  0  0  0
  148.9501  141.8954  156.5736 C   0  0  2  0  0  0  0  0  0  0  0  0
  149.3699  141.6439  155.1089 C   0  0  0  0  0  0  0  0  0  0  0  0
  148.2955  141.0604  154.3006 N   0  0  0  0  0  0  0  0  0  0  0  0
  148.2169  139.7734  153.8337 C   0  0  0  0  0  0  0  0  0  0  0  0
  147.0399  139.6823  153.1361 C   0  0  0  0  0  0  0  0  0  0  0  0
  146.4488  140.9152  153.2103 N   0  3  0  0  0  0  0  0  0  0  0  0
  147.2121  141.7510  153.9218 C   0  0  0  0  0  0  0  0  0  0  0  0
  150.0509  142.5011  157.3168 N   0  0  0  0  0  0  0  0  0  0  0  0
  151.2087  141.8948  157.6322 C   0  0  0  0  0  0  0  0  0  0  0  0
  151.4474  140.7326  157.3001 O   0  0  0  0  0  0  0  0  0  0  0  0
  152.0827  142.6646  158.3289 N   0  0  0  0  0  0  0  0  0  0  0  0
  151.8869  144.0699  158.7237 C   0  0  0  0  0  0  0  0  0  0  0  0
  151.6062  144.1250  160.2362 C   0  0  0  0  0  0  0  0  0  0  0  0
  152.7511  143.4692  161.0437 C   0  0  0  0  0  0  0  0  0  0  0  0
  152.4451  143.4111  162.5514 C   0  0  0  0  0  0  0  0  0  0  0  0
  152.4695  144.7047  163.1177 O   0  0  0  0  0  0  0  0  0  0  0  0
  153.0721  142.0651  160.4850 C   0  0  0  0  0  0  0  0  0  0  0  0
  153.2826  142.1014  158.9601 C   0  0  0  0  0  0  0  0  0  0  0  0
  147.6148  140.1818  156.8260 H   0  0  0  0  0  0  0  0  0  0  0  0
  148.2353  140.8265  158.3357 H   0  0  0  0  0  0  0  0  0  0  0  0
  149.2821  139.8618  157.2982 H   0  0  0  0  0  0  0  0  0  0  0  0
  148.1083  142.5906  156.5823 H   0  0  0  0  0  0  0  0  0  0  0  0
  149.6654  142.5753  154.6242 H   0  0  0  0  0  0  0  0  0  0  0  0
  150.2346  140.9793  155.0665 H   0  0  0  0  0  0  0  0  0  0  0  0
  148.9854  139.0385  154.0267 H   0  0  0  0  0  0  0  0  0  0  0  0
  146.5904  138.8541  152.6076 H   0  0  0  0  0  0  0  0  0  0  0  0
  146.9967  142.7812  154.1430 H   0  0  0  0  0  0  0  0  0  0  0  0
  149.9264  143.4571  157.6169 H   0  0  0  0  0  0  0  0  0  0  0  0
  152.7918  144.6344  158.4941 H   0  0  0  0  0  0  0  0  0  0  0  0
  151.0890  144.5767  158.1813 H   0  0  0  0  0  0  0  0  0  0  0  0
  151.4738  145.1625  160.5446 H   0  0  0  0  0  0  0  0  0  0  0  0
  150.6642  143.6172  160.4483 H   0  0  0  0  0  0  0  0  0  0  0  0
  153.6452  144.0798  160.9070 H   0  0  0  0  0  0  0  0  0  0  0  0
  151.4725  142.9533  162.7344 H   0  0  0  0  0  0  0  0  0  0  0  0
  153.1892  142.8023  163.0659 H   0  0  0  0  0  0  0  0  0  0  0  0
  153.3702  144.9575  163.2522 H   0  0  0  0  0  0  0  0  0  0  0  0
  153.9632  141.6652  160.9699 H   0  0  0  0  0  0  0  0  0  0  0  0
  152.2580  141.3780  160.7203 H   0  0  0  0  0  0  0  0  0  0  0  0
  153.5229  141.1019  158.5949 H   0  0  0  0  0  0  0  0  0  0  0  0
  154.1468  142.7201  158.7138 H   0  0  0  0  0  0  0  0  0  0  0  0
  145.5610  141.1608  152.7901 H   0  0  0  0  0  0  0  0  0  0  0  0
  1  2  1  0  0  0  0
  1 20  1  0  0  0  0
  1 21  1  0  0  0  0
  1 22  1  0  0  0  0
  2  3  1  0  0  0  0
  2  9  1  0  0  0  0
  2 23  1  0  0  0  0
  3  4  1  0  0  0  0
  3 24  1  0  0  0  0
  3 25  1  0  0  0  0
  4  8  1  0  0  0  0
  4  5  1  0  0  0  0
  5  6  2  0  0  0  0
  5 26  1  0  0  0  0
  6  7  1  0  0  0  0
  6 27  1  0  0  0  0
  7  8  2  0  0  0  0
  7 42  1  0  0  0  0
  8 28  1  0  0  0  0
  9 10  1  0  0  0  0
  9 29  1  0  0  0  0
 10 11  2  0  0  0  0
 10 12  1  0  0  0  0
 12 19  1  0  0  0  0
 12 13  1  0  0  0  0
 13 14  1  0  0  0  0
 13 30  1  0  0  0  0
 13 31  1  0  0  0  0
 14 15  1  0  0  0  0
 14 32  1  0  0  0  0
 14 33  1  0  0  0  0
 15 16  1  0  0  0  0
 15 18  1  0  0  0  0
 15 34  1  0  0  0  0
 16 17  1  0  0  0  0
 16 35  1  0  0  0  0
 16 36  1  0  0  0  0
 17 37  1  0  0  0  0
 18 19  1  0  0  0  0
 18 38  1  0  0  0  0
 18 39  1  0  0  0  0
 19 40  1  0  0  0  0
 19 41  1  0  0  0  0
M  CHG  1   7   1
M  END
> <s_m_source_file>
AV-unprocessed.smi

> <i_m_source_file_index>
1555

> <i_lp_mmshare_version>
43012

> <i_f3d_flags>
0

> <s_epik_input>
W2NIXTFuW2NIXVtjSF1uMVtDSDJdW0NAQEhdKFtDSDNdKVtOSF1DKD1PKU4yW0NIMl1bQ0gyXVtDSF0oW0NIMl1bT0hdKVtDSDJdW0NIMl0y

> <s_epik_cmdline>
J2VwaWtfcHl0aG9uJywgJy1waCcsICc3LjAnLCAnLXRuJywgJzgnLCAnLW1hJywgJzIwMCcsICctbWV0YWxfYmluZGluZycsICctaW1hZScsICc8aW5maWxlLm1hZT4nLCAnLW9tYWUnLCAnPG91dGZpbGUubWFlPic=

> <r_lp_tautomer_probability>
1

> <r_epik_Ionization_Penalty>
0.253261

> <r_epik_Ionization_Penalty_Charging>
0

> <r_epik_Ionization_Penalty_Neutral>
0.253261

> <r_epik_State_Penalty>
0.244619

> <r_epik_Charging_Adjusted_Penalty>
0.244619

> <i_epik_Tot_Q>
1

> <i_epik_Tot_abs_Q>
1

> <r_epik_Metal_State_Penalty>
0.535039

> <b_epik_Metal_Only>
0

> <s_lp_Force_Field>
OPLS_2005

> <r_lp_Energy>
34.4969

> <b_lp_Chiralities_Consistent>
1

> <s_lp_Variant>
AV-unprocessed.smi:1555-1

> <Gold.Version>
5.8.1

> <Gold.Id.Protein>
6NUR|6NUR_protein|mol2

> <Gold.PLP.Fitness>
46.9243

> <Gold.PLP.PLP>
-41.3652

> <Gold.PLP.part.hbond>
-3.7765

> <Gold.PLP.part.metal>
0.0000

> <Gold.PLP.part.buried>
-2.1797

> <Gold.PLP.part.nonpolar>
-34.5135

> <Gold.PLP.part.repulsive>
0.0396

> <Gold.PLP.ligand.clash>
0.0000

> <Gold.PLP.ligand.torsion>
0.2633

> <Gold.PLP.Chemscore.Hbond>
2.0000

> <Gold.PLP.Chemscore.CHOScore>
0.0000

> <Gold.PLP.Chemscore.Metal>
0.0000

> <Gold.Chemscore.Hbonds>
donor molecule, donor type, donor heavy atom, donor atom, acceptor molecule, acceptor atom, score
      L1  H     7    42       P1 10175  1.23

> <Gold.PLP.Chemscore.Internal.Correction>
0.0858

> <Gold.Rescore>
     Score         DG    S(hbond)    S(metal)    S(lipo)     H(rot)  DE(clash)    DE(int)     intcor
      9.35     -12.93       0.99        0.00      91.54       2.56       2.10       1.48       ----

> <Gold.Chemscore.Fitness>
9.3473

> <Gold.Chemscore.DG>
-12.9297

> <Gold.Chemscore.ZeroCoef>
-5.4800

> <Gold.Chemscore.Hbond>
0.9882

> <Gold.Chemscore.Metal>
0.0000

> <Gold.Chemscore.Lipo>
91.5397

> <Gold.Chemscore.Internal_Hbond>
0.0000

> <Gold.Chemscore.DEClash>
2.1016

> <Gold.Chemscore.DEInternal>
1.4807

> <Gold.Chemscore.Rot>
2.5630

> <Gold.Chemscore.Internal.Correction>
   9.000000E+99

> <Gold.Chemscore.Hbonds>
donor molecule, donor type, donor heavy atom, donor atom, acceptor molecule, acceptor atom, score
      L1  H     7    42       P1 10175  0.06

> <Gold.Chemscore.Hbond.Weighted>
-3.3007

> <Gold.Chemscore.Metal.Weighted>
-0.0000

> <Gold.Chemscore.Lipo.Weighted>
-10.7101

> <Gold.Chemscore.Internal_Hbond.Weighted>
0.0000

> <Gold.Chemscore.DEClash.Weighted>
2.1016

> <Gold.Chemscore.DEInternal.Weighted>
1.4807

> <Gold.Chemscore.Rot.Weighted>
6.5612

> <Gold.Chemscore.Internal.Correction.Weighted>
   9.000000E+99

> <Gold.Protein.RotatedTorsions>
[ 6907 6896 6895 6894 ] final   76.44 input  -60.11 | X-H torsion
[ 7974 7965 7964 7962 ] final  -60.44 input  175.53 | X-H torsion
[ 8008 7997 7996 7995 ] final   24.33 input   59.86 | X-H torsion
[ 10167 10162 10161 10158 ] final  -50.88 input  -65.29 | X-H torsion
[ 10718 10713 10712 10709 ] final   50.05 input   66.30 | X-H torsion
[ 10763 10752 10751 10750 ] final  -34.07 input  -60.55 | X-H torsion
[ 11005 11000 10999 10996 ] final  124.45 input  -57.11 | X-H torsion

> <Gold.Protein.ActiveResidues>
 VAL166  LYS551  ARG553  GLY616  TRP617  ASP618  TYR619  PRO620  LYS621  CYS622 
 ASP623  PHE694  ASN695  SER759  ASP760  ASP761  ALA762  ILE779  LEU786  VAL792 
 PHE793  MET794  SER795  GLU796  ALA797  LYS798  CYS799  TRP800  GLU811  SER814 

> <Gold.Protein.RotatedAtoms>
  152.5073  134.3969  159.9402 H   0  0  0  0  0  0  0  0  0  0  0  0  # atno 6907 bound_to 6896
  151.3931  133.3776  159.2731 H   0  0  0  0  0  0  0  0  0  0  0  0  # atno 6908 bound_to 6896
  150.9417  134.8847  159.7675 H   0  0  0  0  0  0  0  0  0  0  0  0  # atno 6909 bound_to 6896
  145.8155  140.8573  143.0160 H   0  0  0  0  0  0  0  0  0  0  0  0  # atno 7974 bound_to 7965
  154.9946  140.3118  155.4892 H   0  0  0  0  0  0  0  0  0  0  0  0  # atno 8008 bound_to 7997
  156.2934  140.2243  156.4993 H   0  0  0  0  0  0  0  0  0  0  0  0  # atno 8009 bound_to 7997
  154.7672  140.0455  157.1010 H   0  0  0  0  0  0  0  0  0  0  0  0  # atno 8010 bound_to 7997
  140.6616  143.2640  151.4423 H   0  0  0  0  0  0  0  0  0  0  0  0  # atno 10167 bound_to 10162
  157.4846  130.8337  149.8132 H   0  0  0  0  0  0  0  0  0  0  0  0  # atno 10718 bound_to 10713
  153.8407  135.6858  153.4803 H   0  0  0  0  0  0  0  0  0  0  0  0  # atno 10763 bound_to 10752
  153.1455  135.4639  154.9558 H   0  0  0  0  0  0  0  0  0  0  0  0  # atno 10764 bound_to 10752
  154.7846  135.3280  154.7861 H   0  0  0  0  0  0  0  0  0  0  0  0  # atno 10765 bound_to 10752
  139.9359  134.9639  156.8411 H   0  0  0  0  0  0  0  0  0  0  0  0  # atno 11005 bound_to 11000
  144.6753  140.0457  143.7480 LP  0  0  0  0  0  0  0  0  0  0  0  0  # atno 17320 bound_to 7965
  145.9731  139.2885  143.1086 LP  0  0  0  0  0  0  0  0  0  0  0  0  # atno 17321 bound_to 7965
  139.5851  144.1622  152.2019 LP  0  0  0  0  0  0  0  0  0  0  0  0  # atno 17342 bound_to 10162
  140.0959  144.5581  150.7022 LP  0  0  0  0  0  0  0  0  0  0  0  0  # atno 17343 bound_to 10162
  156.0140  130.3821  150.2171 LP  0  0  0  0  0  0  0  0  0  0  0  0  # atno 17370 bound_to 10713
  157.0358  131.0021  151.3298 LP  0  0  0  0  0  0  0  0  0  0  0  0  # atno 17371 bound_to 10713
  140.6077  134.0112  155.7563 LP  0  0  0  0  0  0  0  0  0  0  0  0  # atno 17394 bound_to 11000
  141.0972  133.9824  157.3139 LP  0  0  0  0  0  0  0  0  0  0  0  0  # atno 17395 bound_to 11000

$$$$
