#       Name:                AV-unprocessed.smi:277
#       Creating user name   scv26
#       Creation time:       Thu Mar 26 21:36:14 2020


#       File generated by GOLD software.
#

@<TRIPOS>MOLECULE
AV-unprocessed.smi:277
    63    67     1
SMALL
NO_CHARGES


@<TRIPOS>ATOM
      1 ****        -5.8828   1.2046  -0.2552 O.2            1 S1                 0.0000
      2 ****        -4.7332   0.8025  -0.4268 C.2            1 S1                 0.0000
      3 ****        -3.6005   1.7076  -0.8742 C.3            1 S1                 0.0000
      4 ****        -2.4802   0.7748  -0.9168 N.pl3          1 S1                 0.0000
      5 ****        -1.1904   1.1821  -1.0465 C.ar           1 S1                 0.0000
      6 ****        -0.9515   2.5068  -1.2362 N.ar           1 S1                 0.0000
      7 ****         0.2973   2.9622  -1.3638 C.ar           1 S1                 0.0000
      8 ****         1.4405   2.2772  -1.3331 N.ar           1 S1                 0.0000
      9 ****         1.2139   0.9455  -1.1487 C.ar           1 S1                 0.0000
     10 ****        -0.0567   0.3159  -1.0046 C.ar           1 S1                 0.0000
     11 ****         0.1216  -1.0557  -0.8555 N.2            1 S1                 0.0000
     12 ****         1.4143  -1.2236  -0.9025 C.2            1 S1                 0.0000
     13 ****         2.1497  -0.0706  -1.0547 N.pl3          1 S1                 0.0000
     14 ****         3.5998   0.0389  -1.1385 C.3            1 S1                 0.0000
     15 ****         4.3440   0.2240   0.2212 C.3            1 S1                 0.0000
     16 ****         5.8634   0.3509  -0.0874 C.3            1 S1                 0.0000
     17 ****         6.1644   1.4894  -0.8699 O.3            1 S1                 0.0000
     18 ****         3.8208   1.4597   1.0004 C.3            1 S1                 0.0000
     19 ****         4.3959   1.5490   2.4255 C.3            1 S1                 0.0000
     20 ****         4.0858   0.3627   3.1461 O.3            1 S1                 0.0000
     21 ****         4.6511  -0.8059   2.5654 C.3            1 S1                 0.0000
     22 ****         4.1058  -1.0044   1.1379 C.3            1 S1                 0.0000
     23 ****        -2.8602  -0.5632  -0.4839 C.3            1 S1                 0.0000
     24 ****        -4.2892  -0.4468  -0.2443 N.am           1 S1                 0.0000
     25 ****        -5.0558  -1.5910   0.2422 C.3            1 S1                 0.0000
     26 ****        -6.2927  -1.9476  -0.5624 C.3            1 S1                 0.0000
     27 ****        -7.6718  -1.5159  -0.1168 C.3            1 S1                 0.0000
     28 ****        -7.2721  -2.9675  -0.0294 C.3            1 S1                 0.0000
     29 ****        -3.8031   2.1322  -1.8582 H              1 S1                 0.0000
     30 ****        -3.4434   2.5076  -0.1492 H              1 S1                 0.0000
     31 ****         0.3945   4.0281  -1.5088 H              1 S1                 0.0000
     32 ****         1.8707  -2.1990  -0.8176 H              1 S1                 0.0000
     33 ****         3.9711  -0.8529  -1.6453 H              1 S1                 0.0000
     34 ****         3.8207   0.8708  -1.8081 H              1 S1                 0.0000
     35 ****         6.4631   0.4151   0.8183 H              1 S1                 0.0000
     36 ****         6.2156  -0.5320  -0.6221 H              1 S1                 0.0000
     37 ****         7.0964   1.5108  -1.0248 H              1 S1                 0.0000
     38 ****         4.0280   2.3800   0.4541 H              1 S1                 0.0000
     39 ****         2.7372   1.4086   1.0992 H              1 S1                 0.0000
     40 ****         5.4727   1.7193   2.4175 H              1 S1                 0.0000
     41 ****         3.9522   2.3960   2.9489 H              1 S1                 0.0000
     42 ****         5.7394  -0.7480   2.5820 H              1 S1                 0.0000
     43 ****         4.3810  -1.6621   3.1838 H              1 S1                 0.0000
     44 ****         3.0391  -1.2009   1.2338 H              1 S1                 0.0000
     45 ****         4.5409  -1.9006   0.6940 H              1 S1                 0.0000
     46 ****        -2.6602  -1.3002  -1.2627 H              1 S1                 0.0000
     47 ****        -2.3434  -0.8487   0.4334 H              1 S1                 0.0000
     48 ****        -4.4061  -2.4670   0.2580 H              1 S1                 0.0000
     49 ****        -5.3395  -1.4069   1.2792 H              1 S1                 0.0000
     50 ****        -6.1201  -1.9890  -1.6364 H              1 S1                 0.0000
     51 ****        -7.7512  -0.9581   0.8141 H              1 S1                 0.0000
     52 ****        -8.3819  -1.2325  -0.8909 H              1 S1                 0.0000
     53 ****        -7.7184  -3.6563  -0.7437 H              1 S1                 0.0000
     54 ****        -7.0884  -3.3777   0.9619 H              1 S1                 0.0000
     55 ****        -6.5934   0.5714   0.0514 LP             1 S1                 0.0000
     56 ****        -6.1068   2.1648  -0.4222 LP             1 S1                 0.0000
     57 ****        -1.7186   3.1467  -1.2806 LP             1 S1                 0.0000
     58 ****         2.3472   2.6872  -1.4324 LP             1 S1                 0.0000
     59 ****        -0.5829  -1.7556  -0.7385 LP             1 S1                 0.0000
     60 ****         5.8848   2.3167  -0.3826 LP             1 S1                 0.0000
     61 ****         5.6790   1.4364  -1.7425 LP             1 S1                 0.0000
     62 ****         3.0918   0.2565   3.1719 LP             1 S1                 0.0000
     63 ****         4.4354   0.4560   4.0784 LP             1 S1                 0.0000
@<TRIPOS>BOND
    1    1    2 2     
    2    2   24 am    
    3    2    3 1     
    4    3    4 1     
    5    3   29 1     
    6    3   30 1     
    7    4    5 1     
    8    4   23 1     
    9    5   10 ar    
   10    5    6 ar    
   11    6    7 ar    
   12    7    8 ar    
   13    7   31 1     
   14    8    9 ar    
   15    9   13 1     
   16    9   10 ar    
   17   10   11 1     
   18   11   12 2     
   19   12   13 1     
   20   12   32 1     
   21   13   14 1     
   22   14   15 1     
   23   14   33 1     
   24   14   34 1     
   25   15   22 1     
   26   15   16 1     
   27   15   18 1     
   28   16   17 1     
   29   16   35 1     
   30   16   36 1     
   31   17   37 1     
   32   18   19 1     
   33   18   38 1     
   34   18   39 1     
   35   19   20 1     
   36   19   40 1     
   37   19   41 1     
   38   20   21 1     
   39   21   22 1     
   40   21   42 1     
   41   21   43 1     
   42   22   44 1     
   43   22   45 1     
   44   23   24 1     
   45   23   46 1     
   46   23   47 1     
   47   24   25 1     
   48   25   26 1     
   49   25   48 1     
   50   25   49 1     
   51   26   28 1     
   52   26   27 1     
   53   26   50 1     
   54   27   28 1     
   55   27   51 1     
   56   27   52 1     
   57   28   53 1     
   58   28   54 1     
   59    1   55 1     
   60    1   56 1     
   61    6   57 1     
   62    8   58 1     
   63   11   59 1     
   64   17   60 1     
   65   17   61 1     
   66   20   62 1     
   67   20   63 1     
@<TRIPOS>SUBSTRUCTURE
      1 S1             1
@<TRIPOS>SET
LONE_PAIRS      STATIC     ATOMS    <user>   **** ""
9 55 56 57 58 59 60 61 62 63
DONOR_HYDROGENS      STATIC     ATOMS    <user>   **** ""
1 37
ATOM$BLUE        STATIC     ATOMS    COLORGROUP SYSTEM
9 55 56 57 58 59 60 61 62 63
ATOM$RED        STATIC     ATOMS    COLORGROUP SYSTEM
1 37
