AV-unprocessed.smi:1580|AV-procd|sdf|6358|dock6
  -GOLD-   22720 6583D 1   1.00000     0.00000
 Structure written by MMmdl.
 37 38  0  0  0  0  0  0  0  0  1 V2000
  153.7975  132.2646  165.4810 C   0  0  0  0  0  0  0  0  0  0  0  0
  155.0464  132.5317  164.1578 S   0  0  0  0  0  0  0  0  0  0  0  0
  156.3663  132.1823  164.7060 O   0  0  0  0  0  0  0  0  0  0  0  0
  154.5703  131.8705  162.9328 O   0  0  0  0  0  0  0  0  0  0  0  0
  155.0012  134.2992  163.8844 C   0  0  0  0  0  0  0  0  0  0  0  0
  154.5600  135.1662  164.9037 C   0  0  0  0  0  0  0  0  0  0  0  0
  154.4956  136.5441  164.6221 C   0  0  0  0  0  0  0  0  0  0  0  0
  154.8694  136.9993  163.3330 C   0  0  0  0  0  0  0  0  0  0  0  0
  154.8388  138.3579  162.9123 N   0  0  0  0  0  0  0  0  0  0  0  0
  154.6195  138.8644  161.6863 C   0  0  0  0  0  0  0  0  0  0  0  0
  154.3701  138.2099  160.6746 O   0  0  0  0  0  0  0  0  0  0  0  0
  154.6949  140.2024  161.6963 N   0  0  0  0  0  0  0  0  0  0  0  0
  154.5105  141.0585  160.5299 C   0  0  0  0  0  0  0  0  0  0  0  0
  153.1439  141.7636  160.5476 C   0  0  2  0  0  0  0  0  0  0  0  0
  153.0173  142.8766  159.5088 C   0  0  0  0  0  0  0  0  0  0  0  0
  151.9553  143.7543  160.1296 C   0  0  0  0  0  0  0  0  0  0  0  0
  152.3221  143.6825  161.6087 C   0  0  0  0  0  0  0  0  0  0  0  0
  152.9239  142.4047  161.8027 O   0  0  0  0  0  0  0  0  0  0  0  0
  155.2738  136.0329  162.3864 C   0  0  0  0  0  0  0  0  0  0  0  0
  155.3371  134.7096  162.6434 N   0  0  0  0  0  0  0  0  0  0  0  0
  153.7459  131.2034  165.7226 H   0  0  0  0  0  0  0  0  0  0  0  0
  152.8221  132.6063  165.1348 H   0  0  0  0  0  0  0  0  0  0  0  0
  154.0845  132.8260  166.3696 H   0  0  0  0  0  0  0  0  0  0  0  0
  154.2738  134.7918  165.8752 H   0  0  0  0  0  0  0  0  0  0  0  0
  154.1490  137.2102  165.3956 H   0  0  0  0  0  0  0  0  0  0  0  0
  154.9770  139.0363  163.6470 H   0  0  0  0  0  0  0  0  0  0  0  0
  154.8945  140.6640  162.5715 H   0  0  0  0  0  0  0  0  0  0  0  0
  155.3125  141.7972  160.5151 H   0  0  0  0  0  0  0  0  0  0  0  0
  154.6183  140.4664  159.6196 H   0  0  0  0  0  0  0  0  0  0  0  0
  152.3368  141.0458  160.3912 H   0  0  0  0  0  0  0  0  0  0  0  0
  153.9527  143.4311  159.4199 H   0  0  0  0  0  0  0  0  0  0  0  0
  152.7435  142.5064  158.5203 H   0  0  0  0  0  0  0  0  0  0  0  0
  151.9544  144.7720  159.7381 H   0  0  0  0  0  0  0  0  0  0  0  0
  150.9679  143.3212  159.9645 H   0  0  0  0  0  0  0  0  0  0  0  0
  153.0562  144.4502  161.8561 H   0  0  0  0  0  0  0  0  0  0  0  0
  151.4573  143.8198  162.2584 H   0  0  0  0  0  0  0  0  0  0  0  0
  155.5545  136.3303  161.3865 H   0  0  0  0  0  0  0  0  0  0  0  0
  1  2  1  0  0  0  0
  1 21  1  0  0  0  0
  1 22  1  0  0  0  0
  1 23  1  0  0  0  0
  2  3  2  0  0  0  0
  2  4  2  0  0  0  0
  2  5  1  0  0  0  0
  5 20  1  0  0  0  0
  5  6  2  0  0  0  0
  6  7  1  0  0  0  0
  6 24  1  0  0  0  0
  7  8  2  0  0  0  0
  7 25  1  0  0  0  0
  8  9  1  0  0  0  0
  8 19  1  0  0  0  0
  9 10  1  0  0  0  0
  9 26  1  0  0  0  0
 10 11  2  0  0  0  0
 10 12  1  0  0  0  0
 12 13  1  0  0  0  0
 12 27  1  0  0  0  0
 13 14  1  0  0  0  0
 13 28  1  0  0  0  0
 13 29  1  0  0  0  0
 14 18  1  0  0  0  0
 14 15  1  0  0  0  0
 14 30  1  0  0  0  0
 15 16  1  0  0  0  0
 15 31  1  0  0  0  0
 15 32  1  0  0  0  0
 16 17  1  0  0  0  0
 16 33  1  0  0  0  0
 16 34  1  0  0  0  0
 17 18  1  0  0  0  0
 17 35  1  0  0  0  0
 17 36  1  0  0  0  0
 19 20  2  0  0  0  0
 19 37  1  0  0  0  0
M  END
> <s_m_source_file>
AV-unprocessed.smi

> <i_m_source_file_index>
1580

> <i_lp_mmshare_version>
43012

> <i_f3d_flags>
0

> <s_epik_input>
W0NIM11TKD1PKSg9TyljMVtjSF1bY0hdYyhbY0hdbjEpW05IXUMoPU8pW05IXVtDSDJdW0NAQEhdMltDSDJdW0NIMl1bQ0gyXU8y

> <s_epik_cmdline>
J2VwaWtfcHl0aG9uJywgJy1waCcsICc3LjAnLCAnLXRuJywgJzgnLCAnLW1hJywgJzIwMCcsICctbWV0YWxfYmluZGluZycsICctaW1hZScsICc8aW5maWxlLm1hZT4nLCAnLW9tYWUnLCAnPG91dGZpbGUubWFlPic=

> <r_lp_tautomer_probability>
1

> <r_epik_Ionization_Penalty>
3.28405e-05

> <r_epik_Ionization_Penalty_Charging>
0

> <r_epik_Ionization_Penalty_Neutral>
3.28405e-05

> <r_epik_State_Penalty>
-0

> <r_epik_Charging_Adjusted_Penalty>
0

> <i_epik_Tot_Q>
0

> <i_epik_Tot_abs_Q>
0

> <r_epik_Metal_State_Penalty>
-0

> <b_epik_Metal_Only>
0

> <s_lp_Force_Field>
OPLS_2005

> <r_lp_Energy>
18.5173

> <b_lp_Chiralities_Consistent>
1

> <s_lp_Variant>
AV-unprocessed.smi:1580-1

> <Gold.Version>
5.8.1

> <Gold.Id.Protein>
6NUR|6NUR_protein|mol2

> <Gold.PLP.Fitness>
39.2851

> <Gold.PLP.PLP>
-40.3272

> <Gold.PLP.part.hbond>
0.0000

> <Gold.PLP.part.metal>
0.0000

> <Gold.PLP.part.buried>
-5.6301

> <Gold.PLP.part.nonpolar>
-34.2328

> <Gold.PLP.part.repulsive>
0.0546

> <Gold.PLP.ligand.clash>
0.0000

> <Gold.PLP.ligand.torsion>
1.5340

> <Gold.PLP.Chemscore.Hbond>
0.0000

> <Gold.PLP.Chemscore.CHOScore>
0.0000

> <Gold.PLP.Chemscore.Metal>
0.0000

> <Gold.PLP.Chemscore.Internal.Correction>
2.0259

> <Gold.Rescore>
     Score         DG    S(hbond)    S(metal)    S(lipo)     H(rot)  DE(clash)    DE(int)     intcor
     11.17     -13.92       0.00        0.00      99.94       1.27       0.00       2.75       ----

> <Gold.Chemscore.Fitness>
11.1665

> <Gold.Chemscore.DG>
-13.9157

> <Gold.Chemscore.ZeroCoef>
-5.4800

> <Gold.Chemscore.Hbond>
0.0000

> <Gold.Chemscore.Metal>
0.0000

> <Gold.Chemscore.Lipo>
99.9430

> <Gold.Chemscore.Internal_Hbond>
0.0000

> <Gold.Chemscore.DEClash>
0.0038

> <Gold.Chemscore.DEInternal>
2.7455

> <Gold.Chemscore.Rot>
1.2725

> <Gold.Chemscore.Internal.Correction>
   9.000000E+99

> <Gold.Chemscore.Hbond.Weighted>
-0.0000

> <Gold.Chemscore.Metal.Weighted>
-0.0000

> <Gold.Chemscore.Lipo.Weighted>
-11.6933

> <Gold.Chemscore.Internal_Hbond.Weighted>
0.0000

> <Gold.Chemscore.DEClash.Weighted>
0.0038

> <Gold.Chemscore.DEInternal.Weighted>
2.7455

> <Gold.Chemscore.Rot.Weighted>
3.2576

> <Gold.Chemscore.Internal.Correction.Weighted>
   9.000000E+99

> <Gold.Protein.RotatedTorsions>
[ 6907 6896 6895 6894 ] final -129.83 input  -60.11 | X-H torsion
[ 7974 7965 7964 7962 ] final  -35.24 input  175.53 | X-H torsion
[ 8008 7997 7996 7995 ] final  114.84 input   59.86 | X-H torsion
[ 10167 10162 10161 10158 ] final   31.88 input  -65.29 | X-H torsion
[ 10718 10713 10712 10709 ] final  145.32 input   66.30 | X-H torsion
[ 10763 10752 10751 10750 ] final -139.17 input  -60.55 | X-H torsion
[ 11005 11000 10999 10996 ] final  -44.52 input  -57.11 | X-H torsion

> <Gold.Protein.ActiveResidues>
 VAL166  LYS551  ARG553  GLY616  TRP617  ASP618  TYR619  PRO620  LYS621  CYS622 
 ASP623  PHE694  ASN695  SER759  ASP760  ASP761  ALA762  ILE779  LEU786  VAL792 
 PHE793  MET794  SER795  GLU796  ALA797  LYS798  CYS799  TRP800  GLU811  SER814 

> <Gold.Protein.RotatedAtoms>
  150.9330  133.6745  159.2806 H   0  0  0  0  0  0  0  0  0  0  0  0  # atno 6907 bound_to 6896
  151.4160  135.0990  159.9609 H   0  0  0  0  0  0  0  0  0  0  0  0  # atno 6908 bound_to 6896
  152.5035  133.8792  159.7393 H   0  0  0  0  0  0  0  0  0  0  0  0  # atno 6909 bound_to 6896
  146.0762  140.6136  142.8929 H   0  0  0  0  0  0  0  0  0  0  0  0  # atno 7974 bound_to 7965
  156.2345  140.2951  156.0277 H   0  0  0  0  0  0  0  0  0  0  0  0  # atno 8008 bound_to 7997
  155.2130  140.0413  157.2953 H   0  0  0  0  0  0  0  0  0  0  0  0  # atno 8009 bound_to 7997
  154.6055  140.2438  155.7744 H   0  0  0  0  0  0  0  0  0  0  0  0  # atno 8010 bound_to 7997
  140.4549  144.0994  150.6199 H   0  0  0  0  0  0  0  0  0  0  0  0  # atno 10167 bound_to 10162
  157.3467  131.0944  151.1036 H   0  0  0  0  0  0  0  0  0  0  0  0  # atno 10718 bound_to 10713
  154.8616  135.3590  154.5504 H   0  0  0  0  0  0  0  0  0  0  0  0  # atno 10763 bound_to 10752
  153.6122  135.7009  153.5347 H   0  0  0  0  0  0  0  0  0  0  0  0  # atno 10764 bound_to 10752
  153.3199  135.4154  155.1369 H   0  0  0  0  0  0  0  0  0  0  0  0  # atno 10765 bound_to 10752
  141.0456  133.6763  156.2884 H   0  0  0  0  0  0  0  0  0  0  0  0  # atno 11005 bound_to 11000
  144.7263  140.4535  143.6970 LP  0  0  0  0  0  0  0  0  0  0  0  0  # atno 17320 bound_to 7965
  145.6301  139.1535  143.2974 LP  0  0  0  0  0  0  0  0  0  0  0  0  # atno 17321 bound_to 7965
  140.4163  143.2632  151.9770 LP  0  0  0  0  0  0  0  0  0  0  0  0  # atno 17342 bound_to 10162
  139.4800  144.5870  151.7836 LP  0  0  0  0  0  0  0  0  0  0  0  0  # atno 17343 bound_to 10162
  157.2227  130.6489  149.5817 LP  0  0  0  0  0  0  0  0  0  0  0  0  # atno 17370 bound_to 10713
  155.9715  130.4624  150.6144 LP  0  0  0  0  0  0  0  0  0  0  0  0  # atno 17371 bound_to 10713
  140.6153  134.5416  157.5540 LP  0  0  0  0  0  0  0  0  0  0  0  0  # atno 17394 bound_to 11000
  139.9309  134.7966  156.0934 LP  0  0  0  0  0  0  0  0  0  0  0  0  # atno 17395 bound_to 11000

$$$$
