#       Name:                AV-unprocessed.smi:901
#       Creating user name   scv26
#       Creation time:       Fri Mar 27 01:58:23 2020


#       File generated by GOLD software.
#

@<TRIPOS>MOLECULE
AV-unprocessed.smi:901
    48    49     1
SMALL
NO_CHARGES


@<TRIPOS>ATOM
      1 ****        -5.1133  -0.3502  -3.2460 C.3            1 S1                 0.0000
      2 ****        -4.0433  -0.9715  -2.3703 C.2            1 S1                 0.0000
      3 ****        -4.2563  -2.4413  -2.0540 C.3            1 S1                 0.0000
      4 ****        -2.9954  -0.2560  -1.9187 C.2            1 S1                 0.0000
      5 ****        -1.8887  -0.7485  -1.0565 C.3            1 S1                 0.0000
      6 ****        -1.2415   0.1660  -0.0321 C.3            1 S1                 0.0000
      7 ****         0.2430   0.1019   0.1583 C.2            1 S1                 0.0000
      8 ****         0.9383  -0.8089  -0.2943 O.2            1 S1                 0.0000
      9 ****         0.7280   1.1413   0.8617 N.am           1 S1                 0.0000
     10 ****         2.0765   1.3963   1.2198 C.2            1 S1                 0.0000
     11 ****         2.4196   2.5543   1.9705 C.2            1 S1                 0.0000
     12 ****         3.7746   2.4494   2.1082 C.2            1 S1                 0.0000
     13 ****         4.1702   1.2927   1.4649 N.pl3          1 S1                 0.0000
     14 ****         5.5112   0.7472   1.3316 C.3            1 S1                 0.0000
     15 ****         6.3560   1.5281   0.3181 C.2            1 S1                 0.0000
     16 ****         7.6633   1.6255   0.5728 N.am           1 S1                 0.0000
     17 ****         5.8467   2.0340  -0.6807 O.2            1 S1                 0.0000
     18 ****         3.1217   0.6373   0.9201 N.2            1 S1                 0.0000
     19 ****        -2.0984  -1.0092   0.4262 C.3            1 S1                 0.0000
     20 ****        -3.4200  -0.6876   1.1083 C.3            1 S1                 0.0000
     21 ****        -1.5143  -2.2793   1.0339 C.3            1 S1                 0.0000
     22 ****        -5.1595  -0.8630  -4.2072 H              1 S1                 0.0000
     23 ****        -4.9159   0.7057  -3.4343 H              1 S1                 0.0000
     24 ****        -6.0890  -0.4323  -2.7663 H              1 S1                 0.0000
     25 ****        -5.1906  -2.5744  -1.5085 H              1 S1                 0.0000
     26 ****        -3.4524  -2.8598  -1.4492 H              1 S1                 0.0000
     27 ****        -4.3152  -3.0190  -2.9767 H              1 S1                 0.0000
     28 ****        -2.9248   0.7845  -2.2007 H              1 S1                 0.0000
     29 ****        -1.2380  -1.4333  -1.5976 H              1 S1                 0.0000
     30 ****        -1.6842   1.1530   0.0965 H              1 S1                 0.0000
     31 ****         0.0550   1.8250   1.1757 H              1 S1                 0.0000
     32 ****         1.7777   3.3371   2.3465 H              1 S1                 0.0000
     33 ****         4.4847   3.0964   2.6021 H              1 S1                 0.0000
     34 ****         5.9861   0.7642   2.3135 H              1 S1                 0.0000
     35 ****         5.4514  -0.2973   1.0208 H              1 S1                 0.0000
     36 ****         8.2659   2.1323  -0.0592 H              1 S1                 0.0000
     37 ****         8.0439   1.1935   1.4024 H              1 S1                 0.0000
     38 ****        -3.2734  -0.5746   2.1829 H              1 S1                 0.0000
     39 ****        -4.1410  -1.4872   0.9372 H              1 S1                 0.0000
     40 ****        -3.8450   0.2407   0.7256 H              1 S1                 0.0000
     41 ****        -1.1579  -2.0852   2.0459 H              1 S1                 0.0000
     42 ****        -0.6853  -2.6645   0.4411 H              1 S1                 0.0000
     43 ****        -2.2720  -3.0622   1.0783 H              1 S1                 0.0000
     44 ****         0.5146  -1.5496  -0.8155 LP             1 S1                 0.0000
     45 ****         1.9264  -0.8074  -0.1404 LP             1 S1                 0.0000
     46 ****         4.8645   1.9397  -0.8434 LP             1 S1                 0.0000
     47 ****         6.4148   2.5396  -1.3300 LP             1 S1                 0.0000
     48 ****         3.1316  -0.2220   0.4088 LP             1 S1                 0.0000
@<TRIPOS>BOND
    1    1    2 1     
    2    1   22 1     
    3    1   23 1     
    4    1   24 1     
    5    2    3 1     
    6    2    4 2     
    7    3   25 1     
    8    3   26 1     
    9    3   27 1     
   10    4    5 1     
   11    4   28 1     
   12    5   19 1     
   13    5    6 1     
   14    5   29 1     
   15    6    7 1     
   16    6   19 1     
   17    6   30 1     
   18    7    8 2     
   19    7    9 am    
   20    9   10 1     
   21    9   31 1     
   22   10   18 2     
   23   10   11 1     
   24   11   12 2     
   25   11   32 1     
   26   12   13 1     
   27   12   33 1     
   28   13   14 1     
   29   13   18 1     
   30   14   15 1     
   31   14   34 1     
   32   14   35 1     
   33   15   16 am    
   34   15   17 2     
   35   16   36 1     
   36   16   37 1     
   37   19   20 1     
   38   19   21 1     
   39   20   38 1     
   40   20   39 1     
   41   20   40 1     
   42   21   41 1     
   43   21   42 1     
   44   21   43 1     
   45    8   44 1     
   46    8   45 1     
   47   17   46 1     
   48   17   47 1     
   49   18   48 1     
@<TRIPOS>SUBSTRUCTURE
      1 S1             1
@<TRIPOS>SET
LONE_PAIRS      STATIC     ATOMS    <user>   **** ""
5 44 45 46 47 48
DONOR_HYDROGENS      STATIC     ATOMS    <user>   **** ""
3 31 36 37
ATOM$BLUE        STATIC     ATOMS    COLORGROUP SYSTEM
5 44 45 46 47 48
ATOM$RED        STATIC     ATOMS    COLORGROUP SYSTEM
3 31 36 37
