AV-unprocessed.smi:116|AV-procd|sdf|1128|dock6
  -GOLD-   2262018253D 1   1.00000     0.00000
 Structure written by MMmdl.
 38 41  0  0  0  0  0  0  0  0  1 V2000
  149.7566  141.0581  153.8757 O   0  0  0  0  0  0  0  0  0  0  0  0
  149.4351  139.9347  154.2662 C   0  0  0  0  0  0  0  0  0  0  0  0
  148.1027  139.3730  154.0731 C   0  0  0  0  0  0  0  0  0  0  0  0
  147.1548  140.1058  153.4644 F   0  0  0  0  0  0  0  0  0  0  0  0
  147.8019  138.1273  154.4982 C   0  0  0  0  0  0  0  0  0  0  0  0
  148.7169  137.3046  155.1329 N   0  0  0  0  0  0  0  0  0  0  0  0
  148.3373  135.9137  155.5900 C   0  0  1  0  0  0  0  0  0  0  0  0
  146.8337  135.6855  155.3998 C   0  0  0  0  0  0  0  0  0  0  0  0
  146.7900  135.0009  154.0510 C   0  0  0  0  0  0  0  0  0  0  0  0
  148.0718  134.1770  154.0852 C   0  0  0  0  0  0  0  0  0  0  0  0
  149.0108  134.9745  154.8017 O   0  0  0  0  0  0  0  0  0  0  0  0
  150.0253  137.7732  155.3828 C   0  0  0  0  0  0  0  0  0  0  0  0
  150.8487  137.0636  155.9650 O   0  0  0  0  0  0  0  0  0  0  0  0
  150.3432  139.0797  154.9395 N   0  0  0  0  0  0  0  0  0  0  0  0
  151.7018  139.5559  155.1487 C   0  0  0  0  0  0  0  0  0  0  0  0
  151.7651  140.4792  156.3277 C   0  0  0  0  0  0  0  0  0  0  0  0
  152.5190  140.2097  157.4017 N   0  0  0  0  0  0  0  0  0  0  0  0
  152.4029  141.2314  158.3394 C   0  0  0  0  0  0  0  0  0  0  0  0
  153.0516  141.3117  159.5938 C   0  0  0  0  0  0  0  0  0  0  0  0
  152.8450  142.4104  160.4518 C   0  0  0  0  0  0  0  0  0  0  0  0
  151.9813  143.4548  160.0709 C   0  0  0  0  0  0  0  0  0  0  0  0
  151.3223  143.4009  158.8291 C   0  0  0  0  0  0  0  0  0  0  0  0
  151.5328  142.3014  157.9764 C   0  0  0  0  0  0  0  0  0  0  0  0
  150.8413  141.9872  156.3884 S   0  0  0  0  0  0  0  0  0  0  0  0
  146.7967  137.7705  154.3310 H   0  0  0  0  0  0  0  0  0  0  0  0
  148.6718  135.8278  156.6250 H   0  0  0  0  0  0  0  0  0  0  0  0
  146.4832  135.0110  156.1818 H   0  0  0  0  0  0  0  0  0  0  0  0
  146.2611  136.6125  155.4486 H   0  0  0  0  0  0  0  0  0  0  0  0
  145.8961  134.3936  153.9068 H   0  0  0  0  0  0  0  0  0  0  0  0
  146.8349  135.7395  153.2499 H   0  0  0  0  0  0  0  0  0  0  0  0
  147.9109  133.2481  154.6342 H   0  0  0  0  0  0  0  0  0  0  0  0
  148.4376  133.9249  153.0896 H   0  0  0  0  0  0  0  0  0  0  0  0
  152.3606  138.6977  155.2878 H   0  0  0  0  0  0  0  0  0  0  0  0
  152.0403  140.0517  154.2374 H   0  0  0  0  0  0  0  0  0  0  0  0
  153.7169  140.5176  159.8986 H   0  0  0  0  0  0  0  0  0  0  0  0
  153.3512  142.4511  161.4051 H   0  0  0  0  0  0  0  0  0  0  0  0
  151.8248  144.2954  160.7307 H   0  0  0  0  0  0  0  0  0  0  0  0
  150.6584  144.1987  158.5310 H   0  0  0  0  0  0  0  0  0  0  0  0
  1  2  2  0  0  0  0
  2 14  1  0  0  0  0
  2  3  1  0  0  0  0
  3  4  1  0  0  0  0
  3  5  2  0  0  0  0
  5  6  1  0  0  0  0
  5 25  1  0  0  0  0
  6  7  1  0  0  0  0
  6 12  1  0  0  0  0
  7 11  1  0  0  0  0
  7  8  1  0  0  0  0
  7 26  1  0  0  0  0
  8  9  1  0  0  0  0
  8 27  1  0  0  0  0
  8 28  1  0  0  0  0
  9 10  1  0  0  0  0
  9 29  1  0  0  0  0
  9 30  1  0  0  0  0
 10 11  1  0  0  0  0
 10 31  1  0  0  0  0
 10 32  1  0  0  0  0
 12 13  2  0  0  0  0
 12 14  1  0  0  0  0
 14 15  1  0  0  0  0
 15 16  1  0  0  0  0
 15 33  1  0  0  0  0
 15 34  1  0  0  0  0
 16 24  1  0  0  0  0
 16 17  2  0  0  0  0
 17 18  1  0  0  0  0
 18 23  2  0  0  0  0
 18 19  1  0  0  0  0
 19 20  2  0  0  0  0
 19 35  1  0  0  0  0
 20 21  1  0  0  0  0
 20 36  1  0  0  0  0
 21 22  2  0  0  0  0
 21 37  1  0  0  0  0
 22 23  1  0  0  0  0
 22 38  1  0  0  0  0
 23 24  1  0  0  0  0
M  END
> <s_m_source_file>
AV-unprocessed.smi

> <i_m_source_file_index>
116

> <i_lp_mmshare_version>
43012

> <i_f3d_flags>
0

> <s_epik_input>
TzFbQ0gyXVtDSDJdW0NIMl1bQ0BIXTFuKFtjSF1jKEYpYzI9TyljKD1PKW4yW0NIMl1jKG4zKXNjKGMzNClbY0hdW2NIXVtjSF1bY0hdNA==

> <s_epik_cmdline>
J2VwaWtfcHl0aG9uJywgJy1waCcsICc3LjAnLCAnLXRuJywgJzgnLCAnLW1hJywgJzIwMCcsICctbWV0YWxfYmluZGluZycsICctaW1hZScsICc8aW5maWxlLm1hZT4nLCAnLW9tYWUnLCAnPG91dGZpbGUubWFlPic=

> <r_lp_tautomer_probability>
1

> <r_epik_Ionization_Penalty>
4.2492e-05

> <r_epik_Ionization_Penalty_Charging>
2.84664e-09

> <r_epik_Ionization_Penalty_Neutral>
4.24891e-05

> <r_epik_State_Penalty>
-0

> <r_epik_Charging_Adjusted_Penalty>
2.84664e-09

> <i_epik_Tot_Q>
0

> <i_epik_Tot_abs_Q>
0

> <r_epik_Metal_State_Penalty>
-0

> <b_epik_Metal_Only>
0

> <s_epik_Chemistry_Notes>
This compound contains an acetal/aminal-like group ( X-CH(R)-Y where X, Y are N, S, or O) that may be acid/base labile, releasing an aldehyde.

> <s_lp_Force_Field>
OPLS_2005

> <r_lp_Energy>
30.7685

> <b_lp_Chiralities_Consistent>
1

> <s_lp_Variant>
AV-unprocessed.smi:116-2

> <Gold.Version>
5.8.1

> <Gold.Id.Protein>
6NUR|6NUR_protein|mol2

> <Gold.PLP.Fitness>
43.6643

> <Gold.PLP.PLP>
-37.7964

> <Gold.PLP.part.hbond>
-3.0000

> <Gold.PLP.part.metal>
0.0000

> <Gold.PLP.part.buried>
-1.2609

> <Gold.PLP.part.nonpolar>
-33.7411

> <Gold.PLP.part.repulsive>
1.8324

> <Gold.PLP.ligand.clash>
0.0000

> <Gold.PLP.ligand.torsion>
0.4135

> <Gold.PLP.Chemscore.Hbond>
2.2277

> <Gold.PLP.Chemscore.CHOScore>
0.0000

> <Gold.PLP.Chemscore.Metal>
0.0000

> <Gold.Chemscore.Hbonds>
donor molecule, donor type, donor heavy atom, donor atom, acceptor molecule, acceptor atom, score
      P1  H  7989  7998       L1     1  0.38
      P1  H  7997  8008       L1    17  1.00
      P1  H  8011  8017       L1     1  0.83

> <Gold.PLP.Chemscore.Internal.Correction>
0.0118

> <Gold.Rescore>
     Score         DG    S(hbond)    S(metal)    S(lipo)     H(rot)  DE(clash)    DE(int)     intcor
     14.76     -17.75       1.65        0.00      90.96       1.52       0.75       2.25       ----

> <Gold.Chemscore.Fitness>
14.7584

> <Gold.Chemscore.DG>
-17.7548

> <Gold.Chemscore.ZeroCoef>
-5.4800

> <Gold.Chemscore.Hbond>
1.6517

> <Gold.Chemscore.Metal>
0.0000

> <Gold.Chemscore.Lipo>
90.9587

> <Gold.Chemscore.Internal_Hbond>
0.0000

> <Gold.Chemscore.DEClash>
0.7468

> <Gold.Chemscore.DEInternal>
2.2497

> <Gold.Chemscore.Rot>
1.5172

> <Gold.Chemscore.Internal.Correction>
   9.000000E+99

> <Gold.Chemscore.Hbonds>
donor molecule, donor type, donor heavy atom, donor atom, acceptor molecule, acceptor atom, score
      P1  H  7989  7998       L1     1  0.19
      P1  H  7997  8008       L1    17  0.34
      P1  H  8011  8017       L1     1  0.78

> <Gold.Chemscore.Hbond.Weighted>
-5.5168

> <Gold.Chemscore.Metal.Weighted>
-0.0000

> <Gold.Chemscore.Lipo.Weighted>
-10.6422

> <Gold.Chemscore.Internal_Hbond.Weighted>
0.0000

> <Gold.Chemscore.DEClash.Weighted>
0.7468

> <Gold.Chemscore.DEInternal.Weighted>
2.2497

> <Gold.Chemscore.Rot.Weighted>
3.8841

> <Gold.Chemscore.Internal.Correction.Weighted>
   9.000000E+99

> <Gold.Protein.RotatedTorsions>
[ 6907 6896 6895 6894 ] final  139.20 input  -60.11 | X-H torsion
[ 7974 7965 7964 7962 ] final  -71.57 input  175.53 | X-H torsion
[ 8008 7997 7996 7995 ] final  -64.68 input   59.86 | X-H torsion
[ 10167 10162 10161 10158 ] final   43.35 input  -65.29 | X-H torsion
[ 10718 10713 10712 10709 ] final -155.50 input   66.30 | X-H torsion
[ 10763 10752 10751 10750 ] final  -64.41 input  -60.55 | X-H torsion
[ 11005 11000 10999 10996 ] final   17.61 input  -57.11 | X-H torsion

> <Gold.Protein.ActiveResidues>
 VAL166  LYS551  ARG553  GLY616  TRP617  ASP618  TYR619  PRO620  LYS621  CYS622 
 ASP623  PHE694  ASN695  SER759  ASP760  ASP761  ALA762  ILE779  LEU786  VAL792 
 PHE793  MET794  SER795  GLU796  ALA797  LYS798  CYS799  TRP800  GLU811  SER814 

> <Gold.Protein.RotatedAtoms>
  152.2576  133.5269  159.5362 H   0  0  0  0  0  0  0  0  0  0  0  0  # atno 6907 bound_to 6896
  150.7114  134.0873  159.3928 H   0  0  0  0  0  0  0  0  0  0  0  0  # atno 6908 bound_to 6896
  151.8792  135.0460  160.0538 H   0  0  0  0  0  0  0  0  0  0  0  0  # atno 6909 bound_to 6896
  145.6764  140.9203  143.0856 H   0  0  0  0  0  0  0  0  0  0  0  0  # atno 7974 bound_to 7965
  154.4626  140.0949  156.6934 H   0  0  0  0  0  0  0  0  0  0  0  0  # atno 8008 bound_to 7997
  155.4950  140.3472  155.4343 H   0  0  0  0  0  0  0  0  0  0  0  0  # atno 8009 bound_to 7997
  156.0898  140.1394  156.9595 H   0  0  0  0  0  0  0  0  0  0  0  0  # atno 8010 bound_to 7997
  140.3452  144.2420  150.6151 H   0  0  0  0  0  0  0  0  0  0  0  0  # atno 10167 bound_to 10162
  156.5137  130.8446  151.2656 H   0  0  0  0  0  0  0  0  0  0  0  0  # atno 10718 bound_to 10713
  154.3297  135.6179  153.5546 H   0  0  0  0  0  0  0  0  0  0  0  0  # atno 10763 bound_to 10752
  152.9812  135.5744  154.4975 H   0  0  0  0  0  0  0  0  0  0  0  0  # atno 10764 bound_to 10752
  154.4659  135.2857  155.1655 H   0  0  0  0  0  0  0  0  0  0  0  0  # atno 10765 bound_to 10752
  140.4340  134.1390  155.7683 H   0  0  0  0  0  0  0  0  0  0  0  0  # atno 11005 bound_to 11000
  144.7040  139.8639  143.7435 LP  0  0  0  0  0  0  0  0  0  0  0  0  # atno 17320 bound_to 7965
  146.1002  139.3997  143.0351 LP  0  0  0  0  0  0  0  0  0  0  0  0  # atno 17321 bound_to 7965
  140.5271  143.2252  151.8297 LP  0  0  0  0  0  0  0  0  0  0  0  0  # atno 17342 bound_to 10162
  139.4834  144.4766  151.9359 LP  0  0  0  0  0  0  0  0  0  0  0  0  # atno 17343 bound_to 10162
  157.7447  130.9941  150.2695 LP  0  0  0  0  0  0  0  0  0  0  0  0  # atno 17370 bound_to 10713
  156.3216  130.3786  149.7570 LP  0  0  0  0  0  0  0  0  0  0  0  0  # atno 17371 bound_to 10713
  141.1733  133.8564  157.1501 LP  0  0  0  0  0  0  0  0  0  0  0  0  # atno 17394 bound_to 11000
  140.0115  134.9986  157.0404 LP  0  0  0  0  0  0  0  0  0  0  0  0  # atno 17395 bound_to 11000

$$$$
