AV-unprocessed.smi:771|AV-procd|sdf|3684|dock9
  -GOLD-   22720 1103D 1   1.00000     0.00000
 Structure written by MMmdl.
 41 42  0  0  0  0  0  0  0  0  3 V2000
  145.8859  138.3003  154.7110 O   0  0  0  0  0  0  0  0  0  0  0  0
  146.6565  138.1064  153.7696 C   0  0  0  0  0  0  0  0  0  0  0  0
  147.4548  139.2604  153.1462 C   0  0  0  0  0  0  0  0  0  0  0  0
  148.5431  139.7507  154.0085 N   0  0  0  0  0  0  0  0  0  0  0  0
  149.6816  138.9285  154.1211 C   0  0  0  0  0  0  0  0  0  0  0  0
  150.7444  139.2757  154.8730 C   0  0  0  0  0  0  0  0  0  0  0  0
  151.9071  138.4211  154.9722 N   0  3  0  0  0  0  0  0  0  0  0  0
  151.8486  137.2904  154.5000 O   0  0  0  0  0  0  0  0  0  0  0  0
  152.9160  138.8503  155.5244 O   0  5  0  0  0  0  0  0  0  0  0  0
  150.6858  140.5410  155.5789 C   0  0  0  0  0  0  0  0  0  0  0  0
  149.6017  141.3343  155.4714 C   0  0  0  0  0  0  0  0  0  0  0  0
  148.4487  140.9570  154.6473 C   0  0  0  0  0  0  0  0  0  0  0  0
  147.4598  141.6819  154.5372 O   0  0  0  0  0  0  0  0  0  0  0  0
  146.8550  136.8976  153.2229 N   0  0  0  0  0  0  0  0  0  0  0  0
  146.1859  135.6682  153.6379 C   0  0  0  0  0  0  0  0  0  0  0  0
  145.8572  134.7295  152.4505 C   0  0  1  0  0  0  0  0  0  0  0  0
  145.3911  133.3375  152.9387 C   0  0  0  0  0  0  0  0  0  0  0  0
  145.0353  132.4036  151.7721 C   0  0  0  0  0  0  0  0  0  0  0  0
  143.9681  133.0317  150.8665 C   0  0  0  0  0  0  0  0  0  0  0  0
  144.4295  134.4014  150.3508 C   0  0  0  0  0  0  0  0  0  0  0  0
  144.7919  135.3472  151.5111 C   0  0  2  0  0  0  0  0  0  0  0  0
  145.2690  136.5546  150.9518 O   0  0  0  0  0  0  0  0  0  0  0  0
  147.8392  138.9360  152.1777 H   0  0  0  0  0  0  0  0  0  0  0  0
  146.7684  140.0777  152.9182 H   0  0  0  0  0  0  0  0  0  0  0  0
  149.6286  138.0117  153.5514 H   0  0  0  0  0  0  0  0  0  0  0  0
  151.5105  140.8623  156.1980 H   0  0  0  0  0  0  0  0  0  0  0  0
  149.5800  142.2730  156.0055 H   0  0  0  0  0  0  0  0  0  0  0  0
  147.5098  136.8238  152.4576 H   0  0  0  0  0  0  0  0  0  0  0  0
  146.8369  135.1549  154.3462 H   0  0  0  0  0  0  0  0  0  0  0  0
  145.2816  135.9288  154.1899 H   0  0  0  0  0  0  0  0  0  0  0  0
  146.7679  134.5851  151.8668 H   0  0  0  0  0  0  0  0  0  0  0  0
  146.1668  132.8646  153.5415 H   0  0  0  0  0  0  0  0  0  0  0  0
  144.5226  133.4498  153.5892 H   0  0  0  0  0  0  0  0  0  0  0  0
  145.9317  132.1882  151.1890 H   0  0  0  0  0  0  0  0  0  0  0  0
  144.6797  131.4475  152.1574 H   0  0  0  0  0  0  0  0  0  0  0  0
  143.7548  132.3695  150.0270 H   0  0  0  0  0  0  0  0  0  0  0  0
  143.0346  133.1424  151.4199 H   0  0  0  0  0  0  0  0  0  0  0  0
  145.2936  134.2663  149.6983 H   0  0  0  0  0  0  0  0  0  0  0  0
  143.6450  134.8455  149.7367 H   0  0  0  0  0  0  0  0  0  0  0  0
  143.8908  135.5739  152.0825 H   0  0  0  0  0  0  0  0  0  0  0  0
  144.5449  137.0039  150.5429 H   0  0  0  0  0  0  0  0  0  0  0  0
  1  2  2  0  0  0  0
  2  3  1  0  0  0  0
  2 14  1  0  0  0  0
  3  4  1  0  0  0  0
  3 23  1  0  0  0  0
  3 24  1  0  0  0  0
  4 12  1  0  0  0  0
  4  5  1  0  0  0  0
  5  6  2  0  0  0  0
  5 25  1  0  0  0  0
  6  7  1  0  0  0  0
  6 10  1  0  0  0  0
  7  8  2  0  0  0  0
  7  9  1  0  0  0  0
 10 11  2  0  0  0  0
 10 26  1  0  0  0  0
 11 12  1  0  0  0  0
 11 27  1  0  0  0  0
 12 13  2  0  0  0  0
 14 15  1  0  0  0  0
 14 28  1  0  0  0  0
 15 16  1  0  0  0  0
 15 29  1  0  0  0  0
 15 30  1  0  0  0  0
 16 21  1  0  0  0  0
 16 17  1  0  0  0  0
 16 31  1  0  0  0  0
 17 18  1  0  0  0  0
 17 32  1  0  0  0  0
 17 33  1  0  0  0  0
 18 19  1  0  0  0  0
 18 34  1  0  0  0  0
 18 35  1  0  0  0  0
 19 20  1  0  0  0  0
 19 36  1  0  0  0  0
 19 37  1  0  0  0  0
 20 21  1  0  0  0  0
 20 38  1  0  0  0  0
 20 39  1  0  0  0  0
 21 22  1  0  0  0  0
 21 40  1  0  0  0  0
 22 41  1  0  0  0  0
M  CHG  1   7   1
M  CHG  1   9  -1
M  END
> <s_m_source_file>
AV-unprocessed.smi

> <i_m_source_file_index>
771

> <i_lp_mmshare_version>
43012

> <i_f3d_flags>
0

> <s_epik_input>
Tz1jMVtjSF1bY0hdYyhbTitdKD1PKVtPLV0pW2NIXW4xW0NIMl1DKD1PKVtOSF1bQ0gyXVtDQEBIXTJbQ0gyXVtDSDJdW0NIMl1bQ0gyXVtDQEhdMltPSF0=

> <s_epik_cmdline>
J2VwaWtfcHl0aG9uJywgJy1waCcsICc3LjAnLCAnLXRuJywgJzgnLCAnLW1hJywgJzIwMCcsICctbWV0YWxfYmluZGluZycsICctaW1hZScsICc8aW5maWxlLm1hZT4nLCAnLW9tYWUnLCAnPG91dGZpbGUubWFlPic=

> <r_lp_tautomer_probability>
1

> <r_epik_Ionization_Penalty>
3.77175e-07

> <r_epik_Ionization_Penalty_Charging>
7.70067e-11

> <r_epik_Ionization_Penalty_Neutral>
3.77098e-07

> <r_epik_State_Penalty>
-0

> <r_epik_Charging_Adjusted_Penalty>
7.70067e-11

> <i_epik_Tot_Q>
0

> <i_epik_Tot_abs_Q>
2

> <r_epik_Metal_State_Penalty>
-0

> <b_epik_Metal_Only>
0

> <s_lp_Force_Field>
OPLS_2005

> <r_lp_Energy>
22.9473

> <b_lp_Chiralities_Consistent>
1

> <s_lp_Variant>
AV-unprocessed.smi:771-4

> <Gold.Version>
5.8.1

> <Gold.Id.Protein>
6NUR|6NUR_protein|mol2

> <Gold.PLP.Fitness>
51.9792

> <Gold.PLP.PLP>
-38.5132

> <Gold.PLP.part.hbond>
-4.0000

> <Gold.PLP.part.metal>
0.0000

> <Gold.PLP.part.buried>
-1.9037

> <Gold.PLP.part.nonpolar>
-32.7161

> <Gold.PLP.part.repulsive>
0.3828

> <Gold.PLP.ligand.clash>
0.0000

> <Gold.PLP.ligand.torsion>
0.5218

> <Gold.PLP.Chemscore.Hbond>
3.8240

> <Gold.PLP.Chemscore.CHOScore>
1.0000

> <Gold.PLP.Chemscore.Metal>
0.0000

> <Gold.Chemscore.Hbonds>
donor molecule, donor type, donor heavy atom, donor atom, acceptor molecule, acceptor atom, score
      L1  H    14    28       P1  7948  0.99
      L1  H    22    41       P1 10171  0.98
      P1  H  7997  8008       L1     9  0.98
      P1  H 10752 10764       L1     8  0.90
      L1  C     5    25       P1  7948  1.00

> <Gold.PLP.Chemscore.Internal.Correction>
0.0375

> <Gold.Rescore>
     Score         DG    S(hbond)    S(metal)    S(lipo)     H(rot)  DE(clash)    DE(int)     intcor
     17.19     -19.23       3.61        0.00      68.74       2.48       0.20       1.85       ----

> <Gold.Chemscore.Fitness>
17.1863

> <Gold.Chemscore.DG>
-19.2333

> <Gold.Chemscore.ZeroCoef>
-5.4800

> <Gold.Chemscore.Hbond>
3.6071

> <Gold.Chemscore.Metal>
0.0000

> <Gold.Chemscore.Lipo>
68.7395

> <Gold.Chemscore.Internal_Hbond>
0.0000

> <Gold.Chemscore.DEClash>
0.1988

> <Gold.Chemscore.DEInternal>
1.8482

> <Gold.Chemscore.Rot>
2.4753

> <Gold.Chemscore.Internal.Correction>
   9.000000E+99

> <Gold.Chemscore.Hbonds>
donor molecule, donor type, donor heavy atom, donor atom, acceptor molecule, acceptor atom, score
      L1  H    14    28       P1  7948  0.94
      L1  H    22    41       P1 10171  0.93
      P1  H  7997  8008       L1     9  0.92
      P1  H 10752 10764       L1     8  0.85

> <Gold.Chemscore.Hbond.Weighted>
-12.0477

> <Gold.Chemscore.Metal.Weighted>
-0.0000

> <Gold.Chemscore.Lipo.Weighted>
-8.0425

> <Gold.Chemscore.Internal_Hbond.Weighted>
0.0000

> <Gold.Chemscore.DEClash.Weighted>
0.1988

> <Gold.Chemscore.DEInternal.Weighted>
1.8482

> <Gold.Chemscore.Rot.Weighted>
6.3369

> <Gold.Chemscore.Internal.Correction.Weighted>
   9.000000E+99

> <Gold.Protein.RotatedTorsions>
[ 6907 6896 6895 6894 ] final   93.85 input  -60.11 | X-H torsion
[ 7974 7965 7964 7962 ] final   86.52 input  175.53 | X-H torsion
[ 8008 7997 7996 7995 ] final  -24.32 input   59.86 | X-H torsion
[ 10167 10162 10161 10158 ] final -156.51 input  -65.29 | X-H torsion
[ 10718 10713 10712 10709 ] final   42.43 input   66.30 | X-H torsion
[ 10763 10752 10751 10750 ] final  -89.06 input  -60.55 | X-H torsion
[ 11005 11000 10999 10996 ] final   90.77 input  -57.11 | X-H torsion

> <Gold.Protein.ActiveResidues>
 VAL166  LYS551  ARG553  GLY616  TRP617  ASP618  TYR619  PRO620  LYS621  CYS622 
 ASP623  PHE694  ASN695  SER759  ASP760  ASP761  ALA762  ILE779  LEU786  VAL792 
 PHE793  MET794  SER795  GLU796  ALA797  LYS798  CYS799  TRP800  GLU811  SER814 

> <Gold.Protein.RotatedAtoms>
  152.5451  134.1285  159.8428 H   0  0  0  0  0  0  0  0  0  0  0  0  # atno 6907 bound_to 6896
  151.1333  133.5014  159.2606 H   0  0  0  0  0  0  0  0  0  0  0  0  # atno 6908 bound_to 6896
  151.1652  135.0302  159.8782 H   0  0  0  0  0  0  0  0  0  0  0  0  # atno 6909 bound_to 6896
  145.5711  139.2314  143.2405 H   0  0  0  0  0  0  0  0  0  0  0  0  # atno 7974 bound_to 7965
  154.4536  140.1957  156.0446 H   0  0  0  0  0  0  0  0  0  0  0  0  # atno 8008 bound_to 7997
  156.0699  140.3286  155.7535 H   0  0  0  0  0  0  0  0  0  0  0  0  # atno 8009 bound_to 7997
  155.5279  140.0575  157.2885 H   0  0  0  0  0  0  0  0  0  0  0  0  # atno 8010 bound_to 7997
  139.6844  143.9526  152.2353 H   0  0  0  0  0  0  0  0  0  0  0  0  # atno 10167 bound_to 10162
  157.4048  130.7880  149.7379 H   0  0  0  0  0  0  0  0  0  0  0  0  # atno 10718 bound_to 10713
  154.6512  135.5354  153.7904 H   0  0  0  0  0  0  0  0  0  0  0  0  # atno 10763 bound_to 10752
  153.0387  135.6483  154.1014 H   0  0  0  0  0  0  0  0  0  0  0  0  # atno 10764 bound_to 10752
  154.0931  135.2938  155.3247 H   0  0  0  0  0  0  0  0  0  0  0  0  # atno 10765 bound_to 10752
  139.8850  134.8633  156.3332 H   0  0  0  0  0  0  0  0  0  0  0  0  # atno 11005 bound_to 11000
  146.1783  140.6538  142.9201 LP  0  0  0  0  0  0  0  0  0  0  0  0  # atno 17320 bound_to 7965
  144.7437  140.5011  143.6851 LP  0  0  0  0  0  0  0  0  0  0  0  0  # atno 17321 bound_to 7965
  139.9325  144.6732  150.8348 LP  0  0  0  0  0  0  0  0  0  0  0  0  # atno 17342 bound_to 10162
  140.7663  143.3299  151.2433 LP  0  0  0  0  0  0  0  0  0  0  0  0  # atno 17343 bound_to 10162
  155.9833  130.4001  150.3369 LP  0  0  0  0  0  0  0  0  0  0  0  0  # atno 17370 bound_to 10713
  157.1501  131.0318  151.2889 LP  0  0  0  0  0  0  0  0  0  0  0  0  # atno 17371 bound_to 10713
  140.9709  133.7328  156.0533 LP  0  0  0  0  0  0  0  0  0  0  0  0  # atno 17394 bound_to 11000
  140.7872  134.3659  157.5473 LP  0  0  0  0  0  0  0  0  0  0  0  0  # atno 17395 bound_to 11000

$$$$
