AV-unprocessed.smi:3100|AV-procd|sdf|11804|dock1
  -GOLD-   2272017183D 1   1.00000     0.00000
 Structure written by MMmdl.
 28 29  0  0  0  0  0  0  0  0  1 V2000
  152.2236  143.8996  161.4616 C   0  0  0  0  0  0  0  0  0  0  0  0
  152.2473  143.4760  159.9896 C   0  0  2  0  0  0  0  0  0  0  0  0
  152.4383  144.6267  159.0093 C   0  0  0  0  0  0  0  0  0  0  0  0
  151.8918  144.0535  157.7135 C   0  0  0  0  0  0  0  0  0  0  0  0
  150.9011  142.9624  158.1700 C   0  0  1  0  0  0  0  0  0  0  0  0
  151.2194  141.5657  157.6056 C   0  0  0  0  0  0  0  0  0  0  0  0
  151.8210  140.7525  158.3078 O   0  0  0  0  0  0  0  0  0  0  0  0
  150.8307  141.3287  156.3380 N   0  0  0  0  0  0  0  0  0  0  0  0
  150.9824  140.1393  155.5788 C   0  0  0  0  0  0  0  0  0  0  0  0
  152.0179  139.2712  155.9982 C   0  0  0  0  0  0  0  0  0  0  0  0
  152.2862  138.1016  155.3758 N   0  0  0  0  0  0  0  0  0  0  0  0
  151.5100  137.7897  154.3160 C   0  0  0  0  0  0  0  0  0  0  0  0
  150.4746  138.6422  153.8838 C   0  0  0  0  0  0  0  0  0  0  0  0
  150.2118  139.8097  154.5106 N   0  0  0  0  0  0  0  0  0  0  0  0
  150.9875  142.9526  159.5974 O   0  0  0  0  0  0  0  0  0  0  0  0
  153.1764  144.3393  161.7569 H   0  0  0  0  0  0  0  0  0  0  0  0
  152.0369  143.0429  162.1095 H   0  0  0  0  0  0  0  0  0  0  0  0
  151.4415  144.6357  161.6494 H   0  0  0  0  0  0  0  0  0  0  0  0
  153.0135  142.7158  159.8289 H   0  0  0  0  0  0  0  0  0  0  0  0
  151.8384  145.4858  159.3130 H   0  0  0  0  0  0  0  0  0  0  0  0
  153.4769  144.9492  158.9287 H   0  0  0  0  0  0  0  0  0  0  0  0
  151.4060  144.8204  157.1095 H   0  0  0  0  0  0  0  0  0  0  0  0
  152.7121  143.6439  157.1218 H   0  0  0  0  0  0  0  0  0  0  0  0
  149.8809  143.2244  157.8878 H   0  0  0  0  0  0  0  0  0  0  0  0
  150.3584  142.0893  155.8705 H   0  0  0  0  0  0  0  0  0  0  0  0
  152.6418  139.5160  156.8457 H   0  0  0  0  0  0  0  0  0  0  0  0
  151.7153  136.8576  153.8108 H   0  0  0  0  0  0  0  0  0  0  0  0
  149.8571  138.3881  153.0349 H   0  0  0  0  0  0  0  0  0  0  0  0
  1  2  1  0  0  0  0
  1 16  1  0  0  0  0
  1 17  1  0  0  0  0
  1 18  1  0  0  0  0
  2 15  1  0  0  0  0
  2  3  1  0  0  0  0
  2 19  1  0  0  0  0
  3  4  1  0  0  0  0
  3 20  1  0  0  0  0
  3 21  1  0  0  0  0
  4  5  1  0  0  0  0
  4 22  1  0  0  0  0
  4 23  1  0  0  0  0
  5  6  1  0  0  0  0
  5 15  1  0  0  0  0
  5 24  1  0  0  0  0
  6  7  2  0  0  0  0
  6  8  1  0  0  0  0
  8  9  1  0  0  0  0
  8 25  1  0  0  0  0
  9 14  1  0  0  0  0
  9 10  2  0  0  0  0
 10 11  1  0  0  0  0
 10 26  1  0  0  0  0
 11 12  2  0  0  0  0
 12 13  1  0  0  0  0
 12 27  1  0  0  0  0
 13 14  2  0  0  0  0
 13 28  1  0  0  0  0
M  END
> <s_m_source_file>
AV-unprocessed.smi

> <i_m_source_file_index>
3100

> <i_lp_mmshare_version>
43012

> <i_f3d_flags>
0

> <s_epik_input>
W0NIM11bQ0BASF0xW0NIMl1bQ0gyXVtDQEhdKE8xKUMoPU8pW05IXWMyW2NIXW5bY0hdW2NIXW4y

> <s_epik_cmdline>
J2VwaWtfcHl0aG9uJywgJy1waCcsICc3LjAnLCAnLXRuJywgJzgnLCAnLW1hJywgJzIwMCcsICctbWV0YWxfYmluZGluZycsICctaW1hZScsICc8aW5maWxlLm1hZT4nLCAnLW9tYWUnLCAnPG91dGZpbGUubWFlPic=

> <r_lp_tautomer_probability>
1

> <r_epik_Ionization_Penalty>
2.81186e-06

> <r_epik_Ionization_Penalty_Charging>
0

> <r_epik_Ionization_Penalty_Neutral>
2.81186e-06

> <r_epik_State_Penalty>
-0

> <r_epik_Charging_Adjusted_Penalty>
0

> <i_epik_Tot_Q>
0

> <i_epik_Tot_abs_Q>
0

> <r_epik_Metal_State_Penalty>
-0

> <b_epik_Metal_Only>
0

> <s_lp_Force_Field>
OPLS_2005

> <r_lp_Energy>
25.8402

> <b_lp_Chiralities_Consistent>
1

> <s_lp_Variant>
AV-unprocessed.smi:3100-1

> <Gold.Version>
5.8.1

> <Gold.Id.Protein>
6NUR|6NUR_protein|mol2

> <Gold.PLP.Fitness>
42.5499

> <Gold.PLP.PLP>
-35.3914

> <Gold.PLP.part.hbond>
-1.5834

> <Gold.PLP.part.metal>
0.0000

> <Gold.PLP.part.buried>
-4.2944

> <Gold.PLP.part.nonpolar>
-29.6234

> <Gold.PLP.part.repulsive>
0.2466

> <Gold.PLP.ligand.clash>
0.0000

> <Gold.PLP.ligand.torsion>
0.6473

> <Gold.PLP.Chemscore.Hbond>
0.1500

> <Gold.PLP.Chemscore.CHOScore>
2.6653

> <Gold.PLP.Chemscore.Metal>
0.0000

> <Gold.Chemscore.Hbonds>
donor molecule, donor type, donor heavy atom, donor atom, acceptor molecule, acceptor atom, score
      P1  H  7989  7998       L1    14  0.11
      L1  C    12    27       P1  7949  0.99
      L1  C    13    28       P1  7948  0.90
      L1  C    13    28       P1  7957  0.80

> <Gold.PLP.Chemscore.Internal.Correction>
0.0072

> <Gold.Rescore>
     Score         DG    S(hbond)    S(metal)    S(lipo)     H(rot)  DE(clash)    DE(int)     intcor
     10.68     -12.88       0.00        0.00      85.12       1.00       0.07       2.13       ----

> <Gold.Chemscore.Fitness>
10.6816

> <Gold.Chemscore.DG>
-12.8789

> <Gold.Chemscore.ZeroCoef>
-5.4800

> <Gold.Chemscore.Hbond>
0.0000

> <Gold.Chemscore.Metal>
0.0000

> <Gold.Chemscore.Lipo>
85.1186

> <Gold.Chemscore.Internal_Hbond>
0.0000

> <Gold.Chemscore.DEClash>
0.0655

> <Gold.Chemscore.DEInternal>
2.1318

> <Gold.Chemscore.Rot>
1.0000

> <Gold.Chemscore.Internal.Correction>
   9.000000E+99

> <Gold.Chemscore.Hbond.Weighted>
-0.0000

> <Gold.Chemscore.Metal.Weighted>
-0.0000

> <Gold.Chemscore.Lipo.Weighted>
-9.9589

> <Gold.Chemscore.Internal_Hbond.Weighted>
0.0000

> <Gold.Chemscore.DEClash.Weighted>
0.0655

> <Gold.Chemscore.DEInternal.Weighted>
2.1318

> <Gold.Chemscore.Rot.Weighted>
2.5600

> <Gold.Chemscore.Internal.Correction.Weighted>
   9.000000E+99

> <Gold.Protein.RotatedTorsions>
[ 6907 6896 6895 6894 ] final    9.71 input  -60.11 | X-H torsion
[ 7974 7965 7964 7962 ] final -145.62 input  175.53 | X-H torsion
[ 8008 7997 7996 7995 ] final   99.64 input   59.86 | X-H torsion
[ 10167 10162 10161 10158 ] final  176.62 input  -65.29 | X-H torsion
[ 10718 10713 10712 10709 ] final  117.96 input   66.30 | X-H torsion
[ 10763 10752 10751 10750 ] final  122.33 input  -60.55 | X-H torsion
[ 11005 11000 10999 10996 ] final   85.71 input  -57.11 | X-H torsion

> <Gold.Protein.ActiveResidues>
 VAL166  LYS551  ARG553  GLY616  TRP617  ASP618  TYR619  PRO620  LYS621  CYS622 
 ASP623  PHE694  ASN695  SER759  ASP760  ASP761  ALA762  ILE779  LEU786  VAL792 
 PHE793  MET794  SER795  GLU796  ALA797  LYS798  CYS799  TRP800  GLU811  SER814 

> <Gold.Protein.RotatedAtoms>
  151.7266  135.0883  160.0292 H   0  0  0  0  0  0  0  0  0  0  0  0  # atno 6907 bound_to 6896
  152.3568  133.6243  159.5994 H   0  0  0  0  0  0  0  0  0  0  0  0  # atno 6908 bound_to 6896
  150.7577  133.9403  159.3495 H   0  0  0  0  0  0  0  0  0  0  0  0  # atno 6909 bound_to 6896
  144.8215  140.5560  143.5575 H   0  0  0  0  0  0  0  0  0  0  0  0  # atno 7974 bound_to 7965
  156.1125  140.3225  155.8092 H   0  0  0  0  0  0  0  0  0  0  0  0  # atno 8008 bound_to 7997
  155.4648  140.0542  157.3004 H   0  0  0  0  0  0  0  0  0  0  0  0  # atno 8009 bound_to 7997
  154.4769  140.2036  155.9870 H   0  0  0  0  0  0  0  0  0  0  0  0  # atno 8010 bound_to 7997
  139.5221  144.2894  152.0477 H   0  0  0  0  0  0  0  0  0  0  0  0  # atno 10167 bound_to 10162
  157.6062  131.1043  150.7689 H   0  0  0  0  0  0  0  0  0  0  0  0  # atno 10718 bound_to 10713
  153.6281  135.3401  155.3033 H   0  0  0  0  0  0  0  0  0  0  0  0  # atno 10763 bound_to 10752
  154.8586  135.4289  154.2135 H   0  0  0  0  0  0  0  0  0  0  0  0  # atno 10764 bound_to 10752
  153.3024  135.7025  153.7263 H   0  0  0  0  0  0  0  0  0  0  0  0  # atno 10765 bound_to 10752
  139.8964  134.8305  156.2619 H   0  0  0  0  0  0  0  0  0  0  0  0  # atno 11005 bound_to 11000
  145.5095  139.1480  143.3612 LP  0  0  0  0  0  0  0  0  0  0  0  0  # atno 17320 bound_to 7965
  146.2520  140.5236  142.8889 LP  0  0  0  0  0  0  0  0  0  0  0  0  # atno 17321 bound_to 7965
  140.2345  144.4333  150.6286 LP  0  0  0  0  0  0  0  0  0  0  0  0  # atno 17342 bound_to 10162
  140.6332  143.2191  151.6450 LP  0  0  0  0  0  0  0  0  0  0  0  0  # atno 17343 bound_to 10162
  156.8077  130.4942  149.5360 LP  0  0  0  0  0  0  0  0  0  0  0  0  # atno 17370 bound_to 10713
  156.1149  130.6067  151.0105 LP  0  0  0  0  0  0  0  0  0  0  0  0  # atno 17371 bound_to 10713
  141.0157  133.7070  156.1184 LP  0  0  0  0  0  0  0  0  0  0  0  0  # atno 17394 bound_to 11000
  140.7305  134.4259  157.5566 LP  0  0  0  0  0  0  0  0  0  0  0  0  # atno 17395 bound_to 11000

$$$$
