#       Name:                AV-unprocessed.smi:527
#       Creating user name   scv26
#       Creation time:       Thu Mar 26 23:30:10 2020


#       File generated by GOLD software.
#

@<TRIPOS>MOLECULE
AV-unprocessed.smi:527
    47    48     1
SMALL
NO_CHARGES


@<TRIPOS>ATOM
      1 ****        -4.4205  -0.1182  -1.9007 C.3            1 S1                 0.0000
      2 ****        -3.6014  -1.4043  -1.6668 C.3            1 S1                 0.0000
      3 ****        -4.1216  -2.1945  -0.4490 C.3            1 S1                 0.0000
      4 ****        -3.7622  -1.5139   0.8809 C.3            1 S1                 0.0000
      5 ****        -2.2493  -1.2823   0.9949 C.3            1 S1                 0.0000
      6 ****        -1.6954  -0.4875  -0.2066 C.3            1 S1                 0.0000
      7 ****        -0.2435  -0.3638  -0.0883 N.am           1 S1                 0.0000
      8 ****         0.4022   0.5637   0.6342 C.2            1 S1                 0.0000
      9 ****        -0.1748   1.4202   1.3078 O.2            1 S1                 0.0000
     10 ****         1.7367   0.4239   0.5152 N.am           1 S1                 0.0000
     11 ****         2.6977   1.1717   1.0954 C.2            1 S1                 0.0000
     12 ****         2.4889   2.1227   1.8532 O.2            1 S1                 0.0000
     13 ****         4.1326   0.7569   0.7431 C.3            1 S1                 0.0000
     14 ****         5.1398   1.5402   1.4387 N.pl3          1 S1                 0.0000
     15 ****         5.7330   2.7196   1.0057 C.2            1 S1                 0.0000
     16 ****         6.6198   3.0975   1.9885 C.2            1 S1                 0.0000
     17 ****         6.5890   2.1720   3.0291 N.2            1 S1                 0.0000
     18 ****         5.6887   1.2809   2.6338 C.2            1 S1                 0.0000
     19 ****        -2.0714  -1.1710  -1.5470 C.3            1 S1                 0.0000
     20 ****        -1.4907  -0.4454  -2.7770 C.3            1 S1                 0.0000
     21 ****        -4.2823   0.6098  -1.1021 H              1 S1                 0.0000
     22 ****        -5.4861  -0.3416  -1.9575 H              1 S1                 0.0000
     23 ****        -4.1485   0.3649  -2.8388 H              1 S1                 0.0000
     24 ****        -3.7671  -2.0335  -2.5425 H              1 S1                 0.0000
     25 ****        -5.2014  -2.3304  -0.5189 H              1 S1                 0.0000
     26 ****        -3.6917  -3.1969  -0.4616 H              1 S1                 0.0000
     27 ****        -4.2877  -0.5627   0.9687 H              1 S1                 0.0000
     28 ****        -4.1044  -2.1280   1.7143 H              1 S1                 0.0000
     29 ****        -2.0330  -0.7580   1.9266 H              1 S1                 0.0000
     30 ****        -1.7442  -2.2470   1.0617 H              1 S1                 0.0000
     31 ****        -2.1305   0.5134  -0.1970 H              1 S1                 0.0000
     32 ****         0.3088  -1.0294  -0.6086 H              1 S1                 0.0000
     33 ****         2.0557  -0.3263  -0.0797 H              1 S1                 0.0000
     34 ****         4.2789  -0.2962   0.9874 H              1 S1                 0.0000
     35 ****         4.2880   0.8639  -0.3312 H              1 S1                 0.0000
     36 ****         5.4807   3.1803   0.0620 H              1 S1                 0.0000
     37 ****         7.2726   3.9572   2.0265 H              1 S1                 0.0000
     38 ****         5.4223   0.4190   3.2276 H              1 S1                 0.0000
     39 ****        -1.6122  -2.1612  -1.5372 H              1 S1                 0.0000
     40 ****        -1.7948   0.6011  -2.8068 H              1 S1                 0.0000
     41 ****        -1.8209  -0.9171  -3.7028 H              1 S1                 0.0000
     42 ****        -0.4009  -0.4680  -2.7770 H              1 S1                 0.0000
     43 ****        -1.1741   1.4463   1.3338 LP             1 S1                 0.0000
     44 ****         0.3566   2.0886   1.8282 LP             1 S1                 0.0000
     45 ****         1.5509   2.3875   2.0766 LP             1 S1                 0.0000
     46 ****         3.2579   2.6286   2.2441 LP             1 S1                 0.0000
     47 ****         7.1208   2.1778   3.8760 LP             1 S1                 0.0000
@<TRIPOS>BOND
    1    1    2 1     
    2    1   21 1     
    3    1   22 1     
    4    1   23 1     
    5    2   19 1     
    6    2    3 1     
    7    2   24 1     
    8    3    4 1     
    9    3   25 1     
   10    3   26 1     
   11    4    5 1     
   12    4   27 1     
   13    4   28 1     
   14    5    6 1     
   15    5   29 1     
   16    5   30 1     
   17    6    7 1     
   18    6   19 1     
   19    6   31 1     
   20    7    8 1     
   21    7   32 1     
   22    8    9 2     
   23    8   10 1     
   24   10   11 1     
   25   10   33 1     
   26   11   12 2     
   27   11   13 1     
   28   13   14 1     
   29   13   34 1     
   30   13   35 1     
   31   14   18 1     
   32   14   15 1     
   33   15   16 2     
   34   15   36 1     
   35   16   17 1     
   36   16   37 1     
   37   17   18 2     
   38   18   38 1     
   39   19   20 1     
   40   19   39 1     
   41   20   40 1     
   42   20   41 1     
   43   20   42 1     
   44    9   43 1     
   45    9   44 1     
   46   12   45 1     
   47   12   46 1     
   48   17   47 1     
@<TRIPOS>SUBSTRUCTURE
      1 S1             1
@<TRIPOS>SET
LONE_PAIRS      STATIC     ATOMS    <user>   **** ""
5 43 44 45 46 47
DONOR_HYDROGENS      STATIC     ATOMS    <user>   **** ""
2 32 33
ATOM$BLUE        STATIC     ATOMS    COLORGROUP SYSTEM
5 43 44 45 46 47
ATOM$RED        STATIC     ATOMS    COLORGROUP SYSTEM
2 32 33
