#       Name:                AV-unprocessed.smi:34
#       Creating user name   scv26
#       Creation time:       Thu Mar 26 16:00:27 2020


#       File generated by GOLD software.
#

@<TRIPOS>MOLECULE
AV-unprocessed.smi:34
    66    70     1
SMALL
NO_CHARGES


@<TRIPOS>ATOM
      1 ****        -5.1848   0.2504   1.9030 O.2            1 S1                 0.0000
      2 ****        -5.5366   0.4818   0.7442 C.2            1 S1                 0.0000
      3 ****        -4.7469   0.6956  -0.3388 N.pl3          1 S1                -1.0000
      4 ****        -3.4129   0.6205  -0.2182 C.ar           1 S1                 0.0000
      5 ****        -2.6758   1.7479  -0.0512 N.ar           1 S1                 0.0000
      6 ****        -1.3457   1.6736   0.0666 C.ar           1 S1                 0.0000
      7 ****        -0.5600   0.5931   0.0423 N.ar           1 S1                 0.0000
      8 ****        -1.2861  -0.5486  -0.1364 C.ar           1 S1                 0.0000
      9 ****        -2.7037  -0.6107  -0.2767 C.ar           1 S1                 0.0000
     10 ****        -3.1250  -1.9207  -0.4468 N.2            1 S1                 0.0000
     11 ****        -1.9707  -2.5813  -0.4026 C.2            1 S1                 0.0000
     12 ****        -0.8457  -1.8619  -0.2164 N.pl3          1 S1                 0.0000
     13 ****         0.5522  -2.3931  -0.1456 C.3            1 S1                 0.0000
     14 ****         1.3114  -1.7640  -1.1392 O.3            1 S1                 0.0000
     15 ****         2.3496  -0.9884  -0.5442 C.3            1 S1                 0.0000
     16 ****         3.5522  -0.8711  -1.4891 C.3            1 S1                 0.0000
     17 ****         4.5342  -0.0311  -0.9035 O.3            1 S1                 0.0000
     18 ****         5.7310   0.1240  -1.5027 C.2            1 S1                 0.0000
     19 ****         6.0362  -0.4188  -2.5666 O.2            1 S1                 0.0000
     20 ****         6.6522   1.0150  -0.7400 C.ar           1 S1                 0.0000
     21 ****         7.9737   1.2067  -1.2068 C.ar           1 S1                 0.0000
     22 ****         8.8690   2.0375  -0.5057 C.ar           1 S1                 0.0000
     23 ****         8.4528   2.6896   0.6694 C.ar           1 S1                 0.0000
     24 ****         7.1400   2.5095   1.1428 C.ar           1 S1                 0.0000
     25 ****         6.2437   1.6770   0.4441 C.ar           1 S1                 0.0000
     26 ****         2.6212  -1.7126   0.7738 C.3            1 S1                 0.0000
     27 ****         3.3452  -2.8088   0.5266 F              1 S1                 0.0000
     28 ****         1.2108  -2.0797   1.2071 C.3            1 S1                 0.0000
     29 ****         1.2305  -3.1777   2.0969 O.3            1 S1                 0.0000
     30 ****        -7.0057   0.6197   0.4463 C.ar           1 S1                 0.0000
     31 ****        -7.8649   1.1924   1.4120 C.ar           1 S1                 0.0000
     32 ****        -9.2465   1.3079   1.1635 C.ar           1 S1                 0.0000
     33 ****        -9.7858   0.8428  -0.0505 C.ar           1 S1                 0.0000
     34 ****        -8.9427   0.2579  -1.0138 C.ar           1 S1                 0.0000
     35 ****        -7.5610   0.1421  -0.7661 C.ar           1 S1                 0.0000
     36 ****        -0.8369   2.6166   0.2003 H              1 S1                 0.0000
     37 ****        -1.9426  -3.6558  -0.5102 H              1 S1                 0.0000
     38 ****         0.4730  -3.4595  -0.3626 H              1 S1                 0.0000
     39 ****         1.9643   0.0089  -0.3356 H              1 S1                 0.0000
     40 ****         3.9695  -1.8566  -1.7007 H              1 S1                 0.0000
     41 ****         3.2351  -0.4414  -2.4402 H              1 S1                 0.0000
     42 ****         8.3166   0.7156  -2.1061 H              1 S1                 0.0000
     43 ****         9.8764   2.1736  -0.8707 H              1 S1                 0.0000
     44 ****         9.1395   3.3270   1.2066 H              1 S1                 0.0000
     45 ****         6.8189   3.0108   2.0439 H              1 S1                 0.0000
     46 ****         5.2434   1.5605   0.8346 H              1 S1                 0.0000
     47 ****         3.1601  -1.1071   1.5030 H              1 S1                 0.0000
     48 ****         0.7297  -1.2224   1.6788 H              1 S1                 0.0000
     49 ****         0.3391  -3.3959   2.3226 H              1 S1                 0.0000
     50 ****        -7.4672   1.5521   2.3501 H              1 S1                 0.0000
     51 ****        -9.8924   1.7521   1.9063 H              1 S1                 0.0000
     52 ****       -10.8450   0.9308  -0.2411 H              1 S1                 0.0000
     53 ****        -9.3554  -0.1053  -1.9434 H              1 S1                 0.0000
     54 ****        -6.9335  -0.3197  -1.5150 H              1 S1                 0.0000
     55 ****        -4.2121   0.2030   2.1303 LP             1 S1                 0.0000
     56 ****        -5.8721   0.1101   2.6157 LP             1 S1                 0.0000
     57 ****        -5.1586   0.9087  -1.2248 LP             1 S1                 0.0000
     58 ****        -3.1294   2.6384  -0.0160 LP             1 S1                 0.0000
     59 ****         0.4347   0.6179   0.1425 LP             1 S1                 0.0000
     60 ****        -4.0517  -2.2755  -0.5701 LP             1 S1                 0.0000
     61 ****         0.7193  -1.1657  -1.6789 LP             1 S1                 0.0000
     62 ****         1.7165  -2.4576  -1.7349 LP             1 S1                 0.0000
     63 ****         5.3791  -1.0117  -3.0319 LP             1 S1                 0.0000
     64 ****         6.9410  -0.2662  -2.9642 LP             1 S1                 0.0000
     65 ****         1.7378  -2.9334   2.9234 LP             1 S1                 0.0000
     66 ****         1.6686  -3.9613   1.6564 LP             1 S1                 0.0000
@<TRIPOS>BOND
    1    1    2 2     
    2    2    3 1     
    3    2   30 1     
    4    3    4 1     
    5    4    9 ar    
    6    4    5 ar    
    7    5    6 ar    
    8    6    7 ar    
    9    6   36 1     
   10    7    8 ar    
   11    8   12 1     
   12    8    9 ar    
   13    9   10 1     
   14   10   11 2     
   15   11   12 1     
   16   11   37 1     
   17   12   13 1     
   18   13   28 1     
   19   13   14 1     
   20   13   38 1     
   21   14   15 1     
   22   15   16 1     
   23   15   26 1     
   24   15   39 1     
   25   16   17 1     
   26   16   40 1     
   27   16   41 1     
   28   17   18 1     
   29   18   19 2     
   30   18   20 1     
   31   20   25 ar    
   32   20   21 ar    
   33   21   22 ar    
   34   21   42 1     
   35   22   23 ar    
   36   22   43 1     
   37   23   24 ar    
   38   23   44 1     
   39   24   25 ar    
   40   24   45 1     
   41   25   46 1     
   42   26   27 1     
   43   26   28 1     
   44   26   47 1     
   45   28   29 1     
   46   28   48 1     
   47   29   49 1     
   48   30   35 ar    
   49   30   31 ar    
   50   31   32 ar    
   51   31   50 1     
   52   32   33 ar    
   53   32   51 1     
   54   33   34 ar    
   55   33   52 1     
   56   34   35 ar    
   57   34   53 1     
   58   35   54 1     
   59    1   55 1     
   60    1   56 1     
   61    3   57 1     
   62    5   58 1     
   63    7   59 1     
   64   10   60 1     
   65   14   61 1     
   66   14   62 1     
   67   19   63 1     
   68   19   64 1     
   69   29   65 1     
   70   29   66 1     
@<TRIPOS>SUBSTRUCTURE
      1 S1             1
@<TRIPOS>SET
LONE_PAIRS      STATIC     ATOMS    <user>   **** ""
12 55 56 57 58 59 60 61 62 63 64 65 66
DONOR_HYDROGENS      STATIC     ATOMS    <user>   **** ""
1 49
ATOM$BLUE        STATIC     ATOMS    COLORGROUP SYSTEM
12 55 56 57 58 59 60 61 62 63 64 65 66
ATOM$RED        STATIC     ATOMS    COLORGROUP SYSTEM
1 49
