#       Name:                AV-unprocessed.smi:2506
#       Creating user name   scv26
#       Creation time:       Fri Mar 27 13:49:07 2020


#       File generated by GOLD software.
#

@<TRIPOS>MOLECULE
AV-unprocessed.smi:2506
    42    43     1
SMALL
NO_CHARGES


@<TRIPOS>ATOM
      1 ****        -4.3980  -0.5210  -0.0567 C.3            1 S1                 0.0000
      2 ****        -4.2368   0.8392  -0.7123 C.ar           1 S1                 0.0000
      3 ****        -5.3567   1.5978  -0.7728 N.ar           1 S1                 0.0000
      4 ****        -5.3227   2.8114  -1.3325 N.ar           1 S1                 0.0000
      5 ****        -4.1670   3.2856  -1.8479 C.ar           1 S1                 0.0000
      6 ****        -2.9651   2.5551  -1.8201 C.ar           1 S1                 0.0000
      7 ****        -2.9902   1.2771  -1.2173 C.ar           1 S1                 0.0000
      8 ****        -1.8598   0.4164  -1.1316 N.am           1 S1                 0.0000
      9 ****        -0.5555   0.7373  -1.1753 C.2            1 S1                 0.0000
     10 ****        -0.1058   1.8758  -1.3027 O.2            1 S1                 0.0000
     11 ****         0.2129  -0.3523  -1.0343 N.am           1 S1                 0.0000
     12 ****         1.6741  -0.3668  -1.0051 C.3            1 S1                 0.0000
     13 ****         2.2444  -0.5182   0.4274 C.3            1 S1                 0.0000
     14 ****         1.8788   0.7078   1.2956 C.3            1 S1                 0.0000
     15 ****         1.7796  -1.8204   1.1034 C.3            1 S1                 0.0000
     16 ****         2.8566  -2.1704   2.1364 C.3            1 S1                 0.0000
     17 ****         4.1395  -1.4682   1.6718 C.3            1 S1                 0.0000
     18 ****         3.7716  -0.7017   0.3949 C.3            1 S1                 0.0000
     19 ****        -3.7394  -0.6058   0.8083 H              1 S1                 0.0000
     20 ****        -4.1474  -1.3144  -0.7614 H              1 S1                 0.0000
     21 ****        -5.4222  -0.6829   0.2819 H              1 S1                 0.0000
     22 ****        -4.2047   4.2666  -2.2978 H              1 S1                 0.0000
     23 ****        -2.0757   2.9754  -2.2632 H              1 S1                 0.0000
     24 ****        -2.0701  -0.5529  -0.9443 H              1 S1                 0.0000
     25 ****        -0.2471  -1.2446  -0.9293 H              1 S1                 0.0000
     26 ****         1.9959  -1.2044  -1.6248 H              1 S1                 0.0000
     27 ****         2.0842   0.5255  -1.4816 H              1 S1                 0.0000
     28 ****         2.3397   0.6606   2.2823 H              1 S1                 0.0000
     29 ****         0.8030   0.7860   1.4513 H              1 S1                 0.0000
     30 ****         2.2105   1.6345   0.8261 H              1 S1                 0.0000
     31 ****         0.7881  -1.7372   1.5506 H              1 S1                 0.0000
     32 ****         1.7310  -2.6223   0.3651 H              1 S1                 0.0000
     33 ****         2.5689  -1.7976   3.1202 H              1 S1                 0.0000
     34 ****         2.9894  -3.2491   2.2240 H              1 S1                 0.0000
     35 ****         4.4827  -0.7772   2.4427 H              1 S1                 0.0000
     36 ****         4.9471  -2.1775   1.4884 H              1 S1                 0.0000
     37 ****         4.0555  -1.3089  -0.4660 H              1 S1                 0.0000
     38 ****         4.3103   0.2426   0.3078 H              1 S1                 0.0000
     39 ****        -6.2146   1.2481  -0.3965 LP             1 S1                 0.0000
     40 ****        -6.1525   3.3682  -1.3698 LP             1 S1                 0.0000
     41 ****        -0.7292   2.6535  -1.3836 LP             1 S1                 0.0000
     42 ****         0.8830   2.0232  -1.3254 LP             1 S1                 0.0000
@<TRIPOS>BOND
    1    1    2 1     
    2    1   19 1     
    3    1   20 1     
    4    1   21 1     
    5    2    7 ar    
    6    2    3 ar    
    7    3    4 ar    
    8    4    5 ar    
    9    5    6 ar    
   10    5   22 1     
   11    6    7 ar    
   12    6   23 1     
   13    7    8 1     
   14    8    9 am    
   15    8   24 1     
   16    9   10 2     
   17    9   11 am    
   18   11   12 1     
   19   11   25 1     
   20   12   13 1     
   21   12   26 1     
   22   12   27 1     
   23   13   18 1     
   24   13   14 1     
   25   13   15 1     
   26   14   28 1     
   27   14   29 1     
   28   14   30 1     
   29   15   16 1     
   30   15   31 1     
   31   15   32 1     
   32   16   17 1     
   33   16   33 1     
   34   16   34 1     
   35   17   18 1     
   36   17   35 1     
   37   17   36 1     
   38   18   37 1     
   39   18   38 1     
   40    3   39 1     
   41    4   40 1     
   42   10   41 1     
   43   10   42 1     
@<TRIPOS>SUBSTRUCTURE
      1 S1             1
@<TRIPOS>SET
LONE_PAIRS      STATIC     ATOMS    <user>   **** ""
4 39 40 41 42
DONOR_HYDROGENS      STATIC     ATOMS    <user>   **** ""
2 24 25
ATOM$BLUE        STATIC     ATOMS    COLORGROUP SYSTEM
4 39 40 41 42
ATOM$RED        STATIC     ATOMS    COLORGROUP SYSTEM
2 24 25
