AV-unprocessed.smi:37|AV-procd|sdf|318|dock3
  -GOLD-   2262016143D 1   1.00000     0.00000
 Structure written by MMmdl.
 44 45  0  0  0  0  0  0  0  0  1 V2000
  146.3565  135.2561  162.4162 C   0  0  0  0  0  0  0  0  0  0  0  0
  147.5181  134.9520  161.4585 C   0  0  0  0  0  0  0  0  0  0  0  0
  147.8638  136.1145  160.5256 C   0  0  0  0  0  0  0  0  0  0  0  0
  147.3246  137.2189  160.6173 O   0  0  0  0  0  0  0  0  0  0  0  0
  148.7988  135.7728  159.6269 O   0  0  0  0  0  0  0  0  0  0  0  0
  149.1489  136.6783  158.5910 C   0  0  0  0  0  0  0  0  0  0  0  0
  150.1616  137.7084  159.1078 C   0  0  1  0  0  0  0  0  0  0  0  0
  151.1583  137.0874  159.9187 O   0  0  0  0  0  0  0  0  0  0  0  0
  152.4243  137.4850  159.4864 C   0  0  2  0  0  0  0  0  0  0  0  0
  153.3519  137.6447  160.6679 N   0  0  0  0  0  0  0  0  0  0  0  0
  153.0234  137.1807  161.9363 C   0  0  0  0  0  0  0  0  0  0  0  0
  153.8428  137.3221  163.0049 C   0  0  0  0  0  0  0  0  0  0  0  0
  153.4565  136.8529  164.2033 F   0  0  0  0  0  0  0  0  0  0  0  0
  155.1374  137.9838  162.8691 C   0  0  0  0  0  0  0  0  0  0  0  0
  155.9486  138.1557  163.7767 O   0  0  0  0  0  0  0  0  0  0  0  0
  155.4208  138.4394  161.5780 N   0  0  0  0  0  0  0  0  0  0  0  0
  154.5845  138.3021  160.4690 C   0  0  0  0  0  0  0  0  0  0  0  0
  154.9302  138.7468  159.3752 O   0  0  0  0  0  0  0  0  0  0  0  0
  152.2309  138.7876  158.7027 C   0  0  2  0  0  0  0  0  0  0  0  0
  152.0382  140.3667  159.9170 Br  0  0  0  0  0  0  0  0  0  0  0  0
  150.9101  138.4836  158.0156 C   0  0  2  0  0  0  0  0  0  0  0  0
  150.2051  139.6495  157.6092 O   0  0  0  0  0  0  0  0  0  0  0  0
  150.6508  140.3806  156.5729 C   0  0  0  0  0  0  0  0  0  0  0  0
  151.2770  139.9451  155.6050 O   0  0  0  0  0  0  0  0  0  0  0  0
  150.2941  141.8610  156.7221 C   0  0  0  0  0  0  0  0  0  0  0  0
  149.6467  142.2039  158.0720 C   0  0  0  0  0  0  0  0  0  0  0  0
  156.3036  138.9083  161.4372 H   0  0  0  0  0  0  0  0  0  0  0  0
  146.1477  134.3949  163.0510 H   0  0  0  0  0  0  0  0  0  0  0  0
  145.4421  135.4917  161.8701 H   0  0  0  0  0  0  0  0  0  0  0  0
  146.5875  136.0985  163.0691 H   0  0  0  0  0  0  0  0  0  0  0  0
  148.4083  134.6927  162.0318 H   0  0  0  0  0  0  0  0  0  0  0  0
  147.2717  134.0825  160.8487 H   0  0  0  0  0  0  0  0  0  0  0  0
  149.5902  136.1336  157.7549 H   0  0  0  0  0  0  0  0  0  0  0  0
  148.2528  137.1769  158.2192 H   0  0  0  0  0  0  0  0  0  0  0  0
  149.6435  138.4149  159.7580 H   0  0  0  0  0  0  0  0  0  0  0  0
  152.8372  136.6773  158.8778 H   0  0  0  0  0  0  0  0  0  0  0  0
  152.0739  136.6932  162.1021 H   0  0  0  0  0  0  0  0  0  0  0  0
  153.0558  138.9712  158.0139 H   0  0  0  0  0  0  0  0  0  0  0  0
  151.0952  137.8242  157.1663 H   0  0  0  0  0  0  0  0  0  0  0  0
  151.2027  142.4491  156.5916 H   0  0  0  0  0  0  0  0  0  0  0  0
  149.6197  142.1377  155.9115 H   0  0  0  0  0  0  0  0  0  0  0  0
  149.4078  143.2662  158.1235 H   0  0  0  0  0  0  0  0  0  0  0  0
  150.3144  141.9759  158.9034 H   0  0  0  0  0  0  0  0  0  0  0  0
  148.7187  141.6506  158.2205 H   0  0  0  0  0  0  0  0  0  0  0  0
  1  2  1  0  0  0  0
  1 28  1  0  0  0  0
  1 29  1  0  0  0  0
  1 30  1  0  0  0  0
  2  3  1  0  0  0  0
  2 31  1  0  0  0  0
  2 32  1  0  0  0  0
  3  4  2  0  0  0  0
  3  5  1  0  0  0  0
  5  6  1  0  0  0  0
  6  7  1  0  0  0  0
  6 33  1  0  0  0  0
  6 34  1  0  0  0  0
  7 21  1  0  0  0  0
  7  8  1  0  0  0  0
  7 35  1  0  0  0  0
  8  9  1  0  0  0  0
  9 10  1  0  0  0  0
  9 19  1  0  0  0  0
  9 36  1  0  0  0  0
 10 17  1  0  0  0  0
 10 11  1  0  0  0  0
 11 12  2  0  0  0  0
 11 37  1  0  0  0  0
 12 13  1  0  0  0  0
 12 14  1  0  0  0  0
 14 15  2  0  0  0  0
 14 16  1  0  0  0  0
 16 27  1  0  0  0  0
 16 17  1  0  0  0  0
 17 18  2  0  0  0  0
 19 20  1  0  0  0  0
 19 21  1  0  0  0  0
 19 38  1  0  0  0  0
 21 22  1  0  0  0  0
 21 39  1  0  0  0  0
 22 23  1  0  0  0  0
 23 24  2  0  0  0  0
 23 25  1  0  0  0  0
 25 26  1  0  0  0  0
 25 40  1  0  0  0  0
 25 41  1  0  0  0  0
 26 42  1  0  0  0  0
 26 43  1  0  0  0  0
 26 44  1  0  0  0  0
M  END
> <s_m_source_file>
AV-unprocessed.smi

> <i_m_source_file_index>
37

> <i_lp_mmshare_version>
43012

> <i_f3d_flags>
0

> <s_epik_input>
W0NIM11bQ0gyXUMoPU8pT1tDSDJdW0NAQEhdMU9bQ0BASF0objJbY0hdYyhGKWMoPU8pW25IXWMyPU8pW0NAQEhdKEJyKVtDQEhdMU9DKD1PKVtDSDJdW0NIM10=

> <s_epik_cmdline>
J2VwaWtfcHl0aG9uJywgJy1waCcsICc3LjAnLCAnLXRuJywgJzgnLCAnLW1hJywgJzIwMCcsICctbWV0YWxfYmluZGluZycsICctaW1hZScsICc8aW5maWxlLm1hZT4nLCAnLW9tYWUnLCAnPG91dGZpbGUubWFlPic=

> <r_lp_tautomer_probability>
0.999537

> <r_epik_Ionization_Penalty>
0.104106

> <r_epik_Ionization_Penalty_Charging>
0.104106

> <r_epik_Ionization_Penalty_Neutral>
3.94675e-16

> <r_epik_State_Penalty>
0.0940182

> <r_epik_Charging_Adjusted_Penalty>
0.198124

> <i_epik_Tot_Q>
0

> <i_epik_Tot_abs_Q>
0

> <r_epik_Metal_State_Penalty>
3.05314

> <b_epik_Metal_Only>
0

> <s_epik_Chemistry_Notes>
This compound has an ester and may undergo hydrolysis at high or low pH. This compound contains an acetal/aminal-like group ( X-CH(R)-Y where X, Y are N, S, or O) that may be acid/base labile, releasing an aldehyde.

> <s_lp_Force_Field>
OPLS_2005

> <r_lp_Energy>
25.1984

> <b_lp_Chiralities_Consistent>
1

> <s_lp_Variant>
AV-unprocessed.smi:37-16

> <Gold.Version>
5.8.1

> <Gold.Id.Protein>
6NUR|6NUR_protein|mol2

> <Gold.PLP.Fitness>
53.0776

> <Gold.PLP.PLP>
-41.6177

> <Gold.PLP.part.hbond>
-6.0000

> <Gold.PLP.part.metal>
0.0000

> <Gold.PLP.part.buried>
-5.8974

> <Gold.PLP.part.nonpolar>
-29.7379

> <Gold.PLP.part.repulsive>
0.0220

> <Gold.PLP.ligand.clash>
0.0000

> <Gold.PLP.ligand.torsion>
1.0377

> <Gold.PLP.Chemscore.Hbond>
4.4734

> <Gold.PLP.Chemscore.CHOScore>
0.0000

> <Gold.PLP.Chemscore.Metal>
0.0000

> <Gold.Chemscore.Hbonds>
donor molecule, donor type, donor heavy atom, donor atom, acceptor molecule, acceptor atom, score
      P1  H  6896  6909       L1     8  1.00
      P1  H  6931  6943       L1     4  0.09
      P1  H  6934  6947       L1     4  1.00
      P1  H  7989  7998       L1    24  0.26

> <Gold.PLP.Chemscore.Internal.Correction>
0.1152

> <Gold.Rescore>
     Score         DG    S(hbond)    S(metal)    S(lipo)     H(rot)  DE(clash)    DE(int)     intcor
     12.74     -16.11       3.49        0.00      64.04       3.33       1.19       2.18       ----

> <Gold.Chemscore.Fitness>
12.7392

> <Gold.Chemscore.DG>
-16.1085

> <Gold.Chemscore.ZeroCoef>
-5.4800

> <Gold.Chemscore.Hbond>
3.4914

> <Gold.Chemscore.Metal>
0.0000

> <Gold.Chemscore.Lipo>
64.0403

> <Gold.Chemscore.Internal_Hbond>
0.0000

> <Gold.Chemscore.DEClash>
1.1931

> <Gold.Chemscore.DEInternal>
2.1763

> <Gold.Chemscore.Rot>
3.3303

> <Gold.Chemscore.Internal.Correction>
   9.000000E+99

> <Gold.Chemscore.Hbonds>
donor molecule, donor type, donor heavy atom, donor atom, acceptor molecule, acceptor atom, score
      P1  H  6896  6909       L1     8  0.25
      P1  H  6931  6943       L1     4  0.02
      P1  H  6934  6947       L1     4  0.99
      P1  H  7989  7998       L1    24  0.26
      P1  H  7997  8009       L1    18  0.01

> <Gold.Chemscore.Hbond.Weighted>
-11.6614

> <Gold.Chemscore.Metal.Weighted>
-0.0000

> <Gold.Chemscore.Lipo.Weighted>
-7.4927

> <Gold.Chemscore.Internal_Hbond.Weighted>
0.0000

> <Gold.Chemscore.DEClash.Weighted>
1.1931

> <Gold.Chemscore.DEInternal.Weighted>
2.1763

> <Gold.Chemscore.Rot.Weighted>
8.5256

> <Gold.Chemscore.Internal.Correction.Weighted>
   9.000000E+99

> <Gold.Protein.RotatedTorsions>
[ 6907 6896 6895 6894 ] final  111.05 input  -60.11 | X-H torsion
[ 7974 7965 7964 7962 ] final  -95.32 input  175.53 | X-H torsion
[ 8008 7997 7996 7995 ] final   89.92 input   59.86 | X-H torsion
[ 10167 10162 10161 10158 ] final  104.83 input  -65.29 | X-H torsion
[ 10718 10713 10712 10709 ] final  -82.76 input   66.30 | X-H torsion
[ 10763 10752 10751 10750 ] final  -67.15 input  -60.55 | X-H torsion
[ 11005 11000 10999 10996 ] final  -86.46 input  -57.11 | X-H torsion

> <Gold.Protein.ActiveResidues>
 VAL166  LYS551  ARG553  GLY616  TRP617  ASP618  TYR619  PRO620  LYS621  CYS622 
 ASP623  PHE694  ASN695  SER759  ASP760  ASP761  ALA762  ILE779  LEU786  VAL792 
 PHE793  MET794  SER795  GLU796  ALA797  LYS798  CYS799  TRP800  GLU811  SER814 

> <Gold.Protein.RotatedAtoms>
  152.4989  133.8713  159.7299 H   0  0  0  0  0  0  0  0  0  0  0  0  # atno 6907 bound_to 6896
  150.9199  133.6884  159.2841 H   0  0  0  0  0  0  0  0  0  0  0  0  # atno 6908 bound_to 6896
  151.4265  135.1009  159.9682 H   0  0  0  0  0  0  0  0  0  0  0  0  # atno 6909 bound_to 6896
  145.3616  140.9492  143.2497 H   0  0  0  0  0  0  0  0  0  0  0  0  # atno 7974 bound_to 7965
  156.0058  140.3355  155.6891 H   0  0  0  0  0  0  0  0  0  0  0  0  # atno 8008 bound_to 7997
  155.6227  140.0677  157.2691 H   0  0  0  0  0  0  0  0  0  0  0  0  # atno 8009 bound_to 7997
  154.4264  140.1773  156.1376 H   0  0  0  0  0  0  0  0  0  0  0  0  # atno 8010 bound_to 7997
  139.7144  144.7071  151.0975 H   0  0  0  0  0  0  0  0  0  0  0  0  # atno 10167 bound_to 10162
  156.0028  130.4644  150.4153 H   0  0  0  0  0  0  0  0  0  0  0  0  # atno 10718 bound_to 10713
  154.3702  135.6097  153.5736 H   0  0  0  0  0  0  0  0  0  0  0  0  # atno 10763 bound_to 10752
  152.9790  135.5836  154.4530 H   0  0  0  0  0  0  0  0  0  0  0  0  # atno 10764 bound_to 10752
  154.4283  135.2847  155.1907 H   0  0  0  0  0  0  0  0  0  0  0  0  # atno 10765 bound_to 10752
  141.1630  133.7455  156.9164 H   0  0  0  0  0  0  0  0  0  0  0  0  # atno 11005 bound_to 11000
  144.8642  139.5132  143.6798 LP  0  0  0  0  0  0  0  0  0  0  0  0  # atno 17320 bound_to 7965
  146.2925  139.7180  142.9151 LP  0  0  0  0  0  0  0  0  0  0  0  0  # atno 17321 bound_to 7965
  140.7740  143.5250  150.9491 LP  0  0  0  0  0  0  0  0  0  0  0  0  # atno 17342 bound_to 10162
  139.8936  143.6923  152.3142 LP  0  0  0  0  0  0  0  0  0  0  0  0  # atno 17343 bound_to 10162
  157.2213  131.0483  151.2544 LP  0  0  0  0  0  0  0  0  0  0  0  0  # atno 17370 bound_to 10713
  157.3797  130.7225  149.6622 LP  0  0  0  0  0  0  0  0  0  0  0  0  # atno 17371 bound_to 10713
  140.1482  134.9248  157.2557 LP  0  0  0  0  0  0  0  0  0  0  0  0  # atno 17394 bound_to 11000
  140.2755  134.3410  155.7359 LP  0  0  0  0  0  0  0  0  0  0  0  0  # atno 17395 bound_to 11000

$$$$
