AV-unprocessed.smi:1824|AV-procd|sdf|7411|dock10
  -GOLD-   22720 9 83D 1   1.00000     0.00000
 Structure written by MMmdl.
 45 47  0  0  0  0  0  0  0  0  2 V2000
  149.4245  136.2348  159.9657 C   0  0  0  0  0  0  0  0  0  0  0  0
  149.6552  136.0741  158.4594 C   0  0  1  0  0  0  0  0  0  0  0  0
  150.8427  136.9194  157.9631 C   0  0  0  0  0  0  0  0  0  0  0  0
  151.1223  136.6941  156.5472 N   0  0  0  0  0  0  0  0  0  0  0  0
  152.2448  137.4959  156.0567 C   0  0  0  0  0  0  0  0  0  0  0  0
  151.9524  138.9972  155.8644 C   0  0  2  0  0  0  0  0  0  0  0  0
  152.7705  139.4765  154.8152 O   0  0  0  0  0  0  0  0  0  0  0  0
  152.2395  139.7967  157.1504 C   0  0  0  0  0  0  0  0  0  0  0  0
  151.5784  141.1099  157.1672 N   0  0  0  0  0  0  0  0  0  0  0  0
  150.7483  141.6756  156.2493 C   0  0  0  0  0  0  0  0  0  0  0  0
  150.3971  142.9062  156.7154 N   0  3  0  0  0  0  0  0  0  0  0  0
  151.0133  143.1316  157.9485 C   0  0  0  0  0  0  0  0  0  0  0  0
  150.9655  144.2272  158.8046 C   0  0  0  0  0  0  0  0  0  0  0  0
  151.7208  144.1388  159.9926 C   0  0  0  0  0  0  0  0  0  0  0  0
  151.7113  145.1780  160.8607 F   0  0  0  0  0  0  0  0  0  0  0  0
  152.4853  142.9914  160.2925 C   0  0  0  0  0  0  0  0  0  0  0  0
  153.1977  142.9483  161.4433 F   0  0  0  0  0  0  0  0  0  0  0  0
  152.5245  141.8863  159.4170 C   0  0  0  0  0  0  0  0  0  0  0  0
  151.7746  141.9817  158.2452 C   0  0  0  0  0  0  0  0  0  0  0  0
  151.3713  135.2717  156.3374 C   0  0  0  0  0  0  0  0  0  0  0  0
  150.2154  134.3821  156.8364 C   0  0  2  0  0  0  0  0  0  0  0  0
  148.9680  134.4412  155.9378 C   0  0  0  0  0  0  0  0  0  0  0  0
  149.9067  134.6952  158.1953 O   0  0  0  0  0  0  0  0  0  0  0  0
  149.2103  137.2729  160.2213 H   0  0  0  0  0  0  0  0  0  0  0  0
  150.3010  135.9234  160.5346 H   0  0  0  0  0  0  0  0  0  0  0  0
  148.5800  135.6301  160.2973 H   0  0  0  0  0  0  0  0  0  0  0  0
  148.7475  136.3817  157.9394 H   0  0  0  0  0  0  0  0  0  0  0  0
  150.6142  137.9686  158.1440 H   0  0  0  0  0  0  0  0  0  0  0  0
  151.7292  136.6863  158.5552 H   0  0  0  0  0  0  0  0  0  0  0  0
  153.0891  137.3779  156.7379 H   0  0  0  0  0  0  0  0  0  0  0  0
  152.5825  137.0954  155.0994 H   0  0  0  0  0  0  0  0  0  0  0  0
  150.9115  139.1599  155.5883 H   0  0  0  0  0  0  0  0  0  0  0  0
  152.3259  140.2010  154.4012 H   0  0  0  0  0  0  0  0  0  0  0  0
  151.8739  139.2448  158.0174 H   0  0  0  0  0  0  0  0  0  0  0  0
  153.3102  139.9300  157.3053 H   0  0  0  0  0  0  0  0  0  0  0  0
  150.4270  141.2291  155.3190 H   0  0  0  0  0  0  0  0  0  0  0  0
  150.3827  145.1080  158.5790 H   0  0  0  0  0  0  0  0  0  0  0  0
  153.1194  141.0171  159.6544 H   0  0  0  0  0  0  0  0  0  0  0  0
  151.5491  135.0751  155.2792 H   0  0  0  0  0  0  0  0  0  0  0  0
  152.2854  134.9842  156.8595 H   0  0  0  0  0  0  0  0  0  0  0  0
  150.5619  133.3483  156.8316 H   0  0  0  0  0  0  0  0  0  0  0  0
  149.1974  134.0865  154.9328 H   0  0  0  0  0  0  0  0  0  0  0  0
  148.5774  135.4544  155.8435 H   0  0  0  0  0  0  0  0  0  0  0  0
  148.1719  133.8120  156.3363 H   0  0  0  0  0  0  0  0  0  0  0  0
  149.7830  143.5436  156.2244 H   0  0  0  0  0  0  0  0  0  0  0  0
  1  2  1  0  0  0  0
  1 24  1  0  0  0  0
  1 25  1  0  0  0  0
  1 26  1  0  0  0  0
  2 23  1  0  0  0  0
  2  3  1  0  0  0  0
  2 27  1  0  0  0  0
  3  4  1  0  0  0  0
  3 28  1  0  0  0  0
  3 29  1  0  0  0  0
  4  5  1  0  0  0  0
  4 20  1  0  0  0  0
  5  6  1  0  0  0  0
  5 30  1  0  0  0  0
  5 31  1  0  0  0  0
  6  7  1  0  0  0  0
  6  8  1  0  0  0  0
  6 32  1  0  0  0  0
  7 33  1  0  0  0  0
  8  9  1  0  0  0  0
  8 34  1  0  0  0  0
  8 35  1  0  0  0  0
  9 19  1  0  0  0  0
  9 10  1  0  0  0  0
 10 11  2  0  0  0  0
 10 36  1  0  0  0  0
 11 12  1  0  0  0  0
 11 45  1  0  0  0  0
 12 19  2  0  0  0  0
 12 13  1  0  0  0  0
 13 14  2  0  0  0  0
 13 37  1  0  0  0  0
 14 15  1  0  0  0  0
 14 16  1  0  0  0  0
 16 17  1  0  0  0  0
 16 18  2  0  0  0  0
 18 19  1  0  0  0  0
 18 38  1  0  0  0  0
 20 21  1  0  0  0  0
 20 39  1  0  0  0  0
 20 40  1  0  0  0  0
 21 22  1  0  0  0  0
 21 23  1  0  0  0  0
 21 41  1  0  0  0  0
 22 42  1  0  0  0  0
 22 43  1  0  0  0  0
 22 44  1  0  0  0  0
M  CHG  1  11   1
M  END
> <s_m_source_file>
AV-unprocessed.smi

> <i_m_source_file_index>
1824

> <i_lp_mmshare_version>
43012

> <i_f3d_flags>
0

> <s_epik_input>
W0NIM11bQ0BASF0xW0NIMl1OKFtDSDJdW0NASF0oTzEpW0NIM10pW0NIMl1bQ0BIXShbT0hdKVtDSDJdbihbY0hdbjIpYyhjMjMpW2NIXWMoRiljKEYpW2NIXTM=

> <s_epik_cmdline>
J2VwaWtfcHl0aG9uJywgJy1waCcsICc3LjAnLCAnLXRuJywgJzgnLCAnLW1hJywgJzIwMCcsICctbWV0YWxfYmluZGluZycsICctaW1hZScsICc8aW5maWxlLm1hZT4nLCAnLW9tYWUnLCAnPG91dGZpbGUubWFlPic=

> <r_epik_Ionization_Penalty>
2.58709

> <r_epik_Ionization_Penalty_Charging>
2.37273

> <r_epik_Ionization_Penalty_Neutral>
0.214359

> <r_epik_State_Penalty>
2.71799

> <r_epik_Charging_Adjusted_Penalty>
5.09071

> <i_epik_Tot_Q>
1

> <i_epik_Tot_abs_Q>
1

> <r_epik_Metal_State_Penalty>
6.80217

> <b_epik_Metal_Only>
0

> <s_lp_Force_Field>
OPLS_2005

> <r_lp_Energy>
35.2196

> <b_lp_Chiralities_Consistent>
1

> <s_lp_Variant>
AV-unprocessed.smi:1824-19

> <Gold.Version>
5.8.1

> <Gold.Id.Protein>
6NUR|6NUR_protein|mol2

> <Gold.PLP.Fitness>
54.9973

> <Gold.PLP.PLP>
-44.2776

> <Gold.PLP.part.hbond>
-3.9358

> <Gold.PLP.part.metal>
0.0000

> <Gold.PLP.part.buried>
-5.8986

> <Gold.PLP.part.nonpolar>
-34.2081

> <Gold.PLP.part.repulsive>
0.0702

> <Gold.PLP.ligand.clash>
0.0000

> <Gold.PLP.ligand.torsion>
0.6482

> <Gold.PLP.Chemscore.Hbond>
3.9913

> <Gold.PLP.Chemscore.CHOScore>
0.0000

> <Gold.PLP.Chemscore.Metal>
0.0000

> <Gold.Chemscore.Hbonds>
donor molecule, donor type, donor heavy atom, donor atom, acceptor molecule, acceptor atom, score
      L1  H    11    45       P1  8028  2.00
      P1  H  6896  6908       L1    23  0.88
      P1  H  7997  8010       L1     7  0.76

> <Gold.PLP.Chemscore.Internal.Correction>
0.0423

> <Gold.Rescore>
     Score         DG    S(hbond)    S(metal)    S(lipo)     H(rot)  DE(clash)    DE(int)     intcor
     19.07     -20.28       2.47        0.00     106.94       2.32       0.61       0.61       ----

> <Gold.Chemscore.Fitness>
19.0669

> <Gold.Chemscore.DG>
-20.2834

> <Gold.Chemscore.ZeroCoef>
-5.4800

> <Gold.Chemscore.Hbond>
2.4651

> <Gold.Chemscore.Metal>
0.0000

> <Gold.Chemscore.Lipo>
106.9366

> <Gold.Chemscore.Internal_Hbond>
0.0000

> <Gold.Chemscore.DEClash>
0.6057

> <Gold.Chemscore.DEInternal>
0.6108

> <Gold.Chemscore.Rot>
2.3210

> <Gold.Chemscore.Internal.Correction>
   9.000000E+99

> <Gold.Chemscore.Hbonds>
donor molecule, donor type, donor heavy atom, donor atom, acceptor molecule, acceptor atom, score
      L1  H    11    45       P1  8028  0.97
      P1  H  6896  6908       L1    23  0.45
      P1  H  7997  8010       L1     7  0.26

> <Gold.Chemscore.Hbond.Weighted>
-8.2335

> <Gold.Chemscore.Metal.Weighted>
-0.0000

> <Gold.Chemscore.Lipo.Weighted>
-12.5116

> <Gold.Chemscore.Internal_Hbond.Weighted>
0.0000

> <Gold.Chemscore.DEClash.Weighted>
0.6057

> <Gold.Chemscore.DEInternal.Weighted>
0.6108

> <Gold.Chemscore.Rot.Weighted>
5.9416

> <Gold.Chemscore.Internal.Correction.Weighted>
   9.000000E+99

> <Gold.Protein.RotatedTorsions>
[ 6907 6896 6895 6894 ] final  143.90 input  -60.11 | X-H torsion
[ 7974 7965 7964 7962 ] final  160.85 input  175.53 | X-H torsion
[ 8008 7997 7996 7995 ] final  111.36 input   59.86 | X-H torsion
[ 10167 10162 10161 10158 ] final  123.17 input  -65.29 | X-H torsion
[ 10718 10713 10712 10709 ] final -119.53 input   66.30 | X-H torsion
[ 10763 10752 10751 10750 ] final  -56.78 input  -60.55 | X-H torsion
[ 11005 11000 10999 10996 ] final   89.85 input  -57.11 | X-H torsion

> <Gold.Protein.ActiveResidues>
 VAL166  LYS551  ARG553  GLY616  TRP617  ASP618  TYR619  PRO620  LYS621  CYS622 
 ASP623  PHE694  ASN695  SER759  ASP760  ASP761  ALA762  ILE779  LEU786  VAL792 
 PHE793  MET794  SER795  GLU796  ALA797  LYS798  CYS799  TRP800  GLU811  SER814 

> <Gold.Protein.RotatedAtoms>
  152.2004  133.4837  159.5055 H   0  0  0  0  0  0  0  0  0  0  0  0  # atno 6907 bound_to 6896
  150.6968  134.1598  159.4181 H   0  0  0  0  0  0  0  0  0  0  0  0  # atno 6908 bound_to 6896
  151.9515  135.0166  160.0593 H   0  0  0  0  0  0  0  0  0  0  0  0  # atno 6909 bound_to 6896
  144.7715  139.7815  143.6295 H   0  0  0  0  0  0  0  0  0  0  0  0  # atno 7974 bound_to 7965
  156.2118  140.3021  155.9750 H   0  0  0  0  0  0  0  0  0  0  0  0  # atno 8008 bound_to 7997
  155.2704  140.0433  157.3023 H   0  0  0  0  0  0  0  0  0  0  0  0  # atno 8009 bound_to 7997
  154.5711  140.2348  155.8199 H   0  0  0  0  0  0  0  0  0  0  0  0  # atno 8010 bound_to 7997
  139.5815  144.6988  151.3517 H   0  0  0  0  0  0  0  0  0  0  0  0  # atno 10167 bound_to 10162
  156.1188  130.6307  150.9427 H   0  0  0  0  0  0  0  0  0  0  0  0  # atno 10718 bound_to 10713
  154.2120  135.6393  153.5118 H   0  0  0  0  0  0  0  0  0  0  0  0  # atno 10763 bound_to 10752
  152.9988  135.5476  154.6205 H   0  0  0  0  0  0  0  0  0  0  0  0  # atno 10764 bound_to 10752
  154.5644  135.2911  155.0862 H   0  0  0  0  0  0  0  0  0  0  0  0  # atno 10765 bound_to 10752
  139.8867  134.8577  156.3200 H   0  0  0  0  0  0  0  0  0  0  0  0  # atno 11005 bound_to 11000
  146.1866  139.5084  142.9832 LP  0  0  0  0  0  0  0  0  0  0  0  0  # atno 17320 bound_to 7965
  145.6309  141.0304  143.1864 LP  0  0  0  0  0  0  0  0  0  0  0  0  # atno 17321 bound_to 7965
  140.7092  143.7434  150.7537 LP  0  0  0  0  0  0  0  0  0  0  0  0  # atno 17342 bound_to 10162
  140.0967  143.4826  152.2448 LP  0  0  0  0  0  0  0  0  0  0  0  0  # atno 17343 bound_to 10162
  157.6371  131.0914  150.8326 LP  0  0  0  0  0  0  0  0  0  0  0  0  # atno 17370 bound_to 10713
  156.8425  130.5053  149.5319 LP  0  0  0  0  0  0  0  0  0  0  0  0  # atno 17371 bound_to 10713
  140.9793  133.7277  156.0648 LP  0  0  0  0  0  0  0  0  0  0  0  0  # atno 17394 bound_to 11000
  140.7770  134.3768  157.5495 LP  0  0  0  0  0  0  0  0  0  0  0  0  # atno 17395 bound_to 11000

$$$$
