AV-unprocessed.smi:2801|AV-procd|sdf|10802|dock7
  -GOLD-   2272015233D 1   1.00000     0.00000
 Structure written by MMmdl.
 31 31  0  0  0  0  0  0  0  0  2 V2000
  151.4005  145.4851  159.8046 C   0  0  0  0  0  0  0  0  0  0  0  0
  152.1649  144.4778  158.9431 C   0  0  0  0  0  0  0  0  0  0  0  0
  152.1912  143.2276  159.6216 O   0  0  0  0  0  0  0  0  0  0  0  0
  152.6857  142.1284  158.8591 C   0  0  1  0  0  0  0  0  0  0  0  0
  153.0888  141.0138  159.8431 C   0  0  0  0  0  0  0  0  0  0  0  0
  153.6709  141.5592  161.1532 C   0  0  0  0  0  0  0  0  0  0  0  0
  151.6093  141.6400  157.8753 C   0  0  0  0  0  0  0  0  0  0  0  0
  150.4587  142.0658  157.9754 O   0  0  0  0  0  0  0  0  0  0  0  0
  152.0347  140.7786  156.9331 N   0  0  0  0  0  0  0  0  0  0  0  0
  151.3111  140.1420  155.8850 C   0  0  0  0  0  0  0  0  0  0  0  0
  150.0007  140.5084  155.4919 C   0  0  0  0  0  0  0  0  0  0  0  0
  149.3805  139.7893  154.4514 C   0  0  0  0  0  0  0  0  0  0  0  0
  149.9633  138.7580  153.8061 N   0  0  0  0  0  0  0  0  0  0  0  0
  151.2072  138.4020  154.1893 C   0  0  0  0  0  0  0  0  0  0  0  0
  151.9206  139.0530  155.2172 C   0  0  0  0  0  0  0  0  0  0  0  0
  153.1775  138.6240  155.5456 O   0  5  0  0  0  0  0  0  0  0  0  0
  151.3563  146.4594  159.3177 H   0  0  0  0  0  0  0  0  0  0  0  0
  151.8819  145.6161  160.7739 H   0  0  0  0  0  0  0  0  0  0  0  0
  150.3775  145.1519  159.9803 H   0  0  0  0  0  0  0  0  0  0  0  0
  151.6804  144.3892  157.9702 H   0  0  0  0  0  0  0  0  0  0  0  0
  153.1823  144.8334  158.7739 H   0  0  0  0  0  0  0  0  0  0  0  0
  153.5737  142.4388  158.3042 H   0  0  0  0  0  0  0  0  0  0  0  0
  152.2269  140.3833  160.0672 H   0  0  0  0  0  0  0  0  0  0  0  0
  153.8312  140.3634  159.3780 H   0  0  0  0  0  0  0  0  0  0  0  0
  153.9558  140.7452  161.8197 H   0  0  0  0  0  0  0  0  0  0  0  0
  152.9461  142.1807  161.6797 H   0  0  0  0  0  0  0  0  0  0  0  0
  154.5592  142.1637  160.9676 H   0  0  0  0  0  0  0  0  0  0  0  0
  153.0253  140.5812  156.9324 H   0  0  0  0  0  0  0  0  0  0  0  0
  149.4552  141.3079  155.9662 H   0  0  0  0  0  0  0  0  0  0  0  0
  148.3816  140.0474  154.1324 H   0  0  0  0  0  0  0  0  0  0  0  0
  151.6453  137.5690  153.6590 H   0  0  0  0  0  0  0  0  0  0  0  0
  1  2  1  0  0  0  0
  1 17  1  0  0  0  0
  1 18  1  0  0  0  0
  1 19  1  0  0  0  0
  2  3  1  0  0  0  0
  2 20  1  0  0  0  0
  2 21  1  0  0  0  0
  3  4  1  0  0  0  0
  4  5  1  0  0  0  0
  4  7  1  0  0  0  0
  4 22  1  0  0  0  0
  5  6  1  0  0  0  0
  5 23  1  0  0  0  0
  5 24  1  0  0  0  0
  6 25  1  0  0  0  0
  6 26  1  0  0  0  0
  6 27  1  0  0  0  0
  7  8  2  0  0  0  0
  7  9  1  0  0  0  0
  9 28  1  0  0  0  0
  9 10  1  0  0  0  0
 10 11  2  0  0  0  0
 10 15  1  0  0  0  0
 11 12  1  0  0  0  0
 11 29  1  0  0  0  0
 12 13  2  0  0  0  0
 12 30  1  0  0  0  0
 13 14  1  0  0  0  0
 14 15  2  0  0  0  0
 14 31  1  0  0  0  0
 15 16  1  0  0  0  0
M  CHG  1  16  -1
M  END
> <s_m_source_file>
AV-unprocessed.smi

> <i_m_source_file_index>
2801

> <i_lp_mmshare_version>
43012

> <i_f3d_flags>
0

> <s_epik_input>
W0NIM11bQ0gyXU9bQ0BIXShbQ0gyXVtDSDNdKUMoPU8pW05IXWMxW2NIXVtjSF1uW2NIXWMxW09IXQ==

> <s_epik_cmdline>
J2VwaWtfcHl0aG9uJywgJy1waCcsICc3LjAnLCAnLXRuJywgJzgnLCAnLW1hJywgJzIwMCcsICctbWV0YWxfYmluZGluZycsICctaW1hZScsICc8aW5maWxlLm1hZT4nLCAnLW9tYWUnLCAnPG91dGZpbGUubWFlPic=

> <r_lp_tautomer_probability>
0.56342

> <r_epik_Ionization_Penalty>
4.38321

> <r_epik_Ionization_Penalty_Charging>
2.0641

> <r_epik_Ionization_Penalty_Neutral>
2.31912

> <r_epik_State_Penalty>
2.63873

> <r_epik_Charging_Adjusted_Penalty>
4.70283

> <i_epik_Tot_Q>
-1

> <i_epik_Tot_abs_Q>
1

> <r_epik_Metal_State_Penalty>
0.606608

> <b_epik_Metal_Only>
1

> <s_lp_Force_Field>
OPLS_2005

> <r_lp_Energy>
9.76409

> <b_lp_Chiralities_Consistent>
1

> <s_lp_Variant>
AV-unprocessed.smi:2801-6

> <Gold.Version>
5.8.1

> <Gold.Id.Protein>
6NUR|6NUR_protein|mol2

> <Gold.PLP.Fitness>
41.9204

> <Gold.PLP.PLP>
-35.7908

> <Gold.PLP.part.hbond>
-1.0000

> <Gold.PLP.part.metal>
0.0000

> <Gold.PLP.part.buried>
-5.2243

> <Gold.PLP.part.nonpolar>
-30.3103

> <Gold.PLP.part.repulsive>
1.5573

> <Gold.PLP.ligand.clash>
0.0000

> <Gold.PLP.ligand.torsion>
0.7230

> <Gold.PLP.Chemscore.Hbond>
2.0000

> <Gold.PLP.Chemscore.CHOScore>
0.5136

> <Gold.PLP.Chemscore.Metal>
0.0000

> <Gold.Chemscore.Hbonds>
donor molecule, donor type, donor heavy atom, donor atom, acceptor molecule, acceptor atom, score
      P1  H  7997  8009       L1    16  2.00
      L1  C    14    31       P1  7949  0.52

> <Gold.PLP.Chemscore.Internal.Correction>
0.0348

> <Gold.Rescore>
     Score         DG    S(hbond)    S(metal)    S(lipo)     H(rot)  DE(clash)    DE(int)     intcor
     13.22     -15.13       0.92        0.00      90.01       1.55       0.05       1.86       ----

> <Gold.Chemscore.Fitness>
13.2159

> <Gold.Chemscore.DG>
-15.1299

> <Gold.Chemscore.ZeroCoef>
-5.4800

> <Gold.Chemscore.Hbond>
0.9213

> <Gold.Chemscore.Metal>
0.0000

> <Gold.Chemscore.Lipo>
90.0092

> <Gold.Chemscore.Internal_Hbond>
0.0000

> <Gold.Chemscore.DEClash>
0.0515

> <Gold.Chemscore.DEInternal>
1.8625

> <Gold.Chemscore.Rot>
1.5462

> <Gold.Chemscore.Internal.Correction>
   9.000000E+99

> <Gold.Chemscore.Hbonds>
donor molecule, donor type, donor heavy atom, donor atom, acceptor molecule, acceptor atom, score
      P1  H  7997  8009       L1    16  0.76

> <Gold.Chemscore.Hbond.Weighted>
-3.0771

> <Gold.Chemscore.Metal.Weighted>
-0.0000

> <Gold.Chemscore.Lipo.Weighted>
-10.5311

> <Gold.Chemscore.Internal_Hbond.Weighted>
0.0000

> <Gold.Chemscore.DEClash.Weighted>
0.0515

> <Gold.Chemscore.DEInternal.Weighted>
1.8625

> <Gold.Chemscore.Rot.Weighted>
3.9583

> <Gold.Chemscore.Internal.Correction.Weighted>
   9.000000E+99

> <Gold.Protein.RotatedTorsions>
[ 6907 6896 6895 6894 ] final  -99.69 input  -60.11 | X-H torsion
[ 7974 7965 7964 7962 ] final -133.11 input  175.53 | X-H torsion
[ 8008 7997 7996 7995 ] final -155.06 input   59.86 | X-H torsion
[ 10167 10162 10161 10158 ] final   89.58 input  -65.29 | X-H torsion
[ 10718 10713 10712 10709 ] final   20.21 input   66.30 | X-H torsion
[ 10763 10752 10751 10750 ] final   20.45 input  -60.55 | X-H torsion
[ 11005 11000 10999 10996 ] final  141.37 input  -57.11 | X-H torsion

> <Gold.Protein.ActiveResidues>
 VAL166  LYS551  ARG553  GLY616  TRP617  ASP618  TYR619  PRO620  LYS621  CYS622 
 ASP623  PHE694  ASN695  SER759  ASP760  ASP761  ALA762  ILE779  LEU786  VAL792 
 PHE793  MET794  SER795  GLU796  ALA797  LYS798  CYS799  TRP800  GLU811  SER814 

> <Gold.Protein.RotatedAtoms>
  150.7089  134.1001  159.3962 H   0  0  0  0  0  0  0  0  0  0  0  0  # atno 6907 bound_to 6896
  151.8987  135.0385  160.0514 H   0  0  0  0  0  0  0  0  0  0  0  0  # atno 6908 bound_to 6896
  152.2432  133.5117  159.5318 H   0  0  0  0  0  0  0  0  0  0  0  0  # atno 6909 bound_to 6896
  144.9224  140.7029  143.4957 H   0  0  0  0  0  0  0  0  0  0  0  0  # atno 7974 bound_to 7965
  155.6959  140.0761  157.2429 H   0  0  0  0  0  0  0  0  0  0  0  0  # atno 8008 bound_to 7997
  154.4081  140.1656  156.2191 H   0  0  0  0  0  0  0  0  0  0  0  0  # atno 8009 bound_to 7997
  155.9410  140.3384  155.6331 H   0  0  0  0  0  0  0  0  0  0  0  0  # atno 8010 bound_to 7997
  139.8558  144.6569  150.9115 H   0  0  0  0  0  0  0  0  0  0  0  0  # atno 10167 bound_to 10162
  157.1214  130.6551  149.5925 H   0  0  0  0  0  0  0  0  0  0  0  0  # atno 10718 bound_to 10713
  153.1076  135.6688  153.9558 H   0  0  0  0  0  0  0  0  0  0  0  0  # atno 10763 bound_to 10752
  153.9110  135.3025  155.3450 H   0  0  0  0  0  0  0  0  0  0  0  0  # atno 10764 bound_to 10752
  154.7497  135.5040  153.9344 H   0  0  0  0  0  0  0  0  0  0  0  0  # atno 10765 bound_to 10752
  140.0396  134.9311  157.0818 H   0  0  0  0  0  0  0  0  0  0  0  0  # atno 11005 bound_to 11000
  145.3275  139.1769  143.4554 LP  0  0  0  0  0  0  0  0  0  0  0  0  # atno 17320 bound_to 7965
  146.3210  140.3300  142.8639 LP  0  0  0  0  0  0  0  0  0  0  0  0  # atno 17321 bound_to 7965
  140.7781  143.3787  151.1516 LP  0  0  0  0  0  0  0  0  0  0  0  0  # atno 17342 bound_to 10162
  139.7421  143.8909  152.3053 LP  0  0  0  0  0  0  0  0  0  0  0  0  # atno 17343 bound_to 10162
  155.9828  130.4843  150.6899 LP  0  0  0  0  0  0  0  0  0  0  0  0  # atno 17370 bound_to 10713
  157.4473  131.0868  151.0882 LP  0  0  0  0  0  0  0  0  0  0  0  0  # atno 17371 bound_to 10713
  140.4091  134.2001  155.7163 LP  0  0  0  0  0  0  0  0  0  0  0  0  # atno 17394 bound_to 11000
  141.1876  133.8278  157.1026 LP  0  0  0  0  0  0  0  0  0  0  0  0  # atno 17395 bound_to 11000

$$$$
