#       Name:                AV-unprocessed.smi:3349
#       Creating user name   scv26
#       Creation time:       Fri Mar 27 19:36:59 2020


#       File generated by GOLD software.
#

@<TRIPOS>MOLECULE
AV-unprocessed.smi:3349
    47    48     1
SMALL
NO_CHARGES


@<TRIPOS>ATOM
      1 ****        -0.4427   1.3059  -1.9122 C.3            1 S1                 0.0000
      2 ****        -0.9567   0.7019  -0.5826 C.3            1 S1                 0.0000
      3 ****        -0.3365  -0.7079  -0.3588 C.3            1 S1                 0.0000
      4 ****         1.1232  -0.7128  -0.4089 N.am           1 S1                 0.0000
      5 ****         1.9287  -0.2550   0.5633 C.2            1 S1                 0.0000
      6 ****         1.5031   0.2285   1.6129 O.2            1 S1                 0.0000
      7 ****         3.4392  -0.3604   0.3034 C.3            1 S1                 0.0000
      8 ****         4.2385   0.7628   0.9947 C.3            1 S1                 0.0000
      9 ****         3.9211  -1.6872   0.6671 N.pl3          1 S1                 0.0000
     10 ****         4.1219  -2.7646  -0.0950 C.2            1 S1                 0.0000
     11 ****         4.5262  -3.8331   0.5773 N.2            1 S1                 0.0000
     12 ****         4.5463  -3.3133   1.8403 C.2            1 S1                 0.0000
     13 ****         4.1814  -2.0363   1.9519 N.2            1 S1                 0.0000
     14 ****        -2.4578   0.6947  -0.5361 N.4            1 S1                 1.0000
     15 ****        -3.0360  -0.0466   0.6204 C.3            1 S1                 0.0000
     16 ****        -4.5737  -0.0040   0.6103 C.3            1 S1                 0.0000
     17 ****        -5.0190   1.3424   0.6020 O.3            1 S1                 0.0000
     18 ****        -4.5854   2.0176  -0.5675 C.3            1 S1                 0.0000
     19 ****        -3.0490   2.0615  -0.5984 C.3            1 S1                 0.0000
     20 ****         0.6429   1.2594  -1.9927 H              1 S1                 0.0000
     21 ****        -0.6894   2.3614  -2.0131 H              1 S1                 0.0000
     22 ****        -0.8564   0.7777  -2.7717 H              1 S1                 0.0000
     23 ****        -0.6149   1.3441   0.2307 H              1 S1                 0.0000
     24 ****        -0.6138  -1.1234   0.6098 H              1 S1                 0.0000
     25 ****        -0.7031  -1.4025  -1.1153 H              1 S1                 0.0000
     26 ****         1.5515  -1.0962  -1.2393 H              1 S1                 0.0000
     27 ****         3.5951  -0.2479  -0.7709 H              1 S1                 0.0000
     28 ****         3.8968   1.7454   0.6678 H              1 S1                 0.0000
     29 ****         5.2990   0.6897   0.7521 H              1 S1                 0.0000
     30 ****         4.1459   0.7264   2.0807 H              1 S1                 0.0000
     31 ****         3.9649  -2.7690  -1.1635 H              1 S1                 0.0000
     32 ****         4.8318  -3.8953   2.7042 H              1 S1                 0.0000
     33 ****        -2.7509  -1.0969   0.5928 H              1 S1                 0.0000
     34 ****        -2.6552   0.3739   1.5526 H              1 S1                 0.0000
     35 ****        -4.9732  -0.5394  -0.2528 H              1 S1                 0.0000
     36 ****        -4.9672  -0.4985   1.4988 H              1 S1                 0.0000
     37 ****        -4.9815   1.5278  -1.4587 H              1 S1                 0.0000
     38 ****        -4.9876   3.0308  -0.5575 H              1 S1                 0.0000
     39 ****        -2.6794   2.6570   0.2379 H              1 S1                 0.0000
     40 ****        -2.7580   2.5752  -1.5122 H              1 S1                 0.0000
     41 ****        -2.7687   0.2069  -1.3642 H              1 S1                 0.0000
     42 ****         0.5176   0.2933   1.7701 LP             1 S1                 0.0000
     43 ****         2.1429   0.5563   2.3080 LP             1 S1                 0.0000
     44 ****         4.7510  -4.7523   0.2539 LP             1 S1                 0.0000
     45 ****         4.1158  -1.4753   2.7771 LP             1 S1                 0.0000
     46 ****        -4.6526   1.8123   1.4050 LP             1 S1                 0.0000
     47 ****        -6.0184   1.3559   0.6351 LP             1 S1                 0.0000
@<TRIPOS>BOND
    1    1    2 1     
    2    1   20 1     
    3    1   21 1     
    4    1   22 1     
    5    2    3 1     
    6    2   14 1     
    7    2   23 1     
    8    3    4 1     
    9    3   24 1     
   10    3   25 1     
   11    4    5 am    
   12    4   26 1     
   13    5    6 2     
   14    5    7 1     
   15    7    8 1     
   16    7    9 1     
   17    7   27 1     
   18    8   28 1     
   19    8   29 1     
   20    8   30 1     
   21    9   13 1     
   22    9   10 1     
   23   10   11 2     
   24   10   31 1     
   25   11   12 1     
   26   12   13 2     
   27   12   32 1     
   28   14   19 1     
   29   14   15 1     
   30   14   41 1     
   31   15   16 1     
   32   15   33 1     
   33   15   34 1     
   34   16   17 1     
   35   16   35 1     
   36   16   36 1     
   37   17   18 1     
   38   18   19 1     
   39   18   37 1     
   40   18   38 1     
   41   19   39 1     
   42   19   40 1     
   43    6   42 1     
   44    6   43 1     
   45   11   44 1     
   46   13   45 1     
   47   17   46 1     
   48   17   47 1     
@<TRIPOS>SUBSTRUCTURE
      1 S1             1
@<TRIPOS>SET
LONE_PAIRS      STATIC     ATOMS    <user>   **** ""
6 42 43 44 45 46 47
DONOR_HYDROGENS      STATIC     ATOMS    <user>   **** ""
2 26 41
ATOM$BLUE        STATIC     ATOMS    COLORGROUP SYSTEM
6 42 43 44 45 46 47
ATOM$RED        STATIC     ATOMS    COLORGROUP SYSTEM
2 26 41
