AV-unprocessed.smi:1836|AV-procd|sdf|7478|dock2
  -GOLD-   22720 9173D 1   1.00000     0.00000
 Structure written by MMmdl.
 33 34  0  0  0  0  0  0  0  0  1 V2000
  149.8867  136.3910  154.8134 C   0  0  0  0  0  0  0  0  0  0  0  0
  150.8421  136.6255  155.9916 C   0  0  1  0  0  0  0  0  0  0  0  0
  151.8998  137.6982  155.6419 C   0  0  0  0  0  0  0  0  0  0  0  0
  151.3326  139.0434  155.5593 N   0  0  0  0  0  0  0  0  0  0  0  0
  150.2973  139.3552  154.5875 C   0  0  0  0  0  0  0  0  0  0  0  0
  149.7629  140.7298  155.0114 C   0  0  0  0  0  0  0  0  0  0  0  0
  150.8242  141.3103  155.9522 C   0  0  0  0  0  0  0  0  0  0  0  0
  151.6752  140.1018  156.3038 C   0  0  0  0  0  0  0  0  0  0  0  0
  152.5481  140.1280  157.1702 O   0  0  0  0  0  0  0  0  0  0  0  0
  150.0524  137.0394  157.1505 N   0  0  0  0  0  0  0  0  0  0  0  0
  149.4824  136.2126  158.0404 C   0  0  0  0  0  0  0  0  0  0  0  0
  149.5498  134.9852  157.9698 O   0  0  0  0  0  0  0  0  0  0  0  0
  148.8464  136.9000  159.0049 N   0  0  0  0  0  0  0  0  0  0  0  0
  148.1866  136.3927  160.1555 C   0  0  0  0  0  0  0  0  0  0  0  0
  147.7116  137.1675  161.1434 N   0  0  0  0  0  0  0  0  0  0  0  0
  147.1041  136.4197  162.1438 N   0  0  0  0  0  0  0  0  0  0  0  0
  147.1432  135.1126  161.8705 C   0  0  0  0  0  0  0  0  0  0  0  0
  147.9230  134.6674  160.3627 S   0  0  0  0  0  0  0  0  0  0  0  0
  150.4284  136.0392  153.9349 H   0  0  0  0  0  0  0  0  0  0  0  0
  149.3619  137.3059  154.5362 H   0  0  0  0  0  0  0  0  0  0  0  0
  149.1376  135.6372  155.0583 H   0  0  0  0  0  0  0  0  0  0  0  0
  151.3332  135.6728  156.1974 H   0  0  0  0  0  0  0  0  0  0  0  0
  152.6776  137.7120  156.4072 H   0  0  0  0  0  0  0  0  0  0  0  0
  152.4039  137.4472  154.7074 H   0  0  0  0  0  0  0  0  0  0  0  0
  150.7427  139.3991  153.5927 H   0  0  0  0  0  0  0  0  0  0  0  0
  149.5100  138.6007  154.5766 H   0  0  0  0  0  0  0  0  0  0  0  0
  149.5743  141.3751  154.1531 H   0  0  0  0  0  0  0  0  0  0  0  0
  148.8206  140.6122  155.5489 H   0  0  0  0  0  0  0  0  0  0  0  0
  151.4417  142.0537  155.4475 H   0  0  0  0  0  0  0  0  0  0  0  0
  150.3841  141.7617  156.8421 H   0  0  0  0  0  0  0  0  0  0  0  0
  149.9413  138.0331  157.2886 H   0  0  0  0  0  0  0  0  0  0  0  0
  148.8499  137.9053  158.9160 H   0  0  0  0  0  0  0  0  0  0  0  0
  146.7077  134.4058  162.5612 H   0  0  0  0  0  0  0  0  0  0  0  0
  1  2  1  0  0  0  0
  1 19  1  0  0  0  0
  1 20  1  0  0  0  0
  1 21  1  0  0  0  0
  2  3  1  0  0  0  0
  2 10  1  0  0  0  0
  2 22  1  0  0  0  0
  3  4  1  0  0  0  0
  3 23  1  0  0  0  0
  3 24  1  0  0  0  0
  4  8  1  0  0  0  0
  4  5  1  0  0  0  0
  5  6  1  0  0  0  0
  5 25  1  0  0  0  0
  5 26  1  0  0  0  0
  6  7  1  0  0  0  0
  6 27  1  0  0  0  0
  6 28  1  0  0  0  0
  7  8  1  0  0  0  0
  7 29  1  0  0  0  0
  7 30  1  0  0  0  0
  8  9  2  0  0  0  0
 10 11  1  0  0  0  0
 10 31  1  0  0  0  0
 11 12  2  0  0  0  0
 11 13  1  0  0  0  0
 13 14  1  0  0  0  0
 13 32  1  0  0  0  0
 14 18  1  0  0  0  0
 14 15  2  0  0  0  0
 15 16  1  0  0  0  0
 16 17  2  0  0  0  0
 17 18  1  0  0  0  0
 17 33  1  0  0  0  0
M  END
> <s_m_source_file>
AV-unprocessed.smi

> <i_m_source_file_index>
1836

> <i_lp_mmshare_version>
43012

> <i_f3d_flags>
0

> <s_epik_input>
Tz1DMVtDSDJdW0NIMl1bQ0gyXU4xW0NIMl1bQ0BASF0oW0NIM10pW05IXUMoPU8pW05IXWMybm5bY0hdczI=

> <s_epik_cmdline>
J2VwaWtfcHl0aG9uJywgJy1waCcsICc3LjAnLCAnLXRuJywgJzgnLCAnLW1hJywgJzIwMCcsICctbWV0YWxfYmluZGluZycsICctaW1hZScsICc8aW5maWxlLm1hZT4nLCAnLW9tYWUnLCAnPG91dGZpbGUubWFlPic=

> <r_lp_tautomer_probability>
1

> <r_epik_Ionization_Penalty>
0.00192022

> <r_epik_Ionization_Penalty_Charging>
0

> <r_epik_Ionization_Penalty_Neutral>
0.00192022

> <r_epik_State_Penalty>
-0

> <r_epik_Charging_Adjusted_Penalty>
0

> <i_epik_Tot_Q>
0

> <i_epik_Tot_abs_Q>
0

> <r_epik_Metal_State_Penalty>
0.336618

> <b_epik_Metal_Only>
0

> <s_lp_Force_Field>
OPLS_2005

> <r_lp_Energy>
17.3914

> <b_lp_Chiralities_Consistent>
1

> <s_lp_Variant>
AV-unprocessed.smi:1836-2

> <Gold.Version>
5.8.1

> <Gold.Id.Protein>
6NUR|6NUR_protein|mol2

> <Gold.PLP.Fitness>
39.8607

> <Gold.PLP.PLP>
-29.3606

> <Gold.PLP.part.hbond>
-4.0000

> <Gold.PLP.part.metal>
0.0000

> <Gold.PLP.part.buried>
-1.4293

> <Gold.PLP.part.nonpolar>
-22.8623

> <Gold.PLP.part.repulsive>
0.2146

> <Gold.PLP.ligand.clash>
0.0000

> <Gold.PLP.ligand.torsion>
0.4451

> <Gold.PLP.Chemscore.Hbond>
3.7920

> <Gold.PLP.Chemscore.CHOScore>
0.0000

> <Gold.PLP.Chemscore.Metal>
0.0000

> <Gold.Chemscore.Hbonds>
donor molecule, donor type, donor heavy atom, donor atom, acceptor molecule, acceptor atom, score
      P1  H  6896  6907       L1    12  1.00
      P1  H  6931  6943       L1    15  0.94
      P1  H  6934  6947       L1    15  0.86
      P1  H  7997  8008       L1     9  1.00

> <Gold.PLP.Chemscore.Internal.Correction>
0.0143

> <Gold.Rescore>
     Score         DG    S(hbond)    S(metal)    S(lipo)     H(rot)  DE(clash)    DE(int)     intcor
     16.10     -17.88       3.40        0.00      47.48       1.76       0.00       1.77       ----

> <Gold.Chemscore.Fitness>
16.1014

> <Gold.Chemscore.DG>
-17.8777

> <Gold.Chemscore.ZeroCoef>
-5.4800

> <Gold.Chemscore.Hbond>
3.3955

> <Gold.Chemscore.Metal>
0.0000

> <Gold.Chemscore.Lipo>
47.4791

> <Gold.Chemscore.Internal_Hbond>
0.0000

> <Gold.Chemscore.DEClash>
0.0013

> <Gold.Chemscore.DEInternal>
1.7750

> <Gold.Chemscore.Rot>
1.7571

> <Gold.Chemscore.Internal.Correction>
   9.000000E+99

> <Gold.Chemscore.Hbonds>
donor molecule, donor type, donor heavy atom, donor atom, acceptor molecule, acceptor atom, score
      P1  H  6896  6907       L1    12  0.82
      P1  H  6931  6943       L1    15  0.54
      P1  H  6934  6947       L1    15  0.81
      P1  H  7997  8008       L1     9  0.90

> <Gold.Chemscore.Hbond.Weighted>
-11.3410

> <Gold.Chemscore.Metal.Weighted>
-0.0000

> <Gold.Chemscore.Lipo.Weighted>
-5.5551

> <Gold.Chemscore.Internal_Hbond.Weighted>
0.0000

> <Gold.Chemscore.DEClash.Weighted>
0.0013

> <Gold.Chemscore.DEInternal.Weighted>
1.7750

> <Gold.Chemscore.Rot.Weighted>
4.4983

> <Gold.Chemscore.Internal.Correction.Weighted>
   9.000000E+99

> <Gold.Protein.RotatedTorsions>
[ 6907 6896 6895 6894 ] final  -94.80 input  -60.11 | X-H torsion
[ 7974 7965 7964 7962 ] final -106.45 input  175.53 | X-H torsion
[ 8008 7997 7996 7995 ] final  -54.73 input   59.86 | X-H torsion
[ 10167 10162 10161 10158 ] final  -49.93 input  -65.29 | X-H torsion
[ 10718 10713 10712 10709 ] final  -72.81 input   66.30 | X-H torsion
[ 10763 10752 10751 10750 ] final   39.66 input  -60.55 | X-H torsion
[ 11005 11000 10999 10996 ] final -159.43 input  -57.11 | X-H torsion

> <Gold.Protein.ActiveResidues>
 VAL166  LYS551  ARG553  GLY616  TRP617  ASP618  TYR619  PRO620  LYS621  CYS622 
 ASP623  PHE694  ASN695  SER759  ASP760  ASP761  ALA762  ILE779  LEU786  VAL792 
 PHE793  MET794  SER795  GLU796  ALA797  LYS798  CYS799  TRP800  GLU811  SER814 

> <Gold.Protein.RotatedAtoms>
  150.6949  134.1755  159.4228 H   0  0  0  0  0  0  0  0  0  0  0  0  # atno 6907 bound_to 6896
  151.9732  135.0064  160.0563 H   0  0  0  0  0  0  0  0  0  0  0  0  # atno 6908 bound_to 6896
  152.1823  133.4680  159.5001 H   0  0  0  0  0  0  0  0  0  0  0  0  # atno 6909 bound_to 6896
  145.2177  140.9122  143.3277 H   0  0  0  0  0  0  0  0  0  0  0  0  # atno 7974 bound_to 7965
  154.4172  140.1169  156.5363 H   0  0  0  0  0  0  0  0  0  0  0  0  # atno 8008 bound_to 7997
  155.6554  140.3496  155.4744 H   0  0  0  0  0  0  0  0  0  0  0  0  # atno 8009 bound_to 7997
  155.9758  140.1150  157.0761 H   0  0  0  0  0  0  0  0  0  0  0  0  # atno 8010 bound_to 7997
  140.6662  143.2677  151.4287 H   0  0  0  0  0  0  0  0  0  0  0  0  # atno 10167 bound_to 10162
  156.0305  130.4380  150.2648 H   0  0  0  0  0  0  0  0  0  0  0  0  # atno 10718 bound_to 10713
  152.9960  135.6214  154.2500 H   0  0  0  0  0  0  0  0  0  0  0  0  # atno 10763 bound_to 10752
  154.2239  135.2795  155.2916 H   0  0  0  0  0  0  0  0  0  0  0  0  # atno 10764 bound_to 10752
  154.5506  135.5734  153.6977 H   0  0  0  0  0  0  0  0  0  0  0  0  # atno 10765 bound_to 10752
  140.6427  134.4534  157.5233 H   0  0  0  0  0  0  0  0  0  0  0  0  # atno 11005 bound_to 11000
  144.9795  139.3798  143.6269 LP  0  0  0  0  0  0  0  0  0  0  0  0  # atno 17320 bound_to 7965
  146.3383  139.8929  142.8806 LP  0  0  0  0  0  0  0  0  0  0  0  0  # atno 17321 bound_to 7965
  139.5911  144.1497  152.2089 LP  0  0  0  0  0  0  0  0  0  0  0  0  # atno 17342 bound_to 10162
  140.0851  144.5667  150.7094 LP  0  0  0  0  0  0  0  0  0  0  0  0  # atno 17343 bound_to 10162
  157.0750  131.0127  151.3177 LP  0  0  0  0  0  0  0  0  0  0  0  0  # atno 17370 bound_to 10713
  157.4970  130.7857  149.7566 LP  0  0  0  0  0  0  0  0  0  0  0  0  # atno 17371 bound_to 10713
  139.9074  134.8418  156.1653 LP  0  0  0  0  0  0  0  0  0  0  0  0  # atno 17394 bound_to 11000
  141.0595  133.6849  156.1925 LP  0  0  0  0  0  0  0  0  0  0  0  0  # atno 17395 bound_to 11000

$$$$
