AV-unprocessed.smi:198|AV-procd|sdf|1553|dock1
  -GOLD-   2262019423D 1   1.00000     0.00000
 Structure written by MMmdl.
 59 63  0  0  0  0  0  0  0  0  2 V2000
  150.9495  139.5085  154.4738 C   0  0  0  0  0  0  0  0  0  0  0  0
  150.3513  139.6246  155.8244 N   0  3  2  0  0  0  0  0  0  0  0  0
  149.6875  138.3823  156.2938 C   0  0  0  0  0  0  0  0  0  0  0  0
  148.3390  138.1515  155.5911 C   0  0  0  0  0  0  0  0  0  0  0  0
  147.4099  139.3754  155.7565 C   0  0  1  0  0  0  0  0  0  0  0  0
  148.1210  140.6699  155.2953 C   0  0  1  0  0  0  0  0  0  0  0  0
  147.2153  141.8868  155.5657 C   0  0  0  0  0  0  0  0  0  0  0  0
  145.8412  141.7084  154.9018 C   0  0  0  0  0  0  0  0  0  0  0  0
  145.1904  140.3702  155.3077 C   0  0  0  0  0  0  0  0  0  0  0  0
  146.0935  139.2336  155.1184 N   0  0  0  0  0  0  0  0  0  0  0  0
  146.0366  138.6290  153.9071 C   0  0  0  0  0  0  0  0  0  0  0  0
  146.6561  139.1846  152.8337 N   0  0  0  0  0  0  0  0  0  0  0  0
  146.6220  138.5689  151.6482 C   0  0  0  0  0  0  0  0  0  0  0  0
  146.0402  137.4117  151.3252 N   0  0  0  0  0  0  0  0  0  0  0  0
  145.4145  136.8531  152.4012 C   0  0  0  0  0  0  0  0  0  0  0  0
  145.3655  137.3918  153.7167 C   0  0  0  0  0  0  0  0  0  0  0  0
  144.6542  136.5430  154.5540 N   0  0  0  0  0  0  0  0  0  0  0  0
  144.3060  135.5533  153.7776 C   0  0  0  0  0  0  0  0  0  0  0  0
  144.7088  135.6637  152.4639 N   0  0  0  0  0  0  0  0  0  0  0  0
  144.4942  134.7208  151.4025 C   0  0  0  0  0  0  0  0  0  0  0  0
  144.2035  133.2409  151.6659 C   0  0  0  0  0  0  0  0  0  0  0  0
  144.9488  132.8759  150.3602 C   0  0  0  0  0  0  0  0  0  0  0  0
  145.8833  131.6550  150.4269 C   0  0  0  0  0  0  0  0  0  0  0  0
  146.7588  131.5966  149.3194 O   0  0  0  0  0  0  0  0  0  0  0  0
  144.0922  132.7903  149.0792 C   0  0  0  0  0  0  0  0  0  0  0  0
  142.8986  132.0633  149.2854 O   0  0  0  0  0  0  0  0  0  0  0  0
  145.6627  134.2348  150.5457 C   0  0  0  0  0  0  0  0  0  0  0  0
  149.4890  140.8217  155.9957 C   0  0  0  0  0  0  0  0  0  0  0  0
  150.1937  139.3627  153.7022 H   0  0  0  0  0  0  0  0  0  0  0  0
  151.6400  138.6659  154.4334 H   0  0  0  0  0  0  0  0  0  0  0  0
  151.5133  140.4091  154.2284 H   0  0  0  0  0  0  0  0  0  0  0  0
  150.3475  137.5269  156.1447 H   0  0  0  0  0  0  0  0  0  0  0  0
  149.5273  138.4624  157.3697 H   0  0  0  0  0  0  0  0  0  0  0  0
  148.5195  137.9376  154.5373 H   0  0  0  0  0  0  0  0  0  0  0  0
  147.8623  137.2643  156.0087 H   0  0  0  0  0  0  0  0  0  0  0  0
  147.2091  139.4729  156.8248 H   0  0  0  0  0  0  0  0  0  0  0  0
  148.2923  140.6141  154.2197 H   0  0  0  0  0  0  0  0  0  0  0  0
  147.0820  142.0163  156.6407 H   0  0  0  0  0  0  0  0  0  0  0  0
  147.6870  142.7991  155.1988 H   0  0  0  0  0  0  0  0  0  0  0  0
  145.1855  142.5349  155.1769 H   0  0  0  0  0  0  0  0  0  0  0  0
  145.9523  141.7624  153.8191 H   0  0  0  0  0  0  0  0  0  0  0  0
  144.9094  140.4056  156.3610 H   0  0  0  0  0  0  0  0  0  0  0  0
  144.2661  140.2164  154.7488 H   0  0  0  0  0  0  0  0  0  0  0  0
  147.1349  139.0749  150.8436 H   0  0  0  0  0  0  0  0  0  0  0  0
  143.7448  134.7104  154.1528 H   0  0  0  0  0  0  0  0  0  0  0  0
  143.7076  135.1402  150.7730 H   0  0  0  0  0  0  0  0  0  0  0  0
  144.7041  132.8481  152.5517 H   0  0  0  0  0  0  0  0  0  0  0  0
  143.1430  132.9885  151.6786 H   0  0  0  0  0  0  0  0  0  0  0  0
  146.4729  131.6568  151.3442 H   0  0  0  0  0  0  0  0  0  0  0  0
  145.3081  130.7286  150.4354 H   0  0  0  0  0  0  0  0  0  0  0  0
  147.6429  131.5030  149.6402 H   0  0  0  0  0  0  0  0  0  0  0  0
  143.8129  133.7821  148.7231 H   0  0  0  0  0  0  0  0  0  0  0  0
  144.6490  132.3250  148.2650 H   0  0  0  0  0  0  0  0  0  0  0  0
  142.1817  132.6775  149.3397 H   0  0  0  0  0  0  0  0  0  0  0  0
  145.8149  134.8049  149.6287 H   0  0  0  0  0  0  0  0  0  0  0  0
  146.5908  134.1618  151.1159 H   0  0  0  0  0  0  0  0  0  0  0  0
  149.3379  140.9784  157.0648 H   0  0  0  0  0  0  0  0  0  0  0  0
  150.0111  141.7063  155.6288 H   0  0  0  0  0  0  0  0  0  0  0  0
  151.1376  139.7637  156.4432 H   0  0  0  0  0  0  0  0  0  0  0  0
  1  2  1  0  0  0  0
  1 29  1  0  0  0  0
  1 30  1  0  0  0  0
  1 31  1  0  0  0  0
  2 28  1  0  0  0  0
  2  3  1  0  0  0  0
  2 59  1  0  0  0  0
  3  4  1  0  0  0  0
  3 32  1  0  0  0  0
  3 33  1  0  0  0  0
  4  5  1  0  0  0  0
  4 34  1  0  0  0  0
  4 35  1  0  0  0  0
  5 10  1  0  0  0  0
  5  6  1  0  0  0  0
  5 36  1  0  0  0  0
  6  7  1  0  0  0  0
  6 28  1  0  0  0  0
  6 37  1  0  0  0  0
  7  8  1  0  0  0  0
  7 38  1  0  0  0  0
  7 39  1  0  0  0  0
  8  9  1  0  0  0  0
  8 40  1  0  0  0  0
  8 41  1  0  0  0  0
  9 10  1  0  0  0  0
  9 42  1  0  0  0  0
  9 43  1  0  0  0  0
 10 11  1  0  0  0  0
 11 16  1  0  0  0  0
 11 12  2  0  0  0  0
 12 13  1  0  0  0  0
 13 14  2  0  0  0  0
 13 44  1  0  0  0  0
 14 15  1  0  0  0  0
 15 19  1  0  0  0  0
 15 16  2  0  0  0  0
 16 17  1  0  0  0  0
 17 18  2  0  0  0  0
 18 19  1  0  0  0  0
 18 45  1  0  0  0  0
 19 20  1  0  0  0  0
 20 27  1  0  0  0  0
 20 21  1  0  0  0  0
 20 46  1  0  0  0  0
 21 22  1  0  0  0  0
 21 47  1  0  0  0  0
 21 48  1  0  0  0  0
 22 23  1  0  0  0  0
 22 25  1  0  0  0  0
 22 27  1  0  0  0  0
 23 24  1  0  0  0  0
 23 49  1  0  0  0  0
 23 50  1  0  0  0  0
 24 51  1  0  0  0  0
 25 26  1  0  0  0  0
 25 52  1  0  0  0  0
 25 53  1  0  0  0  0
 26 54  1  0  0  0  0
 27 55  1  0  0  0  0
 27 56  1  0  0  0  0
 28 57  1  0  0  0  0
 28 58  1  0  0  0  0
M  CHG  1   2   1
M  END
> <s_m_source_file>
AV-unprocessed.smi

> <i_m_source_file_index>
198

> <i_lp_mmshare_version>
43012

> <i_f3d_flags>
0

> <s_epik_input>
W0NIMl0xW0NIMl1OKFtDSDNdKVtDSDJdW0NAQEhdKFtDQEhdMTIpW0NIMl1bQ0gyXVtDSDJdTjJjKG5bY0hdbjMpYyhjMzQpbltjSF1uNFtDSF0oW0NIMl01KVtDSDJdQzUoW0NIMl1bT0hdKVtDSDJdW09IXQ==

> <s_epik_cmdline>
J2VwaWtfcHl0aG9uJywgJy1waCcsICc3LjAnLCAnLXRuJywgJzgnLCAnLW1hJywgJzIwMCcsICctbWV0YWxfYmluZGluZycsICctaW1hZScsICc8aW5maWxlLm1hZT4nLCAnLW9tYWUnLCAnPG91dGZpbGUubWFlPic=

> <r_lp_tautomer_probability>
1

> <r_epik_Ionization_Penalty>
0.00239938

> <r_epik_Ionization_Penalty_Charging>
0.00138697

> <r_epik_Ionization_Penalty_Neutral>
0.00101241

> <r_epik_State_Penalty>
-0

> <r_epik_Charging_Adjusted_Penalty>
0.00138697

> <i_epik_Tot_Q>
1

> <i_epik_Tot_abs_Q>
1

> <r_epik_Metal_State_Penalty>
-0

> <b_epik_Metal_Only>
0

> <s_lp_Force_Field>
OPLS_2005

> <r_lp_Energy>
59.1545

> <b_lp_Chiralities_Consistent>
1

> <s_lp_Variant>
AV-unprocessed.smi:198-2

> <Gold.Version>
5.8.1

> <Gold.Id.Protein>
6NUR|6NUR_protein|mol2

> <Gold.PLP.Fitness>
46.0104

> <Gold.PLP.PLP>
-35.9382

> <Gold.PLP.part.hbond>
-3.8001

> <Gold.PLP.part.metal>
0.0000

> <Gold.PLP.part.buried>
-4.6059

> <Gold.PLP.part.nonpolar>
-29.3597

> <Gold.PLP.part.repulsive>
2.0488

> <Gold.PLP.ligand.clash>
0.0000

> <Gold.PLP.ligand.torsion>
1.2268

> <Gold.PLP.Chemscore.Hbond>
2.9013

> <Gold.PLP.Chemscore.CHOScore>
0.9548

> <Gold.PLP.Chemscore.Metal>
0.0000

> <Gold.Chemscore.Hbonds>
donor molecule, donor type, donor heavy atom, donor atom, acceptor molecule, acceptor atom, score
      L1  H    24    51       P1 10747  1.00
      L1  H    26    54       P1 10186  0.83
      P1  H 10785 10796       L1    26  1.00
      L1  C    13    44       P1  7957  0.68

> <Gold.PLP.Chemscore.Internal.Correction>
0.9577

> <Gold.Rescore>
     Score         DG    S(hbond)    S(metal)    S(lipo)     H(rot)  DE(clash)    DE(int)     intcor
     13.33     -15.78       2.65        0.00      79.58       3.08       1.42       1.02       ----

> <Gold.Chemscore.Fitness>
13.3329

> <Gold.Chemscore.DG>
-15.7788

> <Gold.Chemscore.ZeroCoef>
-5.4800

> <Gold.Chemscore.Hbond>
2.6550

> <Gold.Chemscore.Metal>
0.0000

> <Gold.Chemscore.Lipo>
79.5832

> <Gold.Chemscore.Internal_Hbond>
0.0000

> <Gold.Chemscore.DEClash>
1.4226

> <Gold.Chemscore.DEInternal>
1.0233

> <Gold.Chemscore.Rot>
3.0781

> <Gold.Chemscore.Internal.Correction>
   9.000000E+99

> <Gold.Chemscore.Hbonds>
donor molecule, donor type, donor heavy atom, donor atom, acceptor molecule, acceptor atom, score
      L1  H    24    51       P1 10747  0.98
      L1  H    26    54       P1 10186  0.80
      P1  H 10785 10796       L1    26  0.66

> <Gold.Chemscore.Hbond.Weighted>
-8.8676

> <Gold.Chemscore.Metal.Weighted>
-0.0000

> <Gold.Chemscore.Lipo.Weighted>
-9.3112

> <Gold.Chemscore.Internal_Hbond.Weighted>
0.0000

> <Gold.Chemscore.DEClash.Weighted>
1.4226

> <Gold.Chemscore.DEInternal.Weighted>
1.0233

> <Gold.Chemscore.Rot.Weighted>
7.8800

> <Gold.Chemscore.Internal.Correction.Weighted>
   9.000000E+99

> <Gold.Protein.RotatedTorsions>
[ 6907 6896 6895 6894 ] final  143.93 input  -60.11 | X-H torsion
[ 7974 7965 7964 7962 ] final  -27.52 input  175.53 | X-H torsion
[ 8008 7997 7996 7995 ] final  121.00 input   59.86 | X-H torsion
[ 10167 10162 10161 10158 ] final -128.32 input  -65.29 | X-H torsion
[ 10718 10713 10712 10709 ] final    3.71 input   66.30 | X-H torsion
[ 10763 10752 10751 10750 ] final  116.62 input  -60.55 | X-H torsion
[ 11005 11000 10999 10996 ] final   45.19 input  -57.11 | X-H torsion

> <Gold.Protein.ActiveResidues>
 VAL166  LYS551  ARG553  GLY616  TRP617  ASP618  TYR619  PRO620  LYS621  CYS622 
 ASP623  PHE694  ASN695  SER759  ASP760  ASP761  ALA762  ILE779  LEU786  VAL792 
 PHE793  MET794  SER795  GLU796  ALA797  LYS798  CYS799  TRP800  GLU811  SER814 

> <Gold.Protein.RotatedAtoms>
  152.2001  133.4835  159.5053 H   0  0  0  0  0  0  0  0  0  0  0  0  # atno 6907 bound_to 6896
  150.6968  134.1602  159.4182 H   0  0  0  0  0  0  0  0  0  0  0  0  # atno 6908 bound_to 6896
  151.9519  135.0165  160.0593 H   0  0  0  0  0  0  0  0  0  0  0  0  # atno 6909 bound_to 6896
  146.1352  140.5162  142.8676 H   0  0  0  0  0  0  0  0  0  0  0  0  # atno 7974 bound_to 7965
  156.2668  140.2818  156.1239 H   0  0  0  0  0  0  0  0  0  0  0  0  # atno 8008 bound_to 7997
  155.1126  140.0391  157.2745 H   0  0  0  0  0  0  0  0  0  0  0  0  # atno 8009 bound_to 7997
  154.6731  140.2592  155.6992 H   0  0  0  0  0  0  0  0  0  0  0  0  # atno 8010 bound_to 7997
  139.9515  143.6050  152.2474 H   0  0  0  0  0  0  0  0  0  0  0  0  # atno 10167 bound_to 10162
  156.8819  130.5656  149.5653 H   0  0  0  0  0  0  0  0  0  0  0  0  # atno 10718 bound_to 10713
  153.5400  135.3560  155.2714 H   0  0  0  0  0  0  0  0  0  0  0  0  # atno 10763 bound_to 10752
  154.8718  135.4089  154.3054 H   0  0  0  0  0  0  0  0  0  0  0  0  # atno 10764 bound_to 10752
  153.3759  135.7066  153.6670 H   0  0  0  0  0  0  0  0  0  0  0  0  # atno 10765 bound_to 10752
  140.1482  134.4495  155.8400 H   0  0  0  0  0  0  0  0  0  0  0  0  # atno 11005 bound_to 11000
  144.7732  140.5683  143.6656 LP  0  0  0  0  0  0  0  0  0  0  0  0  # atno 17320 bound_to 7965
  145.5172  139.1477  143.3572 LP  0  0  0  0  0  0  0  0  0  0  0  0  # atno 17321 bound_to 7965
  139.6624  144.7662  151.1936 LP  0  0  0  0  0  0  0  0  0  0  0  0  # atno 17342 bound_to 10162
  140.7581  143.5989  150.8720 LP  0  0  0  0  0  0  0  0  0  0  0  0  # atno 17343 bound_to 10162
  156.0673  130.5713  150.9313 LP  0  0  0  0  0  0  0  0  0  0  0  0  # atno 17370 bound_to 10713
  157.6135  131.0935  150.8752 LP  0  0  0  0  0  0  0  0  0  0  0  0  # atno 17371 bound_to 10713
  141.2195  133.6861  156.7373 LP  0  0  0  0  0  0  0  0  0  0  0  0  # atno 17394 bound_to 11000
  140.2637  134.8446  157.3783 LP  0  0  0  0  0  0  0  0  0  0  0  0  # atno 17395 bound_to 11000

$$$$
