AV-unprocessed.smi:2439|AV-procd|sdf|9603|dock8
  -GOLD-   2272013233D 1   1.00000     0.00000
 Structure written by MMmdl.
 41 43  0  0  0  0  0  0  0  0  2 V2000
  151.6624  136.6451  154.3499 N   0  0  0  0  0  0  0  0  0  0  0  0
  151.2660  137.7130  154.5522 C   0  0  0  0  0  0  0  0  0  0  0  0
  150.7675  139.0591  154.8081 C   0  0  0  0  0  0  0  0  0  0  0  0
  151.5056  139.9109  155.6564 C   0  0  0  0  0  0  0  0  0  0  0  0
  151.0310  141.2119  155.9031 C   0  0  0  0  0  0  0  0  0  0  0  0
  149.8299  141.6100  155.2893 C   0  0  0  0  0  0  0  0  0  0  0  0
  149.1141  140.8058  154.4758 N   0  0  0  0  0  0  0  0  0  0  0  0
  149.5647  139.5503  154.2325 C   0  0  0  0  0  0  0  0  0  0  0  0
  148.7961  138.7324  153.3831 N   0  0  0  0  0  0  0  0  0  0  0  0
  147.3736  138.9644  153.1620 C   0  0  0  0  0  0  0  0  0  0  0  0
  146.5229  137.7151  153.4464 C   0  0  2  0  0  0  0  0  0  0  0  0
  145.8249  137.2042  152.1734 C   0  0  0  0  0  0  0  0  0  0  0  0
  144.9584  136.0444  152.4857 N   0  3  2  0  0  0  0  0  0  0  0  0
  144.2986  135.4894  151.2769 C   0  0  0  0  0  0  0  0  0  0  0  0
  143.4841  134.2319  151.6203 C   0  0  0  0  0  0  0  0  0  0  0  0
  142.4586  134.5300  152.7214 C   0  0  0  0  0  0  0  0  0  0  0  0
  143.1621  135.1277  153.9474 C   0  0  0  0  0  0  0  0  0  0  0  0
  143.9892  136.3718  153.5666 C   0  0  1  0  0  0  0  0  0  0  0  0
  144.7373  136.9429  154.7873 C   0  0  0  0  0  0  0  0  0  0  0  0
  145.5198  138.0634  154.3948 O   0  0  0  0  0  0  0  0  0  0  0  0
  152.4254  139.5765  156.1149 H   0  0  0  0  0  0  0  0  0  0  0  0
  151.5740  141.8874  156.5474 H   0  0  0  0  0  0  0  0  0  0  0  0
  149.4333  142.6008  155.4542 H   0  0  0  0  0  0  0  0  0  0  0  0
  149.2584  138.0279  152.8257 H   0  0  0  0  0  0  0  0  0  0  0  0
  147.0534  139.7844  153.8052 H   0  0  0  0  0  0  0  0  0  0  0  0
  147.2184  139.3063  152.1380 H   0  0  0  0  0  0  0  0  0  0  0  0
  147.1540  136.9226  153.8518 H   0  0  0  0  0  0  0  0  0  0  0  0
  145.2256  137.9996  151.7269 H   0  0  0  0  0  0  0  0  0  0  0  0
  146.5717  136.9110  151.4343 H   0  0  0  0  0  0  0  0  0  0  0  0
  143.6502  136.2468  150.8332 H   0  0  0  0  0  0  0  0  0  0  0  0
  145.0543  135.2416  150.5304 H   0  0  0  0  0  0  0  0  0  0  0  0
  142.9772  133.8610  150.7291 H   0  0  0  0  0  0  0  0  0  0  0  0
  144.1559  133.4376  151.9485 H   0  0  0  0  0  0  0  0  0  0  0  0
  141.7086  135.2288  152.3487 H   0  0  0  0  0  0  0  0  0  0  0  0
  141.9274  133.6189  152.9986 H   0  0  0  0  0  0  0  0  0  0  0  0
  142.4221  135.3873  154.7053 H   0  0  0  0  0  0  0  0  0  0  0  0
  143.8116  134.3744  154.3956 H   0  0  0  0  0  0  0  0  0  0  0  0
  143.3108  137.1402  153.1909 H   0  0  0  0  0  0  0  0  0  0  0  0
  144.0261  137.2650  155.5483 H   0  0  0  0  0  0  0  0  0  0  0  0
  145.3745  136.1866  155.2491 H   0  0  0  0  0  0  0  0  0  0  0  0
  145.5621  135.3196  152.8467 H   0  0  0  0  0  0  0  0  0  0  0  0
  1  2  3  0  0  0  0
  2  3  1  0  0  0  0
  3  8  1  0  0  0  0
  3  4  2  0  0  0  0
  4  5  1  0  0  0  0
  4 21  1  0  0  0  0
  5  6  2  0  0  0  0
  5 22  1  0  0  0  0
  6  7  1  0  0  0  0
  6 23  1  0  0  0  0
  7  8  2  0  0  0  0
  8  9  1  0  0  0  0
  9 10  1  0  0  0  0
  9 24  1  0  0  0  0
 10 11  1  0  0  0  0
 10 25  1  0  0  0  0
 10 26  1  0  0  0  0
 11 20  1  0  0  0  0
 11 12  1  0  0  0  0
 11 27  1  0  0  0  0
 12 13  1  0  0  0  0
 12 28  1  0  0  0  0
 12 29  1  0  0  0  0
 13 18  1  0  0  0  0
 13 14  1  0  0  0  0
 13 41  1  0  0  0  0
 14 15  1  0  0  0  0
 14 30  1  0  0  0  0
 14 31  1  0  0  0  0
 15 16  1  0  0  0  0
 15 32  1  0  0  0  0
 15 33  1  0  0  0  0
 16 17  1  0  0  0  0
 16 34  1  0  0  0  0
 16 35  1  0  0  0  0
 17 18  1  0  0  0  0
 17 36  1  0  0  0  0
 17 37  1  0  0  0  0
 18 19  1  0  0  0  0
 18 38  1  0  0  0  0
 19 20  1  0  0  0  0
 19 39  1  0  0  0  0
 19 40  1  0  0  0  0
M  CHG  1  13   1
M  END
> <s_m_source_file>
AV-unprocessed.smi

> <i_m_source_file_index>
2439

> <i_lp_mmshare_version>
43012

> <i_f3d_flags>
0

> <s_epik_input>
TiNDYzFbY0hdW2NIXVtjSF1uYzFbTkhdW0NIMl1bQ0BIXShbQ0gyXTIpT1tDSDJdW0NAQEhdKE4yMylbQ0gyXVtDSDJdW0NIMl1bQ0gyXTM=

> <s_epik_cmdline>
J2VwaWtfcHl0aG9uJywgJy1waCcsICc3LjAnLCAnLXRuJywgJzgnLCAnLW1hJywgJzIwMCcsICctbWV0YWxfYmluZGluZycsICctaW1hZScsICc8aW5maWxlLm1hZT4nLCAnLW9tYWUnLCAnPG91dGZpbGUubWFlPic=

> <r_epik_Ionization_Penalty>
0.0803594

> <r_epik_Ionization_Penalty_Charging>
0.0803403

> <r_epik_Ionization_Penalty_Neutral>
1.90988e-05

> <r_epik_State_Penalty>
0.0711481

> <r_epik_Charging_Adjusted_Penalty>
0.151488

> <i_epik_Tot_Q>
1

> <i_epik_Tot_abs_Q>
1

> <r_epik_Metal_State_Penalty>
0.0711482

> <b_epik_Metal_Only>
0

> <s_lp_Force_Field>
OPLS_2005

> <r_lp_Energy>
27.3027

> <b_lp_Chiralities_Consistent>
1

> <s_lp_Variant>
AV-unprocessed.smi:2439-1

> <Gold.Version>
5.8.1

> <Gold.Id.Protein>
6NUR|6NUR_protein|mol2

> <Gold.PLP.Fitness>
40.8907

> <Gold.PLP.PLP>
-33.9361

> <Gold.PLP.part.hbond>
-3.0000

> <Gold.PLP.part.metal>
0.0000

> <Gold.PLP.part.buried>
-2.9557

> <Gold.PLP.part.nonpolar>
-28.1623

> <Gold.PLP.part.repulsive>
1.1934

> <Gold.PLP.ligand.clash>
0.0000

> <Gold.PLP.ligand.torsion>
0.8677

> <Gold.PLP.Chemscore.Hbond>
1.8960

> <Gold.PLP.Chemscore.CHOScore>
1.0000

> <Gold.PLP.Chemscore.Metal>
0.0000

> <Gold.Chemscore.Hbonds>
donor molecule, donor type, donor heavy atom, donor atom, acceptor molecule, acceptor atom, score
      L1  H     9    24       P1  7948  0.90
      P1  H 10752 10765       L1     1  1.00
      L1  C     6    23       P1  8028  1.00

> <Gold.PLP.Chemscore.Internal.Correction>
0.0020

> <Gold.Rescore>
     Score         DG    S(hbond)    S(metal)    S(lipo)     H(rot)  DE(clash)    DE(int)     intcor
     15.43     -16.57       1.92        0.00      67.67       1.27       0.23       0.92       ----

> <Gold.Chemscore.Fitness>
15.4302

> <Gold.Chemscore.DG>
-16.5720

> <Gold.Chemscore.ZeroCoef>
-5.4800

> <Gold.Chemscore.Hbond>
1.9207

> <Gold.Chemscore.Metal>
0.0000

> <Gold.Chemscore.Lipo>
67.6709

> <Gold.Chemscore.Internal_Hbond>
0.0000

> <Gold.Chemscore.DEClash>
0.2252

> <Gold.Chemscore.DEInternal>
0.9166

> <Gold.Chemscore.Rot>
1.2659

> <Gold.Chemscore.Internal.Correction>
   9.000000E+99

> <Gold.Chemscore.Hbonds>
donor molecule, donor type, donor heavy atom, donor atom, acceptor molecule, acceptor atom, score
      L1  H     9    24       P1  7948  0.77
      P1  H 10752 10765       L1     1  0.94

> <Gold.Chemscore.Hbond.Weighted>
-6.4152

> <Gold.Chemscore.Metal.Weighted>
-0.0000

> <Gold.Chemscore.Lipo.Weighted>
-7.9175

> <Gold.Chemscore.Internal_Hbond.Weighted>
0.0000

> <Gold.Chemscore.DEClash.Weighted>
0.2252

> <Gold.Chemscore.DEInternal.Weighted>
0.9166

> <Gold.Chemscore.Rot.Weighted>
3.2408

> <Gold.Chemscore.Internal.Correction.Weighted>
   9.000000E+99

> <Gold.Protein.RotatedTorsions>
[ 6907 6896 6895 6894 ] final  -28.23 input  -60.11 | X-H torsion
[ 7974 7965 7964 7962 ] final   26.73 input  175.53 | X-H torsion
[ 8008 7997 7996 7995 ] final  -22.17 input   59.86 | X-H torsion
[ 10167 10162 10161 10158 ] final  -28.12 input  -65.29 | X-H torsion
[ 10718 10713 10712 10709 ] final  174.21 input   66.30 | X-H torsion
[ 10763 10752 10751 10750 ] final -177.05 input  -60.55 | X-H torsion
[ 11005 11000 10999 10996 ] final  128.24 input  -57.11 | X-H torsion

> <Gold.Protein.ActiveResidues>
 VAL166  LYS551  ARG553  GLY616  TRP617  ASP618  TYR619  PRO620  LYS621  CYS622 
 ASP623  PHE694  ASN695  SER759  ASP760  ASP761  ALA762  ILE779  LEU786  VAL792 
 PHE793  MET794  SER795  GLU796  ALA797  LYS798  CYS799  TRP800  GLU811  SER814 

> <Gold.Protein.RotatedAtoms>
  151.1359  135.0154  159.8603 H   0  0  0  0  0  0  0  0  0  0  0  0  # atno 6907 bound_to 6896
  152.5452  134.1555  159.8546 H   0  0  0  0  0  0  0  0  0  0  0  0  # atno 6908 bound_to 6896
  151.1626  133.4790  159.2627 H   0  0  0  0  0  0  0  0  0  0  0  0  # atno 6909 bound_to 6896
  146.1822  139.7289  142.8892 H   0  0  0  0  0  0  0  0  0  0  0  0  # atno 7974 bound_to 7965
  154.4660  140.2015  156.0117 H   0  0  0  0  0  0  0  0  0  0  0  0  # atno 8008 bound_to 7997
  156.0928  140.3255  155.7809 H   0  0  0  0  0  0  0  0  0  0  0  0  # atno 8009 bound_to 7997
  155.4928  140.0547  157.2942 H   0  0  0  0  0  0  0  0  0  0  0  0  # atno 8010 bound_to 7997
  140.7272  143.4036  151.1223 H   0  0  0  0  0  0  0  0  0  0  0  0  # atno 10167 bound_to 10162
  156.9530  131.0037  151.2944 H   0  0  0  0  0  0  0  0  0  0  0  0  # atno 10718 bound_to 10713
  154.5649  135.2823  155.0883 H   0  0  0  0  0  0  0  0  0  0  0  0  # atno 10763 bound_to 10752
  154.2278  135.6379  153.5169 H   0  0  0  0  0  0  0  0  0  0  0  0  # atno 10764 bound_to 10752
  153.0040  135.5530  154.6255 H   0  0  0  0  0  0  0  0  0  0  0  0  # atno 10765 bound_to 10752
  139.9550  134.9615  156.8972 H   0  0  0  0  0  0  0  0  0  0  0  0  # atno 11005 bound_to 11000
  145.4042  141.0389  143.3053 LP  0  0  0  0  0  0  0  0  0  0  0  0  # atno 17320 bound_to 7965
  144.8335  139.5589  143.6933 LP  0  0  0  0  0  0  0  0  0  0  0  0  # atno 17321 bound_to 7965
  139.7659  143.8565  152.3110 LP  0  0  0  0  0  0  0  0  0  0  0  0  # atno 17342 bound_to 10162
  139.8467  144.7184  150.9264 LP  0  0  0  0  0  0  0  0  0  0  0  0  # atno 17343 bound_to 10162
  157.5709  130.8310  149.8390 LP  0  0  0  0  0  0  0  0  0  0  0  0  # atno 17370 bound_to 10713
  156.0354  130.3752  150.1573 LP  0  0  0  0  0  0  0  0  0  0  0  0  # atno 17371 bound_to 10713
  140.5631  134.0516  155.7405 LP  0  0  0  0  0  0  0  0  0  0  0  0  # atno 17394 bound_to 11000
  141.1219  133.9446  157.2712 LP  0  0  0  0  0  0  0  0  0  0  0  0  # atno 17395 bound_to 11000

$$$$
