AV-unprocessed.smi:3348|AV-procd|sdf|12926|dock5
  -GOLD-   2272019353D 1   1.00000     0.00000
 Structure written by MMmdl.
 46 47  0  0  0  0  0  0  0  0  1 V2000
  147.5261  141.9133  154.4464 C   0  0  0  0  0  0  0  0  0  0  0  0
  148.8151  141.3985  155.1213 C   0  0  1  0  0  0  0  0  0  0  0  0
  149.5683  140.3830  154.2374 C   0  0  0  0  0  0  0  0  0  0  0  0
  150.7226  139.8012  154.9001 N   0  0  0  0  0  0  0  0  0  0  0  0
  150.7454  138.9429  155.9795 C   0  0  0  0  0  0  0  0  0  0  0  0
  152.0547  138.6706  156.2551 C   0  0  0  0  0  0  0  0  0  0  0  0
  152.7684  139.4223  155.2801 C   0  0  0  0  0  0  0  0  0  0  0  0
  151.9688  140.0997  154.4720 N   0  0  0  0  0  0  0  0  0  0  0  0
  149.7250  142.4952  155.4649 N   0  0  0  0  0  0  0  0  0  0  0  0
  150.7257  142.1938  156.4876 C   0  0  0  0  0  0  0  0  0  0  0  0
  150.1196  142.3139  157.8888 C   0  0  0  0  0  0  0  0  0  0  0  0
  151.1335  142.0307  158.8416 O   0  0  0  0  0  0  0  0  0  0  0  0
  152.2906  142.8540  158.7445 C   0  0  1  0  0  0  0  0  0  0  0  0
  151.8876  144.3270  158.5151 C   0  0  0  0  0  0  0  0  0  0  0  0
  151.1159  144.8990  159.7157 C   0  0  0  0  0  0  0  0  0  0  0  0
  151.9201  144.7484  161.0157 C   0  0  0  0  0  0  0  0  0  0  0  0
  152.3283  143.2859  161.2542 C   0  0  0  0  0  0  0  0  0  0  0  0
  153.1031  142.7103  160.0512 C   0  0  1  0  0  0  0  0  0  0  0  0
  153.5475  141.2602  160.2982 C   0  0  0  0  0  0  0  0  0  0  0  0
  146.8624  141.0930  154.1743 H   0  0  0  0  0  0  0  0  0  0  0  0
  147.7515  142.4699  153.5363 H   0  0  0  0  0  0  0  0  0  0  0  0
  146.9510  142.5640  155.1040 H   0  0  0  0  0  0  0  0  0  0  0  0
  148.5283  140.8852  156.0401 H   0  0  0  0  0  0  0  0  0  0  0  0
  148.8963  139.5824  153.9229 H   0  0  0  0  0  0  0  0  0  0  0  0
  149.9193  140.8677  153.3254 H   0  0  0  0  0  0  0  0  0  0  0  0
  149.8377  138.6002  156.4542 H   0  0  0  0  0  0  0  0  0  0  0  0
  152.4434  138.0331  157.0352 H   0  0  0  0  0  0  0  0  0  0  0  0
  153.8365  139.4965  155.1376 H   0  0  0  0  0  0  0  0  0  0  0  0
  149.1876  143.3072  155.7523 H   0  0  0  0  0  0  0  0  0  0  0  0
  151.1343  141.1918  156.3622 H   0  0  0  0  0  0  0  0  0  0  0  0
  151.5598  142.8901  156.3955 H   0  0  0  0  0  0  0  0  0  0  0  0
  149.7610  143.3325  158.0424 H   0  0  0  0  0  0  0  0  0  0  0  0
  149.2625  141.6483  157.9927 H   0  0  0  0  0  0  0  0  0  0  0  0
  152.9130  142.5148  157.9145 H   0  0  0  0  0  0  0  0  0  0  0  0
  152.7873  144.9220  158.3533 H   0  0  0  0  0  0  0  0  0  0  0  0
  151.2944  144.4343  157.6077 H   0  0  0  0  0  0  0  0  0  0  0  0
  150.8850  145.9503  159.5422 H   0  0  0  0  0  0  0  0  0  0  0  0
  150.1586  144.3855  159.8151 H   0  0  0  0  0  0  0  0  0  0  0  0
  152.8129  145.3730  160.9668 H   0  0  0  0  0  0  0  0  0  0  0  0
  151.3343  145.1130  161.8600 H   0  0  0  0  0  0  0  0  0  0  0  0
  152.9386  143.2214  162.1556 H   0  0  0  0  0  0  0  0  0  0  0  0
  151.4373  142.6856  161.4437 H   0  0  0  0  0  0  0  0  0  0  0  0
  154.0119  143.3031  159.9358 H   0  0  0  0  0  0  0  0  0  0  0  0
  152.6924  140.6009  160.4506 H   0  0  0  0  0  0  0  0  0  0  0  0
  154.1808  141.1903  161.1830 H   0  0  0  0  0  0  0  0  0  0  0  0
  154.1185  140.8750  159.4529 H   0  0  0  0  0  0  0  0  0  0  0  0
  1  2  1  0  0  0  0
  1 20  1  0  0  0  0
  1 21  1  0  0  0  0
  1 22  1  0  0  0  0
  2  3  1  0  0  0  0
  2  9  1  0  0  0  0
  2 23  1  0  0  0  0
  3  4  1  0  0  0  0
  3 24  1  0  0  0  0
  3 25  1  0  0  0  0
  4  8  1  0  0  0  0
  4  5  1  0  0  0  0
  5  6  2  0  0  0  0
  5 26  1  0  0  0  0
  6  7  1  0  0  0  0
  6 27  1  0  0  0  0
  7  8  2  0  0  0  0
  7 28  1  0  0  0  0
  9 10  1  0  0  0  0
  9 29  1  0  0  0  0
 10 11  1  0  0  0  0
 10 30  1  0  0  0  0
 10 31  1  0  0  0  0
 11 12  1  0  0  0  0
 11 32  1  0  0  0  0
 11 33  1  0  0  0  0
 12 13  1  0  0  0  0
 13 18  1  0  0  0  0
 13 14  1  0  0  0  0
 13 34  1  0  0  0  0
 14 15  1  0  0  0  0
 14 35  1  0  0  0  0
 14 36  1  0  0  0  0
 15 16  1  0  0  0  0
 15 37  1  0  0  0  0
 15 38  1  0  0  0  0
 16 17  1  0  0  0  0
 16 39  1  0  0  0  0
 16 40  1  0  0  0  0
 17 18  1  0  0  0  0
 17 41  1  0  0  0  0
 17 42  1  0  0  0  0
 18 19  1  0  0  0  0
 18 43  1  0  0  0  0
 19 44  1  0  0  0  0
 19 45  1  0  0  0  0
 19 46  1  0  0  0  0
M  END
> <s_m_source_file>
AV-unprocessed.smi

> <i_m_source_file_index>
3348

> <i_lp_mmshare_version>
43012

> <i_f3d_flags>
0

> <s_epik_input>
bjFbY0hdW2NIXVtjSF1uMVtDSDJdW0NAQEhdKFtDSDNdKVtOSF1bQ0gyXVtDSDJdT1tDQEBIXTJbQ0gyXVtDSDJdW0NIMl1bQ0gyXVtDQEhdMltDSDNd

> <s_epik_cmdline>
J2VwaWtfcHl0aG9uJywgJy1waCcsICc3LjAnLCAnLXRuJywgJzgnLCAnLW1hJywgJzIwMCcsICctbWV0YWxfYmluZGluZycsICctaW1hZScsICc8aW5maWxlLm1hZT4nLCAnLW9tYWUnLCAnPG91dGZpbGUubWFlPic=

> <r_lp_tautomer_probability>
1

> <r_epik_Ionization_Penalty>
2.46945

> <r_epik_Ionization_Penalty_Charging>
0

> <r_epik_Ionization_Penalty_Neutral>
2.46945

> <r_epik_State_Penalty>
2.6322

> <r_epik_Charging_Adjusted_Penalty>
2.6322

> <i_epik_Tot_Q>
0

> <i_epik_Tot_abs_Q>
0

> <r_epik_Metal_State_Penalty>
2.63217

> <b_epik_Metal_Only>
0

> <s_lp_Force_Field>
OPLS_2005

> <r_lp_Energy>
17.8462

> <b_lp_Chiralities_Consistent>
1

> <s_lp_Variant>
AV-unprocessed.smi:3348-12

> <Gold.Version>
5.8.1

> <Gold.Id.Protein>
6NUR|6NUR_protein|mol2

> <Gold.PLP.Fitness>
53.8468

> <Gold.PLP.PLP>
-48.6138

> <Gold.PLP.part.hbond>
-2.0000

> <Gold.PLP.part.metal>
0.0000

> <Gold.PLP.part.buried>
-5.3994

> <Gold.PLP.part.nonpolar>
-41.6086

> <Gold.PLP.part.repulsive>
0.0801

> <Gold.PLP.ligand.clash>
0.0000

> <Gold.PLP.ligand.torsion>
0.4642

> <Gold.PLP.Chemscore.Hbond>
2.0000

> <Gold.PLP.Chemscore.CHOScore>
0.0000

> <Gold.PLP.Chemscore.Metal>
0.0000

> <Gold.Chemscore.Hbonds>
donor molecule, donor type, donor heavy atom, donor atom, acceptor molecule, acceptor atom, score
      L1  H     9    29       P1  8028  0.80
      P1  H  7989  7998       L1     8  0.28

> <Gold.PLP.Chemscore.Internal.Correction>
0.1615

> <Gold.Rescore>
     Score         DG    S(hbond)    S(metal)    S(lipo)     H(rot)  DE(clash)    DE(int)     intcor
     20.92     -22.63       1.92        0.00     129.57       1.72       0.07       1.63       ----

> <Gold.Chemscore.Fitness>
20.9216

> <Gold.Chemscore.DG>
-22.6290

> <Gold.Chemscore.ZeroCoef>
-5.4800

> <Gold.Chemscore.Hbond>
1.9169

> <Gold.Chemscore.Metal>
0.0000

> <Gold.Chemscore.Lipo>
129.5669

> <Gold.Chemscore.Internal_Hbond>
0.0000

> <Gold.Chemscore.DEClash>
0.0727

> <Gold.Chemscore.DEInternal>
1.6347

> <Gold.Chemscore.Rot>
1.7237

> <Gold.Chemscore.Internal.Correction>
   9.000000E+99

> <Gold.Chemscore.Hbonds>
donor molecule, donor type, donor heavy atom, donor atom, acceptor molecule, acceptor atom, score
      L1  H     9    29       P1  8028  0.75
      P1  H  7989  7998       L1     8  0.07

> <Gold.Chemscore.Hbond.Weighted>
-6.4023

> <Gold.Chemscore.Metal.Weighted>
-0.0000

> <Gold.Chemscore.Lipo.Weighted>
-15.1593

> <Gold.Chemscore.Internal_Hbond.Weighted>
0.0000

> <Gold.Chemscore.DEClash.Weighted>
0.0727

> <Gold.Chemscore.DEInternal.Weighted>
1.6347

> <Gold.Chemscore.Rot.Weighted>
4.4126

> <Gold.Chemscore.Internal.Correction.Weighted>
   9.000000E+99

> <Gold.Protein.RotatedTorsions>
[ 6907 6896 6895 6894 ] final   53.89 input  -60.11 | X-H torsion
[ 7974 7965 7964 7962 ] final  169.50 input  175.53 | X-H torsion
[ 8008 7997 7996 7995 ] final  177.39 input   59.86 | X-H torsion
[ 10167 10162 10161 10158 ] final   13.29 input  -65.29 | X-H torsion
[ 10718 10713 10712 10709 ] final  155.39 input   66.30 | X-H torsion
[ 10763 10752 10751 10750 ] final -123.97 input  -60.55 | X-H torsion
[ 11005 11000 10999 10996 ] final  -93.54 input  -57.11 | X-H torsion

> <Gold.Protein.ActiveResidues>
 VAL166  LYS551  ARG553  GLY616  TRP617  ASP618  TYR619  PRO620  LYS621  CYS622 
 ASP623  PHE694  ASN695  SER759  ASP760  ASP761  ALA762  ILE779  LEU786  VAL792 
 PHE793  MET794  SER795  GLU796  ALA797  LYS798  CYS799  TRP800  GLU811  SER814 

> <Gold.Protein.RotatedAtoms>
  152.3384  134.7168  160.0270 H   0  0  0  0  0  0  0  0  0  0  0  0  # atno 6907 bound_to 6896
  151.7561  133.3325  159.3413 H   0  0  0  0  0  0  0  0  0  0  0  0  # atno 6908 bound_to 6896
  150.7464  134.6080  159.6116 H   0  0  0  0  0  0  0  0  0  0  0  0  # atno 6909 bound_to 6896
  144.7353  139.9063  143.6412 H   0  0  0  0  0  0  0  0  0  0  0  0  # atno 7974 bound_to 7965
  156.0661  140.1359  156.9884 H   0  0  0  0  0  0  0  0  0  0  0  0  # atno 8008 bound_to 7997
  154.4507  140.0981  156.6661 H   0  0  0  0  0  0  0  0  0  0  0  0  # atno 8009 bound_to 7997
  155.5301  140.3458  155.4426 H   0  0  0  0  0  0  0  0  0  0  0  0  # atno 8010 bound_to 7997
  140.6012  143.8600  150.6967 H   0  0  0  0  0  0  0  0  0  0  0  0  # atno 10167 bound_to 10162
  157.2190  131.0714  151.1923 H   0  0  0  0  0  0  0  0  0  0  0  0  # atno 10718 bound_to 10713
  154.8716  135.4080  154.3029 H   0  0  0  0  0  0  0  0  0  0  0  0  # atno 10763 bound_to 10752
  153.3886  135.7014  153.6517 H   0  0  0  0  0  0  0  0  0  0  0  0  # atno 10764 bound_to 10752
  153.5309  135.3667  155.2647 H   0  0  0  0  0  0  0  0  0  0  0  0  # atno 10765 bound_to 10752
  141.1494  133.7895  157.0174 H   0  0  0  0  0  0  0  0  0  0  0  0  # atno 11005 bound_to 11000
  146.1034  139.4031  143.0332 LP  0  0  0  0  0  0  0  0  0  0  0  0  # atno 17320 bound_to 7965
  145.7546  140.9959  143.1232 LP  0  0  0  0  0  0  0  0  0  0  0  0  # atno 17321 bound_to 7965
  140.2147  143.3856  152.1691 LP  0  0  0  0  0  0  0  0  0  0  0  0  # atno 17342 bound_to 10162
  139.5292  144.7140  151.5116 LP  0  0  0  0  0  0  0  0  0  0  0  0  # atno 17343 bound_to 10162
  157.3595  130.7124  149.6492 LP  0  0  0  0  0  0  0  0  0  0  0  0  # atno 17370 bound_to 10713
  155.9684  130.4229  150.4540 LP  0  0  0  0  0  0  0  0  0  0  0  0  # atno 17371 bound_to 10713
  140.0838  134.9633  157.1667 LP  0  0  0  0  0  0  0  0  0  0  0  0  # atno 17394 bound_to 11000
  140.3540  134.2567  155.7195 LP  0  0  0  0  0  0  0  0  0  0  0  0  # atno 17395 bound_to 11000

$$$$
