AV-unprocessed.smi:2724|AV-procd|sdf|10511|dock2
  -GOLD-   2272014553D 1   1.00000     0.00000
 Structure written by MMmdl.
 26 27  0  0  0  0  0  0  0  0  2 V2000
  151.6155  145.0511  160.9968 O   0  0  0  0  0  0  0  0  0  0  0  0
  151.9420  143.6856  161.1507 C   0  0  2  0  0  0  0  0  0  0  0  0
  152.7408  143.4490  162.4313 C   0  0  0  0  0  0  0  0  0  0  0  0
  153.4400  142.1124  162.1878 C   0  0  0  0  0  0  0  0  0  0  0  0
  153.7070  142.0521  160.6768 C   0  0  0  0  0  0  0  0  0  0  0  0
  152.8721  143.1797  160.0353 C   0  0  1  0  0  0  0  0  0  0  0  0
  152.1436  142.7522  158.7674 C   0  0  0  0  0  0  0  0  0  0  0  0
  152.1810  141.4130  158.3136 C   0  0  0  0  0  0  0  0  0  0  0  0
  151.4882  141.0580  157.1376 C   0  0  0  0  0  0  0  0  0  0  0  0
  150.7715  142.0495  156.4378 C   0  0  0  0  0  0  0  0  0  0  0  0
  150.7582  143.3194  156.8982 N   0  3  0  0  0  0  0  0  0  0  0  0
  151.4089  143.6990  158.0200 C   0  0  0  0  0  0  0  0  0  0  0  0
  150.9559  145.1311  160.3248 H   0  0  0  0  0  0  0  0  0  0  0  0
  151.0267  143.0944  161.1967 H   0  0  0  0  0  0  0  0  0  0  0  0
  153.4914  144.2315  162.5567 H   0  0  0  0  0  0  0  0  0  0  0  0
  152.1156  143.4415  163.3247 H   0  0  0  0  0  0  0  0  0  0  0  0
  154.3520  142.0096  162.7766 H   0  0  0  0  0  0  0  0  0  0  0  0
  152.7725  141.2977  162.4719 H   0  0  0  0  0  0  0  0  0  0  0  0
  154.7657  142.1934  160.4560 H   0  0  0  0  0  0  0  0  0  0  0  0
  153.4355  141.0656  160.2994 H   0  0  0  0  0  0  0  0  0  0  0  0
  153.5654  143.9845  159.7822 H   0  0  0  0  0  0  0  0  0  0  0  0
  152.7354  140.6626  158.8585 H   0  0  0  0  0  0  0  0  0  0  0  0
  151.5063  140.0394  156.7781 H   0  0  0  0  0  0  0  0  0  0  0  0
  150.2131  141.8670  155.5311 H   0  0  0  0  0  0  0  0  0  0  0  0
  151.3211  144.7432  158.2831 H   0  0  0  0  0  0  0  0  0  0  0  0
  150.2341  144.0224  156.3763 H   0  0  0  0  0  0  0  0  0  0  0  0
  1  2  1  0  0  0  0
  1 13  1  0  0  0  0
  2  6  1  0  0  0  0
  2  3  1  0  0  0  0
  2 14  1  0  0  0  0
  3  4  1  0  0  0  0
  3 15  1  0  0  0  0
  3 16  1  0  0  0  0
  4  5  1  0  0  0  0
  4 17  1  0  0  0  0
  4 18  1  0  0  0  0
  5  6  1  0  0  0  0
  5 19  1  0  0  0  0
  5 20  1  0  0  0  0
  6  7  1  0  0  0  0
  6 21  1  0  0  0  0
  7 12  1  0  0  0  0
  7  8  2  0  0  0  0
  8  9  1  0  0  0  0
  8 22  1  0  0  0  0
  9 10  2  0  0  0  0
  9 23  1  0  0  0  0
 10 11  1  0  0  0  0
 10 24  1  0  0  0  0
 11 12  2  0  0  0  0
 11 26  1  0  0  0  0
 12 25  1  0  0  0  0
M  CHG  1  11   1
M  END
> <s_m_source_file>
AV-unprocessed.smi

> <i_m_source_file_index>
2724

> <i_lp_mmshare_version>
43012

> <i_f3d_flags>
0

> <s_epik_input>
W09IXVtDQEBIXTFbQ0gyXVtDSDJdW0NIMl1bQ0BIXTFjMltjSF1bY0hdW2NIXW5bY0hdMg==

> <s_epik_cmdline>
J2VwaWtfcHl0aG9uJywgJy1waCcsICc3LjAnLCAnLXRuJywgJzgnLCAnLW1hJywgJzIwMCcsICctbWV0YWxfYmluZGluZycsICctaW1hZScsICc8aW5maWxlLm1hZT4nLCAnLW9tYWUnLCAnPG91dGZpbGUubWFlPic=

> <r_epik_Ionization_Penalty>
2.09455

> <r_epik_Ionization_Penalty_Charging>
2.09455

> <r_epik_Ionization_Penalty_Neutral>
5.26757e-08

> <r_epik_State_Penalty>
2.23025

> <r_epik_Charging_Adjusted_Penalty>
4.3248

> <i_epik_Tot_Q>
1

> <i_epik_Tot_abs_Q>
1

> <r_epik_Metal_State_Penalty>
6.30911

> <b_epik_Metal_Only>
0

> <s_lp_Force_Field>
OPLS_2005

> <r_lp_Energy>
27.5674

> <b_lp_Chiralities_Consistent>
1

> <s_lp_Variant>
AV-unprocessed.smi:2724-5

> <Gold.Version>
5.8.1

> <Gold.Id.Protein>
6NUR|6NUR_protein|mol2

> <Gold.PLP.Fitness>
41.8878

> <Gold.PLP.PLP>
-35.9430

> <Gold.PLP.part.hbond>
-2.0000

> <Gold.PLP.part.metal>
0.0000

> <Gold.PLP.part.buried>
-4.9554

> <Gold.PLP.part.nonpolar>
-29.3931

> <Gold.PLP.part.repulsive>
0.0320

> <Gold.PLP.ligand.clash>
0.0000

> <Gold.PLP.ligand.torsion>
0.0280

> <Gold.PLP.Chemscore.Hbond>
2.0000

> <Gold.PLP.Chemscore.CHOScore>
0.0000

> <Gold.PLP.Chemscore.Metal>
0.0000

> <Gold.Chemscore.Hbonds>
donor molecule, donor type, donor heavy atom, donor atom, acceptor molecule, acceptor atom, score
      L1  H    11    26       P1  8028  2.00

> <Gold.PLP.Chemscore.Internal.Correction>
0.0007

> <Gold.Rescore>
     Score         DG    S(hbond)    S(metal)    S(lipo)     H(rot)  DE(clash)    DE(int)     intcor
     17.36     -17.45       1.00        0.00     103.37       1.35       0.09       0.00       ----

> <Gold.Chemscore.Fitness>
17.3580

> <Gold.Chemscore.DG>
-17.4486

> <Gold.Chemscore.ZeroCoef>
-5.4800

> <Gold.Chemscore.Hbond>
0.9968

> <Gold.Chemscore.Metal>
0.0000

> <Gold.Chemscore.Lipo>
103.3698

> <Gold.Chemscore.Internal_Hbond>
0.0000

> <Gold.Chemscore.DEClash>
0.0879

> <Gold.Chemscore.DEInternal>
0.0028

> <Gold.Chemscore.Rot>
1.3496

> <Gold.Chemscore.Internal.Correction>
   9.000000E+99

> <Gold.Chemscore.Hbonds>
donor molecule, donor type, donor heavy atom, donor atom, acceptor molecule, acceptor atom, score
      L1  H    11    26       P1  8028  0.99

> <Gold.Chemscore.Hbond.Weighted>
-3.3294

> <Gold.Chemscore.Metal.Weighted>
-0.0000

> <Gold.Chemscore.Lipo.Weighted>
-12.0943

> <Gold.Chemscore.Internal_Hbond.Weighted>
0.0000

> <Gold.Chemscore.DEClash.Weighted>
0.0879

> <Gold.Chemscore.DEInternal.Weighted>
0.0028

> <Gold.Chemscore.Rot.Weighted>
3.4550

> <Gold.Chemscore.Internal.Correction.Weighted>
   9.000000E+99

> <Gold.Protein.RotatedTorsions>
[ 6907 6896 6895 6894 ] final -156.92 input  -60.11 | X-H torsion
[ 7974 7965 7964 7962 ] final   52.51 input  175.53 | X-H torsion
[ 8008 7997 7996 7995 ] final   90.79 input   59.86 | X-H torsion
[ 10167 10162 10161 10158 ] final    4.47 input  -65.29 | X-H torsion
[ 10718 10713 10712 10709 ] final  103.52 input   66.30 | X-H torsion
[ 10763 10752 10751 10750 ] final  -92.70 input  -60.55 | X-H torsion
[ 11005 11000 10999 10996 ] final   -7.34 input  -57.11 | X-H torsion

> <Gold.Protein.ActiveResidues>
 VAL166  LYS551  ARG553  GLY616  TRP617  ASP618  TYR619  PRO620  LYS621  CYS622 
 ASP623  PHE694  ASN695  SER759  ASP760  ASP761  ALA762  ILE779  LEU786  VAL792 
 PHE793  MET794  SER795  GLU796  ALA797  LYS798  CYS799  TRP800  GLU811  SER814 

> <Gold.Protein.RotatedAtoms>
  151.2950  133.4148  159.2635 H   0  0  0  0  0  0  0  0  0  0  0  0  # atno 6907 bound_to 6896
  151.0245  134.9494  159.8088 H   0  0  0  0  0  0  0  0  0  0  0  0  # atno 6908 bound_to 6896
  152.5332  134.2912  159.9096 H   0  0  0  0  0  0  0  0  0  0  0  0  # atno 6909 bound_to 6896
  145.9806  139.4239  143.0134 H   0  0  0  0  0  0  0  0  0  0  0  0  # atno 7974 bound_to 7965
  156.0161  140.3345  155.6990 H   0  0  0  0  0  0  0  0  0  0  0  0  # atno 8008 bound_to 7997
  155.6089  140.0663  157.2729 H   0  0  0  0  0  0  0  0  0  0  0  0  # atno 8009 bound_to 7997
  154.4299  140.1797  156.1239 H   0  0  0  0  0  0  0  0  0  0  0  0  # atno 8010 bound_to 7997
  140.6533  143.7491  150.7611 H   0  0  0  0  0  0  0  0  0  0  0  0  # atno 10167 bound_to 10162
  157.6770  131.0781  150.5568 H   0  0  0  0  0  0  0  0  0  0  0  0  # atno 10718 bound_to 10713
  154.6887  135.5221  153.8362 H   0  0  0  0  0  0  0  0  0  0  0  0  # atno 10763 bound_to 10752
  153.0616  135.6570  154.0459 H   0  0  0  0  0  0  0  0  0  0  0  0  # atno 10764 bound_to 10752
  154.0336  135.2983  155.3345 H   0  0  0  0  0  0  0  0  0  0  0  0  # atno 10765 bound_to 10752
  140.7117  133.8903  155.8756 H   0  0  0  0  0  0  0  0  0  0  0  0  # atno 11005 bound_to 11000
  145.7775  140.9871  143.1117 LP  0  0  0  0  0  0  0  0  0  0  0  0  # atno 17320 bound_to 7965
  144.6860  139.9523  143.7478 LP  0  0  0  0  0  0  0  0  0  0  0  0  # atno 17321 bound_to 7965
  140.1146  143.4668  152.2350 LP  0  0  0  0  0  0  0  0  0  0  0  0  # atno 17342 bound_to 10162
  139.5751  144.7483  151.3786 LP  0  0  0  0  0  0  0  0  0  0  0  0  # atno 17343 bound_to 10162
  156.5872  130.4319  149.5952 LP  0  0  0  0  0  0  0  0  0  0  0  0  # atno 17370 bound_to 10713
  156.2613  130.6964  151.1733 LP  0  0  0  0  0  0  0  0  0  0  0  0  # atno 17371 bound_to 10713
  141.0078  134.1061  157.4252 LP  0  0  0  0  0  0  0  0  0  0  0  0  # atno 17394 bound_to 11000
  139.8870  135.0086  156.6533 LP  0  0  0  0  0  0  0  0  0  0  0  0  # atno 17395 bound_to 11000

$$$$
