AV-unprocessed.smi:765|AV-procd|sdf|3646|dock6
  -GOLD-   22720 1 53D 1   1.00000     0.00000
 Structure written by MMmdl.
 39 40  0  0  0  0  0  0  0  0  1 V2000
  151.4629  141.2965  157.3402 C   0  0  0  0  0  0  0  0  0  0  0  0
  150.7416  140.0716  156.7603 C   0  0  1  0  0  0  0  0  0  0  0  0
  150.5502  140.2016  155.2382 C   0  0  0  0  0  0  0  0  0  0  0  0
  149.8576  138.9663  154.6454 C   0  0  0  0  0  0  0  0  0  0  0  0
  150.6272  137.6816  154.9975 C   0  0  0  0  0  0  0  0  0  0  0  0
  150.8113  137.5023  156.5251 C   0  0  2  0  0  0  0  0  0  0  0  0
  151.6780  136.3391  156.7928 C   0  0  0  0  0  0  0  0  0  0  0  0
  152.3592  135.4276  157.0026 N   0  0  0  0  0  0  0  0  0  0  0  0
  149.5139  137.3415  157.1870 N   0  0  0  0  0  0  0  0  0  0  0  0
  149.2847  136.9183  158.4411 C   0  0  0  0  0  0  0  0  0  0  0  0
  150.1806  136.6901  159.2541 O   0  0  0  0  0  0  0  0  0  0  0  0
  147.8094  136.6931  158.8054 C   0  0  2  0  0  0  0  0  0  0  0  0
  146.9300  137.9365  158.5736 C   0  0  0  0  0  0  0  0  0  0  0  0
  147.7090  136.2267  160.1830 N   0  0  0  0  0  0  0  0  0  0  0  0
  147.3571  134.9748  160.6500 C   0  0  0  0  0  0  0  0  0  0  0  0
  147.3701  135.0278  162.0140 C   0  0  0  0  0  0  0  0  0  0  0  0
  147.7458  136.3706  162.2955 C   0  0  0  0  0  0  0  0  0  0  0  0
  147.9442  137.0855  161.1998 N   0  0  0  0  0  0  0  0  0  0  0  0
  151.4917  138.7650  157.1013 C   0  0  0  0  0  0  0  0  0  0  0  0
  152.4653  141.4011  156.9235 H   0  0  0  0  0  0  0  0  0  0  0  0
  151.5596  141.2187  158.4235 H   0  0  0  0  0  0  0  0  0  0  0  0
  150.9155  142.2142  157.1239 H   0  0  0  0  0  0  0  0  0  0  0  0
  149.7532  140.0322  157.2202 H   0  0  0  0  0  0  0  0  0  0  0  0
  149.9635  141.0925  155.0105 H   0  0  0  0  0  0  0  0  0  0  0  0
  151.5186  140.3393  154.7557 H   0  0  0  0  0  0  0  0  0  0  0  0
  148.8342  138.9033  155.0167 H   0  0  0  0  0  0  0  0  0  0  0  0
  149.7836  139.0683  153.5625 H   0  0  0  0  0  0  0  0  0  0  0  0
  150.1210  136.8190  154.5634 H   0  0  0  0  0  0  0  0  0  0  0  0
  151.6077  137.7170  154.5206 H   0  0  0  0  0  0  0  0  0  0  0  0
  148.7032  137.5059  156.6077 H   0  0  0  0  0  0  0  0  0  0  0  0
  147.4363  135.9028  158.1509 H   0  0  0  0  0  0  0  0  0  0  0  0
  146.9698  138.2595  157.5326 H   0  0  0  0  0  0  0  0  0  0  0  0
  147.2414  138.7767  159.1954 H   0  0  0  0  0  0  0  0  0  0  0  0
  145.8869  137.7224  158.8082 H   0  0  0  0  0  0  0  0  0  0  0  0
  147.1229  134.1614  159.9788 H   0  0  0  0  0  0  0  0  0  0  0  0
  147.1435  134.2297  162.7051 H   0  0  0  0  0  0  0  0  0  0  0  0
  147.8763  136.8446  163.2571 H   0  0  0  0  0  0  0  0  0  0  0  0
  152.5100  138.8290  156.7143 H   0  0  0  0  0  0  0  0  0  0  0  0
  151.5894  138.6681  158.1837 H   0  0  0  0  0  0  0  0  0  0  0  0
  1  2  1  0  0  0  0
  1 20  1  0  0  0  0
  1 21  1  0  0  0  0
  1 22  1  0  0  0  0
  2 19  1  0  0  0  0
  2  3  1  0  0  0  0
  2 23  1  0  0  0  0
  3  4  1  0  0  0  0
  3 24  1  0  0  0  0
  3 25  1  0  0  0  0
  4  5  1  0  0  0  0
  4 26  1  0  0  0  0
  4 27  1  0  0  0  0
  5  6  1  0  0  0  0
  5 28  1  0  0  0  0
  5 29  1  0  0  0  0
  6  7  1  0  0  0  0
  6  9  1  0  0  0  0
  6 19  1  0  0  0  0
  7  8  3  0  0  0  0
  9 10  1  0  0  0  0
  9 30  1  0  0  0  0
 10 11  2  0  0  0  0
 10 12  1  0  0  0  0
 12 13  1  0  0  0  0
 12 14  1  0  0  0  0
 12 31  1  0  0  0  0
 13 32  1  0  0  0  0
 13 33  1  0  0  0  0
 13 34  1  0  0  0  0
 14 18  1  0  0  0  0
 14 15  1  0  0  0  0
 15 16  2  0  0  0  0
 15 35  1  0  0  0  0
 16 17  1  0  0  0  0
 16 36  1  0  0  0  0
 17 18  2  0  0  0  0
 17 37  1  0  0  0  0
 19 38  1  0  0  0  0
 19 39  1  0  0  0  0
M  END
> <s_m_source_file>
AV-unprocessed.smi

> <i_m_source_file_index>
765

> <i_lp_mmshare_version>
43012

> <i_f3d_flags>
0

> <s_epik_input>
W0NIM11bQ0BASF0oW0NIMl0xKVtDSDJdW0NIMl1bQ0gyXVtDQEBdMShDI04pW05IXUMoPU8pW0NASF0oW0NIM10pbjJbY0hdW2NIXVtjSF1uMg==

> <s_epik_cmdline>
J2VwaWtfcHl0aG9uJywgJy1waCcsICc3LjAnLCAnLXRuJywgJzgnLCAnLW1hJywgJzIwMCcsICctbWV0YWxfYmluZGluZycsICctaW1hZScsICc8aW5maWxlLm1hZT4nLCAnLW9tYWUnLCAnPG91dGZpbGUubWFlPic=

> <r_lp_tautomer_probability>
1

> <r_epik_Ionization_Penalty>
2.71142e-05

> <r_epik_Ionization_Penalty_Charging>
0

> <r_epik_Ionization_Penalty_Neutral>
2.71142e-05

> <r_epik_State_Penalty>
-0

> <r_epik_Charging_Adjusted_Penalty>
0

> <i_epik_Tot_Q>
0

> <i_epik_Tot_abs_Q>
0

> <r_epik_Metal_State_Penalty>
-0

> <b_epik_Metal_Only>
0

> <s_lp_Force_Field>
OPLS_2005

> <r_lp_Energy>
10.6921

> <b_lp_Chiralities_Consistent>
1

> <s_lp_Variant>
AV-unprocessed.smi:765-4

> <Gold.Version>
5.8.1

> <Gold.Id.Protein>
6NUR|6NUR_protein|mol2

> <Gold.PLP.Fitness>
39.6841

> <Gold.PLP.PLP>
-30.4695

> <Gold.PLP.part.hbond>
-4.3280

> <Gold.PLP.part.metal>
0.0000

> <Gold.PLP.part.buried>
-3.6847

> <Gold.PLP.part.nonpolar>
-22.6360

> <Gold.PLP.part.repulsive>
0.0209

> <Gold.PLP.ligand.clash>
0.0000

> <Gold.PLP.ligand.torsion>
0.4406

> <Gold.PLP.Chemscore.Hbond>
3.3416

> <Gold.PLP.Chemscore.CHOScore>
0.0000

> <Gold.PLP.Chemscore.Metal>
0.0000

> <Gold.Chemscore.Hbonds>
donor molecule, donor type, donor heavy atom, donor atom, acceptor molecule, acceptor atom, score
      P1  H  6896  6909       L1    11  1.00
      P1  H  6931  6943       L1    18  0.85
      P1  H  6934  6947       L1    18  0.64
      P1  H 10752 10763       L1     8  0.94

> <Gold.PLP.Chemscore.Internal.Correction>
0.0710

> <Gold.Rescore>
     Score         DG    S(hbond)    S(metal)    S(lipo)     H(rot)  DE(clash)    DE(int)     intcor
     14.81     -16.75       2.17        0.00      65.39       1.42       0.00       1.94       ----

> <Gold.Chemscore.Fitness>
14.8056

> <Gold.Chemscore.DG>
-16.7532

> <Gold.Chemscore.ZeroCoef>
-5.4800

> <Gold.Chemscore.Hbond>
2.1717

> <Gold.Chemscore.Metal>
0.0000

> <Gold.Chemscore.Lipo>
65.3889

> <Gold.Chemscore.Internal_Hbond>
0.0000

> <Gold.Chemscore.DEClash>
0.0048

> <Gold.Chemscore.DEInternal>
1.9428

> <Gold.Chemscore.Rot>
1.4183

> <Gold.Chemscore.Internal.Correction>
   9.000000E+99

> <Gold.Chemscore.Hbonds>
donor molecule, donor type, donor heavy atom, donor atom, acceptor molecule, acceptor atom, score
      P1  H  6896  6909       L1    11  0.95
      P1  H  6931  6943       L1    18  0.14
      P1  H  6934  6947       L1    18  0.57
      P1  H 10752 10763       L1     8  0.40

> <Gold.Chemscore.Hbond.Weighted>
-7.2536

> <Gold.Chemscore.Metal.Weighted>
-0.0000

> <Gold.Chemscore.Lipo.Weighted>
-7.6505

> <Gold.Chemscore.Internal_Hbond.Weighted>
0.0000

> <Gold.Chemscore.DEClash.Weighted>
0.0048

> <Gold.Chemscore.DEInternal.Weighted>
1.9428

> <Gold.Chemscore.Rot.Weighted>
3.6309

> <Gold.Chemscore.Internal.Correction.Weighted>
   9.000000E+99

> <Gold.Protein.RotatedTorsions>
[ 6907 6896 6895 6894 ] final  100.72 input  -60.11 | X-H torsion
[ 7974 7965 7964 7962 ] final  131.97 input  175.53 | X-H torsion
[ 8008 7997 7996 7995 ] final   25.37 input   59.86 | X-H torsion
[ 10167 10162 10161 10158 ] final   17.51 input  -65.29 | X-H torsion
[ 10718 10713 10712 10709 ] final  101.55 input   66.30 | X-H torsion
[ 10763 10752 10751 10750 ] final  122.78 input  -60.55 | X-H torsion
[ 11005 11000 10999 10996 ] final -145.46 input  -57.11 | X-H torsion

> <Gold.Protein.ActiveResidues>
 VAL166  LYS551  ARG553  GLY616  TRP617  ASP618  TYR619  PRO620  LYS621  CYS622 
 ASP623  PHE694  ASN695  SER759  ASP760  ASP761  ALA762  ILE779  LEU786  VAL792 
 PHE793  MET794  SER795  GLU796  ALA797  LYS798  CYS799  TRP800  GLU811  SER814 

> <Gold.Protein.RotatedAtoms>
  152.5366  134.0234  159.7991 H   0  0  0  0  0  0  0  0  0  0  0  0  # atno 6907 bound_to 6896
  151.0416  133.5693  159.2658 H   0  0  0  0  0  0  0  0  0  0  0  0  # atno 6908 bound_to 6896
  151.2661  135.0677  159.9170 H   0  0  0  0  0  0  0  0  0  0  0  0  # atno 6909 bound_to 6896
  145.0018  139.4305  143.5288 H   0  0  0  0  0  0  0  0  0  0  0  0  # atno 7974 bound_to 7965
  155.0107  140.3136  155.4831 H   0  0  0  0  0  0  0  0  0  0  0  0  # atno 8008 bound_to 7997
  156.2909  140.2215  156.5163 H   0  0  0  0  0  0  0  0  0  0  0  0  # atno 8009 bound_to 7997
  154.7537  140.0464  157.0903 H   0  0  0  0  0  0  0  0  0  0  0  0  # atno 8010 bound_to 7997
  140.5721  143.9142  150.6721 H   0  0  0  0  0  0  0  0  0  0  0  0  # atno 10167 bound_to 10162
  157.6826  131.0729  150.5269 H   0  0  0  0  0  0  0  0  0  0  0  0  # atno 10718 bound_to 10713
  153.6352  135.3389  155.3054 H   0  0  0  0  0  0  0  0  0  0  0  0  # atno 10763 bound_to 10752
  154.8571  135.4305  154.2063 H   0  0  0  0  0  0  0  0  0  0  0  0  # atno 10764 bound_to 10752
  153.2968  135.7021  153.7314 H   0  0  0  0  0  0  0  0  0  0  0  0  # atno 10765 bound_to 10752
  140.7920  134.2957  157.5010 H   0  0  0  0  0  0  0  0  0  0  0  0  # atno 11005 bound_to 11000
  146.3453  139.9410  142.8741 LP  0  0  0  0  0  0  0  0  0  0  0  0  # atno 17320 bound_to 7965
  145.2143  140.9909  143.4082 LP  0  0  0  0  0  0  0  0  0  0  0  0  # atno 17321 bound_to 7965
  140.2620  143.3517  152.1314 LP  0  0  0  0  0  0  0  0  0  0  0  0  # atno 17342 bound_to 10162
  139.5123  144.6914  151.5749 LP  0  0  0  0  0  0  0  0  0  0  0  0  # atno 17343 bound_to 10162
  156.5580  130.4248  149.6076 LP  0  0  0  0  0  0  0  0  0  0  0  0  # atno 17370 bound_to 10713
  156.2845  130.7089  151.1922 LP  0  0  0  0  0  0  0  0  0  0  0  0  # atno 17371 bound_to 10713
  139.8730  134.9380  156.3702 LP  0  0  0  0  0  0  0  0  0  0  0  0  # atno 17394 bound_to 11000
  140.9380  133.7534  156.0110 LP  0  0  0  0  0  0  0  0  0  0  0  0  # atno 17395 bound_to 11000

$$$$
