AV-unprocessed.smi:2886|AV-procd|sdf|11088|dock6
  -GOLD-   2272015563D 1   1.00000     0.00000
 Structure written by MMmdl.
 28 30  0  0  0  0  0  0  0  0  1 V2000
  140.4871  135.7917  159.1076 O   0  0  0  0  0  0  0  0  0  0  0  0
  141.4107  136.4106  159.6322 C   0  0  0  0  0  0  0  0  0  0  0  0
  141.2010  137.5847  160.2726 N   0  0  0  0  0  0  0  0  0  0  0  0
  142.1520  138.3648  160.8842 N   0  0  0  0  0  0  0  0  0  0  0  0
  143.3765  137.9618  160.8720 C   0  0  0  0  0  0  0  0  0  0  0  0
  143.7923  136.7125  160.2429 C   0  0  0  0  0  0  0  0  0  0  0  0
  145.1120  136.2797  160.2299 N   0  0  0  0  0  0  0  0  0  0  0  0
  146.2875  136.9260  160.7979 C   0  0  1  0  0  0  0  0  0  0  0  0
  146.1752  137.1578  162.3052 C   0  0  0  0  0  0  0  0  0  0  0  0
  147.4615  136.4926  162.8165 C   0  0  1  0  0  0  0  0  0  0  0  0
  147.3527  134.9626  162.7885 C   0  0  0  0  0  0  0  0  0  0  0  0
  147.4353  134.6725  161.2909 C   0  0  0  0  0  0  0  0  0  0  0  0
  147.5724  136.0858  160.6997 C   0  0  2  0  0  0  0  0  0  0  0  0
  148.3357  136.7079  161.7200 O   0  0  0  0  0  0  0  0  0  0  0  0
  142.8158  135.9803  159.6382 C   0  0  0  0  0  0  0  0  0  0  0  0
  143.1989  134.4880  158.8469 Cl  0  0  0  0  0  0  0  0  0  0  0  0
  140.2644  137.9593  160.3213 H   0  0  0  0  0  0  0  0  0  0  0  0
  144.1656  138.5526  161.3357 H   0  0  0  0  0  0  0  0  0  0  0  0
  145.2702  135.3361  159.9053 H   0  0  0  0  0  0  0  0  0  0  0  0
  146.4503  137.8929  160.3218 H   0  0  0  0  0  0  0  0  0  0  0  0
  146.1727  138.2255  162.5254 H   0  0  0  0  0  0  0  0  0  0  0  0
  145.2824  136.7178  162.7522 H   0  0  0  0  0  0  0  0  0  0  0  0
  147.8206  136.8930  163.7650 H   0  0  0  0  0  0  0  0  0  0  0  0
  148.1915  134.5035  163.3131 H   0  0  0  0  0  0  0  0  0  0  0  0
  146.4279  134.6026  163.2404 H   0  0  0  0  0  0  0  0  0  0  0  0
  148.3223  134.0780  161.0698 H   0  0  0  0  0  0  0  0  0  0  0  0
  146.5671  134.1323  160.9129 H   0  0  0  0  0  0  0  0  0  0  0  0
  148.0380  136.1086  159.7140 H   0  0  0  0  0  0  0  0  0  0  0  0
  1  2  2  0  0  0  0
  2 15  1  0  0  0  0
  2  3  1  0  0  0  0
  3 17  1  0  0  0  0
  3  4  1  0  0  0  0
  4  5  2  0  0  0  0
  5  6  1  0  0  0  0
  5 18  1  0  0  0  0
  6  7  1  0  0  0  0
  6 15  2  0  0  0  0
  7  8  1  0  0  0  0
  7 19  1  0  0  0  0
  8 13  1  0  0  0  0
  8  9  1  0  0  0  0
  8 20  1  0  0  0  0
  9 10  1  0  0  0  0
  9 21  1  0  0  0  0
  9 22  1  0  0  0  0
 10 14  1  0  0  0  0
 10 11  1  0  0  0  0
 10 23  1  0  0  0  0
 11 12  1  0  0  0  0
 11 24  1  0  0  0  0
 11 25  1  0  0  0  0
 12 13  1  0  0  0  0
 12 26  1  0  0  0  0
 12 27  1  0  0  0  0
 13 14  1  0  0  0  0
 13 28  1  0  0  0  0
 15 16  1  0  0  0  0
M  END
> <s_m_source_file>
AV-unprocessed.smi

> <i_m_source_file_index>
2886

> <i_lp_mmshare_version>
43012

> <i_f3d_flags>
0

> <s_epik_input>
Tz1jMVtuSF1uW2NIXWMoYzFDbClbTkhdW0NASF0oW0NIMl1bQ0BASF0yMylbQ0BASF0oTzMpW0NIMl1bQ0gyXTI=

> <s_epik_cmdline>
J2VwaWtfcHl0aG9uJywgJy1waCcsICc3LjAnLCAnLXRuJywgJzgnLCAnLW1hJywgJzIwMCcsICctbWV0YWxfYmluZGluZycsICctaW1hZScsICc8aW5maWxlLm1hZT4nLCAnLW9tYWUnLCAnPG91dGZpbGUubWFlPic=

> <r_lp_tautomer_probability>
0.986175

> <r_epik_Ionization_Penalty>
0.000975594

> <r_epik_Ionization_Penalty_Charging>
0.000940184

> <r_epik_Ionization_Penalty_Neutral>
3.54099e-05

> <r_epik_State_Penalty>
0.00620319

> <r_epik_Charging_Adjusted_Penalty>
0.00714337

> <i_epik_Tot_Q>
0

> <i_epik_Tot_abs_Q>
0

> <r_epik_Metal_State_Penalty>
0.287699

> <b_epik_Metal_Only>
0

> <s_lp_Force_Field>
OPLS_2005

> <r_lp_Energy>
55.2825

> <b_lp_Chiralities_Consistent>
1

> <s_lp_Variant>
AV-unprocessed.smi:2886-2

> <Gold.Version>
5.8.1

> <Gold.Id.Protein>
6NUR|6NUR_protein|mol2

> <Gold.PLP.Fitness>
28.5657

> <Gold.PLP.PLP>
-22.5853

> <Gold.PLP.part.hbond>
-2.9336

> <Gold.PLP.part.metal>
0.0000

> <Gold.PLP.part.buried>
-3.6210

> <Gold.PLP.part.nonpolar>
-16.2901

> <Gold.PLP.part.repulsive>
0.0643

> <Gold.PLP.ligand.clash>
0.0000

> <Gold.PLP.ligand.torsion>
0.0143

> <Gold.PLP.Chemscore.Hbond>
2.0000

> <Gold.PLP.Chemscore.CHOScore>
0.0000

> <Gold.PLP.Chemscore.Metal>
0.0000

> <Gold.Chemscore.Hbonds>
donor molecule, donor type, donor heavy atom, donor atom, acceptor molecule, acceptor atom, score
      P1  H  6931  6943       L1    14  1.00
      P1  H 11000 11005       L1     1  1.00

> <Gold.PLP.Chemscore.Internal.Correction>
0.0090

> <Gold.Rescore>
     Score         DG    S(hbond)    S(metal)    S(lipo)     H(rot)  DE(clash)    DE(int)     intcor
     15.78     -15.79       1.99        0.00      53.33       1.00       0.01       0.01       ----

> <Gold.Chemscore.Fitness>
15.7836

> <Gold.Chemscore.DG>
-15.7944

> <Gold.Chemscore.ZeroCoef>
-5.4800

> <Gold.Chemscore.Hbond>
1.9864

> <Gold.Chemscore.Metal>
0.0000

> <Gold.Chemscore.Lipo>
53.3326

> <Gold.Chemscore.Internal_Hbond>
0.0000

> <Gold.Chemscore.DEClash>
0.0053

> <Gold.Chemscore.DEInternal>
0.0056

> <Gold.Chemscore.Rot>
1.0000

> <Gold.Chemscore.Internal.Correction>
   9.000000E+99

> <Gold.Chemscore.Hbonds>
donor molecule, donor type, donor heavy atom, donor atom, acceptor molecule, acceptor atom, score
      P1  H  6931  6943       L1    14  0.65
      P1  H 11000 11005       L1     1  1.00

> <Gold.Chemscore.Hbond.Weighted>
-6.6345

> <Gold.Chemscore.Metal.Weighted>
-0.0000

> <Gold.Chemscore.Lipo.Weighted>
-6.2399

> <Gold.Chemscore.Internal_Hbond.Weighted>
0.0000

> <Gold.Chemscore.DEClash.Weighted>
0.0053

> <Gold.Chemscore.DEInternal.Weighted>
0.0056

> <Gold.Chemscore.Rot.Weighted>
2.5600

> <Gold.Chemscore.Internal.Correction.Weighted>
   9.000000E+99

> <Gold.Protein.RotatedTorsions>
[ 6907 6896 6895 6894 ] final  -79.17 input  -60.11 | X-H torsion
[ 7974 7965 7964 7962 ] final   14.84 input  175.53 | X-H torsion
[ 8008 7997 7996 7995 ] final   93.43 input   59.86 | X-H torsion
[ 10167 10162 10161 10158 ] final  170.25 input  -65.29 | X-H torsion
[ 10718 10713 10712 10709 ] final  -21.67 input   66.30 | X-H torsion
[ 10763 10752 10751 10750 ] final   26.82 input  -60.55 | X-H torsion
[ 11005 11000 10999 10996 ] final -179.60 input  -57.11 | X-H torsion

> <Gold.Protein.ActiveResidues>
 VAL166  LYS551  ARG553  GLY616  TRP617  ASP618  TYR619  PRO620  LYS621  CYS622 
 ASP623  PHE694  ASN695  SER759  ASP760  ASP761  ALA762  ILE779  LEU786  VAL792 
 PHE793  MET794  SER795  GLU796  ALA797  LYS798  CYS799  TRP800  GLU811  SER814 

> <Gold.Protein.RotatedAtoms>
  150.6955  134.4161  159.5183 H   0  0  0  0  0  0  0  0  0  0  0  0  # atno 6907 bound_to 6896
  152.1911  134.8668  160.0526 H   0  0  0  0  0  0  0  0  0  0  0  0  # atno 6908 bound_to 6896
  151.9623  133.3664  159.4077 H   0  0  0  0  0  0  0  0  0  0  0  0  # atno 6909 bound_to 6896
  146.2294  139.8982  142.8543 H   0  0  0  0  0  0  0  0  0  0  0  0  # atno 7974 bound_to 7965
  156.0466  140.3313  155.7304 H   0  0  0  0  0  0  0  0  0  0  0  0  # atno 8008 bound_to 7997
  155.5664  140.0624  157.2834 H   0  0  0  0  0  0  0  0  0  0  0  0  # atno 8009 bound_to 7997
  154.4417  140.1868  156.0823 H   0  0  0  0  0  0  0  0  0  0  0  0  # atno 8010 bound_to 7997
  139.5013  144.3617  151.9818 H   0  0  0  0  0  0  0  0  0  0  0  0  # atno 10167 bound_to 10162
  156.5150  130.4619  149.6627 H   0  0  0  0  0  0  0  0  0  0  0  0  # atno 10718 bound_to 10713
  153.0597  135.6551  154.0492 H   0  0  0  0  0  0  0  0  0  0  0  0  # atno 10763 bound_to 10752
  154.0163  135.2924  155.3388 H   0  0  0  0  0  0  0  0  0  0  0  0  # atno 10764 bound_to 10752
  154.6929  135.5275  153.8486 H   0  0  0  0  0  0  0  0  0  0  0  0  # atno 10765 bound_to 10752
  140.4168  134.6642  157.4643 H   0  0  0  0  0  0  0  0  0  0  0  0  # atno 11005 bound_to 11000
  145.2349  140.9987  143.3969 LP  0  0  0  0  0  0  0  0  0  0  0  0  # atno 17320 bound_to 7965
  144.9499  139.4094  143.6407 LP  0  0  0  0  0  0  0  0  0  0  0  0  # atno 17321 bound_to 7965
  140.3053  144.3600  150.6048 LP  0  0  0  0  0  0  0  0  0  0  0  0  # atno 17342 bound_to 10162
  140.5841  143.2171  151.7374 LP  0  0  0  0  0  0  0  0  0  0  0  0  # atno 17343 bound_to 10162
  156.3204  130.7277  151.2188 LP  0  0  0  0  0  0  0  0  0  0  0  0  # atno 17370 bound_to 10713
  157.7445  131.0457  150.4857 LP  0  0  0  0  0  0  0  0  0  0  0  0  # atno 17371 bound_to 10713
  140.0228  134.6521  155.9215 LP  0  0  0  0  0  0  0  0  0  0  0  0  # atno 17394 bound_to 11000
  141.1800  133.6545  156.4980 LP  0  0  0  0  0  0  0  0  0  0  0  0  # atno 17395 bound_to 11000

$$$$
