AV-unprocessed.smi:50|AV-procd|sdf|497|dock10
  -GOLD-   2262016373D 1   1.00000     0.00000
 Structure written by MMmdl.
 42 43  0  0  0  0  0  0  0  0  2 V2000
  143.8405  135.4224  150.3556 C   0  0  0  0  0  0  0  0  0  0  0  0
  145.0472  135.7802  151.2406 C   0  0  0  0  0  0  0  0  0  0  0  0
  145.8736  134.5173  151.5541 C   0  0  0  0  0  0  0  0  0  0  0  0
  144.6267  136.6073  152.4876 C   0  0  2  0  0  0  0  0  0  0  0  0
  143.6944  137.6725  152.1154 N   0  0  0  0  0  0  0  0  0  0  0  0
  145.8077  137.1180  153.3361 C   0  0  0  0  0  0  0  0  0  0  0  0
  146.6192  136.3726  153.8856 O   0  0  0  0  0  0  0  0  0  0  0  0
  145.8398  138.4637  153.3811 O   0  0  0  0  0  0  0  0  0  0  0  0
  147.0829  139.1341  153.5048 C   0  0  0  0  0  0  0  0  0  0  0  0
  146.8439  140.6457  153.5221 C   0  0  0  0  0  0  0  0  0  0  0  0
  147.5469  141.2039  154.6191 O   0  0  0  0  0  0  0  0  0  0  0  0
  148.8818  141.4550  154.3323 C   0  0  0  0  0  0  0  0  0  0  0  0
  149.6392  141.2664  155.5534 N   0  0  0  0  0  0  0  0  0  0  0  0
  149.4162  141.8488  156.7474 C   0  0  0  0  0  0  0  0  0  0  0  0
  150.2622  141.5041  157.7175 N   0  0  0  0  0  0  0  0  0  0  0  0
  151.1062  140.6130  157.0638 C   0  0  0  0  0  0  0  0  0  0  0  0
  152.2813  139.8402  157.5342 C   0  0  0  0  0  0  0  0  0  0  0  0
  152.6424  139.9527  158.7042 O   0  0  0  0  0  0  0  0  0  0  0  0
  152.8773  139.0455  156.5937 N   0  5  0  0  0  0  0  0  0  0  0  0
  152.3798  139.0005  155.2835 C   0  0  0  0  0  0  0  0  0  0  0  0
  153.1000  138.1551  154.4681 N   0  0  0  0  0  0  0  0  0  0  0  0
  151.3518  139.6540  154.7997 N   0  0  0  0  0  0  0  0  0  0  0  0
  150.7481  140.4534  155.7525 C   0  0  0  0  0  0  0  0  0  0  0  0
  144.0584  135.9289  153.1247 H   0  0  0  0  0  0  0  0  0  0  0  0
  143.1614  134.7330  150.8581 H   0  0  0  0  0  0  0  0  0  0  0  0
  144.1632  134.9482  149.4284 H   0  0  0  0  0  0  0  0  0  0  0  0
  143.2718  136.3127  150.0864 H   0  0  0  0  0  0  0  0  0  0  0  0
  145.6838  136.4282  150.6359 H   0  0  0  0  0  0  0  0  0  0  0  0
  145.2797  133.7579  152.0626 H   0  0  0  0  0  0  0  0  0  0  0  0
  146.7338  134.7482  152.1830 H   0  0  0  0  0  0  0  0  0  0  0  0
  146.2549  134.0679  150.6368 H   0  0  0  0  0  0  0  0  0  0  0  0
  143.9692  138.1225  151.2541 H   0  0  0  0  0  0  0  0  0  0  0  0
  142.7627  137.3126  151.9646 H   0  0  0  0  0  0  0  0  0  0  0  0
  147.5834  138.8247  154.4233 H   0  0  0  0  0  0  0  0  0  0  0  0
  147.7302  138.8658  152.6688 H   0  0  0  0  0  0  0  0  0  0  0  0
  147.1921  141.0907  152.5885 H   0  0  0  0  0  0  0  0  0  0  0  0
  145.7763  140.8531  153.6119 H   0  0  0  0  0  0  0  0  0  0  0  0
  149.2536  140.7614  153.5763 H   0  0  0  0  0  0  0  0  0  0  0  0
  149.0189  142.4805  153.9857 H   0  0  0  0  0  0  0  0  0  0  0  0
  148.6086  142.5471  156.9100 H   0  0  0  0  0  0  0  0  0  0  0  0
  153.8997  137.6255  154.7816 H   0  0  0  0  0  0  0  0  0  0  0  0
  152.8756  138.0048  153.4955 H   0  0  0  0  0  0  0  0  0  0  0  0
  1  2  1  0  0  0  0
  1 25  1  0  0  0  0
  1 26  1  0  0  0  0
  1 27  1  0  0  0  0
  2  3  1  0  0  0  0
  2  4  1  0  0  0  0
  2 28  1  0  0  0  0
  3 29  1  0  0  0  0
  3 30  1  0  0  0  0
  3 31  1  0  0  0  0
  4 24  1  0  0  0  0
  4  5  1  0  0  0  0
  4  6  1  0  0  0  0
  5 32  1  0  0  0  0
  5 33  1  0  0  0  0
  6  7  2  0  0  0  0
  6  8  1  0  0  0  0
  8  9  1  0  0  0  0
  9 10  1  0  0  0  0
  9 34  1  0  0  0  0
  9 35  1  0  0  0  0
 10 11  1  0  0  0  0
 10 36  1  0  0  0  0
 10 37  1  0  0  0  0
 11 12  1  0  0  0  0
 12 13  1  0  0  0  0
 12 38  1  0  0  0  0
 12 39  1  0  0  0  0
 13 23  1  0  0  0  0
 13 14  1  0  0  0  0
 14 15  2  0  0  0  0
 14 40  1  0  0  0  0
 15 16  1  0  0  0  0
 16 23  2  0  0  0  0
 16 17  1  0  0  0  0
 17 18  2  0  0  0  0
 17 19  1  0  0  0  0
 19 20  1  0  0  0  0
 20 21  1  0  0  0  0
 20 22  2  0  0  0  0
 21 41  1  0  0  0  0
 21 42  1  0  0  0  0
 22 23  1  0  0  0  0
M  CHG  1  19  -1
M  END
> <s_m_source_file>
AV-unprocessed.smi

> <i_m_source_file_index>
50

> <i_lp_mmshare_version>
43012

> <i_f3d_flags>
0

> <s_epik_input>
W0NIM11bQ0hdKFtDSDNdKVtDQEhdKFtOSDJdKUMoPU8pT1tDSDJdW0NIMl1PW0NIMl1uKFtjSF1uMSljKGMxMiluYyhbTkgyXSlbbkhdYzI9Tw==

> <s_epik_cmdline>
J2VwaWtfcHl0aG9uJywgJy1waCcsICc3LjAnLCAnLXRuJywgJzgnLCAnLW1hJywgJzIwMCcsICctbWV0YWxfYmluZGluZycsICctaW1hZScsICc8aW5maWxlLm1hZT4nLCAnLW9tYWUnLCAnPG91dGZpbGUubWFlPic=

> <r_lp_tautomer_probability>
0.99994

> <r_epik_Ionization_Penalty>
4.26118

> <r_epik_Ionization_Penalty_Charging>
1.23364e-10

> <r_epik_Ionization_Penalty_Neutral>
4.26118

> <r_epik_State_Penalty>
4.27372

> <r_epik_Charging_Adjusted_Penalty>
4.27372

> <i_epik_Tot_Q>
-1

> <i_epik_Tot_abs_Q>
1

> <r_epik_Metal_State_Penalty>
1.24306

> <b_epik_Metal_Only>
1

> <s_epik_Chemistry_Notes>
This compound has an ester and may undergo hydrolysis at high or low pH. This compound contains an acetal/aminal-like group ( X-CH(R)-Y where X, Y are N, S, or O) that may be acid/base labile, releasing an aldehyde.

> <s_lp_Force_Field>
OPLS_2005

> <r_lp_Energy>
24.4723

> <b_lp_Chiralities_Consistent>
1

> <s_lp_Variant>
AV-unprocessed.smi:50-7

> <Gold.Version>
5.8.1

> <Gold.Id.Protein>
6NUR|6NUR_protein|mol2

> <Gold.PLP.Fitness>
45.5548

> <Gold.PLP.PLP>
-34.0230

> <Gold.PLP.part.hbond>
-3.7914

> <Gold.PLP.part.metal>
0.0000

> <Gold.PLP.part.buried>
-4.4101

> <Gold.PLP.part.nonpolar>
-28.5560

> <Gold.PLP.part.repulsive>
2.3022

> <Gold.PLP.ligand.clash>
0.0000

> <Gold.PLP.ligand.torsion>
1.2529

> <Gold.PLP.Chemscore.Hbond>
3.9913

> <Gold.PLP.Chemscore.CHOScore>
0.6072

> <Gold.PLP.Chemscore.Metal>
0.0000

> <Gold.Chemscore.Hbonds>
donor molecule, donor type, donor heavy atom, donor atom, acceptor molecule, acceptor atom, score
      L1  H     5    32       P1 10171  0.94
      P1  H  7989  7998       L1    22  1.00
      P1  H  7997  8008       L1    19  1.30
      L1  C    14    40       P1  8028  0.69

> <Gold.PLP.Chemscore.Internal.Correction>
0.2421

> <Gold.Rescore>
     Score         DG    S(hbond)    S(metal)    S(lipo)     H(rot)  DE(clash)    DE(int)     intcor
      1.85      -4.53       1.98        0.00      38.69       4.72       1.19       1.49       ----

> <Gold.Chemscore.Fitness>
1.8472

> <Gold.Chemscore.DG>
-4.5287

> <Gold.Chemscore.ZeroCoef>
-5.4800

> <Gold.Chemscore.Hbond>
1.9806

> <Gold.Chemscore.Metal>
0.0000

> <Gold.Chemscore.Lipo>
38.6888

> <Gold.Chemscore.Internal_Hbond>
0.0000

> <Gold.Chemscore.DEClash>
1.1946

> <Gold.Chemscore.DEInternal>
1.4868

> <Gold.Chemscore.Rot>
4.7239

> <Gold.Chemscore.Internal.Correction>
   9.000000E+99

> <Gold.Chemscore.Hbonds>
donor molecule, donor type, donor heavy atom, donor atom, acceptor molecule, acceptor atom, score
      L1  H     5    32       P1 10171  0.89
      P1  H  7989  7998       L1    22  0.29
      P1  H  7997  8008       L1    19  0.03

> <Gold.Chemscore.Hbond.Weighted>
-6.6154

> <Gold.Chemscore.Metal.Weighted>
-0.0000

> <Gold.Chemscore.Lipo.Weighted>
-4.5266

> <Gold.Chemscore.Internal_Hbond.Weighted>
0.0000

> <Gold.Chemscore.DEClash.Weighted>
1.1946

> <Gold.Chemscore.DEInternal.Weighted>
1.4868

> <Gold.Chemscore.Rot.Weighted>
12.0933

> <Gold.Chemscore.Internal.Correction.Weighted>
   9.000000E+99

> <Gold.Protein.RotatedTorsions>
[ 6907 6896 6895 6894 ] final    4.50 input  -60.11 | X-H torsion
[ 7974 7965 7964 7962 ] final  168.84 input  175.53 | X-H torsion
[ 8008 7997 7996 7995 ] final  -52.33 input   59.86 | X-H torsion
[ 10167 10162 10161 10158 ] final  102.88 input  -65.29 | X-H torsion
[ 10718 10713 10712 10709 ] final  -15.19 input   66.30 | X-H torsion
[ 10763 10752 10751 10750 ] final -126.99 input  -60.55 | X-H torsion
[ 11005 11000 10999 10996 ] final  101.32 input  -57.11 | X-H torsion

> <Gold.Protein.ActiveResidues>
 VAL166  LYS551  ARG553  GLY616  TRP617  ASP618  TYR619  PRO620  LYS621  CYS622 
 ASP623  PHE694  ASN695  SER759  ASP760  ASP761  ALA762  ILE779  LEU786  VAL792 
 PHE793  MET794  SER795  GLU796  ALA797  LYS798  CYS799  TRP800  GLU811  SER814 

> <Gold.Protein.RotatedAtoms>
  151.6423  135.1011  160.0143 H   0  0  0  0  0  0  0  0  0  0  0  0  # atno 6907 bound_to 6896
  152.4047  133.6867  159.6355 H   0  0  0  0  0  0  0  0  0  0  0  0  # atno 6908 bound_to 6896
  150.7943  133.8647  159.3282 H   0  0  0  0  0  0  0  0  0  0  0  0  # atno 6909 bound_to 6896
  144.7375  139.8966  143.6406 H   0  0  0  0  0  0  0  0  0  0  0  0  # atno 7974 bound_to 7965
  154.4104  140.1226  156.4974 H   0  0  0  0  0  0  0  0  0  0  0  0  # atno 8008 bound_to 7997
  155.6929  140.3495  155.4881 H   0  0  0  0  0  0  0  0  0  0  0  0  # atno 8009 bound_to 7997
  155.9453  140.1094  157.1012 H   0  0  0  0  0  0  0  0  0  0  0  0  # atno 8010 bound_to 7997
  139.7311  144.7035  151.0720 H   0  0  0  0  0  0  0  0  0  0  0  0  # atno 10167 bound_to 10162
  156.6053  130.4835  149.6223 H   0  0  0  0  0  0  0  0  0  0  0  0  # atno 10718 bound_to 10713
  154.8749  135.3977  154.3521 H   0  0  0  0  0  0  0  0  0  0  0  0  # atno 10763 bound_to 10752
  153.4305  135.7025  153.6239 H   0  0  0  0  0  0  0  0  0  0  0  0  # atno 10764 bound_to 10752
  153.4863  135.3758  155.2438 H   0  0  0  0  0  0  0  0  0  0  0  0  # atno 10765 bound_to 10752
  139.8773  134.9178  156.4889 H   0  0  0  0  0  0  0  0  0  0  0  0  # atno 11005 bound_to 11000
  146.1102  139.4106  143.0292 LP  0  0  0  0  0  0  0  0  0  0  0  0  # atno 17320 bound_to 7965
  145.7454  140.9993  143.1279 LP  0  0  0  0  0  0  0  0  0  0  0  0  # atno 17321 bound_to 7965
  140.7771  143.5042  150.9733 LP  0  0  0  0  0  0  0  0  0  0  0  0  # atno 17342 bound_to 10162
  139.8730  143.7168  152.3164 LP  0  0  0  0  0  0  0  0  0  0  0  0  # atno 17343 bound_to 10162
  156.2435  130.6865  151.1578 LP  0  0  0  0  0  0  0  0  0  0  0  0  # atno 17370 bound_to 10713
  157.7269  131.0643  150.5890 LP  0  0  0  0  0  0  0  0  0  0  0  0  # atno 17371 bound_to 10713
  140.8673  133.8015  155.9327 LP  0  0  0  0  0  0  0  0  0  0  0  0  # atno 17394 bound_to 11000
  140.8989  134.2403  157.5053 LP  0  0  0  0  0  0  0  0  0  0  0  0  # atno 17395 bound_to 11000

$$$$
