#       Name:                AV-unprocessed.smi:1363
#       Creating user name   scv26
#       Creation time:       Fri Mar 27 05:16:03 2020


#       File generated by GOLD software.
#

@<TRIPOS>MOLECULE
AV-unprocessed.smi:1363
    49    50     1
SMALL
NO_CHARGES


@<TRIPOS>ATOM
      1 ****        -4.3891   5.5688  -0.8628 C.3            1 S1                 0.0000
      2 ****        -4.0220   4.1011  -0.8132 C.2            1 S1                 0.0000
      3 ****        -3.4765   3.6274   0.2415 N.2            1 S1                 0.0000
      4 ****        -3.1372   2.2647   0.2921 C.2            1 S1                 0.0000
      5 ****        -2.5018   1.7868   1.5862 C.3            1 S1                 0.0000
      6 ****        -3.3757   1.4380  -0.7661 C.2            1 S1                 0.0000
      7 ****        -3.0350  -0.0524  -0.7542 C.3            1 S1                 0.0000
      8 ****        -1.5689  -0.4091  -1.0124 C.2            1 S1                 0.0000
      9 ****        -0.8573   0.3244  -1.6991 O.2            1 S1                 0.0000
     10 ****        -1.1278  -1.5428  -0.4464 N.am           1 S1                 0.0000
     11 ****         0.2338  -2.0547  -0.5448 C.3            1 S1                 0.0000
     12 ****         1.1668  -1.3666   0.4711 C.3            1 S1                 0.0000
     13 ****         2.6150  -1.8461   0.4730 C.2            1 S1                 0.0000
     14 ****         3.1010  -2.8048  -0.3446 C.2            1 S1                 0.0000
     15 ****         4.5512  -3.2558  -0.3653 C.3            1 S1                 0.0000
     16 ****         5.4807  -2.2783   0.3711 C.3            1 S1                 0.0000
     17 ****         4.8621  -1.8274   1.6985 C.3            1 S1                 0.0000
     18 ****         3.5093  -1.1276   1.4772 C.3            1 S1                 0.0000
     19 ****        -3.9969   2.0256  -1.9667 C.2            1 S1                 0.0000
     20 ****        -4.2186   1.3286  -2.9561 O.2            1 S1                 0.0000
     21 ****        -4.3060   3.3534  -1.9337 N.pl3          1 S1                -1.0000
     22 ****        -4.1413   6.0690   0.0744 H              1 S1                 0.0000
     23 ****        -5.4587   5.6853  -1.0395 H              1 S1                 0.0000
     24 ****        -3.8488   6.0662  -1.6687 H              1 S1                 0.0000
     25 ****        -3.1420   1.0545   2.0779 H              1 S1                 0.0000
     26 ****        -2.3462   2.6148   2.2787 H              1 S1                 0.0000
     27 ****        -1.5320   1.3281   1.3926 H              1 S1                 0.0000
     28 ****        -3.3253  -0.4557   0.2164 H              1 S1                 0.0000
     29 ****        -3.6484  -0.5967  -1.4725 H              1 S1                 0.0000
     30 ****        -1.7815  -2.0841   0.1005 H              1 S1                 0.0000
     31 ****         0.1968  -3.1276  -0.3543 H              1 S1                 0.0000
     32 ****         0.6047  -1.9254  -1.5631 H              1 S1                 0.0000
     33 ****         1.1749  -0.2915   0.2861 H              1 S1                 0.0000
     34 ****         0.7650  -1.5032   1.4759 H              1 S1                 0.0000
     35 ****         2.4564  -3.3168  -1.0422 H              1 S1                 0.0000
     36 ****         4.6034  -4.2439   0.0927 H              1 S1                 0.0000
     37 ****         4.8774  -3.3678  -1.3996 H              1 S1                 0.0000
     38 ****         6.4523  -2.7429   0.5413 H              1 S1                 0.0000
     39 ****         5.6612  -1.4036  -0.2554 H              1 S1                 0.0000
     40 ****         4.7211  -2.6977   2.3409 H              1 S1                 0.0000
     41 ****         5.5433  -1.1607   2.2278 H              1 S1                 0.0000
     42 ****         3.6724  -0.1122   1.1140 H              1 S1                 0.0000
     43 ****         2.9896  -1.0393   2.4318 H              1 S1                 0.0000
     44 ****        -3.2927   4.2219   1.0243 LP             1 S1                 0.0000
     45 ****        -1.2360   1.1615  -2.0938 LP             1 S1                 0.0000
     46 ****         0.0993   0.0829  -1.8622 LP             1 S1                 0.0000
     47 ****        -3.9772   0.3582  -2.9484 LP             1 S1                 0.0000
     48 ****        -4.6403   1.7324  -3.7680 LP             1 S1                 0.0000
     49 ****        -4.7398   3.7847  -2.7248 LP             1 S1                 0.0000
@<TRIPOS>BOND
    1    1    2 1     
    2    1   22 1     
    3    1   23 1     
    4    1   24 1     
    5    2   21 1     
    6    2    3 2     
    7    3    4 1     
    8    4    5 1     
    9    4    6 2     
   10    5   25 1     
   11    5   26 1     
   12    5   27 1     
   13    6    7 1     
   14    6   19 1     
   15    7    8 1     
   16    7   28 1     
   17    7   29 1     
   18    8    9 2     
   19    8   10 am    
   20   10   11 1     
   21   10   30 1     
   22   11   12 1     
   23   11   31 1     
   24   11   32 1     
   25   12   13 1     
   26   12   33 1     
   27   12   34 1     
   28   13   18 1     
   29   13   14 2     
   30   14   15 1     
   31   14   35 1     
   32   15   16 1     
   33   15   36 1     
   34   15   37 1     
   35   16   17 1     
   36   16   38 1     
   37   16   39 1     
   38   17   18 1     
   39   17   40 1     
   40   17   41 1     
   41   18   42 1     
   42   18   43 1     
   43   19   20 2     
   44   19   21 1     
   45    3   44 1     
   46    9   45 1     
   47    9   46 1     
   48   20   47 1     
   49   20   48 1     
   50   21   49 1     
@<TRIPOS>SUBSTRUCTURE
      1 S1             1
@<TRIPOS>SET
LONE_PAIRS      STATIC     ATOMS    <user>   **** ""
6 44 45 46 47 48 49
DONOR_HYDROGENS      STATIC     ATOMS    <user>   **** ""
1 30
ATOM$BLUE        STATIC     ATOMS    COLORGROUP SYSTEM
6 44 45 46 47 48 49
ATOM$RED        STATIC     ATOMS    COLORGROUP SYSTEM
1 30
