AV-unprocessed.smi:2114|AV-procd|sdf|8622|dock2
  -GOLD-   2272011363D 1   1.00000     0.00000
 Structure written by MMmdl.
 47 48  0  0  0  0  0  0  0  0  1 V2000
  146.2341  135.9459  151.2954 C   0  0  0  0  0  0  0  0  0  0  0  0
  145.4826  136.8968  152.0289 O   0  0  0  0  0  0  0  0  0  0  0  0
  146.2620  137.5767  152.9996 C   0  0  0  0  0  0  0  0  0  0  0  0
  147.5241  138.1428  152.3308 C   0  0  1  0  0  0  0  0  0  0  0  0
  147.1793  139.1421  151.2174 C   0  0  0  0  0  0  0  0  0  0  0  0
  148.3556  138.8025  153.3341 N   0  0  0  0  0  0  0  0  0  0  0  0
  148.7277  138.2805  154.5144 C   0  0  0  0  0  0  0  0  0  0  0  0
  148.3902  137.1643  154.9089 O   0  0  0  0  0  0  0  0  0  0  0  0
  149.5498  139.1857  155.3841 C   0  0  0  0  0  0  0  0  0  0  0  0
  150.2031  140.3236  154.8601 C   0  0  0  0  0  0  0  0  0  0  0  0
  150.9753  141.1255  155.7219 C   0  0  0  0  0  0  0  0  0  0  0  0
  151.0718  140.7637  157.0810 C   0  0  0  0  0  0  0  0  0  0  0  0
  151.8329  141.5640  157.9440 N   0  0  0  0  0  0  0  0  0  0  0  0
  151.4357  142.9650  157.9573 C   0  0  0  0  0  0  0  0  0  0  0  0
  152.4406  143.7875  158.7832 C   0  0  1  0  0  0  0  0  0  0  0  0
  152.0116  145.2526  158.9143 C   0  0  0  0  0  0  0  0  0  0  0  0
  152.5382  143.2333  160.0959 O   0  0  0  0  0  0  0  0  0  0  0  0
  152.9166  141.8544  160.1409 C   0  0  2  0  0  0  0  0  0  0  0  0
  154.3974  141.6499  159.7759 C   0  0  0  0  0  0  0  0  0  0  0  0
  151.9514  141.0092  159.2858 C   0  0  0  0  0  0  0  0  0  0  0  0
  150.4613  139.6666  157.5887 N   0  0  0  0  0  0  0  0  0  0  0  0
  149.7268  138.8987  156.7555 C   0  0  0  0  0  0  0  0  0  0  0  0
  145.5912  135.4566  150.5637 H   0  0  0  0  0  0  0  0  0  0  0  0
  146.6446  135.1763  151.9504 H   0  0  0  0  0  0  0  0  0  0  0  0
  147.0545  136.4223  150.7573 H   0  0  0  0  0  0  0  0  0  0  0  0
  145.6743  138.3892  153.4298 H   0  0  0  0  0  0  0  0  0  0  0  0
  146.5307  136.9009  153.8135 H   0  0  0  0  0  0  0  0  0  0  0  0
  148.0637  137.3093  151.8774 H   0  0  0  0  0  0  0  0  0  0  0  0
  146.5754  138.6710  150.4416 H   0  0  0  0  0  0  0  0  0  0  0  0
  148.0821  139.5267  150.7417 H   0  0  0  0  0  0  0  0  0  0  0  0
  146.6180  139.9927  151.6058 H   0  0  0  0  0  0  0  0  0  0  0  0
  148.6625  139.7399  153.1187 H   0  0  0  0  0  0  0  0  0  0  0  0
  150.1226  140.5853  153.8149 H   0  0  0  0  0  0  0  0  0  0  0  0
  151.4806  142.0028  155.3452 H   0  0  0  0  0  0  0  0  0  0  0  0
  151.3887  143.3437  156.9353 H   0  0  0  0  0  0  0  0  0  0  0  0
  150.4358  143.0603  158.3838 H   0  0  0  0  0  0  0  0  0  0  0  0
  153.4181  143.7642  158.3008 H   0  0  0  0  0  0  0  0  0  0  0  0
  151.9309  145.7270  157.9359 H   0  0  0  0  0  0  0  0  0  0  0  0
  152.7365  145.8195  159.4988 H   0  0  0  0  0  0  0  0  0  0  0  0
  151.0438  145.3383  159.4096 H   0  0  0  0  0  0  0  0  0  0  0  0
  152.8016  141.5413  161.1788 H   0  0  0  0  0  0  0  0  0  0  0  0
  154.6985  140.6166  159.9502 H   0  0  0  0  0  0  0  0  0  0  0  0
  155.0387  142.2870  160.3852 H   0  0  0  0  0  0  0  0  0  0  0  0
  154.6001  141.8733  158.7286 H   0  0  0  0  0  0  0  0  0  0  0  0
  150.9659  140.9967  159.7542 H   0  0  0  0  0  0  0  0  0  0  0  0
  152.2932  139.9744  159.2371 H   0  0  0  0  0  0  0  0  0  0  0  0
  149.2603  138.0344  157.2057 H   0  0  0  0  0  0  0  0  0  0  0  0
  1  2  1  0  0  0  0
  1 23  1  0  0  0  0
  1 24  1  0  0  0  0
  1 25  1  0  0  0  0
  2  3  1  0  0  0  0
  3  4  1  0  0  0  0
  3 26  1  0  0  0  0
  3 27  1  0  0  0  0
  4  5  1  0  0  0  0
  4  6  1  0  0  0  0
  4 28  1  0  0  0  0
  5 29  1  0  0  0  0
  5 30  1  0  0  0  0
  5 31  1  0  0  0  0
  6  7  1  0  0  0  0
  6 32  1  0  0  0  0
  7  8  2  0  0  0  0
  7  9  1  0  0  0  0
  9 22  1  0  0  0  0
  9 10  2  0  0  0  0
 10 11  1  0  0  0  0
 10 33  1  0  0  0  0
 11 12  2  0  0  0  0
 11 34  1  0  0  0  0
 12 13  1  0  0  0  0
 12 21  1  0  0  0  0
 13 20  1  0  0  0  0
 13 14  1  0  0  0  0
 14 15  1  0  0  0  0
 14 35  1  0  0  0  0
 14 36  1  0  0  0  0
 15 16  1  0  0  0  0
 15 17  1  0  0  0  0
 15 37  1  0  0  0  0
 16 38  1  0  0  0  0
 16 39  1  0  0  0  0
 16 40  1  0  0  0  0
 17 18  1  0  0  0  0
 18 19  1  0  0  0  0
 18 20  1  0  0  0  0
 18 41  1  0  0  0  0
 19 42  1  0  0  0  0
 19 43  1  0  0  0  0
 19 44  1  0  0  0  0
 20 45  1  0  0  0  0
 20 46  1  0  0  0  0
 21 22  2  0  0  0  0
 22 47  1  0  0  0  0
M  END
> <s_m_source_file>
AV-unprocessed.smi

> <i_m_source_file_index>
2114

> <i_lp_mmshare_version>
43012

> <i_f3d_flags>
0

> <s_epik_input>
W0NIM11PW0NIMl1bQ0BIXShbQ0gzXSlbTkhdQyg9TyljMVtjSF1bY0hdYyhuW2NIXTEpTjJbQ0gyXVtDQEBIXShbQ0gzXSlPW0NAQEhdKFtDSDNdKVtDSDJdMg==

> <s_epik_cmdline>
J2VwaWtfcHl0aG9uJywgJy1waCcsICc3LjAnLCAnLXRuJywgJzgnLCAnLW1hJywgJzIwMCcsICctbWV0YWxfYmluZGluZycsICctaW1hZScsICc8aW5maWxlLm1hZT4nLCAnLW9tYWUnLCAnPG91dGZpbGUubWFlPic=

> <r_lp_tautomer_probability>
1

> <r_epik_Ionization_Penalty>
1.92915e-05

> <r_epik_Ionization_Penalty_Charging>
0

> <r_epik_Ionization_Penalty_Neutral>
1.92915e-05

> <r_epik_State_Penalty>
-0

> <r_epik_Charging_Adjusted_Penalty>
0

> <i_epik_Tot_Q>
0

> <i_epik_Tot_abs_Q>
0

> <r_epik_Metal_State_Penalty>
-0

> <b_epik_Metal_Only>
0

> <s_lp_Force_Field>
OPLS_2005

> <r_lp_Energy>
24.377

> <b_lp_Chiralities_Consistent>
1

> <s_lp_Variant>
AV-unprocessed.smi:2114-6

> <Gold.Version>
5.8.1

> <Gold.Id.Protein>
6NUR|6NUR_protein|mol2

> <Gold.PLP.Fitness>
38.1690

> <Gold.PLP.PLP>
-38.5391

> <Gold.PLP.part.hbond>
-0.9175

> <Gold.PLP.part.metal>
0.0000

> <Gold.PLP.part.buried>
-0.5398

> <Gold.PLP.part.nonpolar>
-37.2205

> <Gold.PLP.part.repulsive>
0.9537

> <Gold.PLP.ligand.clash>
0.0016

> <Gold.PLP.ligand.torsion>
0.2487

> <Gold.PLP.Chemscore.Hbond>
0.0000

> <Gold.PLP.Chemscore.CHOScore>
0.0000

> <Gold.PLP.Chemscore.Metal>
0.0000

> <Gold.Chemscore.Hbonds>
donor molecule, donor type, donor heavy atom, donor atom, acceptor molecule, acceptor atom, score
      L1  H     6    32       P1  7957  0.19

> <Gold.PLP.Chemscore.Internal.Correction>
0.1288

> <Gold.Rescore>
     Score         DG    S(hbond)    S(metal)    S(lipo)     H(rot)  DE(clash)    DE(int)     intcor
     13.24     -13.43       0.00        0.00     101.28       1.52       0.06       0.13       ----

> <Gold.Chemscore.Fitness>
13.2411

> <Gold.Chemscore.DG>
-13.4320

> <Gold.Chemscore.ZeroCoef>
-5.4800

> <Gold.Chemscore.Hbond>
0.0000

> <Gold.Chemscore.Metal>
0.0000

> <Gold.Chemscore.Lipo>
101.2818

> <Gold.Chemscore.Internal_Hbond>
0.0000

> <Gold.Chemscore.DEClash>
0.0587

> <Gold.Chemscore.DEInternal>
0.1322

> <Gold.Chemscore.Rot>
1.5226

> <Gold.Chemscore.Internal.Correction>
   9.000000E+99

> <Gold.Chemscore.Hbonds>
donor molecule, donor type, donor heavy atom, donor atom, acceptor molecule, acceptor atom, score
      L1  H     6    32       P1  7957  0.19

> <Gold.Chemscore.Hbond.Weighted>
-0.0000

> <Gold.Chemscore.Metal.Weighted>
-0.0000

> <Gold.Chemscore.Lipo.Weighted>
-11.8500

> <Gold.Chemscore.Internal_Hbond.Weighted>
0.0000

> <Gold.Chemscore.DEClash.Weighted>
0.0587

> <Gold.Chemscore.DEInternal.Weighted>
0.1322

> <Gold.Chemscore.Rot.Weighted>
3.8980

> <Gold.Chemscore.Internal.Correction.Weighted>
   9.000000E+99

> <Gold.Protein.RotatedTorsions>
[ 6907 6896 6895 6894 ] final   75.40 input  -60.11 | X-H torsion
[ 7974 7965 7964 7962 ] final   31.45 input  175.53 | X-H torsion
[ 8008 7997 7996 7995 ] final  -49.68 input   59.86 | X-H torsion
[ 10167 10162 10161 10158 ] final   40.55 input  -65.29 | X-H torsion
[ 10718 10713 10712 10709 ] final -138.36 input   66.30 | X-H torsion
[ 10763 10752 10751 10750 ] final -130.68 input  -60.55 | X-H torsion
[ 11005 11000 10999 10996 ] final -122.36 input  -57.11 | X-H torsion

> <Gold.Protein.ActiveResidues>
 VAL166  LYS551  ARG553  GLY616  TRP617  ASP618  TYR619  PRO620  LYS621  CYS622 
 ASP623  PHE694  ASN695  SER759  ASP760  ASP761  ALA762  ILE779  LEU786  VAL792 
 PHE793  MET794  SER795  GLU796  ALA797  LYS798  CYS799  TRP800  GLU811  SER814 

> <Gold.Protein.RotatedAtoms>
  152.5024  134.4126  159.9453 H   0  0  0  0  0  0  0  0  0  0  0  0  # atno 6907 bound_to 6896
  151.4095  133.3725  159.2750 H   0  0  0  0  0  0  0  0  0  0  0  0  # atno 6908 bound_to 6896
  150.9302  134.8739  159.7605 H   0  0  0  0  0  0  0  0  0  0  0  0  # atno 6909 bound_to 6896
  146.1549  139.6655  142.9073 H   0  0  0  0  0  0  0  0  0  0  0  0  # atno 7974 bound_to 7965
  154.4048  140.1291  156.4542 H   0  0  0  0  0  0  0  0  0  0  0  0  # atno 8008 bound_to 7997
  155.7336  140.3491  155.5051 H   0  0  0  0  0  0  0  0  0  0  0  0  # atno 8009 bound_to 7997
  155.9104  140.1035  157.1274 H   0  0  0  0  0  0  0  0  0  0  0  0  # atno 8010 bound_to 7997
  140.3731  144.2079  150.6132 H   0  0  0  0  0  0  0  0  0  0  0  0  # atno 10167 bound_to 10162
  156.2985  130.7415  151.1460 H   0  0  0  0  0  0  0  0  0  0  0  0  # atno 10718 bound_to 10713
  154.8754  135.3855  154.4123 H   0  0  0  0  0  0  0  0  0  0  0  0  # atno 10763 bound_to 10752
  153.4835  135.7030  153.5929 H   0  0  0  0  0  0  0  0  0  0  0  0  # atno 10764 bound_to 10752
  153.4334  135.3873  155.2152 H   0  0  0  0  0  0  0  0  0  0  0  0  # atno 10765 bound_to 10752
  141.0001  134.0415  157.3548 H   0  0  0  0  0  0  0  0  0  0  0  0  # atno 11005 bound_to 11000
  145.4732  141.0436  143.2687 LP  0  0  0  0  0  0  0  0  0  0  0  0  # atno 17320 bound_to 7965
  144.7951  139.6250  143.7096 LP  0  0  0  0  0  0  0  0  0  0  0  0  # atno 17321 bound_to 7965
  140.5013  143.2317  151.8674 LP  0  0  0  0  0  0  0  0  0  0  0  0  # atno 17342 bound_to 10162
  139.4802  144.5056  151.9002 LP  0  0  0  0  0  0  0  0  0  0  0  0  # atno 17343 bound_to 10162
  157.7362  131.0565  150.5429 LP  0  0  0  0  0  0  0  0  0  0  0  0  # atno 17370 bound_to 10713
  156.5554  130.4242  149.6088 LP  0  0  0  0  0  0  0  0  0  0  0  0  # atno 17371 bound_to 10713
  139.9034  135.0172  156.7376 LP  0  0  0  0  0  0  0  0  0  0  0  0  # atno 17394 bound_to 11000
  140.6903  133.9396  155.7962 LP  0  0  0  0  0  0  0  0  0  0  0  0  # atno 17395 bound_to 11000

$$$$
