AV-unprocessed.smi:2751|AV-procd|sdf|10596|dock3
  -GOLD-   2272015 43D 1   1.00000     0.00000
 Structure written by MMmdl.
 34 35  0  0  0  0  0  0  0  0  1 V2000
  146.1493  138.6298  154.5392 O   0  0  0  0  0  0  0  0  0  0  0  0
  146.9027  137.9567  153.8352 C   0  0  0  0  0  0  0  0  0  0  0  0
  146.4802  136.9684  153.0333 N   0  0  0  0  0  0  0  0  0  0  0  0
  145.0925  136.5427  152.8910 C   0  0  0  0  0  0  0  0  0  0  0  0
  144.8470  135.8692  151.5298 C   0  0  0  0  0  0  0  0  0  0  0  0
  144.9933  134.3403  151.5823 C   0  0  1  0  0  0  0  0  0  0  0  0
  144.1645  133.6460  150.4835 C   0  0  0  0  0  0  0  0  0  0  0  0
  144.3925  132.1307  150.5122 C   0  0  0  0  0  0  0  0  0  0  0  0
  145.8940  131.8335  150.4463 C   0  0  0  0  0  0  0  0  0  0  0  0
  146.6416  132.6171  151.5366 C   0  0  0  0  0  0  0  0  0  0  0  0
  146.3700  134.0095  151.4069 O   0  0  0  0  0  0  0  0  0  0  0  0
  148.2365  138.1046  153.7677 N   0  0  0  0  0  0  0  0  0  0  0  0
  149.0387  139.0329  154.4783 C   0  0  0  0  0  0  0  0  0  0  0  0
  150.2221  138.7909  155.0449 N   0  0  0  0  0  0  0  0  0  0  0  0
  150.5959  140.0034  155.6060 C   0  0  0  0  0  0  0  0  0  0  0  0
  149.6081  140.9180  155.3448 C   0  0  0  0  0  0  0  0  0  0  0  0
  148.6100  140.3142  154.6276 O   0  0  0  0  0  0  0  0  0  0  0  0
  147.1674  136.4674  152.4892 H   0  0  0  0  0  0  0  0  0  0  0  0
  144.8203  135.8728  153.7085 H   0  0  0  0  0  0  0  0  0  0  0  0
  144.4576  137.4237  152.9887 H   0  0  0  0  0  0  0  0  0  0  0  0
  143.8419  136.1203  151.1888 H   0  0  0  0  0  0  0  0  0  0  0  0
  145.5335  136.2733  150.7844 H   0  0  0  0  0  0  0  0  0  0  0  0
  144.6608  133.9884  152.5608 H   0  0  0  0  0  0  0  0  0  0  0  0
  143.1039  133.8640  150.6136 H   0  0  0  0  0  0  0  0  0  0  0  0
  144.4463  134.0392  149.5056 H   0  0  0  0  0  0  0  0  0  0  0  0
  143.9755  131.7142  151.4299 H   0  0  0  0  0  0  0  0  0  0  0  0
  143.8714  131.6508  149.6835 H   0  0  0  0  0  0  0  0  0  0  0  0
  146.0731  130.7638  150.5587 H   0  0  0  0  0  0  0  0  0  0  0  0
  146.2811  132.1154  149.4663 H   0  0  0  0  0  0  0  0  0  0  0  0
  146.3557  132.2705  152.5311 H   0  0  0  0  0  0  0  0  0  0  0  0
  147.7159  132.4576  151.4413 H   0  0  0  0  0  0  0  0  0  0  0  0
  148.7333  137.4818  153.1484 H   0  0  0  0  0  0  0  0  0  0  0  0
  151.5265  140.1197  156.1415 H   0  0  0  0  0  0  0  0  0  0  0  0
  149.4725  141.9631  155.5813 H   0  0  0  0  0  0  0  0  0  0  0  0
  1  2  2  0  0  0  0
  2  3  1  0  0  0  0
  2 12  1  0  0  0  0
  3  4  1  0  0  0  0
  3 18  1  0  0  0  0
  4  5  1  0  0  0  0
  4 19  1  0  0  0  0
  4 20  1  0  0  0  0
  5  6  1  0  0  0  0
  5 21  1  0  0  0  0
  5 22  1  0  0  0  0
  6 11  1  0  0  0  0
  6  7  1  0  0  0  0
  6 23  1  0  0  0  0
  7  8  1  0  0  0  0
  7 24  1  0  0  0  0
  7 25  1  0  0  0  0
  8  9  1  0  0  0  0
  8 26  1  0  0  0  0
  8 27  1  0  0  0  0
  9 10  1  0  0  0  0
  9 28  1  0  0  0  0
  9 29  1  0  0  0  0
 10 11  1  0  0  0  0
 10 30  1  0  0  0  0
 10 31  1  0  0  0  0
 12 13  1  0  0  0  0
 12 32  1  0  0  0  0
 13 17  1  0  0  0  0
 13 14  2  0  0  0  0
 14 15  1  0  0  0  0
 15 16  2  0  0  0  0
 15 33  1  0  0  0  0
 16 17  1  0  0  0  0
 16 34  1  0  0  0  0
M  END
> <s_m_source_file>
AV-unprocessed.smi

> <i_m_source_file_index>
2751

> <i_lp_mmshare_version>
43012

> <i_f3d_flags>
0

> <s_epik_input>
bzFbY0hdW2NIXW5jMVtOSF1DKD1PKVtOSF1bQ0gyXVtDSDJdW0NAQEhdMltDSDJdW0NIMl1bQ0gyXVtDSDJdTzI=

> <s_epik_cmdline>
J2VwaWtfcHl0aG9uJywgJy1waCcsICc3LjAnLCAnLXRuJywgJzgnLCAnLW1hJywgJzIwMCcsICctbWV0YWxfYmluZGluZycsICctaW1hZScsICc8aW5maWxlLm1hZT4nLCAnLW9tYWUnLCAnPG91dGZpbGUubWFlPic=

> <r_lp_tautomer_probability>
0.785861

> <r_epik_Ionization_Penalty>
4.88827e-05

> <r_epik_Ionization_Penalty_Charging>
0

> <r_epik_Ionization_Penalty_Neutral>
4.88827e-05

> <r_epik_State_Penalty>
0.0434822

> <r_epik_Charging_Adjusted_Penalty>
0.0434822

> <i_epik_Tot_Q>
0

> <i_epik_Tot_abs_Q>
0

> <r_epik_Metal_State_Penalty>
0.0598982

> <b_epik_Metal_Only>
0

> <s_lp_Force_Field>
OPLS_2005

> <r_lp_Energy>
7.8545

> <b_lp_Chiralities_Consistent>
1

> <s_lp_Variant>
AV-unprocessed.smi:2751-2

> <Gold.Version>
5.8.1

> <Gold.Id.Protein>
6NUR|6NUR_protein|mol2

> <Gold.PLP.Fitness>
35.1868

> <Gold.PLP.PLP>
-28.2267

> <Gold.PLP.part.hbond>
-2.3920

> <Gold.PLP.part.metal>
0.0000

> <Gold.PLP.part.buried>
-3.1346

> <Gold.PLP.part.nonpolar>
-23.6677

> <Gold.PLP.part.repulsive>
0.6260

> <Gold.PLP.ligand.clash>
0.0000

> <Gold.PLP.ligand.torsion>
1.0208

> <Gold.PLP.Chemscore.Hbond>
2.0000

> <Gold.PLP.Chemscore.CHOScore>
1.0000

> <Gold.PLP.Chemscore.Metal>
0.0000

> <Gold.Chemscore.Hbonds>
donor molecule, donor type, donor heavy atom, donor atom, acceptor molecule, acceptor atom, score
      L1  H     3    18       P1  7948  1.00
      L1  H    12    32       P1  7948  1.00
      L1  C    16    34       P1  8028  0.28

> <Gold.PLP.Chemscore.Internal.Correction>
0.0017

> <Gold.Rescore>
     Score         DG    S(hbond)    S(metal)    S(lipo)     H(rot)  DE(clash)    DE(int)     intcor
     13.10     -15.27       1.96        0.00      63.30       1.63       0.08       2.09       ----

> <Gold.Chemscore.Fitness>
13.1024

> <Gold.Chemscore.DG>
-15.2664

> <Gold.Chemscore.ZeroCoef>
-5.4800

> <Gold.Chemscore.Hbond>
1.9640

> <Gold.Chemscore.Metal>
0.0000

> <Gold.Chemscore.Lipo>
63.3026

> <Gold.Chemscore.Internal_Hbond>
0.0000

> <Gold.Chemscore.DEClash>
0.0783

> <Gold.Chemscore.DEInternal>
2.0857

> <Gold.Chemscore.Rot>
1.6328

> <Gold.Chemscore.Internal.Correction>
   9.000000E+99

> <Gold.Chemscore.Hbonds>
donor molecule, donor type, donor heavy atom, donor atom, acceptor molecule, acceptor atom, score
      L1  H     3    18       P1  7948  0.96
      L1  H    12    32       P1  7948  0.99

> <Gold.Chemscore.Hbond.Weighted>
-6.5599

> <Gold.Chemscore.Metal.Weighted>
-0.0000

> <Gold.Chemscore.Lipo.Weighted>
-7.4064

> <Gold.Chemscore.Internal_Hbond.Weighted>
0.0000

> <Gold.Chemscore.DEClash.Weighted>
0.0783

> <Gold.Chemscore.DEInternal.Weighted>
2.0857

> <Gold.Chemscore.Rot.Weighted>
4.1799

> <Gold.Chemscore.Internal.Correction.Weighted>
   9.000000E+99

> <Gold.Protein.RotatedTorsions>
[ 6907 6896 6895 6894 ] final -162.72 input  -60.11 | X-H torsion
[ 7974 7965 7964 7962 ] final   65.22 input  175.53 | X-H torsion
[ 8008 7997 7996 7995 ] final   69.82 input   59.86 | X-H torsion
[ 10167 10162 10161 10158 ] final  167.49 input  -65.29 | X-H torsion
[ 10718 10713 10712 10709 ] final -177.60 input   66.30 | X-H torsion
[ 10763 10752 10751 10750 ] final  165.31 input  -60.55 | X-H torsion
[ 11005 11000 10999 10996 ] final  -19.36 input  -57.11 | X-H torsion

> <Gold.Protein.ActiveResidues>
 VAL166  LYS551  ARG553  GLY616  TRP617  ASP618  TYR619  PRO620  LYS621  CYS622 
 ASP623  PHE694  ASN695  SER759  ASP760  ASP761  ALA762  ILE779  LEU786  VAL792 
 PHE793  MET794  SER795  GLU796  ALA797  LYS798  CYS799  TRP800  GLU811  SER814 

> <Gold.Protein.RotatedAtoms>
  151.3847  133.3809  159.2713 H   0  0  0  0  0  0  0  0  0  0  0  0  # atno 6907 bound_to 6896
  150.9551  134.8947  159.7706 H   0  0  0  0  0  0  0  0  0  0  0  0  # atno 6908 bound_to 6896
  152.5127  134.3804  159.9401 H   0  0  0  0  0  0  0  0  0  0  0  0  # atno 6909 bound_to 6896
  145.8410  139.3195  143.0931 H   0  0  0  0  0  0  0  0  0  0  0  0  # atno 7974 bound_to 7965
  155.7294  140.3492  155.5052 H   0  0  0  0  0  0  0  0  0  0  0  0  # atno 8008 bound_to 7997
  155.9196  140.1065  157.1238 H   0  0  0  0  0  0  0  0  0  0  0  0  # atno 8009 bound_to 7997
  154.4068  140.1252  156.4649 H   0  0  0  0  0  0  0  0  0  0  0  0  # atno 8010 bound_to 7997
  139.4946  144.3916  151.9511 H   0  0  0  0  0  0  0  0  0  0  0  0  # atno 10167 bound_to 10162
  156.8318  130.9656  151.3106 H   0  0  0  0  0  0  0  0  0  0  0  0  # atno 10718 bound_to 10713
  154.3220  135.2756  155.2515 H   0  0  0  0  0  0  0  0  0  0  0  0  # atno 10763 bound_to 10752
  154.4864  135.5845  153.6430 H   0  0  0  0  0  0  0  0  0  0  0  0  # atno 10764 bound_to 10752
  152.9875  135.6124  154.3406 H   0  0  0  0  0  0  0  0  0  0  0  0  # atno 10765 bound_to 10752
  140.8359  133.7962  155.9808 H   0  0  0  0  0  0  0  0  0  0  0  0  # atno 11005 bound_to 11000
  145.9465  140.8940  143.0281 LP  0  0  0  0  0  0  0  0  0  0  0  0  # atno 17320 bound_to 7965
  144.6733  140.1621  143.7421 LP  0  0  0  0  0  0  0  0  0  0  0  0  # atno 17321 bound_to 7965
  140.3353  144.3267  150.5978 LP  0  0  0  0  0  0  0  0  0  0  0  0  # atno 17342 bound_to 10162
  140.5611  143.2192  151.7764 LP  0  0  0  0  0  0  0  0  0  0  0  0  # atno 17343 bound_to 10162
  157.6402  130.8799  149.9435 LP  0  0  0  0  0  0  0  0  0  0  0  0  # atno 17370 bound_to 10713
  156.0929  130.3662  150.0360 LP  0  0  0  0  0  0  0  0  0  0  0  0  # atno 17371 bound_to 10713
  140.8948  134.2451  157.5075 LP  0  0  0  0  0  0  0  0  0  0  0  0  # atno 17394 bound_to 11000
  139.8704  134.9679  156.4611 LP  0  0  0  0  0  0  0  0  0  0  0  0  # atno 17395 bound_to 11000

$$$$
