AV-unprocessed.smi:2748|AV-procd|sdf|10583|dock6
  -GOLD-   2272015 33D 1   1.00000     0.00000
 Structure written by MMmdl.
 29 31  0  0  0  0  0  0  0  0  2 V2000
  150.4319  135.3953  154.4615 O   0  0  0  0  0  0  0  0  0  0  0  0
  150.6942  136.5657  154.7347 C   0  0  0  0  0  0  0  0  0  0  0  0
  151.9740  137.0373  154.8022 N   0  5  0  0  0  0  0  0  0  0  0  0
  152.2855  138.3351  155.1065 C   0  0  0  0  0  0  0  0  0  0  0  0
  153.4476  138.7400  155.1527 O   0  0  0  0  0  0  0  0  0  0  0  0
  151.2704  139.2112  155.3668 N   0  0  0  0  0  0  0  0  0  0  0  0
  151.5131  140.6212  155.7001 C   0  0  0  0  0  0  0  0  0  0  0  0
  150.8499  141.0145  157.0336 C   0  0  2  0  0  0  0  0  0  0  0  0
  150.8335  142.5500  157.2594 C   0  0  0  0  0  0  0  0  0  0  0  0
  151.6054  142.6818  158.5252 C   0  0  0  0  0  0  0  0  0  0  0  0
  151.9268  143.8515  159.2345 C   0  0  0  0  0  0  0  0  0  0  0  0
  152.6817  143.7168  160.4205 C   0  0  0  0  0  0  0  0  0  0  0  0
  153.0947  142.4379  160.8661 C   0  0  0  0  0  0  0  0  0  0  0  0
  152.7578  141.2782  160.1319 C   0  0  0  0  0  0  0  0  0  0  0  0
  152.0050  141.4285  158.9538 C   0  0  0  0  0  0  0  0  0  0  0  0
  151.5868  140.4275  158.1244 O   0  0  0  0  0  0  0  0  0  0  0  0
  149.9350  138.7789  155.3032 C   0  0  0  0  0  0  0  0  0  0  0  0
  149.6087  137.5074  155.0007 C   0  0  0  0  0  0  0  0  0  0  0  0
  147.9572  137.0050  154.9267 Cl  0  0  0  0  0  0  0  0  0  0  0  0
  152.5847  140.8206  155.7492 H   0  0  0  0  0  0  0  0  0  0  0  0
  151.1430  141.2616  154.8977 H   0  0  0  0  0  0  0  0  0  0  0  0
  149.8274  140.6363  157.0723 H   0  0  0  0  0  0  0  0  0  0  0  0
  151.3234  143.1023  156.4568 H   0  0  0  0  0  0  0  0  0  0  0  0
  149.8203  142.9322  157.3866 H   0  0  0  0  0  0  0  0  0  0  0  0
  151.6076  144.8220  158.8839 H   0  0  0  0  0  0  0  0  0  0  0  0
  152.9460  144.5949  160.9911 H   0  0  0  0  0  0  0  0  0  0  0  0
  153.6718  142.3476  161.7745 H   0  0  0  0  0  0  0  0  0  0  0  0
  153.0697  140.3001  160.4672 H   0  0  0  0  0  0  0  0  0  0  0  0
  149.1979  139.5416  155.5077 H   0  0  0  0  0  0  0  0  0  0  0  0
  1  2  2  0  0  0  0
  2 18  1  0  0  0  0
  2  3  1  0  0  0  0
  3  4  1  0  0  0  0
  4  5  2  0  0  0  0
  4  6  1  0  0  0  0
  6  7  1  0  0  0  0
  6 17  1  0  0  0  0
  7  8  1  0  0  0  0
  7 20  1  0  0  0  0
  7 21  1  0  0  0  0
  8 16  1  0  0  0  0
  8  9  1  0  0  0  0
  8 22  1  0  0  0  0
  9 10  1  0  0  0  0
  9 23  1  0  0  0  0
  9 24  1  0  0  0  0
 10 15  2  0  0  0  0
 10 11  1  0  0  0  0
 11 12  2  0  0  0  0
 11 25  1  0  0  0  0
 12 13  1  0  0  0  0
 12 26  1  0  0  0  0
 13 14  2  0  0  0  0
 13 27  1  0  0  0  0
 14 15  1  0  0  0  0
 14 28  1  0  0  0  0
 15 16  1  0  0  0  0
 17 18  2  0  0  0  0
 17 29  1  0  0  0  0
 18 19  1  0  0  0  0
M  CHG  1   3  -1
M  END
> <s_m_source_file>
AV-unprocessed.smi

> <i_m_source_file_index>
2748

> <i_lp_mmshare_version>
43012

> <i_f3d_flags>
0

> <s_epik_input>
Tz1jMVtuSF1jKD1PKW4oW2NIXWMxQ2wpW0NIMl1bQ0BIXShbQ0gyXTIpT2MoYzIzKVtjSF1bY0hdW2NIXVtjSF0z

> <s_epik_cmdline>
J2VwaWtfcHl0aG9uJywgJy1waCcsICc3LjAnLCAnLXRuJywgJzgnLCAnLW1hJywgJzIwMCcsICctbWV0YWxfYmluZGluZycsICctaW1hZScsICc8aW5maWxlLm1hZT4nLCAnLW9tYWUnLCAnPG91dGZpbGUubWFlPic=

> <r_lp_tautomer_probability>
1

> <r_epik_Ionization_Penalty>
2.00749

> <r_epik_Ionization_Penalty_Charging>
2.26533e-08

> <r_epik_Ionization_Penalty_Neutral>
2.00749

> <r_epik_State_Penalty>
2.13675

> <r_epik_Charging_Adjusted_Penalty>
2.13675

> <i_epik_Tot_Q>
-1

> <i_epik_Tot_abs_Q>
1

> <r_epik_Metal_State_Penalty>
0.0208594

> <b_epik_Metal_Only>
0

> <s_lp_Force_Field>
OPLS_2005

> <r_lp_Energy>
29.9215

> <b_lp_Chiralities_Consistent>
1

> <s_lp_Variant>
AV-unprocessed.smi:2748-3

> <Gold.Version>
5.8.1

> <Gold.Id.Protein>
6NUR|6NUR_protein|mol2

> <Gold.PLP.Fitness>
45.8245

> <Gold.PLP.PLP>
-37.0693

> <Gold.PLP.part.hbond>
-2.0000

> <Gold.PLP.part.metal>
0.0000

> <Gold.PLP.part.buried>
-5.0051

> <Gold.PLP.part.nonpolar>
-31.5863

> <Gold.PLP.part.repulsive>
0.3046

> <Gold.PLP.ligand.clash>
0.0000

> <Gold.PLP.ligand.torsion>
0.0989

> <Gold.PLP.Chemscore.Hbond>
2.9840

> <Gold.PLP.Chemscore.CHOScore>
0.0000

> <Gold.PLP.Chemscore.Metal>
0.0000

> <Gold.Chemscore.Hbonds>
donor molecule, donor type, donor heavy atom, donor atom, acceptor molecule, acceptor atom, score
      P1  H  7997  8010       L1     5  0.98
      P1  H 10752 10763       L1     3  1.95

> <Gold.PLP.Chemscore.Internal.Correction>
0.0011

> <Gold.Rescore>
     Score         DG    S(hbond)    S(metal)    S(lipo)     H(rot)  DE(clash)    DE(int)     intcor
     18.76     -19.10       1.69        0.00      96.34       1.29       0.21       0.13       ----

> <Gold.Chemscore.Fitness>
18.7580

> <Gold.Chemscore.DG>
-19.0951

> <Gold.Chemscore.ZeroCoef>
-5.4800

> <Gold.Chemscore.Hbond>
1.6937

> <Gold.Chemscore.Metal>
0.0000

> <Gold.Chemscore.Lipo>
96.3351

> <Gold.Chemscore.Internal_Hbond>
0.0000

> <Gold.Chemscore.DEClash>
0.2052

> <Gold.Chemscore.DEInternal>
0.1318

> <Gold.Chemscore.Rot>
1.2942

> <Gold.Chemscore.Internal.Correction>
   9.000000E+99

> <Gold.Chemscore.Hbonds>
donor molecule, donor type, donor heavy atom, donor atom, acceptor molecule, acceptor atom, score
      P1  H  7997  8010       L1     5  0.93
      P1  H 10752 10763       L1     3  0.42

> <Gold.Chemscore.Hbond.Weighted>
-5.6569

> <Gold.Chemscore.Metal.Weighted>
-0.0000

> <Gold.Chemscore.Lipo.Weighted>
-11.2712

> <Gold.Chemscore.Internal_Hbond.Weighted>
0.0000

> <Gold.Chemscore.DEClash.Weighted>
0.2052

> <Gold.Chemscore.DEInternal.Weighted>
0.1318

> <Gold.Chemscore.Rot.Weighted>
3.3131

> <Gold.Chemscore.Internal.Correction.Weighted>
   9.000000E+99

> <Gold.Protein.RotatedTorsions>
[ 6907 6896 6895 6894 ] final  -24.99 input  -60.11 | X-H torsion
[ 7974 7965 7964 7962 ] final -146.80 input  175.53 | X-H torsion
[ 8008 7997 7996 7995 ] final  100.24 input   59.86 | X-H torsion
[ 10167 10162 10161 10158 ] final  124.18 input  -65.29 | X-H torsion
[ 10718 10713 10712 10709 ] final -110.21 input   66.30 | X-H torsion
[ 10763 10752 10751 10750 ] final   54.92 input  -60.55 | X-H torsion
[ 11005 11000 10999 10996 ] final   -2.62 input  -57.11 | X-H torsion

> <Gold.Protein.ActiveResidues>
 VAL166  LYS551  ARG553  GLY616  TRP617  ASP618  TYR619  PRO620  LYS621  CYS622 
 ASP623  PHE694  ASN695  SER759  ASP760  ASP761  ALA762  ILE779  LEU786  VAL792 
 PHE793  MET794  SER795  GLU796  ALA797  LYS798  CYS799  TRP800  GLU811  SER814 

> <Gold.Protein.RotatedAtoms>
  151.1816  135.0363  159.8794 H   0  0  0  0  0  0  0  0  0  0  0  0  # atno 6907 bound_to 6896
  152.5444  134.1056  159.8346 H   0  0  0  0  0  0  0  0  0  0  0  0  # atno 6908 bound_to 6896
  151.1174  133.5082  159.2635 H   0  0  0  0  0  0  0  0  0  0  0  0  # atno 6909 bound_to 6896
  144.8135  140.5409  143.5626 H   0  0  0  0  0  0  0  0  0  0  0  0  # atno 7974 bound_to 7965
  156.1184  140.3216  155.8172 H   0  0  0  0  0  0  0  0  0  0  0  0  # atno 8008 bound_to 7997
  155.4549  140.0535  157.3014 H   0  0  0  0  0  0  0  0  0  0  0  0  # atno 8009 bound_to 7997
  154.4809  140.2052  155.9779 H   0  0  0  0  0  0  0  0  0  0  0  0  # atno 8010 bound_to 7997
  139.5756  144.6962  151.3661 H   0  0  0  0  0  0  0  0  0  0  0  0  # atno 10167 bound_to 10162
  156.0578  130.5803  150.8206 H   0  0  0  0  0  0  0  0  0  0  0  0  # atno 10718 bound_to 10713
  152.9810  135.5728  154.4983 H   0  0  0  0  0  0  0  0  0  0  0  0  # atno 10763 bound_to 10752
  154.4506  135.2778  155.1786 H   0  0  0  0  0  0  0  0  0  0  0  0  # atno 10764 bound_to 10752
  154.3415  135.6228  153.5652 H   0  0  0  0  0  0  0  0  0  0  0  0  # atno 10765 bound_to 10752
  140.6604  133.9325  155.8433 H   0  0  0  0  0  0  0  0  0  0  0  0  # atno 11005 bound_to 11000
  145.5268  139.1476  143.3522 LP  0  0  0  0  0  0  0  0  0  0  0  0  # atno 17320 bound_to 7965
  146.2436  140.5409  142.8923 LP  0  0  0  0  0  0  0  0  0  0  0  0  # atno 17321 bound_to 7965
  140.7039  143.7563  150.7449 LP  0  0  0  0  0  0  0  0  0  0  0  0  # atno 17342 bound_to 10162
  140.1081  143.4724  152.2386 LP  0  0  0  0  0  0  0  0  0  0  0  0  # atno 17343 bound_to 10162
  157.5563  131.0945  150.9624 LP  0  0  0  0  0  0  0  0  0  0  0  0  # atno 17370 bound_to 10713
  156.9872  130.5549  149.5300 LP  0  0  0  0  0  0  0  0  0  0  0  0  # atno 17371 bound_to 10713
  141.0469  134.0540  157.3832 LP  0  0  0  0  0  0  0  0  0  0  0  0  # atno 17394 bound_to 11000
  139.9015  135.0166  156.7290 LP  0  0  0  0  0  0  0  0  0  0  0  0  # atno 17395 bound_to 11000

$$$$
