AV-unprocessed.smi:2762|AV-procd|sdf|10636|dock6
  -GOLD-   2272015 83D 1   1.00000     0.00000
 Structure written by MMmdl.
 39 40  0  0  0  0  0  0  0  0  1 V2000
  145.7654  137.3387  154.7073 O   0  0  0  0  0  0  0  0  0  0  0  0
  146.6278  137.0219  153.8873 C   0  0  0  0  0  0  0  0  0  0  0  0
  147.8550  137.5621  153.8557 N   0  0  0  0  0  0  0  0  0  0  0  0
  148.3664  138.5516  154.7991 C   0  0  0  0  0  0  0  0  0  0  0  0
  149.1177  139.6875  154.0767 C   0  0  0  0  0  0  0  0  0  0  0  0
  150.4998  139.9031  154.5051 N   0  0  0  0  0  0  0  0  0  0  0  0
  151.3329  138.7137  154.3411 C   0  0  0  0  0  0  0  0  0  0  0  0
  152.7787  138.9621  154.8040 C   0  0  0  0  0  0  0  0  0  0  0  0
  152.7787  139.3981  156.1597 O   0  0  0  0  0  0  0  0  0  0  0  0
  152.0094  140.5803  156.3554 C   0  0  0  0  0  0  0  0  0  0  0  0
  150.5616  140.3348  155.8966 C   0  0  0  0  0  0  0  0  0  0  0  0
  146.4767  136.1030  152.9174 N   0  0  0  0  0  0  0  0  0  0  0  0
  145.3541  135.2699  152.6654 C   0  0  0  0  0  0  0  0  0  0  0  0
  145.5709  134.2456  151.7166 C   0  0  0  0  0  0  0  0  0  0  0  0
  144.5226  133.3544  151.3980 C   0  0  0  0  0  0  0  0  0  0  0  0
  144.7096  132.2420  150.3781 C   0  0  0  0  0  0  0  0  0  0  0  0
  144.5961  131.0531  150.9709 F   0  0  0  0  0  0  0  0  0  0  0  0
  143.7702  132.3451  149.4387 F   0  0  0  0  0  0  0  0  0  0  0  0
  145.9071  132.3071  149.7949 F   0  0  0  0  0  0  0  0  0  0  0  0
  143.2807  133.5275  152.0408 C   0  0  0  0  0  0  0  0  0  0  0  0
  143.1494  134.5729  152.9723 C   0  0  0  0  0  0  0  0  0  0  0  0
  144.1539  135.4191  153.2784 N   0  0  0  0  0  0  0  0  0  0  0  0
  148.4956  137.2432  153.1440 H   0  0  0  0  0  0  0  0  0  0  0  0
  147.5063  138.9746  155.3183 H   0  0  0  0  0  0  0  0  0  0  0  0
  148.9767  138.0867  155.5741 H   0  0  0  0  0  0  0  0  0  0  0  0
  149.1059  139.4648  153.0089 H   0  0  0  0  0  0  0  0  0  0  0  0
  148.5559  140.6159  154.1900 H   0  0  0  0  0  0  0  0  0  0  0  0
  150.9095  137.8837  154.9087 H   0  0  0  0  0  0  0  0  0  0  0  0
  151.3507  138.4003  153.2985 H   0  0  0  0  0  0  0  0  0  0  0  0
  153.3657  138.0472  154.7230 H   0  0  0  0  0  0  0  0  0  0  0  0
  153.2618  139.7100  154.1733 H   0  0  0  0  0  0  0  0  0  0  0  0
  152.0326  140.8505  157.4111 H   0  0  0  0  0  0  0  0  0  0  0  0
  152.4549  141.4083  155.8018 H   0  0  0  0  0  0  0  0  0  0  0  0
  149.9839  141.2505  156.0262 H   0  0  0  0  0  0  0  0  0  0  0  0
  150.1019  139.5821  156.5388 H   0  0  0  0  0  0  0  0  0  0  0  0
  147.2662  135.9648  152.3044 H   0  0  0  0  0  0  0  0  0  0  0  0
  146.5342  134.1467  151.2377 H   0  0  0  0  0  0  0  0  0  0  0  0
  142.4472  132.8755  151.8255 H   0  0  0  0  0  0  0  0  0  0  0  0
  142.2130  134.7346  153.4854 H   0  0  0  0  0  0  0  0  0  0  0  0
  1  2  2  0  0  0  0
  2  3  1  0  0  0  0
  2 12  1  0  0  0  0
  3  4  1  0  0  0  0
  3 23  1  0  0  0  0
  4  5  1  0  0  0  0
  4 24  1  0  0  0  0
  4 25  1  0  0  0  0
  5  6  1  0  0  0  0
  5 26  1  0  0  0  0
  5 27  1  0  0  0  0
  6 11  1  0  0  0  0
  6  7  1  0  0  0  0
  7  8  1  0  0  0  0
  7 28  1  0  0  0  0
  7 29  1  0  0  0  0
  8  9  1  0  0  0  0
  8 30  1  0  0  0  0
  8 31  1  0  0  0  0
  9 10  1  0  0  0  0
 10 11  1  0  0  0  0
 10 32  1  0  0  0  0
 10 33  1  0  0  0  0
 11 34  1  0  0  0  0
 11 35  1  0  0  0  0
 12 13  1  0  0  0  0
 12 36  1  0  0  0  0
 13 22  1  0  0  0  0
 13 14  2  0  0  0  0
 14 15  1  0  0  0  0
 14 37  1  0  0  0  0
 15 16  1  0  0  0  0
 15 20  2  0  0  0  0
 16 17  1  0  0  0  0
 16 18  1  0  0  0  0
 16 19  1  0  0  0  0
 20 21  1  0  0  0  0
 20 38  1  0  0  0  0
 21 22  2  0  0  0  0
 21 39  1  0  0  0  0
M  END
> <s_m_source_file>
AV-unprocessed.smi

> <i_m_source_file_index>
2762

> <i_lp_mmshare_version>
43012

> <i_f3d_flags>
0

> <s_epik_input>
bjFbY0hdW2NIXWMoQyhGKShGKUYpW2NIXWMxW05IXUMoPU8pW05IXVtDSDJdW0NIMl1OMltDSDJdW0NIMl1PW0NIMl1bQ0gyXTI=

> <s_epik_cmdline>
J2VwaWtfcHl0aG9uJywgJy1waCcsICc3LjAnLCAnLXRuJywgJzgnLCAnLW1hJywgJzIwMCcsICctbWV0YWxfYmluZGluZycsICctaW1hZScsICc8aW5maWxlLm1hZT4nLCAnLW9tYWUnLCAnPG91dGZpbGUubWFlPic=

> <r_epik_Ionization_Penalty>
0.266026

> <r_epik_Ionization_Penalty_Charging>
0

> <r_epik_Ionization_Penalty_Neutral>
0.266026

> <r_epik_State_Penalty>
0.257924

> <r_epik_Charging_Adjusted_Penalty>
0.257924

> <i_epik_Tot_Q>
0

> <i_epik_Tot_abs_Q>
0

> <r_epik_Metal_State_Penalty>
0.257924

> <b_epik_Metal_Only>
0

> <s_lp_Force_Field>
OPLS_2005

> <r_lp_Energy>
26.9092

> <b_lp_Chiralities_Consistent>
1

> <s_lp_Variant>
AV-unprocessed.smi:2762-1

> <Gold.Version>
5.8.1

> <Gold.Id.Protein>
6NUR|6NUR_protein|mol2

> <Gold.PLP.Fitness>
49.3218

> <Gold.PLP.PLP>
-39.1418

> <Gold.PLP.part.hbond>
-4.0000

> <Gold.PLP.part.metal>
0.0000

> <Gold.PLP.part.buried>
-4.3287

> <Gold.PLP.part.nonpolar>
-32.0908

> <Gold.PLP.part.repulsive>
0.2584

> <Gold.PLP.ligand.clash>
0.0000

> <Gold.PLP.ligand.torsion>
0.5761

> <Gold.PLP.Chemscore.Hbond>
3.7500

> <Gold.PLP.Chemscore.CHOScore>
0.0000

> <Gold.PLP.Chemscore.Metal>
0.0000

> <Gold.Chemscore.Hbonds>
donor molecule, donor type, donor heavy atom, donor atom, acceptor molecule, acceptor atom, score
      L1  H     3    23       P1  7948  1.00
      L1  H    12    36       P1  7948  1.00
      P1  H  7989  7998       L1     6  0.55
      P1  H  7997  8008       L1     9  0.85

> <Gold.PLP.Chemscore.Internal.Correction>
0.0822

> <Gold.Rescore>
     Score         DG    S(hbond)    S(metal)    S(lipo)     H(rot)  DE(clash)    DE(int)     intcor
     14.81     -16.83       2.24        0.00      68.70       1.63       0.17       1.85       ----

> <Gold.Chemscore.Fitness>
14.8122

> <Gold.Chemscore.DG>
-16.8325

> <Gold.Chemscore.ZeroCoef>
-5.4800

> <Gold.Chemscore.Hbond>
2.2392

> <Gold.Chemscore.Metal>
0.0000

> <Gold.Chemscore.Lipo>
68.6952

> <Gold.Chemscore.Internal_Hbond>
0.0000

> <Gold.Chemscore.DEClash>
0.1745

> <Gold.Chemscore.DEInternal>
1.8458

> <Gold.Chemscore.Rot>
1.6265

> <Gold.Chemscore.Internal.Correction>
   9.000000E+99

> <Gold.Chemscore.Hbonds>
donor molecule, donor type, donor heavy atom, donor atom, acceptor molecule, acceptor atom, score
      L1  H     3    23       P1  7948  0.98
      L1  H    12    36       P1  7948  0.97
      P1  H  7989  7998       L1     6  0.02
      P1  H  7997  8008       L1     9  0.10

> <Gold.Chemscore.Hbond.Weighted>
-7.4790

> <Gold.Chemscore.Metal.Weighted>
-0.0000

> <Gold.Chemscore.Lipo.Weighted>
-8.0373

> <Gold.Chemscore.Internal_Hbond.Weighted>
0.0000

> <Gold.Chemscore.DEClash.Weighted>
0.1745

> <Gold.Chemscore.DEInternal.Weighted>
1.8458

> <Gold.Chemscore.Rot.Weighted>
4.1638

> <Gold.Chemscore.Internal.Correction.Weighted>
   9.000000E+99

> <Gold.Protein.RotatedTorsions>
[ 6907 6896 6895 6894 ] final  -51.23 input  -60.11 | X-H torsion
[ 7974 7965 7964 7962 ] final -179.10 input  175.53 | X-H torsion
[ 8008 7997 7996 7995 ] final  -54.15 input   59.86 | X-H torsion
[ 10167 10162 10161 10158 ] final   -3.49 input  -65.29 | X-H torsion
[ 10718 10713 10712 10709 ] final  -97.20 input   66.30 | X-H torsion
[ 10763 10752 10751 10750 ] final  -89.68 input  -60.55 | X-H torsion
[ 11005 11000 10999 10996 ] final  134.07 input  -57.11 | X-H torsion

> <Gold.Protein.ActiveResidues>
 VAL166  LYS551  ARG553  GLY616  TRP617  ASP618  TYR619  PRO620  LYS621  CYS622 
 ASP623  PHE694  ASN695  SER759  ASP760  ASP761  ALA762  ILE779  LEU786  VAL792 
 PHE793  MET794  SER795  GLU796  ALA797  LYS798  CYS799  TRP800  GLU811  SER814 

> <Gold.Protein.RotatedAtoms>
  150.8631  134.7987  159.7097 H   0  0  0  0  0  0  0  0  0  0  0  0  # atno 6907 bound_to 6896
  152.4661  134.5068  159.9751 H   0  0  0  0  0  0  0  0  0  0  0  0  # atno 6908 bound_to 6896
  151.5169  133.3435  159.2930 H   0  0  0  0  0  0  0  0  0  0  0  0  # atno 6909 bound_to 6896
  144.7134  140.0768  143.6427 H   0  0  0  0  0  0  0  0  0  0  0  0  # atno 7974 bound_to 7965
  154.4154  140.1183  156.5268 H   0  0  0  0  0  0  0  0  0  0  0  0  # atno 8008 bound_to 7997
  155.6646  140.3496  155.4776 H   0  0  0  0  0  0  0  0  0  0  0  0  # atno 8009 bound_to 7997
  155.9684  140.1136  157.0824 H   0  0  0  0  0  0  0  0  0  0  0  0  # atno 8010 bound_to 7997
  140.6892  143.6534  150.8330 H   0  0  0  0  0  0  0  0  0  0  0  0  # atno 10167 bound_to 10162
  156.0078  130.5184  150.6339 H   0  0  0  0  0  0  0  0  0  0  0  0  # atno 10718 bound_to 10713
  154.6578  135.5332  153.7981 H   0  0  0  0  0  0  0  0  0  0  0  0  # atno 10763 bound_to 10752
  153.0424  135.6498  154.0918 H   0  0  0  0  0  0  0  0  0  0  0  0  # atno 10764 bound_to 10752
  154.0829  135.2945  155.3266 H   0  0  0  0  0  0  0  0  0  0  0  0  # atno 10765 bound_to 10752
  139.9892  134.9521  156.9815 H   0  0  0  0  0  0  0  0  0  0  0  0  # atno 11005 bound_to 11000
  145.9736  139.2888  143.1084 LP  0  0  0  0  0  0  0  0  0  0  0  0  # atno 17320 bound_to 7965
  145.9089  140.9193  143.0464 LP  0  0  0  0  0  0  0  0  0  0  0  0  # atno 17321 bound_to 7965
  140.0245  143.5508  152.2786 LP  0  0  0  0  0  0  0  0  0  0  0  0  # atno 17342 bound_to 10162
  139.6278  144.7640  151.2601 LP  0  0  0  0  0  0  0  0  0  0  0  0  # atno 17343 bound_to 10162
  157.4132  131.0826  151.1202 LP  0  0  0  0  0  0  0  0  0  0  0  0  # atno 17370 bound_to 10713
  157.1827  130.6316  149.5677 LP  0  0  0  0  0  0  0  0  0  0  0  0  # atno 17371 bound_to 10713
  140.4942  134.1162  155.7238 LP  0  0  0  0  0  0  0  0  0  0  0  0  # atno 17394 bound_to 11000
  141.1551  133.8898  157.1998 LP  0  0  0  0  0  0  0  0  0  0  0  0  # atno 17395 bound_to 11000

$$$$
