#       Name:                AV-unprocessed.smi:3250
#       Creating user name   scv26
#       Creation time:       Fri Mar 27 18:31:45 2020


#       File generated by GOLD software.
#

@<TRIPOS>MOLECULE
AV-unprocessed.smi:3250
    45    46     1
SMALL
NO_CHARGES


@<TRIPOS>ATOM
      1 ****        -4.1680   3.8108  -0.6431 C.3            1 S1                 0.0000
      2 ****        -3.5380   2.4355  -0.3818 C.3            1 S1                 0.0000
      3 ****        -2.0784   2.4305  -0.3033 N.3            1 S1                 0.0000
      4 ****        -1.5770   3.1547   0.8621 C.3            1 S1                 0.0000
      5 ****        -0.0422   3.1076   0.9486 C.3            1 S1                 0.0000
      6 ****         0.3923   1.7522   0.9584 O.3            1 S1                 0.0000
      7 ****        -0.0228   1.0266  -0.1965 C.3            1 S1                 0.0000
      8 ****         0.5019  -0.4105  -0.0805 C.3            1 S1                 0.0000
      9 ****         1.9518  -0.4633  -0.1914 N.pl3          1 S1                 0.0000
     10 ****         2.6894  -1.6308  -0.1439 C.ar           1 S1                 0.0000
     11 ****         4.0152  -1.4760  -0.1648 N.ar           1 S1                 0.0000
     12 ****         4.7643  -2.5988  -0.1131 C.ar           1 S1                 0.0000
     13 ****         4.1803  -3.8792  -0.0413 C.ar           1 S1                 0.0000
     14 ****         2.7718  -3.9277  -0.0291 C.ar           1 S1                 0.0000
     15 ****         2.1354  -5.1499   0.0355 O.3            1 S1                 0.0000
     16 ****         0.7123  -5.1659   0.0231 C.3            1 S1                 0.0000
     17 ****         2.0297  -2.7932  -0.0803 N.ar           1 S1                 0.0000
     18 ****        -1.5622   1.0661  -0.2703 C.3            1 S1                 0.0000
     19 ****        -5.2443   3.7166  -0.7876 H              1 S1                 0.0000
     20 ****        -3.7527   4.2695  -1.5410 H              1 S1                 0.0000
     21 ****        -4.0134   4.4956   0.1902 H              1 S1                 0.0000
     22 ****        -3.9604   2.0088   0.5291 H              1 S1                 0.0000
     23 ****        -3.8480   1.7756  -1.1931 H              1 S1                 0.0000
     24 ****        -1.8914   4.1970   0.8249 H              1 S1                 0.0000
     25 ****        -2.0024   2.7308   1.7731 H              1 S1                 0.0000
     26 ****         0.4092   3.6361   0.1075 H              1 S1                 0.0000
     27 ****         0.3019   3.5990   1.8586 H              1 S1                 0.0000
     28 ****         0.3937   1.4944  -1.0909 H              1 S1                 0.0000
     29 ****         0.1905  -0.8526   0.8666 H              1 S1                 0.0000
     30 ****         0.0742  -1.0213  -0.8765 H              1 S1                 0.0000
     31 ****         2.4620   0.4078  -0.2093 H              1 S1                 0.0000
     32 ****         5.8370  -2.4750  -0.1290 H              1 S1                 0.0000
     33 ****         4.7808  -4.7758   0.0010 H              1 S1                 0.0000
     34 ****         0.3623  -6.1967   0.0727 H              1 S1                 0.0000
     35 ****         0.3168  -4.7261  -0.8935 H              1 S1                 0.0000
     36 ****         0.2997  -4.6344   0.8817 H              1 S1                 0.0000
     37 ****        -1.9800   0.5347   0.5866 H              1 S1                 0.0000
     38 ****        -1.8920   0.5279  -1.1599 H              1 S1                 0.0000
     39 ****        -1.7548   2.8982  -1.1259 LP             1 S1                 0.0000
     40 ****         0.0170   1.3029   1.7691 LP             1 S1                 0.0000
     41 ****         1.3913   1.7379   1.0019 LP             1 S1                 0.0000
     42 ****         4.4348  -0.5698  -0.2164 LP             1 S1                 0.0000
     43 ****         2.4300  -5.5938   0.8818 LP             1 S1                 0.0000
     44 ****         2.4453  -5.6879  -0.7484 LP             1 S1                 0.0000
     45 ****         1.0302  -2.8244  -0.0709 LP             1 S1                 0.0000
@<TRIPOS>BOND
    1    1    2 1     
    2    1   19 1     
    3    1   20 1     
    4    1   21 1     
    5    2    3 1     
    6    2   22 1     
    7    2   23 1     
    8    3   18 1     
    9    3    4 1     
   10    4    5 1     
   11    4   24 1     
   12    4   25 1     
   13    5    6 1     
   14    5   26 1     
   15    5   27 1     
   16    6    7 1     
   17    7    8 1     
   18    7   18 1     
   19    7   28 1     
   20    8    9 1     
   21    8   29 1     
   22    8   30 1     
   23    9   10 1     
   24    9   31 1     
   25   10   17 ar    
   26   10   11 ar    
   27   11   12 ar    
   28   12   13 ar    
   29   12   32 1     
   30   13   14 ar    
   31   13   33 1     
   32   14   15 1     
   33   14   17 ar    
   34   15   16 1     
   35   16   34 1     
   36   16   35 1     
   37   16   36 1     
   38   18   37 1     
   39   18   38 1     
   40    3   39 1     
   41    6   40 1     
   42    6   41 1     
   43   11   42 1     
   44   15   43 1     
   45   15   44 1     
   46   17   45 1     
@<TRIPOS>SUBSTRUCTURE
      1 S1             1
@<TRIPOS>SET
LONE_PAIRS      STATIC     ATOMS    <user>   **** ""
7 39 40 41 42 43 44 45
DONOR_HYDROGENS      STATIC     ATOMS    <user>   **** ""
1 31
ATOM$BLUE        STATIC     ATOMS    COLORGROUP SYSTEM
7 39 40 41 42 43 44 45
ATOM$RED        STATIC     ATOMS    COLORGROUP SYSTEM
1 31
