AV-unprocessed.smi:2734|AV-procd|sdf|10539|dock7
  -GOLD-   2272014583D 1   1.00000     0.00000
 Structure written by MMmdl.
 41 43  0  0  0  0  0  0  0  0  2 V2000
  152.2213  144.4065  161.0123 C   0  0  0  0  0  0  0  0  0  0  0  0
  152.0310  143.3956  159.8944 C   0  0  0  0  0  0  0  0  0  0  0  0
  151.2214  143.7537  158.7926 C   0  0  0  0  0  0  0  0  0  0  0  0
  151.0692  142.8097  157.7841 C   0  0  0  0  0  0  0  0  0  0  0  0
  150.3515  142.8560  156.5867 N   0  3  0  0  0  0  0  0  0  0  0  0
  150.5083  141.6803  155.9172 C   0  0  0  0  0  0  0  0  0  0  0  0
  151.3153  140.8849  156.6703 N   0  0  0  0  0  0  0  0  0  0  0  0
  151.8084  139.5258  156.4123 C   0  0  0  0  0  0  0  0  0  0  0  0
  150.8914  138.7285  155.4643 C   0  0  2  0  0  0  0  0  0  0  0  0
  151.0858  139.1753  154.1358 O   0  0  0  0  0  0  0  0  0  0  0  0
  149.4085  138.8778  155.8388 C   0  0  0  0  0  0  0  0  0  0  0  0
  148.4427  137.4002  155.3989 S   0  0  0  0  0  0  0  0  0  0  0  0
  149.1824  136.2205  156.4858 C   0  0  0  0  0  0  0  0  0  0  0  0
  149.1880  136.2593  157.8134 N   0  0  0  0  0  0  0  0  0  0  0  0
  149.8856  135.1236  158.1787 N   0  0  0  0  0  0  0  0  0  0  0  0
  150.2721  134.4512  157.1338 N   0  0  0  0  0  0  0  0  0  0  0  0
  149.8331  135.1347  156.0491 N   0  0  0  0  0  0  0  0  0  0  0  0
  150.0938  134.6563  154.7061 C   0  0  0  0  0  0  0  0  0  0  0  0
  151.6885  141.5464  157.8443 C   0  0  0  0  0  0  0  0  0  0  0  0
  152.4876  141.1759  158.9228 C   0  0  0  0  0  0  0  0  0  0  0  0
  152.6543  142.1220  159.9596 C   0  0  0  0  0  0  0  0  0  0  0  0
  153.5213  141.7469  161.1493 C   0  0  0  0  0  0  0  0  0  0  0  0
  151.7281  145.3519  160.7839 H   0  0  0  0  0  0  0  0  0  0  0  0
  153.2803  144.6137  161.1673 H   0  0  0  0  0  0  0  0  0  0  0  0
  151.8015  144.0281  161.9445 H   0  0  0  0  0  0  0  0  0  0  0  0
  150.7432  144.7206  158.7368 H   0  0  0  0  0  0  0  0  0  0  0  0
  150.0768  141.4268  154.9594 H   0  0  0  0  0  0  0  0  0  0  0  0
  152.8208  139.5961  156.0125 H   0  0  0  0  0  0  0  0  0  0  0  0
  151.8902  139.0192  157.3752 H   0  0  0  0  0  0  0  0  0  0  0  0
  151.1627  137.6731  155.5066 H   0  0  0  0  0  0  0  0  0  0  0  0
  151.5372  138.4973  153.6557 H   0  0  0  0  0  0  0  0  0  0  0  0
  149.3181  139.0374  156.9139 H   0  0  0  0  0  0  0  0  0  0  0  0
  148.9802  139.7521  155.3464 H   0  0  0  0  0  0  0  0  0  0  0  0
  150.6254  135.4222  154.1412 H   0  0  0  0  0  0  0  0  0  0  0  0
  149.1499  134.4354  154.2072 H   0  0  0  0  0  0  0  0  0  0  0  0
  150.7015  133.7508  154.7327 H   0  0  0  0  0  0  0  0  0  0  0  0
  152.9640  140.2078  158.9690 H   0  0  0  0  0  0  0  0  0  0  0  0
  153.8562  140.7110  161.0878 H   0  0  0  0  0  0  0  0  0  0  0  0
  152.9679  141.8608  162.0817 H   0  0  0  0  0  0  0  0  0  0  0  0
  154.4063  142.3825  161.1911 H   0  0  0  0  0  0  0  0  0  0  0  0
  149.7975  143.6318  156.2469 H   0  0  0  0  0  0  0  0  0  0  0  0
  1  2  1  0  0  0  0
  1 23  1  0  0  0  0
  1 24  1  0  0  0  0
  1 25  1  0  0  0  0
  2 21  1  0  0  0  0
  2  3  2  0  0  0  0
  3  4  1  0  0  0  0
  3 26  1  0  0  0  0
  4 19  2  0  0  0  0
  4  5  1  0  0  0  0
  5  6  2  0  0  0  0
  5 41  1  0  0  0  0
  6  7  1  0  0  0  0
  6 27  1  0  0  0  0
  7  8  1  0  0  0  0
  7 19  1  0  0  0  0
  8  9  1  0  0  0  0
  8 28  1  0  0  0  0
  8 29  1  0  0  0  0
  9 10  1  0  0  0  0
  9 11  1  0  0  0  0
  9 30  1  0  0  0  0
 10 31  1  0  0  0  0
 11 12  1  0  0  0  0
 11 32  1  0  0  0  0
 11 33  1  0  0  0  0
 12 13  1  0  0  0  0
 13 17  1  0  0  0  0
 13 14  2  0  0  0  0
 14 15  1  0  0  0  0
 15 16  2  0  0  0  0
 16 17  1  0  0  0  0
 17 18  1  0  0  0  0
 18 34  1  0  0  0  0
 18 35  1  0  0  0  0
 18 36  1  0  0  0  0
 19 20  1  0  0  0  0
 20 21  2  0  0  0  0
 20 37  1  0  0  0  0
 21 22  1  0  0  0  0
 22 38  1  0  0  0  0
 22 39  1  0  0  0  0
 22 40  1  0  0  0  0
M  CHG  1   5   1
M  END
> <s_m_source_file>
AV-unprocessed.smi

> <i_m_source_file_index>
2734

> <i_lp_mmshare_version>
43012

> <i_f3d_flags>
0

> <s_epik_input>
W0NIM11jKFtjSF0xKWMoW0NIM10pW2NIXWMoYzEyKW4oW2NIXW4yKVtDSDJdW0NASF0oW09IXSlbQ0gyXVNjM25ubm4zW0NIM10=

> <s_epik_cmdline>
J2VwaWtfcHl0aG9uJywgJy1waCcsICc3LjAnLCAnLXRuJywgJzgnLCAnLW1hJywgJzIwMCcsICctbWV0YWxfYmluZGluZycsICctaW1hZScsICc8aW5maWxlLm1hZT4nLCAnLW9tYWUnLCAnPG91dGZpbGUubWFlPic=

> <r_lp_tautomer_probability>
1

> <r_epik_Ionization_Penalty>
1.07429

> <r_epik_Ionization_Penalty_Charging>
1.07429

> <r_epik_Ionization_Penalty_Neutral>
3.30514e-06

> <r_epik_State_Penalty>
1.12915

> <r_epik_Charging_Adjusted_Penalty>
2.20344

> <i_epik_Tot_Q>
1

> <i_epik_Tot_abs_Q>
1

> <r_epik_Metal_State_Penalty>
1.22002

> <b_epik_Metal_Only>
0

> <s_lp_Force_Field>
OPLS_2005

> <r_lp_Energy>
14.6731

> <b_lp_Chiralities_Consistent>
1

> <s_lp_Variant>
AV-unprocessed.smi:2734-3

> <Gold.Version>
5.8.1

> <Gold.Id.Protein>
6NUR|6NUR_protein|mol2

> <Gold.PLP.Fitness>
50.5637

> <Gold.PLP.PLP>
-40.2191

> <Gold.PLP.part.hbond>
-3.8584

> <Gold.PLP.part.metal>
0.0000

> <Gold.PLP.part.buried>
-5.2119

> <Gold.PLP.part.nonpolar>
-31.6680

> <Gold.PLP.part.repulsive>
0.0628

> <Gold.PLP.ligand.clash>
0.0000

> <Gold.PLP.ligand.torsion>
0.8330

> <Gold.PLP.Chemscore.Hbond>
4.0000

> <Gold.PLP.Chemscore.CHOScore>
0.0000

> <Gold.PLP.Chemscore.Metal>
0.0000

> <Gold.Chemscore.Hbonds>
donor molecule, donor type, donor heavy atom, donor atom, acceptor molecule, acceptor atom, score
      L1  H     5    41       P1  8028  2.00
      P1  H  6896  6908       L1    15  0.99
      P1  H  7989  7998       L1    10  1.00

> <Gold.PLP.Chemscore.Internal.Correction>
0.0106

> <Gold.Rescore>
     Score         DG    S(hbond)    S(metal)    S(lipo)     H(rot)  DE(clash)    DE(int)     intcor
     16.79     -18.99       2.75        0.00     100.90       2.92       0.27       1.93       ----

> <Gold.Chemscore.Fitness>
16.7923

> <Gold.Chemscore.DG>
-18.9946

> <Gold.Chemscore.ZeroCoef>
-5.4800

> <Gold.Chemscore.Hbond>
2.7473

> <Gold.Chemscore.Metal>
0.0000

> <Gold.Chemscore.Lipo>
100.8951

> <Gold.Chemscore.Internal_Hbond>
0.0000

> <Gold.Chemscore.DEClash>
0.2673

> <Gold.Chemscore.DEInternal>
1.9349

> <Gold.Chemscore.Rot>
2.9164

> <Gold.Chemscore.Internal.Correction>
   9.000000E+99

> <Gold.Chemscore.Hbonds>
donor molecule, donor type, donor heavy atom, donor atom, acceptor molecule, acceptor atom, score
      L1  H     5    41       P1  8028  0.93
      P1  H  6896  6908       L1    15  0.42
      P1  H  7989  7998       L1    10  0.65

> <Gold.Chemscore.Hbond.Weighted>
-9.1758

> <Gold.Chemscore.Metal.Weighted>
-0.0000

> <Gold.Chemscore.Lipo.Weighted>
-11.8047

> <Gold.Chemscore.Internal_Hbond.Weighted>
0.0000

> <Gold.Chemscore.DEClash.Weighted>
0.2673

> <Gold.Chemscore.DEInternal.Weighted>
1.9349

> <Gold.Chemscore.Rot.Weighted>
7.4660

> <Gold.Chemscore.Internal.Correction.Weighted>
   9.000000E+99

> <Gold.Protein.RotatedTorsions>
[ 6907 6896 6895 6894 ] final  156.47 input  -60.11 | X-H torsion
[ 7974 7965 7964 7962 ] final -160.67 input  175.53 | X-H torsion
[ 8008 7997 7996 7995 ] final  -63.34 input   59.86 | X-H torsion
[ 10167 10162 10161 10158 ] final -122.55 input  -65.29 | X-H torsion
[ 10718 10713 10712 10709 ] final -102.96 input   66.30 | X-H torsion
[ 10763 10752 10751 10750 ] final -145.78 input  -60.55 | X-H torsion
[ 11005 11000 10999 10996 ] final  -68.64 input  -57.11 | X-H torsion

> <Gold.Protein.ActiveResidues>
 VAL166  LYS551  ARG553  GLY616  TRP617  ASP618  TYR619  PRO620  LYS621  CYS622 
 ASP623  PHE694  ASN695  SER759  ASP760  ASP761  ALA762  ILE779  LEU786  VAL792 
 PHE793  MET794  SER795  GLU796  ALA797  LYS798  CYS799  TRP800  GLU811  SER814 

> <Gold.Protein.RotatedAtoms>
  152.0292  133.3930  159.4290 H   0  0  0  0  0  0  0  0  0  0  0  0  # atno 6907 bound_to 6896
  150.6883  134.3539  159.4930 H   0  0  0  0  0  0  0  0  0  0  0  0  # atno 6908 bound_to 6896
  152.1323  134.9125  160.0609 H   0  0  0  0  0  0  0  0  0  0  0  0  # atno 6909 bound_to 6896
  144.7418  140.3508  143.6116 H   0  0  0  0  0  0  0  0  0  0  0  0  # atno 7974 bound_to 7965
  154.4549  140.0977  156.6727 H   0  0  0  0  0  0  0  0  0  0  0  0  # atno 8008 bound_to 7997
  155.5169  140.3478  155.4381 H   0  0  0  0  0  0  0  0  0  0  0  0  # atno 8009 bound_to 7997
  156.0757  140.1360  156.9763 H   0  0  0  0  0  0  0  0  0  0  0  0  # atno 8010 bound_to 7997
  140.0130  143.5422  152.2254 H   0  0  0  0  0  0  0  0  0  0  0  0  # atno 10167 bound_to 10162
  156.0247  130.5444  150.7183 H   0  0  0  0  0  0  0  0  0  0  0  0  # atno 10718 bound_to 10713
  154.8367  135.3404  154.6558 H   0  0  0  0  0  0  0  0  0  0  0  0  # atno 10763 bound_to 10752
  153.7172  135.6960  153.5026 H   0  0  0  0  0  0  0  0  0  0  0  0  # atno 10764 bound_to 10752
  153.2408  135.4385  155.0649 H   0  0  0  0  0  0  0  0  0  0  0  0  # atno 10765 bound_to 10752
  141.1536  133.6745  156.6477 H   0  0  0  0  0  0  0  0  0  0  0  0  # atno 11005 bound_to 11000
  145.7278  139.1727  143.2448 LP  0  0  0  0  0  0  0  0  0  0  0  0  # atno 17320 bound_to 7965
  146.1229  140.7286  142.9449 LP  0  0  0  0  0  0  0  0  0  0  0  0  # atno 17321 bound_to 7965
  139.6192  144.7625  151.2779 LP  0  0  0  0  0  0  0  0  0  0  0  0  # atno 17342 bound_to 10162
  140.7373  143.6680  150.8106 LP  0  0  0  0  0  0  0  0  0  0  0  0  # atno 17343 bound_to 10162
  157.4805  131.0902  151.0542 LP  0  0  0  0  0  0  0  0  0  0  0  0  # atno 17370 bound_to 10713
  157.0976  130.5968  149.5453 LP  0  0  0  0  0  0  0  0  0  0  0  0  # atno 17371 bound_to 10713
  140.3344  134.7902  157.4350 LP  0  0  0  0  0  0  0  0  0  0  0  0  # atno 17394 bound_to 11000
  140.0990  134.5498  155.8371 LP  0  0  0  0  0  0  0  0  0  0  0  0  # atno 17395 bound_to 11000

$$$$
