AV-unprocessed.smi:920|AV-procd|sdf|4168|dock5
  -GOLD-   22720 2 73D 1   1.00000     0.00000
 Structure written by MMmdl.
 37 38  0  0  0  0  0  0  0  0  1 V2000
  152.6523  131.1205  157.6976 C   0  0  0  0  0  0  0  0  0  0  0  0
  151.9502  132.3546  157.7998 O   0  0  0  0  0  0  0  0  0  0  0  0
  151.1373  132.7341  156.7514 C   0  0  0  0  0  0  0  0  0  0  0  0
  150.7767  131.7662  155.7928 C   0  0  0  0  0  0  0  0  0  0  0  0
  149.9491  132.1458  154.7188 C   0  0  0  0  0  0  0  0  0  0  0  0
  149.5144  133.4897  154.6329 C   0  0  0  0  0  0  0  0  0  0  0  0
  148.6621  133.9894  153.6118 N   0  0  0  0  0  0  0  0  0  0  0  0
  147.6005  133.3919  153.0441 C   0  0  0  0  0  0  0  0  0  0  0  0
  147.2061  132.2543  153.3001 O   0  0  0  0  0  0  0  0  0  0  0  0
  147.0275  134.1929  152.1341 N   0  0  0  0  0  0  0  0  0  0  0  0
  145.8624  133.8656  151.3161 C   0  0  0  0  0  0  0  0  0  0  0  0
  144.6814  133.4719  152.2240 C   0  0  0  0  0  0  0  0  0  0  0  0
  143.4606  133.0293  151.4007 C   0  0  0  0  0  0  0  0  0  0  0  0
  143.8210  131.8878  150.4369 C   0  0  0  0  0  0  0  0  0  0  0  0
  144.9916  132.2839  149.5235 C   0  0  0  0  0  0  0  0  0  0  0  0
  146.2153  132.7233  150.3441 C   0  0  0  0  0  0  0  0  0  0  0  0
  149.9192  134.3771  155.6511 C   0  0  0  0  0  0  0  0  0  0  0  0
  150.7118  134.0197  156.6832 N   0  0  0  0  0  0  0  0  0  0  0  0
  153.2420  130.9651  158.6009 H   0  0  0  0  0  0  0  0  0  0  0  0
  153.3394  131.1227  156.8501 H   0  0  0  0  0  0  0  0  0  0  0  0
  151.9673  130.2772  157.6010 H   0  0  0  0  0  0  0  0  0  0  0  0
  151.1249  130.7477  155.8822 H   0  0  0  0  0  0  0  0  0  0  0  0
  149.6548  131.4004  153.9964 H   0  0  0  0  0  0  0  0  0  0  0  0
  148.9218  134.8882  153.2326 H   0  0  0  0  0  0  0  0  0  0  0  0
  147.4311  135.1073  151.9930 H   0  0  0  0  0  0  0  0  0  0  0  0
  145.5606  134.7302  150.7221 H   0  0  0  0  0  0  0  0  0  0  0  0
  144.9800  132.6599  152.8889 H   0  0  0  0  0  0  0  0  0  0  0  0
  144.4071  134.3109  152.8645 H   0  0  0  0  0  0  0  0  0  0  0  0
  142.6573  132.7135  152.0671 H   0  0  0  0  0  0  0  0  0  0  0  0
  143.0761  133.8780  150.8337 H   0  0  0  0  0  0  0  0  0  0  0  0
  144.0867  130.9967  151.0071 H   0  0  0  0  0  0  0  0  0  0  0  0
  142.9524  131.6216  149.8339 H   0  0  0  0  0  0  0  0  0  0  0  0
  145.2584  131.4479  148.8767 H   0  0  0  0  0  0  0  0  0  0  0  0
  144.6824  133.0971  148.8656 H   0  0  0  0  0  0  0  0  0  0  0  0
  147.0137  133.0390  149.6715 H   0  0  0  0  0  0  0  0  0  0  0  0
  146.6006  131.8681  150.9014 H   0  0  0  0  0  0  0  0  0  0  0  0
  149.6016  135.4096  155.6367 H   0  0  0  0  0  0  0  0  0  0  0  0
  1  2  1  0  0  0  0
  1 19  1  0  0  0  0
  1 20  1  0  0  0  0
  1 21  1  0  0  0  0
  2  3  1  0  0  0  0
  3 18  1  0  0  0  0
  3  4  2  0  0  0  0
  4  5  1  0  0  0  0
  4 22  1  0  0  0  0
  5  6  2  0  0  0  0
  5 23  1  0  0  0  0
  6  7  1  0  0  0  0
  6 17  1  0  0  0  0
  7  8  1  0  0  0  0
  7 24  1  0  0  0  0
  8  9  2  0  0  0  0
  8 10  1  0  0  0  0
 10 11  1  0  0  0  0
 10 25  1  0  0  0  0
 11 16  1  0  0  0  0
 11 12  1  0  0  0  0
 11 26  1  0  0  0  0
 12 13  1  0  0  0  0
 12 27  1  0  0  0  0
 12 28  1  0  0  0  0
 13 14  1  0  0  0  0
 13 29  1  0  0  0  0
 13 30  1  0  0  0  0
 14 15  1  0  0  0  0
 14 31  1  0  0  0  0
 14 32  1  0  0  0  0
 15 16  1  0  0  0  0
 15 33  1  0  0  0  0
 15 34  1  0  0  0  0
 16 35  1  0  0  0  0
 16 36  1  0  0  0  0
 17 18  2  0  0  0  0
 17 37  1  0  0  0  0
M  END
> <s_m_source_file>
AV-unprocessed.smi

> <i_m_source_file_index>
920

> <i_lp_mmshare_version>
43012

> <i_f3d_flags>
0

> <s_epik_input>
W0NIM11PYzFbY0hdW2NIXWMoW2NIXW4xKVtOSF1DKD1PKVtOSF1bQ0hdMltDSDJdW0NIMl1bQ0gyXVtDSDJdW0NIMl0y

> <s_epik_cmdline>
J2VwaWtfcHl0aG9uJywgJy1waCcsICc3LjAnLCAnLXRuJywgJzgnLCAnLW1hJywgJzIwMCcsICctbWV0YWxfYmluZGluZycsICctaW1hZScsICc8aW5maWxlLm1hZT4nLCAnLW9tYWUnLCAnPG91dGZpbGUubWFlPic=

> <r_lp_tautomer_probability>
1

> <r_epik_Ionization_Penalty>
9.99378e-05

> <r_epik_Ionization_Penalty_Charging>
0

> <r_epik_Ionization_Penalty_Neutral>
9.99378e-05

> <r_epik_State_Penalty>
-0

> <r_epik_Charging_Adjusted_Penalty>
0

> <i_epik_Tot_Q>
0

> <i_epik_Tot_abs_Q>
0

> <r_epik_Metal_State_Penalty>
-0

> <b_epik_Metal_Only>
0

> <s_lp_Force_Field>
OPLS_2005

> <r_lp_Energy>
12.0005

> <b_lp_Chiralities_Consistent>
1

> <s_lp_Variant>
AV-unprocessed.smi:920-1

> <Gold.Version>
5.8.1

> <Gold.Id.Protein>
6NUR|6NUR_protein|mol2

> <Gold.PLP.Fitness>
41.8246

> <Gold.PLP.PLP>
-34.0620

> <Gold.PLP.part.hbond>
-3.0000

> <Gold.PLP.part.metal>
0.0000

> <Gold.PLP.part.buried>
-5.4432

> <Gold.PLP.part.nonpolar>
-26.2446

> <Gold.PLP.part.repulsive>
0.1257

> <Gold.PLP.ligand.clash>
0.0000

> <Gold.PLP.ligand.torsion>
0.5332

> <Gold.PLP.Chemscore.Hbond>
2.9420

> <Gold.PLP.Chemscore.CHOScore>
0.0000

> <Gold.PLP.Chemscore.Metal>
0.0000

> <Gold.Chemscore.Hbonds>
donor molecule, donor type, donor heavy atom, donor atom, acceptor molecule, acceptor atom, score
      L1  H     7    24       P1  7948  0.95
      L1  H    10    25       P1  7948  0.99
      P1  H  6896  6909       L1     2  1.00

> <Gold.PLP.Chemscore.Internal.Correction>
0.0031

> <Gold.Rescore>
     Score         DG    S(hbond)    S(metal)    S(lipo)     H(rot)  DE(clash)    DE(int)     intcor
     17.07     -18.92       2.29        0.00      76.31       1.23       0.05       1.81       ----

> <Gold.Chemscore.Fitness>
17.0658

> <Gold.Chemscore.DG>
-18.9213

> <Gold.Chemscore.ZeroCoef>
-5.4800

> <Gold.Chemscore.Hbond>
2.2901

> <Gold.Chemscore.Metal>
0.0000

> <Gold.Chemscore.Lipo>
76.3104

> <Gold.Chemscore.Internal_Hbond>
0.0000

> <Gold.Chemscore.DEClash>
0.0456

> <Gold.Chemscore.DEInternal>
1.8098

> <Gold.Chemscore.Rot>
1.2250

> <Gold.Chemscore.Internal.Correction>
   9.000000E+99

> <Gold.Chemscore.Hbonds>
donor molecule, donor type, donor heavy atom, donor atom, acceptor molecule, acceptor atom, score
      L1  H     7    24       P1  7948  0.21
      L1  H    10    25       P1  7948  0.89
      P1  H  6896  6909       L1     2  0.70

> <Gold.Chemscore.Hbond.Weighted>
-7.6489

> <Gold.Chemscore.Metal.Weighted>
-0.0000

> <Gold.Chemscore.Lipo.Weighted>
-8.9283

> <Gold.Chemscore.Internal_Hbond.Weighted>
0.0000

> <Gold.Chemscore.DEClash.Weighted>
0.0456

> <Gold.Chemscore.DEInternal.Weighted>
1.8098

> <Gold.Chemscore.Rot.Weighted>
3.1360

> <Gold.Chemscore.Internal.Correction.Weighted>
   9.000000E+99

> <Gold.Protein.RotatedTorsions>
[ 6907 6896 6895 6894 ] final  -51.22 input  -60.11 | X-H torsion
[ 7974 7965 7964 7962 ] final  -16.54 input  175.53 | X-H torsion
[ 8008 7997 7996 7995 ] final  -67.83 input   59.86 | X-H torsion
[ 10167 10162 10161 10158 ] final   87.05 input  -65.29 | X-H torsion
[ 10718 10713 10712 10709 ] final   96.19 input   66.30 | X-H torsion
[ 10763 10752 10751 10750 ] final  160.18 input  -60.55 | X-H torsion
[ 11005 11000 10999 10996 ] final  -58.00 input  -57.11 | X-H torsion

> <Gold.Protein.ActiveResidues>
 VAL166  LYS551  ARG553  GLY616  TRP617  ASP618  TYR619  PRO620  LYS621  CYS622 
 ASP623  PHE694  ASN695  SER759  ASP760  ASP761  ALA762  ILE779  LEU786  VAL792 
 PHE793  MET794  SER795  GLU796  ALA797  LYS798  CYS799  TRP800  GLU811  SER814 

> <Gold.Protein.RotatedAtoms>
  150.8632  134.7989  159.7098 H   0  0  0  0  0  0  0  0  0  0  0  0  # atno 6907 bound_to 6896
  152.4662  134.5066  159.9751 H   0  0  0  0  0  0  0  0  0  0  0  0  # atno 6908 bound_to 6896
  151.5166  133.3436  159.2930 H   0  0  0  0  0  0  0  0  0  0  0  0  # atno 6909 bound_to 6896
  146.1983  140.3651  142.8432 H   0  0  0  0  0  0  0  0  0  0  0  0  # atno 7974 bound_to 7965
  154.4826  140.0885  156.7413 H   0  0  0  0  0  0  0  0  0  0  0  0  # atno 8008 bound_to 7997
  155.4431  140.3454  155.4274 H   0  0  0  0  0  0  0  0  0  0  0  0  # atno 8009 bound_to 7997
  156.1214  140.1475  156.9187 H   0  0  0  0  0  0  0  0  0  0  0  0  # atno 8010 bound_to 7997
  139.8812  144.6438  150.8840 H   0  0  0  0  0  0  0  0  0  0  0  0  # atno 10167 bound_to 10162
  157.6930  131.0570  150.4453 H   0  0  0  0  0  0  0  0  0  0  0  0  # atno 10718 bound_to 10713
  154.2434  135.2774  155.2845 H   0  0  0  0  0  0  0  0  0  0  0  0  # atno 10763 bound_to 10752
  154.5526  135.5671  153.6938 H   0  0  0  0  0  0  0  0  0  0  0  0  # atno 10764 bound_to 10752
  152.9995  135.6278  154.2579 H   0  0  0  0  0  0  0  0  0  0  0  0  # atno 10765 bound_to 10752
  141.1189  133.6611  156.4855 H   0  0  0  0  0  0  0  0  0  0  0  0  # atno 11005 bound_to 11000
  144.8627  140.7162  143.6097 LP  0  0  0  0  0  0  0  0  0  0  0  0  # atno 17320 bound_to 7965
  145.3571  139.1691  143.4403 LP  0  0  0  0  0  0  0  0  0  0  0  0  # atno 17321 bound_to 7965
  140.7744  143.3584  151.1876 LP  0  0  0  0  0  0  0  0  0  0  0  0  # atno 17342 bound_to 10162
  139.7194  143.9248  152.2979 LP  0  0  0  0  0  0  0  0  0  0  0  0  # atno 17343 bound_to 10162
  156.4808  130.4073  149.6462 LP  0  0  0  0  0  0  0  0  0  0  0  0  # atno 17370 bound_to 10713
  156.3509  130.7431  151.2390 LP  0  0  0  0  0  0  0  0  0  0  0  0  # atno 17371 bound_to 10713
  140.4566  134.6880  157.5065 LP  0  0  0  0  0  0  0  0  0  0  0  0  # atno 17394 bound_to 11000
  140.0131  134.6660  155.9351 LP  0  0  0  0  0  0  0  0  0  0  0  0  # atno 17395 bound_to 11000

$$$$
