#       Name:                AV-unprocessed.smi:1815
#       Creating user name   scv26
#       Creation time:       Fri Mar 27 09:01:21 2020


#       File generated by GOLD software.
#

@<TRIPOS>MOLECULE
AV-unprocessed.smi:1815
    45    46     1
SMALL
NO_CHARGES


@<TRIPOS>ATOM
      1 ****        -2.7756   1.9604   2.9041 C.3            1 S1                 0.0000
      2 ****        -2.1825   0.8626   2.0150 C.3            1 S1                 0.0000
      3 ****        -0.6431   0.8370   2.0690 C.3            1 S1                 0.0000
      4 ****        -0.0865  -0.2567   1.2813 N.3            1 S1                 0.0000
      5 ****         1.3758  -0.2535   1.3394 C.3            1 S1                 0.0000
      6 ****         2.0792  -1.2188   0.3645 C.3            1 S1                 0.0000
      7 ****         1.7020  -0.9656  -1.0222 N.am           1 S1                 0.0000
      8 ****         2.1839   0.0280  -1.7819 C.2            1 S1                 0.0000
      9 ****         3.0252   0.8366  -1.3882 O.2            1 S1                 0.0000
     10 ****         1.6277   0.0178  -3.0060 N.am           1 S1                 0.0000
     11 ****         1.8764   0.8989  -4.0908 C.2            1 S1                 0.0000
     12 ****         2.7484   1.9134  -4.0548 N.2            1 S1                 0.0000
     13 ****         2.7899   2.6126  -5.2637 C.2            1 S1                 0.0000
     14 ****         1.9366   2.1136  -6.2162 C.2            1 S1                 0.0000
     15 ****         1.0421   0.7369  -5.6293 S.3            1 S1                 0.0000
     16 ****        -0.6641  -1.5157   1.7435 C.3            1 S1                 0.0000
     17 ****        -2.2039  -1.4958   1.6935 C.3            1 S1                 0.0000
     18 ****        -2.8170  -2.7809   2.2591 C.3            1 S1                 0.0000
     19 ****        -2.6833  -0.3948   2.4606 O.3            1 S1                 0.0000
     20 ****        -2.4272   2.9461   2.5948 H              1 S1                 0.0000
     21 ****        -2.4949   1.8177   3.9480 H              1 S1                 0.0000
     22 ****        -3.8645   1.9605   2.8488 H              1 S1                 0.0000
     23 ****        -2.5092   1.0298   0.9871 H              1 S1                 0.0000
     24 ****        -0.2546   1.7882   1.7030 H              1 S1                 0.0000
     25 ****        -0.3175   0.7461   3.1066 H              1 S1                 0.0000
     26 ****         1.7357   0.7543   1.1275 H              1 S1                 0.0000
     27 ****         1.7015  -0.4732   2.3571 H              1 S1                 0.0000
     28 ****         3.1612  -1.1278   0.4732 H              1 S1                 0.0000
     29 ****         1.8443  -2.2551   0.6049 H              1 S1                 0.0000
     30 ****         1.0102  -1.5811  -1.4241 H              1 S1                 0.0000
     31 ****         0.9462  -0.7054  -3.1829 H              1 S1                 0.0000
     32 ****         3.4576   3.4561  -5.3591 H              1 S1                 0.0000
     33 ****         1.7808   2.4712  -7.2233 H              1 S1                 0.0000
     34 ****        -0.3071  -2.3415   1.1288 H              1 S1                 0.0000
     35 ****        -0.3351  -1.7195   2.7637 H              1 S1                 0.0000
     36 ****        -2.5335  -1.3754   0.6599 H              1 S1                 0.0000
     37 ****        -2.4853  -3.6542   1.6970 H              1 S1                 0.0000
     38 ****        -3.9056  -2.7476   2.2098 H              1 S1                 0.0000
     39 ****        -2.5347  -2.9270   3.3021 H              1 S1                 0.0000
     40 ****        -0.3252  -0.1384   0.3174 LP             1 S1                 0.0000
     41 ****         3.3844   0.7712  -0.4572 LP             1 S1                 0.0000
     42 ****         3.3492   1.5587  -1.9995 LP             1 S1                 0.0000
     43 ****         3.3049   2.1440  -3.2565 LP             1 S1                 0.0000
     44 ****        -3.6814  -0.3777   2.4021 LP             1 S1                 0.0000
     45 ****        -2.4074  -0.5270   3.4126 LP             1 S1                 0.0000
@<TRIPOS>BOND
    1    1    2 1     
    2    1   20 1     
    3    1   21 1     
    4    1   22 1     
    5    2   19 1     
    6    2    3 1     
    7    2   23 1     
    8    3    4 1     
    9    3   24 1     
   10    3   25 1     
   11    4    5 1     
   12    4   16 1     
   13    5    6 1     
   14    5   26 1     
   15    5   27 1     
   16    6    7 1     
   17    6   28 1     
   18    6   29 1     
   19    7    8 am    
   20    7   30 1     
   21    8    9 2     
   22    8   10 am    
   23   10   11 1     
   24   10   31 1     
   25   11   15 1     
   26   11   12 2     
   27   12   13 1     
   28   13   14 2     
   29   13   32 1     
   30   14   15 1     
   31   14   33 1     
   32   16   17 1     
   33   16   34 1     
   34   16   35 1     
   35   17   18 1     
   36   17   19 1     
   37   17   36 1     
   38   18   37 1     
   39   18   38 1     
   40   18   39 1     
   41    4   40 1     
   42    9   41 1     
   43    9   42 1     
   44   12   43 1     
   45   19   44 1     
   46   19   45 1     
@<TRIPOS>SUBSTRUCTURE
      1 S1             1
@<TRIPOS>SET
LONE_PAIRS      STATIC     ATOMS    <user>   **** ""
6 40 41 42 43 44 45
DONOR_HYDROGENS      STATIC     ATOMS    <user>   **** ""
2 30 31
ATOM$BLUE        STATIC     ATOMS    COLORGROUP SYSTEM
6 40 41 42 43 44 45
ATOM$RED        STATIC     ATOMS    COLORGROUP SYSTEM
2 30 31
