AV-unprocessed.smi:37|AV-procd|sdf|307|dock2
  -GOLD-   2262016113D 1   1.00000     0.00000
 Structure written by MMmdl.
 44 45  0  0  0  0  0  0  0  0  1 V2000
  151.4982  137.9689  155.1247 C   0  0  0  0  0  0  0  0  0  0  0  0
  150.2152  137.2337  154.7084 C   0  0  0  0  0  0  0  0  0  0  0  0
  150.2479  135.7320  155.0009 C   0  0  0  0  0  0  0  0  0  0  0  0
  151.1700  135.1995  155.6216 O   0  0  0  0  0  0  0  0  0  0  0  0
  149.1727  135.1001  154.5052 O   0  0  0  0  0  0  0  0  0  0  0  0
  149.1735  133.6852  154.4120 C   0  0  0  0  0  0  0  0  0  0  0  0
  147.7785  133.1972  154.0042 C   0  0  2  0  0  0  0  0  0  0  0  0
  147.4006  133.7878  152.7595 O   0  0  0  0  0  0  0  0  0  0  0  0
  146.0609  134.1809  152.7924 C   0  0  1  0  0  0  0  0  0  0  0  0
  145.3658  133.6570  151.5546 N   0  0  0  0  0  0  0  0  0  0  0  0
  146.0604  132.8578  150.6571 C   0  0  0  0  0  0  0  0  0  0  0  0
  145.4956  132.3320  149.5442 C   0  0  0  0  0  0  0  0  0  0  0  0
  146.2368  131.5733  148.7189 F   0  0  0  0  0  0  0  0  0  0  0  0
  144.0906  132.5788  149.2350 C   0  0  0  0  0  0  0  0  0  0  0  0
  143.4921  132.1532  148.2492 O   0  0  0  0  0  0  0  0  0  0  0  0
  143.4233  133.3668  150.1773 N   0  0  0  0  0  0  0  0  0  0  0  0
  143.9921  133.9106  151.3306 C   0  0  0  0  0  0  0  0  0  0  0  0
  143.2970  134.5733  152.0990 O   0  0  0  0  0  0  0  0  0  0  0  0
  145.4581  133.6517  154.0958 C   0  0  2  0  0  0  0  0  0  0  0  0
  144.0668  134.8802  154.8149 Br  0  0  0  0  0  0  0  0  0  0  0  0
  146.6777  133.6077  154.9893 C   0  0  1  0  0  0  0  0  0  0  0  0
  146.4752  132.6439  156.0143 O   0  0  0  0  0  0  0  0  0  0  0  0
  145.4854  132.7983  156.9118 C   0  0  0  0  0  0  0  0  0  0  0  0
  144.7237  133.7622  156.9910 O   0  0  0  0  0  0  0  0  0  0  0  0
  145.3836  131.6231  157.8811 C   0  0  0  0  0  0  0  0  0  0  0  0
  143.9948  130.9704  157.8555 C   0  0  0  0  0  0  0  0  0  0  0  0
  142.4448  133.5535  150.0120 H   0  0  0  0  0  0  0  0  0  0  0  0
  151.4270  139.0301  154.8860 H   0  0  0  0  0  0  0  0  0  0  0  0
  152.3708  137.5725  154.6041 H   0  0  0  0  0  0  0  0  0  0  0  0
  151.6756  137.8837  156.1974 H   0  0  0  0  0  0  0  0  0  0  0  0
  149.3593  137.6684  155.2250 H   0  0  0  0  0  0  0  0  0  0  0  0
  150.0432  137.3738  153.6409 H   0  0  0  0  0  0  0  0  0  0  0  0
  149.9037  133.3869  153.6590 H   0  0  0  0  0  0  0  0  0  0  0  0
  149.4766  133.2362  155.3590 H   0  0  0  0  0  0  0  0  0  0  0  0
  147.7710  132.1125  153.8849 H   0  0  0  0  0  0  0  0  0  0  0  0
  146.0358  135.2700  152.7364 H   0  0  0  0  0  0  0  0  0  0  0  0
  147.1039  132.6425  150.8386 H   0  0  0  0  0  0  0  0  0  0  0  0
  145.0195  132.6626  153.9680 H   0  0  0  0  0  0  0  0  0  0  0  0
  146.8726  134.6088  155.3777 H   0  0  0  0  0  0  0  0  0  0  0  0
  146.1472  130.8880  157.6261 H   0  0  0  0  0  0  0  0  0  0  0  0
  145.6076  131.9763  158.8880 H   0  0  0  0  0  0  0  0  0  0  0  0
  143.9375  130.1621  158.5844 H   0  0  0  0  0  0  0  0  0  0  0  0
  143.7691  130.5468  156.8763 H   0  0  0  0  0  0  0  0  0  0  0  0
  143.2132  131.6912  158.0990 H   0  0  0  0  0  0  0  0  0  0  0  0
  1  2  1  0  0  0  0
  1 28  1  0  0  0  0
  1 29  1  0  0  0  0
  1 30  1  0  0  0  0
  2  3  1  0  0  0  0
  2 31  1  0  0  0  0
  2 32  1  0  0  0  0
  3  4  2  0  0  0  0
  3  5  1  0  0  0  0
  5  6  1  0  0  0  0
  6  7  1  0  0  0  0
  6 33  1  0  0  0  0
  6 34  1  0  0  0  0
  7 21  1  0  0  0  0
  7  8  1  0  0  0  0
  7 35  1  0  0  0  0
  8  9  1  0  0  0  0
  9 10  1  0  0  0  0
  9 19  1  0  0  0  0
  9 36  1  0  0  0  0
 10 17  1  0  0  0  0
 10 11  1  0  0  0  0
 11 12  2  0  0  0  0
 11 37  1  0  0  0  0
 12 13  1  0  0  0  0
 12 14  1  0  0  0  0
 14 15  2  0  0  0  0
 14 16  1  0  0  0  0
 16 27  1  0  0  0  0
 16 17  1  0  0  0  0
 17 18  2  0  0  0  0
 19 20  1  0  0  0  0
 19 21  1  0  0  0  0
 19 38  1  0  0  0  0
 21 22  1  0  0  0  0
 21 39  1  0  0  0  0
 22 23  1  0  0  0  0
 23 24  2  0  0  0  0
 23 25  1  0  0  0  0
 25 26  1  0  0  0  0
 25 40  1  0  0  0  0
 25 41  1  0  0  0  0
 26 42  1  0  0  0  0
 26 43  1  0  0  0  0
 26 44  1  0  0  0  0
M  END
> <s_m_source_file>
AV-unprocessed.smi

> <i_m_source_file_index>
37

> <i_lp_mmshare_version>
43012

> <i_f3d_flags>
0

> <s_epik_input>
W0NIM11bQ0gyXUMoPU8pT1tDSDJdW0NAQEhdMU9bQ0BASF0objJbY0hdYyhGKWMoPU8pW25IXWMyPU8pW0NAQEhdKEJyKVtDQEhdMU9DKD1PKVtDSDJdW0NIM10=

> <s_epik_cmdline>
J2VwaWtfcHl0aG9uJywgJy1waCcsICc3LjAnLCAnLXRuJywgJzgnLCAnLW1hJywgJzIwMCcsICctbWV0YWxfYmluZGluZycsICctaW1hZScsICc8aW5maWxlLm1hZT4nLCAnLW9tYWUnLCAnPG91dGZpbGUubWFlPic=

> <r_lp_tautomer_probability>
0.999537

> <r_epik_Ionization_Penalty>
0.104106

> <r_epik_Ionization_Penalty_Charging>
0.104106

> <r_epik_Ionization_Penalty_Neutral>
3.94675e-16

> <r_epik_State_Penalty>
0.0940182

> <r_epik_Charging_Adjusted_Penalty>
0.198124

> <i_epik_Tot_Q>
0

> <i_epik_Tot_abs_Q>
0

> <r_epik_Metal_State_Penalty>
3.05314

> <b_epik_Metal_Only>
0

> <s_epik_Chemistry_Notes>
This compound has an ester and may undergo hydrolysis at high or low pH. This compound contains an acetal/aminal-like group ( X-CH(R)-Y where X, Y are N, S, or O) that may be acid/base labile, releasing an aldehyde.

> <s_lp_Force_Field>
OPLS_2005

> <r_lp_Energy>
20.0289

> <b_lp_Chiralities_Consistent>
1

> <s_lp_Variant>
AV-unprocessed.smi:37-5

> <Gold.Version>
5.8.1

> <Gold.Id.Protein>
6NUR|6NUR_protein|mol2

> <Gold.PLP.Fitness>
44.6376

> <Gold.PLP.PLP>
-34.1687

> <Gold.PLP.part.hbond>
-3.0000

> <Gold.PLP.part.metal>
0.0000

> <Gold.PLP.part.buried>
-6.8604

> <Gold.PLP.part.nonpolar>
-28.0819

> <Gold.PLP.part.repulsive>
3.1948

> <Gold.PLP.ligand.clash>
0.0000

> <Gold.PLP.ligand.torsion>
0.2640

> <Gold.PLP.Chemscore.Hbond>
2.6160

> <Gold.PLP.Chemscore.CHOScore>
0.9361

> <Gold.PLP.Chemscore.Metal>
0.0000

> <Gold.Chemscore.Hbonds>
donor molecule, donor type, donor heavy atom, donor atom, acceptor molecule, acceptor atom, score
      L1  H    16    27       P1 10186  1.00
      P1  H 10752 10764       L1     4  0.94
      P1  H 10785 10796       L1    15  0.53
      L1  C    11    37       P1 10747  0.72

> <Gold.PLP.Chemscore.Internal.Correction>
0.3407

> <Gold.Rescore>
     Score         DG    S(hbond)    S(metal)    S(lipo)     H(rot)  DE(clash)    DE(int)     intcor
      6.66     -11.73       2.80        0.00      46.42       3.33       0.91       4.16       ----

> <Gold.Chemscore.Fitness>
6.6628

> <Gold.Chemscore.DG>
-11.7342

> <Gold.Chemscore.ZeroCoef>
-5.4800

> <Gold.Chemscore.Hbond>
2.7988

> <Gold.Chemscore.Metal>
0.0000

> <Gold.Chemscore.Lipo>
46.4245

> <Gold.Chemscore.Internal_Hbond>
0.0000

> <Gold.Chemscore.DEClash>
0.9148

> <Gold.Chemscore.DEInternal>
4.1566

> <Gold.Chemscore.Rot>
3.3303

> <Gold.Chemscore.Internal.Correction>
   9.000000E+99

> <Gold.Chemscore.Hbonds>
donor molecule, donor type, donor heavy atom, donor atom, acceptor molecule, acceptor atom, score
      L1  H    16    27       P1 10186  1.00
      P1  H 10752 10764       L1     4  0.82
      P1  H 10785 10796       L1    15  0.21

> <Gold.Chemscore.Hbond.Weighted>
-9.3482

> <Gold.Chemscore.Metal.Weighted>
-0.0000

> <Gold.Chemscore.Lipo.Weighted>
-5.4317

> <Gold.Chemscore.Internal_Hbond.Weighted>
0.0000

> <Gold.Chemscore.DEClash.Weighted>
0.9148

> <Gold.Chemscore.DEInternal.Weighted>
4.1566

> <Gold.Chemscore.Rot.Weighted>
8.5256

> <Gold.Chemscore.Internal.Correction.Weighted>
   9.000000E+99

> <Gold.Protein.RotatedTorsions>
[ 6907 6896 6895 6894 ] final   -7.14 input  -60.11 | X-H torsion
[ 7974 7965 7964 7962 ] final  176.78 input  175.53 | X-H torsion
[ 8008 7997 7996 7995 ] final -158.20 input   59.86 | X-H torsion
[ 10167 10162 10161 10158 ] final -140.35 input  -65.29 | X-H torsion
[ 10718 10713 10712 10709 ] final   46.54 input   66.30 | X-H torsion
[ 10763 10752 10751 10750 ] final  -33.04 input  -60.55 | X-H torsion
[ 11005 11000 10999 10996 ] final  133.01 input  -57.11 | X-H torsion

> <Gold.Protein.ActiveResidues>
 VAL166  LYS551  ARG553  GLY616  TRP617  ASP618  TYR619  PRO620  LYS621  CYS622 
 ASP623  PHE694  ASN695  SER759  ASP760  ASP761  ALA762  ILE779  LEU786  VAL792 
 PHE793  MET794  SER795  GLU796  ALA797  LYS798  CYS799  TRP800  GLU811  SER814 

> <Gold.Protein.RotatedAtoms>
  151.4544  135.1033  159.9706 H   0  0  0  0  0  0  0  0  0  0  0  0  # atno 6907 bound_to 6896
  152.4876  133.8410  159.7163 H   0  0  0  0  0  0  0  0  0  0  0  0  # atno 6908 bound_to 6896
  150.9000  133.7071  159.2908 H   0  0  0  0  0  0  0  0  0  0  0  0  # atno 6909 bound_to 6896
  144.7179  140.0148  143.6440 H   0  0  0  0  0  0  0  0  0  0  0  0  # atno 7974 bound_to 7965
  155.7440  140.0818  157.2232 H   0  0  0  0  0  0  0  0  0  0  0  0  # atno 8008 bound_to 7997
  154.4019  140.1572  156.2704 H   0  0  0  0  0  0  0  0  0  0  0  0  # atno 8009 bound_to 7997
  155.8993  140.3410  155.6017 H   0  0  0  0  0  0  0  0  0  0  0  0  # atno 8010 bound_to 7997
  139.8290  143.7472  152.2666 H   0  0  0  0  0  0  0  0  0  0  0  0  # atno 10167 bound_to 10162
  157.4491  130.8128  149.7771 H   0  0  0  0  0  0  0  0  0  0  0  0  # atno 10718 bound_to 10713
  153.8237  135.6872  153.4824 H   0  0  0  0  0  0  0  0  0  0  0  0  # atno 10763 bound_to 10752
  153.1553  135.4601  154.9694 H   0  0  0  0  0  0  0  0  0  0  0  0  # atno 10764 bound_to 10752
  154.7917  135.3304  154.7707 H   0  0  0  0  0  0  0  0  0  0  0  0  # atno 10765 bound_to 10752
  139.9825  134.9543  156.9663 H   0  0  0  0  0  0  0  0  0  0  0  0  # atno 11005 bound_to 11000
  146.0229  139.3266  143.0802 LP  0  0  0  0  0  0  0  0  0  0  0  0  # atno 17320 bound_to 7965
  145.8547  140.9509  143.0731 LP  0  0  0  0  0  0  0  0  0  0  0  0  # atno 17321 bound_to 7965
  139.7674  144.7487  151.0274 LP  0  0  0  0  0  0  0  0  0  0  0  0  # atno 17342 bound_to 10162
  140.7808  143.4683  151.0182 LP  0  0  0  0  0  0  0  0  0  0  0  0  # atno 17343 bound_to 10162
  155.9980  130.3897  150.2719 LP  0  0  0  0  0  0  0  0  0  0  0  0  # atno 17370 bound_to 10713
  157.0890  131.0164  151.3129 LP  0  0  0  0  0  0  0  0  0  0  0  0  # atno 17371 bound_to 10713
  140.5068  134.1042  155.7262 LP  0  0  0  0  0  0  0  0  0  0  0  0  # atno 17394 bound_to 11000
  141.1495  133.8995  157.2133 LP  0  0  0  0  0  0  0  0  0  0  0  0  # atno 17395 bound_to 11000

$$$$
