AV-unprocessed.smi:327|AV-procd|sdf|2346|dock6
  -GOLD-   2262022253D 1   1.00000     0.00000
 Structure written by MMmdl.
 47 48  0  0  0  0  0  0  0  0  1 V2000
  145.5951  143.7793  153.5065 C   0  0  0  0  0  0  0  0  0  0  0  0
  145.5420  142.9947  154.6847 O   0  0  0  0  0  0  0  0  0  0  0  0
  146.2901  141.7951  154.5741 C   0  0  0  0  0  0  0  0  0  0  0  0
  147.7656  142.1219  154.2921 C   0  0  0  0  0  0  0  0  0  0  0  0
  148.6399  140.9741  154.5597 N   0  0  0  0  0  0  0  0  0  0  0  0
  149.6878  141.2567  155.4205 N   0  0  0  0  0  0  0  0  0  0  0  0
  150.5415  140.3353  155.7317 C   0  0  0  0  0  0  0  0  0  0  0  0
  151.6888  140.6034  156.6425 C   0  0  0  0  0  0  0  0  0  0  0  0
  152.7017  139.9015  156.6374 O   0  0  0  0  0  0  0  0  0  0  0  0
  151.5396  141.6653  157.4551 N   0  0  0  0  0  0  0  0  0  0  0  0
  152.5283  142.1607  158.4098 C   0  0  0  0  0  0  0  0  0  0  0  0
  152.1236  141.7122  159.8311 C   0  0  0  0  0  0  0  0  0  0  0  0
  152.9136  142.3592  160.9865 C   0  0  0  0  0  0  0  0  0  0  0  0
  152.1587  143.4814  161.7286 C   0  0  0  0  0  0  0  0  0  0  0  0
  151.9277  144.7968  160.9569 C   0  0  0  0  0  0  0  0  0  0  0  0
  150.9293  144.6929  159.7860 C   0  0  0  0  0  0  0  0  0  0  0  0
  151.5619  144.6161  158.3831 C   0  0  0  0  0  0  0  0  0  0  0  0
  152.7722  143.6758  158.2153 C   0  0  0  0  0  0  0  0  0  0  0  0
  150.4153  138.9917  155.1930 C   0  0  0  0  0  0  0  0  0  0  0  0
  149.3913  138.7321  154.3508 C   0  0  0  0  0  0  0  0  0  0  0  0
  148.4171  139.7581  153.9753 C   0  0  0  0  0  0  0  0  0  0  0  0
  147.4835  139.5455  153.2023 O   0  0  0  0  0  0  0  0  0  0  0  0
  145.0003  144.6824  153.6411 H   0  0  0  0  0  0  0  0  0  0  0  0
  145.1921  143.2351  152.6514 H   0  0  0  0  0  0  0  0  0  0  0  0
  146.6184  144.0810  153.2794 H   0  0  0  0  0  0  0  0  0  0  0  0
  146.1987  141.2018  155.4854 H   0  0  0  0  0  0  0  0  0  0  0  0
  145.8900  141.1944  153.7560 H   0  0  0  0  0  0  0  0  0  0  0  0
  147.8712  142.4076  153.2441 H   0  0  0  0  0  0  0  0  0  0  0  0
  148.0708  143.0027  154.8595 H   0  0  0  0  0  0  0  0  0  0  0  0
  150.6748  142.1830  157.3919 H   0  0  0  0  0  0  0  0  0  0  0  0
  153.4789  141.6674  158.1989 H   0  0  0  0  0  0  0  0  0  0  0  0
  151.0535  141.8331  159.9937 H   0  0  0  0  0  0  0  0  0  0  0  0
  152.2797  140.6336  159.8814 H   0  0  0  0  0  0  0  0  0  0  0  0
  153.1152  141.5782  161.7206 H   0  0  0  0  0  0  0  0  0  0  0  0
  153.8978  142.6950  160.6605 H   0  0  0  0  0  0  0  0  0  0  0  0
  151.2026  143.0995  162.0885 H   0  0  0  0  0  0  0  0  0  0  0  0
  152.7279  143.7230  162.6268 H   0  0  0  0  0  0  0  0  0  0  0  0
  151.5190  145.5123  161.6711 H   0  0  0  0  0  0  0  0  0  0  0  0
  152.8731  145.2334  160.6350 H   0  0  0  0  0  0  0  0  0  0  0  0
  150.2382  143.8664  159.9436 H   0  0  0  0  0  0  0  0  0  0  0  0
  150.2938  145.5794  159.8006 H   0  0  0  0  0  0  0  0  0  0  0  0
  150.7902  144.3608  157.6561 H   0  0  0  0  0  0  0  0  0  0  0  0
  151.8922  145.6195  158.1121 H   0  0  0  0  0  0  0  0  0  0  0  0
  153.5918  144.0077  158.8502 H   0  0  0  0  0  0  0  0  0  0  0  0
  153.1537  143.8221  157.2040 H   0  0  0  0  0  0  0  0  0  0  0  0
  151.1191  138.2143  155.4531 H   0  0  0  0  0  0  0  0  0  0  0  0
  149.2866  137.7381  153.9414 H   0  0  0  0  0  0  0  0  0  0  0  0
  1  2  1  0  0  0  0
  1 23  1  0  0  0  0
  1 24  1  0  0  0  0
  1 25  1  0  0  0  0
  2  3  1  0  0  0  0
  3  4  1  0  0  0  0
  3 26  1  0  0  0  0
  3 27  1  0  0  0  0
  4  5  1  0  0  0  0
  4 28  1  0  0  0  0
  4 29  1  0  0  0  0
  5 21  1  0  0  0  0
  5  6  1  0  0  0  0
  6  7  2  0  0  0  0
  7  8  1  0  0  0  0
  7 19  1  0  0  0  0
  8  9  2  0  0  0  0
  8 10  1  0  0  0  0
 10 11  1  0  0  0  0
 10 30  1  0  0  0  0
 11 18  1  0  0  0  0
 11 12  1  0  0  0  0
 11 31  1  0  0  0  0
 12 13  1  0  0  0  0
 12 32  1  0  0  0  0
 12 33  1  0  0  0  0
 13 14  1  0  0  0  0
 13 34  1  0  0  0  0
 13 35  1  0  0  0  0
 14 15  1  0  0  0  0
 14 36  1  0  0  0  0
 14 37  1  0  0  0  0
 15 16  1  0  0  0  0
 15 38  1  0  0  0  0
 15 39  1  0  0  0  0
 16 17  1  0  0  0  0
 16 40  1  0  0  0  0
 16 41  1  0  0  0  0
 17 18  1  0  0  0  0
 17 42  1  0  0  0  0
 17 43  1  0  0  0  0
 18 44  1  0  0  0  0
 18 45  1  0  0  0  0
 19 20  2  0  0  0  0
 19 46  1  0  0  0  0
 20 21  1  0  0  0  0
 20 47  1  0  0  0  0
 21 22  2  0  0  0  0
M  END
> <s_m_source_file>
AV-unprocessed.smi

> <i_m_source_file_index>
327

> <i_lp_mmshare_version>
43012

> <i_f3d_flags>
0

> <s_epik_input>
W0NIM11PW0NIMl1bQ0gyXW4xbmMoW2NIXVtjSF1jMT1PKUMoPU8pW05IXVtDSF0yW0NIMl1bQ0gyXVtDSDJdW0NIMl1bQ0gyXVtDSDJdW0NIMl0y

> <s_epik_cmdline>
J2VwaWtfcHl0aG9uJywgJy1waCcsICc3LjAnLCAnLXRuJywgJzgnLCAnLW1hJywgJzIwMCcsICctbWV0YWxfYmluZGluZycsICctaW1hZScsICc8aW5maWxlLm1hZT4nLCAnLW9tYWUnLCAnPG91dGZpbGUubWFlPic=

> <r_lp_tautomer_probability>
1

> <r_epik_Ionization_Penalty>
5.81787e-07

> <r_epik_Ionization_Penalty_Charging>
6.75108e-09

> <r_epik_Ionization_Penalty_Neutral>
5.75036e-07

> <r_epik_State_Penalty>
-0

> <r_epik_Charging_Adjusted_Penalty>
6.75108e-09

> <i_epik_Tot_Q>
0

> <i_epik_Tot_abs_Q>
0

> <r_epik_Metal_State_Penalty>
-0

> <b_epik_Metal_Only>
0

> <s_lp_Force_Field>
OPLS_2005

> <r_lp_Energy>
41.0284

> <b_lp_Chiralities_Consistent>
1

> <s_lp_Variant>
AV-unprocessed.smi:327-1

> <Gold.Version>
5.8.1

> <Gold.Id.Protein>
6NUR|6NUR_protein|mol2

> <Gold.PLP.Fitness>
48.9190

> <Gold.PLP.PLP>
-46.7946

> <Gold.PLP.part.hbond>
-1.0000

> <Gold.PLP.part.metal>
0.0000

> <Gold.PLP.part.buried>
-3.8981

> <Gold.PLP.part.nonpolar>
-41.9961

> <Gold.PLP.part.repulsive>
1.5550

> <Gold.PLP.ligand.clash>
0.0000

> <Gold.PLP.ligand.torsion>
0.4627

> <Gold.PLP.Chemscore.Hbond>
1.0000

> <Gold.PLP.Chemscore.CHOScore>
0.0000

> <Gold.PLP.Chemscore.Metal>
0.0000

> <Gold.Chemscore.Hbonds>
donor molecule, donor type, donor heavy atom, donor atom, acceptor molecule, acceptor atom, score
      P1  H  7997  8009       L1     9  1.00

> <Gold.PLP.Chemscore.Internal.Correction>
0.0498

> <Gold.Rescore>
     Score         DG    S(hbond)    S(metal)    S(lipo)     H(rot)  DE(clash)    DE(int)     intcor
     18.63     -19.78       1.00        0.00     127.22       1.53       0.10       1.05       ----

> <Gold.Chemscore.Fitness>
18.6259

> <Gold.Chemscore.DG>
-19.7818

> <Gold.Chemscore.ZeroCoef>
-5.4800

> <Gold.Chemscore.Hbond>
0.9968

> <Gold.Chemscore.Metal>
0.0000

> <Gold.Chemscore.Lipo>
127.2205

> <Gold.Chemscore.Internal_Hbond>
0.0000

> <Gold.Chemscore.DEClash>
0.1025

> <Gold.Chemscore.DEInternal>
1.0534

> <Gold.Chemscore.Rot>
1.5283

> <Gold.Chemscore.Internal.Correction>
   9.000000E+99

> <Gold.Chemscore.Hbonds>
donor molecule, donor type, donor heavy atom, donor atom, acceptor molecule, acceptor atom, score
      P1  H  7997  8009       L1     9  0.99

> <Gold.Chemscore.Hbond.Weighted>
-3.3294

> <Gold.Chemscore.Metal.Weighted>
-0.0000

> <Gold.Chemscore.Lipo.Weighted>
-14.8848

> <Gold.Chemscore.Internal_Hbond.Weighted>
0.0000

> <Gold.Chemscore.DEClash.Weighted>
0.1025

> <Gold.Chemscore.DEInternal.Weighted>
1.0534

> <Gold.Chemscore.Rot.Weighted>
3.9124

> <Gold.Chemscore.Internal.Correction.Weighted>
   9.000000E+99

> <Gold.Protein.RotatedTorsions>
[ 6907 6896 6895 6894 ] final  131.38 input  -60.11 | X-H torsion
[ 7974 7965 7964 7962 ] final  -61.93 input  175.53 | X-H torsion
[ 8008 7997 7996 7995 ] final -161.68 input   59.86 | X-H torsion
[ 10167 10162 10161 10158 ] final  -83.57 input  -65.29 | X-H torsion
[ 10718 10713 10712 10709 ] final  -28.03 input   66.30 | X-H torsion
[ 10763 10752 10751 10750 ] final  -45.35 input  -60.55 | X-H torsion
[ 11005 11000 10999 10996 ] final -110.17 input  -57.11 | X-H torsion

> <Gold.Protein.ActiveResidues>
 VAL166  LYS551  ARG553  GLY616  TRP617  ASP618  TYR619  PRO620  LYS621  CYS622 
 ASP623  PHE694  ASN695  SER759  ASP760  ASP761  ALA762  ILE779  LEU786  VAL792 
 PHE793  MET794  SER795  GLU796  ALA797  LYS798  CYS799  TRP800  GLU811  SER814 

> <Gold.Protein.RotatedAtoms>
  152.3432  133.6091  159.5890 H   0  0  0  0  0  0  0  0  0  0  0  0  # atno 6907 bound_to 6896
  150.7491  133.9690  159.3548 H   0  0  0  0  0  0  0  0  0  0  0  0  # atno 6908 bound_to 6896
  151.7552  135.0824  160.0388 H   0  0  0  0  0  0  0  0  0  0  0  0  # atno 6909 bound_to 6896
  145.7975  140.8674  143.0249 H   0  0  0  0  0  0  0  0  0  0  0  0  # atno 7974 bound_to 7965
  155.7958  140.0884  157.1984 H   0  0  0  0  0  0  0  0  0  0  0  0  # atno 8008 bound_to 7997
  154.3983  140.1481  156.3274 H   0  0  0  0  0  0  0  0  0  0  0  0  # atno 8009 bound_to 7997
  155.8513  140.3434  155.5698 H   0  0  0  0  0  0  0  0  0  0  0  0  # atno 8010 bound_to 7997
  140.4214  143.2583  151.8884 H   0  0  0  0  0  0  0  0  0  0  0  0  # atno 10167 bound_to 10162
  156.4305  130.4444  149.7121 H   0  0  0  0  0  0  0  0  0  0  0  0  # atno 10718 bound_to 10713
  154.0270  135.6661  153.4777 H   0  0  0  0  0  0  0  0  0  0  0  0  # atno 10763 bound_to 10752
  153.0556  135.5058  154.7969 H   0  0  0  0  0  0  0  0  0  0  0  0  # atno 10764 bound_to 10752
  154.6902  135.3060  154.9456 H   0  0  0  0  0  0  0  0  0  0  0  0  # atno 10765 bound_to 10752
  141.0807  133.9225  157.2295 H   0  0  0  0  0  0  0  0  0  0  0  0  # atno 11005 bound_to 11000
  144.6773  140.0211  143.7483 LP  0  0  0  0  0  0  0  0  0  0  0  0  # atno 17320 bound_to 7965
  145.9913  139.3017  143.0983 LP  0  0  0  0  0  0  0  0  0  0  0  0  # atno 17321 bound_to 7965
  139.4783  144.5433  151.8496 LP  0  0  0  0  0  0  0  0  0  0  0  0  # atno 17342 bound_to 10162
  140.4529  144.1830  150.5899 LP  0  0  0  0  0  0  0  0  0  0  0  0  # atno 17343 bound_to 10162
  156.4026  130.7682  151.2691 LP  0  0  0  0  0  0  0  0  0  0  0  0  # atno 17370 bound_to 10713
  157.7508  131.0235  150.3838 LP  0  0  0  0  0  0  0  0  0  0  0  0  # atno 17371 bound_to 10713
  139.9620  135.0151  156.9287 LP  0  0  0  0  0  0  0  0  0  0  0  0  # atno 17394 bound_to 11000
  140.5476  134.0659  155.7359 LP  0  0  0  0  0  0  0  0  0  0  0  0  # atno 17395 bound_to 11000

$$$$
