#       Name:                AV-unprocessed.smi:221
#       Creating user name   scv26
#       Creation time:       Thu Mar 26 20:14:00 2020


#       File generated by GOLD software.
#

@<TRIPOS>MOLECULE
AV-unprocessed.smi:221
    59    62     1
SMALL
NO_CHARGES


@<TRIPOS>ATOM
      1 ****        -3.2645   3.0933   4.2870 N.am           1 S1                 0.0000
      2 ****        -2.5373   3.3047   3.1878 C.2            1 S1                 0.0000
      3 ****        -1.3383   3.5745   3.2389 O.2            1 S1                 0.0000
      4 ****        -3.2740   3.2136   1.8418 C.3            1 S1                 0.0000
      5 ****        -3.7139   4.6028   1.3509 C.3            1 S1                 0.0000
      6 ****        -3.7510   4.4584  -0.1673 C.3            1 S1                 0.0000
      7 ****        -4.9003   3.8873  -0.5315 F              1 S1                 0.0000
      8 ****        -2.5932   3.5037  -0.4578 C.3            1 S1                 0.0000
      9 ****        -2.4157   2.7208   0.7596 N.pl3          1 S1                 0.0000
     10 ****        -2.0271   1.4209   0.6658 C.ar           1 S1                 0.0000
     11 ****        -2.5793   0.4960   1.4959 N.ar           1 S1                 0.0000
     12 ****        -2.2131  -0.7865   1.4235 C.ar           1 S1                 0.0000
     13 ****        -1.3217  -1.3545   0.6104 N.ar           1 S1                 0.0000
     14 ****        -0.7553  -0.4332  -0.2199 C.ar           1 S1                 0.0000
     15 ****        -1.0470   0.9605  -0.2610 C.ar           1 S1                 0.0000
     16 ****        -0.2596   1.5754  -1.2287 N.2            1 S1                 0.0000
     17 ****         0.4548   0.6043  -1.7278 C.2            1 S1                 0.0000
     18 ****         0.2246  -0.6344  -1.1760 N.pl3          1 S1                 0.0000
     19 ****         0.8848  -1.8772  -1.5337 C.3            1 S1                 0.0000
     20 ****         2.3084  -2.0299  -0.9340 C.3            1 S1                 0.0000
     21 ****         2.3169  -1.8855   0.6100 C.3            1 S1                 0.0000
     22 ****         2.2587  -0.5319   1.0114 O.3            1 S1                 0.0000
     23 ****         2.9331  -3.3790  -1.3779 C.3            1 S1                 0.0000
     24 ****         4.3891  -3.5794  -0.9876 C.3            1 S1                 0.0000
     25 ****         4.8326  -4.6924  -1.9304 C.3            1 S1                 0.0000
     26 ****         4.0723  -4.5159  -3.1193 O.3            1 S1                 0.0000
     27 ****         3.0355  -3.5664  -2.8967 C.3            1 S1                 0.0000
     28 ****        -4.1514   2.5696   1.9298 H              1 S1                 0.0000
     29 ****        -3.6716   5.4077  -0.6974 H              1 S1                 0.0000
     30 ****        -2.8235   3.1365   5.1942 H              1 S1                 0.0000
     31 ****        -4.2492   2.8855   4.2080 H              1 S1                 0.0000
     32 ****        -4.6737   4.9120   1.7665 H              1 S1                 0.0000
     33 ****        -2.9773   5.3628   1.6183 H              1 S1                 0.0000
     34 ****        -2.7975   2.8891  -1.3362 H              1 S1                 0.0000
     35 ****        -1.6760   4.0643  -0.6419 H              1 S1                 0.0000
     36 ****        -2.7039  -1.4527   2.1175 H              1 S1                 0.0000
     37 ****         1.1803   0.7665  -2.5116 H              1 S1                 0.0000
     38 ****         0.2539  -2.7082  -1.2157 H              1 S1                 0.0000
     39 ****         0.9191  -1.9201  -2.6223 H              1 S1                 0.0000
     40 ****         2.9344  -1.2367  -1.3463 H              1 S1                 0.0000
     41 ****         1.4890  -2.4374   1.0561 H              1 S1                 0.0000
     42 ****         3.2295  -2.2885   1.0452 H              1 S1                 0.0000
     43 ****         2.2405  -0.4985   1.9558 H              1 S1                 0.0000
     44 ****         2.3484  -4.2032  -0.9655 H              1 S1                 0.0000
     45 ****         4.9647  -2.6733  -1.1823 H              1 S1                 0.0000
     46 ****         4.5279  -3.8549   0.0577 H              1 S1                 0.0000
     47 ****         5.9035  -4.6653  -2.1327 H              1 S1                 0.0000
     48 ****         4.5920  -5.6681  -1.5066 H              1 S1                 0.0000
     49 ****         2.0994  -3.9054  -3.3408 H              1 S1                 0.0000
     50 ****         3.3207  -2.6327  -3.3834 H              1 S1                 0.0000
     51 ****        -0.8781   3.6415   4.1242 LP             1 S1                 0.0000
     52 ****        -0.8237   3.7269   2.3951 LP             1 S1                 0.0000
     53 ****        -3.2654   0.7785   2.1663 LP             1 S1                 0.0000
     54 ****        -1.0978  -2.3291   0.6097 LP             1 S1                 0.0000
     55 ****        -0.2444   2.5422  -1.4840 LP             1 S1                 0.0000
     56 ****         1.4321  -0.1064   0.6431 LP             1 S1                 0.0000
     57 ****         3.0637  -0.0449   0.6724 LP             1 S1                 0.0000
     58 ****         3.6686  -5.3906  -3.3873 LP             1 S1                 0.0000
     59 ****         4.6711  -4.1875  -3.8498 LP             1 S1                 0.0000
@<TRIPOS>BOND
    1    1    2 am    
    2    1   30 1     
    3    1   31 1     
    4    2    3 2     
    5    2    4 1     
    6    4   28 1     
    7    4    9 1     
    8    4    5 1     
    9    5    6 1     
   10    5   32 1     
   11    5   33 1     
   12    6   29 1     
   13    6    7 1     
   14    6    8 1     
   15    8    9 1     
   16    8   34 1     
   17    8   35 1     
   18    9   10 1     
   19   10   15 ar    
   20   10   11 ar    
   21   11   12 ar    
   22   12   13 ar    
   23   12   36 1     
   24   13   14 ar    
   25   14   18 1     
   26   14   15 ar    
   27   15   16 1     
   28   16   17 2     
   29   17   18 1     
   30   17   37 1     
   31   18   19 1     
   32   19   20 1     
   33   19   38 1     
   34   19   39 1     
   35   20   21 1     
   36   20   23 1     
   37   20   40 1     
   38   21   22 1     
   39   21   41 1     
   40   21   42 1     
   41   22   43 1     
   42   23   27 1     
   43   23   24 1     
   44   23   44 1     
   45   24   25 1     
   46   24   45 1     
   47   24   46 1     
   48   25   26 1     
   49   25   47 1     
   50   25   48 1     
   51   26   27 1     
   52   27   49 1     
   53   27   50 1     
   54    3   51 1     
   55    3   52 1     
   56   11   53 1     
   57   13   54 1     
   58   16   55 1     
   59   22   56 1     
   60   22   57 1     
   61   26   58 1     
   62   26   59 1     
@<TRIPOS>SUBSTRUCTURE
      1 S1             1
@<TRIPOS>SET
LONE_PAIRS      STATIC     ATOMS    <user>   **** ""
9 51 52 53 54 55 56 57 58 59
DONOR_HYDROGENS      STATIC     ATOMS    <user>   **** ""
3 30 31 43
ATOM$BLUE        STATIC     ATOMS    COLORGROUP SYSTEM
9 51 52 53 54 55 56 57 58 59
ATOM$RED        STATIC     ATOMS    COLORGROUP SYSTEM
3 30 31 43
