AV-unprocessed.smi:2567|AV-procd|sdf|10078|dock2
  -GOLD-   2272014103D 1   1.00000     0.00000
 Structure written by MMmdl.
 34 35  0  0  0  0  0  0  0  0  2 V2000
  146.8397  134.5248  156.9032 C   0  0  0  0  0  0  0  0  0  0  0  0
  145.7980  133.8563  155.9786 C   0  0  0  0  0  0  0  0  0  0  0  0
  145.7609  132.3605  156.3614 C   0  0  0  0  0  0  0  0  0  0  0  0
  144.4124  134.4843  156.2132 C   0  0  0  0  0  0  0  0  0  0  0  0
  146.1874  134.0177  154.5276 C   0  0  0  0  0  0  0  0  0  0  0  0
  147.1948  134.8146  154.1622 N   0  0  0  0  0  0  0  0  0  0  0  0
  147.1163  134.7866  152.8161 N   0  0  0  0  0  0  0  0  0  0  0  0
  146.0675  134.0486  152.4517 C   0  0  0  0  0  0  0  0  0  0  0  0
  145.6860  133.8520  151.0186 C   0  0  2  0  0  0  0  0  0  0  0  0
  144.3054  134.4528  150.6903 C   0  0  0  0  0  0  0  0  0  0  0  0
  143.9364  134.1391  149.2961 N   0  3  0  0  0  0  0  0  0  0  0  0
  143.9922  132.6867  149.0369 C   0  0  0  0  0  0  0  0  0  0  0  0
  145.3757  132.1328  149.4202 C   0  0  0  0  0  0  0  0  0  0  0  0
  145.6593  132.4467  150.7798 O   0  0  0  0  0  0  0  0  0  0  0  0
  145.4106  133.5569  153.4966 N   0  0  0  0  0  0  0  0  0  0  0  0
  147.7589  135.2850  152.2169 H   0  0  0  0  0  0  0  0  0  0  0  0
  146.5890  134.3778  157.9543 H   0  0  0  0  0  0  0  0  0  0  0  0
  146.8969  135.6013  156.7387 H   0  0  0  0  0  0  0  0  0  0  0  0
  147.8368  134.1123  156.7435 H   0  0  0  0  0  0  0  0  0  0  0  0
  146.7248  131.8808  156.1867 H   0  0  0  0  0  0  0  0  0  0  0  0
  145.0117  131.8141  155.7871 H   0  0  0  0  0  0  0  0  0  0  0  0
  145.5138  132.2262  157.4150 H   0  0  0  0  0  0  0  0  0  0  0  0
  144.1004  134.3818  157.2530 H   0  0  0  0  0  0  0  0  0  0  0  0
  143.6519  134.0083  155.5931 H   0  0  0  0  0  0  0  0  0  0  0  0
  144.4136  135.5483  155.9736 H   0  0  0  0  0  0  0  0  0  0  0  0
  146.4532  134.3087  150.3899 H   0  0  0  0  0  0  0  0  0  0  0  0
  143.5439  134.0466  151.3580 H   0  0  0  0  0  0  0  0  0  0  0  0
  144.3114  135.5344  150.8283 H   0  0  0  0  0  0  0  0  0  0  0  0
  143.0030  134.4777  149.1109 H   0  0  0  0  0  0  0  0  0  0  0  0
  143.2140  132.1889  149.6169 H   0  0  0  0  0  0  0  0  0  0  0  0
  143.7802  132.4976  147.9843 H   0  0  0  0  0  0  0  0  0  0  0  0
  145.3949  131.0501  149.2959 H   0  0  0  0  0  0  0  0  0  0  0  0
  146.1527  132.5412  148.7719 H   0  0  0  0  0  0  0  0  0  0  0  0
  144.5847  134.6036  148.6762 H   0  0  0  0  0  0  0  0  0  0  0  0
  1  2  1  0  0  0  0
  1 17  1  0  0  0  0
  1 18  1  0  0  0  0
  1 19  1  0  0  0  0
  2  3  1  0  0  0  0
  2  4  1  0  0  0  0
  2  5  1  0  0  0  0
  3 20  1  0  0  0  0
  3 21  1  0  0  0  0
  3 22  1  0  0  0  0
  4 23  1  0  0  0  0
  4 24  1  0  0  0  0
  4 25  1  0  0  0  0
  5 15  1  0  0  0  0
  5  6  2  0  0  0  0
  6  7  1  0  0  0  0
  7 16  1  0  0  0  0
  7  8  1  0  0  0  0
  8  9  1  0  0  0  0
  8 15  2  0  0  0  0
  9 14  1  0  0  0  0
  9 10  1  0  0  0  0
  9 26  1  0  0  0  0
 10 11  1  0  0  0  0
 10 27  1  0  0  0  0
 10 28  1  0  0  0  0
 11 12  1  0  0  0  0
 11 29  1  0  0  0  0
 11 34  1  0  0  0  0
 12 13  1  0  0  0  0
 12 30  1  0  0  0  0
 12 31  1  0  0  0  0
 13 14  1  0  0  0  0
 13 32  1  0  0  0  0
 13 33  1  0  0  0  0
M  CHG  1  11   1
M  END
> <s_m_source_file>
AV-unprocessed.smi

> <i_m_source_file_index>
2567

> <i_lp_mmshare_version>
43012

> <i_f3d_flags>
0

> <s_epik_input>
W0NIM11DKFtDSDNdKShbQ0gzXSljMW5bbkhdYyhuMSlbQ0BASF0yW0NIMl1bTkhdW0NIMl1bQ0gyXU8y

> <s_epik_cmdline>
J2VwaWtfcHl0aG9uJywgJy1waCcsICc3LjAnLCAnLXRuJywgJzgnLCAnLW1hJywgJzIwMCcsICctbWV0YWxfYmluZGluZycsICctaW1hZScsICc8aW5maWxlLm1hZT4nLCAnLW9tYWUnLCAnPG91dGZpbGUubWFlPic=

> <r_epik_Ionization_Penalty>
0.162344

> <r_epik_Ionization_Penalty_Charging>
0.125708

> <r_epik_Ionization_Penalty_Neutral>
0.0366363

> <r_epik_State_Penalty>
1.18286

> <r_epik_Charging_Adjusted_Penalty>
1.30856

> <i_epik_Tot_Q>
1

> <i_epik_Tot_abs_Q>
1

> <r_epik_Metal_State_Penalty>
1.49333

> <b_epik_Metal_Only>
0

> <s_lp_Force_Field>
OPLS_2005

> <r_lp_Energy>
12.4699

> <b_lp_Chiralities_Consistent>
1

> <s_lp_Variant>
AV-unprocessed.smi:2567-3

> <Gold.Version>
5.8.1

> <Gold.Id.Protein>
6NUR|6NUR_protein|mol2

> <Gold.PLP.Fitness>
31.6889

> <Gold.PLP.PLP>
-19.7486

> <Gold.PLP.part.hbond>
-2.8931

> <Gold.PLP.part.metal>
0.0000

> <Gold.PLP.part.buried>
-4.7609

> <Gold.PLP.part.nonpolar>
-13.2379

> <Gold.PLP.part.repulsive>
0.4320

> <Gold.PLP.ligand.clash>
0.0000

> <Gold.PLP.ligand.torsion>
0.1326

> <Gold.PLP.Chemscore.Hbond>
4.0000

> <Gold.PLP.Chemscore.CHOScore>
0.0000

> <Gold.PLP.Chemscore.Metal>
0.0000

> <Gold.Chemscore.Hbonds>
donor molecule, donor type, donor heavy atom, donor atom, acceptor molecule, acceptor atom, score
      L1  H     7    16       P1  7948  1.00
      L1  H    11    29       P1 10186  1.97
      L1  H    11    34       P1  7921  1.00

> <Gold.PLP.Chemscore.Internal.Correction>
0.2056

> <Gold.Rescore>
     Score         DG    S(hbond)    S(metal)    S(lipo)     H(rot)  DE(clash)    DE(int)     intcor
     16.80     -16.93       2.92        0.00      42.14       1.26       0.01       0.11       ----

> <Gold.Chemscore.Fitness>
16.7995

> <Gold.Chemscore.DG>
-16.9268

> <Gold.Chemscore.ZeroCoef>
-5.4800

> <Gold.Chemscore.Hbond>
2.9203

> <Gold.Chemscore.Metal>
0.0000

> <Gold.Chemscore.Lipo>
42.1407

> <Gold.Chemscore.Internal_Hbond>
0.0000

> <Gold.Chemscore.DEClash>
0.0137

> <Gold.Chemscore.DEInternal>
0.1136

> <Gold.Chemscore.Rot>
1.2647

> <Gold.Chemscore.Internal.Correction>
   9.000000E+99

> <Gold.Chemscore.Hbonds>
donor molecule, donor type, donor heavy atom, donor atom, acceptor molecule, acceptor atom, score
      L1  H     7    16       P1  7948  0.91
      L1  H    11    29       P1 10186  0.88
      L1  H    11    34       P1  7921  0.99

> <Gold.Chemscore.Hbond.Weighted>
-9.7538

> <Gold.Chemscore.Metal.Weighted>
-0.0000

> <Gold.Chemscore.Lipo.Weighted>
-4.9305

> <Gold.Chemscore.Internal_Hbond.Weighted>
0.0000

> <Gold.Chemscore.DEClash.Weighted>
0.0137

> <Gold.Chemscore.DEInternal.Weighted>
0.1136

> <Gold.Chemscore.Rot.Weighted>
3.2375

> <Gold.Chemscore.Internal.Correction.Weighted>
   9.000000E+99

> <Gold.Protein.RotatedTorsions>
[ 6907 6896 6895 6894 ] final -117.56 input  -60.11 | X-H torsion
[ 7974 7965 7964 7962 ] final  164.27 input  175.53 | X-H torsion
[ 8008 7997 7996 7995 ] final   82.07 input   59.86 | X-H torsion
[ 10167 10162 10161 10158 ] final    8.78 input  -65.29 | X-H torsion
[ 10718 10713 10712 10709 ] final   71.68 input   66.30 | X-H torsion
[ 10763 10752 10751 10750 ] final -115.42 input  -60.55 | X-H torsion
[ 11005 11000 10999 10996 ] final  118.15 input  -57.11 | X-H torsion

> <Gold.Protein.ActiveResidues>
 VAL166  LYS551  ARG553  GLY616  TRP617  ASP618  TYR619  PRO620  LYS621  CYS622 
 ASP623  PHE694  ASN695  SER759  ASP760  ASP761  ALA762  ILE779  LEU786  VAL792 
 PHE793  MET794  SER795  GLU796  ALA797  LYS798  CYS799  TRP800  GLU811  SER814 

> <Gold.Protein.RotatedAtoms>
  150.8146  133.8360  159.3166 H   0  0  0  0  0  0  0  0  0  0  0  0  # atno 6907 bound_to 6896
  151.6135  135.1036  160.0096 H   0  0  0  0  0  0  0  0  0  0  0  0  # atno 6908 bound_to 6896
  152.4238  133.7120  159.6541 H   0  0  0  0  0  0  0  0  0  0  0  0  # atno 6909 bound_to 6896
  144.7552  139.8302  143.6352 H   0  0  0  0  0  0  0  0  0  0  0  0  # atno 7974 bound_to 7965
  155.9056  140.3430  155.6060 H   0  0  0  0  0  0  0  0  0  0  0  0  # atno 8008 bound_to 7997
  155.7448  140.0812  157.2248 H   0  0  0  0  0  0  0  0  0  0  0  0  # atno 8009 bound_to 7997
  154.4049  140.1564  156.2644 H   0  0  0  0  0  0  0  0  0  0  0  0  # atno 8010 bound_to 7997
  140.6294  143.8028  150.7275 H   0  0  0  0  0  0  0  0  0  0  0  0  # atno 10167 bound_to 10162
  157.6464  130.9540  150.0823 H   0  0  0  0  0  0  0  0  0  0  0  0  # atno 10718 bound_to 10713
  154.8480  135.4382  154.1660 H   0  0  0  0  0  0  0  0  0  0  0  0  # atno 10763 bound_to 10752
  153.2785  135.6951  153.7415 H   0  0  0  0  0  0  0  0  0  0  0  0  # atno 10764 bound_to 10752
  153.6628  135.3432  155.3107 H   0  0  0  0  0  0  0  0  0  0  0  0  # atno 10765 bound_to 10752
  139.9099  134.9617  156.7459 H   0  0  0  0  0  0  0  0  0  0  0  0  # atno 11005 bound_to 11000
  146.1554  139.4650  143.0022 LP  0  0  0  0  0  0  0  0  0  0  0  0  # atno 17320 bound_to 7965
  145.6803  141.0193  143.1610 LP  0  0  0  0  0  0  0  0  0  0  0  0  # atno 17321 bound_to 7965
  140.1636  143.4255  152.2050 LP  0  0  0  0  0  0  0  0  0  0  0  0  # atno 17342 bound_to 10162
  139.5510  144.7337  151.4435 LP  0  0  0  0  0  0  0  0  0  0  0  0  # atno 17343 bound_to 10162
  156.1796  130.3649  149.9053 LP  0  0  0  0  0  0  0  0  0  0  0  0  # atno 17370 bound_to 10713
  156.7009  130.8932  151.3599 LP  0  0  0  0  0  0  0  0  0  0  0  0  # atno 17371 bound_to 10713
  140.6812  133.9472  155.7911 LP  0  0  0  0  0  0  0  0  0  0  0  0  # atno 17394 bound_to 11000
  141.0509  134.0487  157.3785 LP  0  0  0  0  0  0  0  0  0  0  0  0  # atno 17395 bound_to 11000

$$$$
