AV-unprocessed.smi:2606|AV-procd|sdf|10197|dock5
  -GOLD-   2272014203D 1   1.00000     0.00000
 Structure written by MMmdl.
 42 43  0  0  0  0  0  0  0  0  1 V2000
  150.1865  136.4096  159.3937 O   0  0  0  0  0  0  0  0  0  0  0  0
  149.2370  137.1539  159.1429 C   0  0  0  0  0  0  0  0  0  0  0  0
  147.8094  136.6163  159.2859 C   0  0  0  0  0  0  0  0  0  0  0  0
  147.6818  135.7241  160.4488 N   0  0  0  0  0  0  0  0  0  0  0  0
  147.7437  134.3391  160.1985 C   0  0  0  0  0  0  0  0  0  0  0  0
  147.6273  133.4123  161.1687 C   0  0  0  0  0  0  0  0  0  0  0  0
  147.7499  131.9255  160.8731 C   0  0  0  0  0  0  0  0  0  0  0  0
  148.7251  131.3715  161.5939 F   0  0  0  0  0  0  0  0  0  0  0  0
  146.6085  131.3084  161.1749 F   0  0  0  0  0  0  0  0  0  0  0  0
  148.0091  131.7110  159.5826 F   0  0  0  0  0  0  0  0  0  0  0  0
  147.4664  133.9106  162.5205 C   0  0  0  0  0  0  0  0  0  0  0  0
  147.4110  135.2319  162.7782 C   0  0  0  0  0  0  0  0  0  0  0  0
  147.5118  136.2271  161.7082 C   0  0  0  0  0  0  0  0  0  0  0  0
  147.4447  137.4364  161.9302 O   0  0  0  0  0  0  0  0  0  0  0  0
  149.3393  138.4363  158.7376 N   0  0  0  0  0  0  0  0  0  0  0  0
  150.4645  139.1427  158.5205 C   0  0  0  0  0  0  0  0  0  0  0  0
  151.6148  138.7060  158.6014 O   0  0  0  0  0  0  0  0  0  0  0  0
  150.1781  140.4125  158.1972 N   0  0  0  0  0  0  0  0  0  0  0  0
  151.1385  141.5116  158.1595 C   0  0  0  0  0  0  0  0  0  0  0  0
  152.1090  141.4284  159.3561 C   0  0  0  0  0  0  0  0  0  0  0  0
  153.0775  142.6221  159.3790 C   0  0  0  0  0  0  0  0  0  0  0  0
  152.3178  143.9577  159.3783 C   0  0  0  0  0  0  0  0  0  0  0  0
  151.3555  144.0466  158.1835 C   0  0  0  0  0  0  0  0  0  0  0  0
  150.3843  142.8548  158.1603 C   0  0  0  0  0  0  0  0  0  0  0  0
  147.1227  137.4590  159.3806 H   0  0  0  0  0  0  0  0  0  0  0  0
  147.5106  136.1152  158.3631 H   0  0  0  0  0  0  0  0  0  0  0  0
  147.8883  134.0779  159.1598 H   0  0  0  0  0  0  0  0  0  0  0  0
  147.3844  133.2129  163.3408 H   0  0  0  0  0  0  0  0  0  0  0  0
  147.2876  135.5671  163.7977 H   0  0  0  0  0  0  0  0  0  0  0  0
  148.4685  138.9184  158.5677 H   0  0  0  0  0  0  0  0  0  0  0  0
  149.2241  140.6375  157.9552 H   0  0  0  0  0  0  0  0  0  0  0  0
  151.7138  141.4482  157.2337 H   0  0  0  0  0  0  0  0  0  0  0  0
  151.5444  141.4036  160.2893 H   0  0  0  0  0  0  0  0  0  0  0  0
  152.6791  140.4993  159.3163 H   0  0  0  0  0  0  0  0  0  0  0  0
  153.7219  142.5608  160.2563 H   0  0  0  0  0  0  0  0  0  0  0  0
  153.7339  142.5751  158.5092 H   0  0  0  0  0  0  0  0  0  0  0  0
  151.7566  144.0600  160.3081 H   0  0  0  0  0  0  0  0  0  0  0  0
  153.0242  144.7877  159.3500 H   0  0  0  0  0  0  0  0  0  0  0  0
  150.7958  144.9813  158.2260 H   0  0  0  0  0  0  0  0  0  0  0  0
  151.9272  144.0703  157.2548 H   0  0  0  0  0  0  0  0  0  0  0  0
  149.7412  142.9237  157.2818 H   0  0  0  0  0  0  0  0  0  0  0  0
  149.7266  142.9097  159.0292 H   0  0  0  0  0  0  0  0  0  0  0  0
  1  2  2  0  0  0  0
  2  3  1  0  0  0  0
  2 15  1  0  0  0  0
  3  4  1  0  0  0  0
  3 25  1  0  0  0  0
  3 26  1  0  0  0  0
  4 13  1  0  0  0  0
  4  5  1  0  0  0  0
  5  6  2  0  0  0  0
  5 27  1  0  0  0  0
  6  7  1  0  0  0  0
  6 11  1  0  0  0  0
  7  8  1  0  0  0  0
  7  9  1  0  0  0  0
  7 10  1  0  0  0  0
 11 12  2  0  0  0  0
 11 28  1  0  0  0  0
 12 13  1  0  0  0  0
 12 29  1  0  0  0  0
 13 14  2  0  0  0  0
 15 16  1  0  0  0  0
 15 30  1  0  0  0  0
 16 17  2  0  0  0  0
 16 18  1  0  0  0  0
 18 19  1  0  0  0  0
 18 31  1  0  0  0  0
 19 24  1  0  0  0  0
 19 20  1  0  0  0  0
 19 32  1  0  0  0  0
 20 21  1  0  0  0  0
 20 33  1  0  0  0  0
 20 34  1  0  0  0  0
 21 22  1  0  0  0  0
 21 35  1  0  0  0  0
 21 36  1  0  0  0  0
 22 23  1  0  0  0  0
 22 37  1  0  0  0  0
 22 38  1  0  0  0  0
 23 24  1  0  0  0  0
 23 39  1  0  0  0  0
 23 40  1  0  0  0  0
 24 41  1  0  0  0  0
 24 42  1  0  0  0  0
M  END
> <s_m_source_file>
AV-unprocessed.smi

> <i_m_source_file_index>
2606

> <i_lp_mmshare_version>
43012

> <i_f3d_flags>
0

> <s_epik_input>
Tz1jMVtjSF1bY0hdYyhDKEYpKEYpRilbY0hdbjFbQ0gyXUMoPU8pW05IXUMoPU8pW05IXVtDSF0yW0NIMl1bQ0gyXVtDSDJdW0NIMl1bQ0gyXTI=

> <s_epik_cmdline>
J2VwaWtfcHl0aG9uJywgJy1waCcsICc3LjAnLCAnLXRuJywgJzgnLCAnLW1hJywgJzIwMCcsICctbWV0YWxfYmluZGluZycsICctaW1hZScsICc8aW5maWxlLm1hZT4nLCAnLW9tYWUnLCAnPG91dGZpbGUubWFlPic=

> <r_lp_tautomer_probability>
1

> <r_epik_Ionization_Penalty>
3.27177e-05

> <r_epik_Ionization_Penalty_Charging>
1.42456e-08

> <r_epik_Ionization_Penalty_Neutral>
3.27035e-05

> <r_epik_State_Penalty>
-0

> <r_epik_Charging_Adjusted_Penalty>
1.42456e-08

> <i_epik_Tot_Q>
0

> <i_epik_Tot_abs_Q>
0

> <r_epik_Metal_State_Penalty>
-0

> <b_epik_Metal_Only>
0

> <s_lp_Force_Field>
OPLS_2005

> <r_lp_Energy>
22.0809

> <b_lp_Chiralities_Consistent>
1

> <s_lp_Variant>
AV-unprocessed.smi:2606-1

> <Gold.Version>
5.8.1

> <Gold.Id.Protein>
6NUR|6NUR_protein|mol2

> <Gold.PLP.Fitness>
50.9311

> <Gold.PLP.PLP>
-46.7782

> <Gold.PLP.part.hbond>
-3.0000

> <Gold.PLP.part.metal>
0.0000

> <Gold.PLP.part.buried>
-4.6508

> <Gold.PLP.part.nonpolar>
-39.4722

> <Gold.PLP.part.repulsive>
0.3573

> <Gold.PLP.ligand.clash>
1.3636

> <Gold.PLP.ligand.torsion>
0.9584

> <Gold.PLP.Chemscore.Hbond>
2.4560

> <Gold.PLP.Chemscore.CHOScore>
0.0000

> <Gold.PLP.Chemscore.Metal>
0.0000

> <Gold.Chemscore.Hbonds>
donor molecule, donor type, donor heavy atom, donor atom, acceptor molecule, acceptor atom, score
      P1  H  6896  6907       L1     1  1.00
      P1  H  6931  6943       L1    14  0.80
      P1  H  6934  6947       L1    14  0.66

> <Gold.PLP.Chemscore.Internal.Correction>
0.0654

> <Gold.Rescore>
     Score         DG    S(hbond)    S(metal)    S(lipo)     H(rot)  DE(clash)    DE(int)     intcor
     17.46     -20.98       2.61        0.00      93.96       1.65       0.00       3.52       ----

> <Gold.Chemscore.Fitness>
17.4580

> <Gold.Chemscore.DG>
-20.9815

> <Gold.Chemscore.ZeroCoef>
-5.4800

> <Gold.Chemscore.Hbond>
2.6137

> <Gold.Chemscore.Metal>
0.0000

> <Gold.Chemscore.Lipo>
93.9616

> <Gold.Chemscore.Internal_Hbond>
0.0000

> <Gold.Chemscore.DEClash>
0.0000

> <Gold.Chemscore.DEInternal>
3.5235

> <Gold.Chemscore.Rot>
1.6491

> <Gold.Chemscore.Internal.Correction>
   9.000000E+99

> <Gold.Chemscore.Hbonds>
donor molecule, donor type, donor heavy atom, donor atom, acceptor molecule, acceptor atom, score
      P1  H  6896  6907       L1     1  0.99
      P1  H  6931  6943       L1    14  0.70
      P1  H  6934  6947       L1    14  0.66

> <Gold.Chemscore.Hbond.Weighted>
-8.7297

> <Gold.Chemscore.Metal.Weighted>
-0.0000

> <Gold.Chemscore.Lipo.Weighted>
-10.9935

> <Gold.Chemscore.Internal_Hbond.Weighted>
0.0000

> <Gold.Chemscore.DEClash.Weighted>
0.0000

> <Gold.Chemscore.DEInternal.Weighted>
3.5235

> <Gold.Chemscore.Rot.Weighted>
4.2216

> <Gold.Chemscore.Internal.Correction.Weighted>
   9.000000E+99

> <Gold.Protein.RotatedTorsions>
[ 6907 6896 6895 6894 ] final  -51.66 input  -60.11 | X-H torsion
[ 7974 7965 7964 7962 ] final  -70.81 input  175.53 | X-H torsion
[ 8008 7997 7996 7995 ] final  -62.32 input   59.86 | X-H torsion
[ 10167 10162 10161 10158 ] final  146.19 input  -65.29 | X-H torsion
[ 10718 10713 10712 10709 ] final  -13.28 input   66.30 | X-H torsion
[ 10763 10752 10751 10750 ] final -154.50 input  -60.55 | X-H torsion
[ 11005 11000 10999 10996 ] final  -36.50 input  -57.11 | X-H torsion

> <Gold.Protein.ActiveResidues>
 VAL166  LYS551  ARG553  GLY616  TRP617  ASP618  TYR619  PRO620  LYS621  CYS622 
 ASP623  PHE694  ASN695  SER759  ASP760  ASP761  ALA762  ILE779  LEU786  VAL792 
 PHE793  MET794  SER795  GLU796  ALA797  LYS798  CYS799  TRP800  GLU811  SER814 

> <Gold.Protein.RotatedAtoms>
  150.8591  134.7938  159.7068 H   0  0  0  0  0  0  0  0  0  0  0  0  # atno 6907 bound_to 6896
  152.4633  134.5130  159.9769 H   0  0  0  0  0  0  0  0  0  0  0  0  # atno 6908 bound_to 6896
  151.5237  133.3423  159.2941 H   0  0  0  0  0  0  0  0  0  0  0  0  # atno 6909 bound_to 6896
  145.6861  140.9170  143.0806 H   0  0  0  0  0  0  0  0  0  0  0  0  # atno 7974 bound_to 7965
  154.4494  140.0998  156.6569 H   0  0  0  0  0  0  0  0  0  0  0  0  # atno 8008 bound_to 7997
  155.5336  140.3482  155.4413 H   0  0  0  0  0  0  0  0  0  0  0  0  # atno 8009 bound_to 7997
  156.0647  140.1335  156.9889 H   0  0  0  0  0  0  0  0  0  0  0  0  # atno 8010 bound_to 7997
  139.4911  144.5847  151.6802 H   0  0  0  0  0  0  0  0  0  0  0  0  # atno 10167 bound_to 10162
  156.6325  130.4905  149.6124 H   0  0  0  0  0  0  0  0  0  0  0  0  # atno 10718 bound_to 10713
  154.7854  135.3188  154.7897 H   0  0  0  0  0  0  0  0  0  0  0  0  # atno 10763 bound_to 10752
  153.8598  135.6854  153.4788 H   0  0  0  0  0  0  0  0  0  0  0  0  # atno 10764 bound_to 10752
  153.1504  135.4701  154.9567 H   0  0  0  0  0  0  0  0  0  0  0  0  # atno 10765 bound_to 10752
  140.9880  133.7020  156.1799 H   0  0  0  0  0  0  0  0  0  0  0  0  # atno 11005 bound_to 11000
  144.7011  139.8761  143.7444 LP  0  0  0  0  0  0  0  0  0  0  0  0  # atno 17320 bound_to 7965
  146.0922  139.3912  143.0399 LP  0  0  0  0  0  0  0  0  0  0  0  0  # atno 17321 bound_to 7965
  140.5461  144.0502  150.6107 LP  0  0  0  0  0  0  0  0  0  0  0  0  # atno 17342 bound_to 10162
  140.3540  143.2946  152.0456 LP  0  0  0  0  0  0  0  0  0  0  0  0  # atno 17343 bound_to 10162
  156.2223  130.6744  151.1381 LP  0  0  0  0  0  0  0  0  0  0  0  0  # atno 17370 bound_to 10713
  157.7195  131.0690  150.6191 LP  0  0  0  0  0  0  0  0  0  0  0  0  # atno 17371 bound_to 10713
  140.7085  134.4488  157.5583 LP  0  0  0  0  0  0  0  0  0  0  0  0  # atno 17394 bound_to 11000
  139.8979  134.8626  156.2024 LP  0  0  0  0  0  0  0  0  0  0  0  0  # atno 17395 bound_to 11000

$$$$
