AV-unprocessed.smi:2510|AV-procd|sdf|9872|dock4
  -GOLD-   2272013503D 1   1.00000     0.00000
 Structure written by MMmdl.
 48 49  0  0  0  0  0  0  0  0  1 V2000
  151.7373  138.1278  154.6887 C   0  0  0  0  0  0  0  0  0  0  0  0
  150.9522  136.8238  154.4595 C   0  0  0  0  0  0  0  0  0  0  0  0
  150.3711  136.1327  155.7270 C   0  0  0  0  0  0  0  0  0  0  0  0
  149.4978  137.1313  156.5111 C   0  0  0  0  0  0  0  0  0  0  0  0
  148.1973  137.5378  155.7999 C   0  0  0  0  0  0  0  0  0  0  0  0
  149.7523  134.7163  155.5506 C   0  0  1  0  0  0  0  0  0  0  0  0
  149.2677  134.3986  154.2117 N   0  0  0  0  0  0  0  0  0  0  0  0
  148.8264  133.1934  153.8203 C   0  0  0  0  0  0  0  0  0  0  0  0
  148.7587  132.2198  154.5704 O   0  0  0  0  0  0  0  0  0  0  0  0
  148.4038  133.0639  152.3553 C   0  0  0  0  0  0  0  0  0  0  0  0
  146.9253  132.7974  152.2542 C   0  0  0  0  0  0  0  0  0  0  0  0
  146.1306  132.6964  151.0739 C   0  0  0  0  0  0  0  0  0  0  0  0
  144.8722  132.4302  151.5350 C   0  0  0  0  0  0  0  0  0  0  0  0
  143.5854  132.2034  150.8177 C   0  0  0  0  0  0  0  0  0  0  0  0
  144.9651  132.3942  152.9071 N   0  0  0  0  0  0  0  0  0  0  0  0
  146.2123  132.6200  153.3589 N   0  0  0  0  0  0  0  0  0  0  0  0
  151.1234  134.0898  155.8272 C   0  0  2  0  0  0  0  0  0  0  0  0
  151.1832  132.7452  156.5404 C   0  0  0  0  0  0  0  0  0  0  0  0
  151.4133  135.3834  156.6011 C   0  0  1  0  0  0  0  0  0  0  0  0
  152.7312  135.8916  156.4519 O   0  0  0  0  0  0  0  0  0  0  0  0
  153.0296  136.9465  157.3490 C   0  0  0  0  0  0  0  0  0  0  0  0
  144.1961  132.2200  153.5385 H   0  0  0  0  0  0  0  0  0  0  0  0
  151.9394  138.6246  153.7398 H   0  0  0  0  0  0  0  0  0  0  0  0
  152.7005  137.9403  155.1622 H   0  0  0  0  0  0  0  0  0  0  0  0
  151.1930  138.8294  155.3158 H   0  0  0  0  0  0  0  0  0  0  0  0
  150.1495  137.0440  153.7557 H   0  0  0  0  0  0  0  0  0  0  0  0
  151.6038  136.1351  153.9215 H   0  0  0  0  0  0  0  0  0  0  0  0
  149.2708  136.7535  157.5076 H   0  0  0  0  0  0  0  0  0  0  0  0
  150.0671  138.0434  156.6926 H   0  0  0  0  0  0  0  0  0  0  0  0
  147.6656  138.2943  156.3770 H   0  0  0  0  0  0  0  0  0  0  0  0
  147.5219  136.6923  155.6733 H   0  0  0  0  0  0  0  0  0  0  0  0
  148.3985  137.9570  154.8139 H   0  0  0  0  0  0  0  0  0  0  0  0
  149.0447  134.4699  156.3466 H   0  0  0  0  0  0  0  0  0  0  0  0
  149.2775  135.1450  153.5311 H   0  0  0  0  0  0  0  0  0  0  0  0
  148.6746  133.9757  151.8214 H   0  0  0  0  0  0  0  0  0  0  0  0
  148.9649  132.2541  151.8874 H   0  0  0  0  0  0  0  0  0  0  0  0
  146.4423  132.7951  150.0447 H   0  0  0  0  0  0  0  0  0  0  0  0
  143.7357  132.2050  149.7379 H   0  0  0  0  0  0  0  0  0  0  0  0
  142.8650  132.9851  151.0587 H   0  0  0  0  0  0  0  0  0  0  0  0
  143.1509  131.2429  151.0954 H   0  0  0  0  0  0  0  0  0  0  0  0
  151.7214  134.0684  154.9140 H   0  0  0  0  0  0  0  0  0  0  0  0
  150.6582  132.7767  157.4954 H   0  0  0  0  0  0  0  0  0  0  0  0
  152.2110  132.4428  156.7385 H   0  0  0  0  0  0  0  0  0  0  0  0
  150.7226  131.9620  155.9381 H   0  0  0  0  0  0  0  0  0  0  0  0
  151.1005  135.3239  157.6467 H   0  0  0  0  0  0  0  0  0  0  0  0
  154.0346  137.3191  157.1512 H   0  0  0  0  0  0  0  0  0  0  0  0
  152.9985  136.6092  158.3845 H   0  0  0  0  0  0  0  0  0  0  0  0
  152.3333  137.7773  157.2278 H   0  0  0  0  0  0  0  0  0  0  0  0
  1  2  1  0  0  0  0
  1 23  1  0  0  0  0
  1 24  1  0  0  0  0
  1 25  1  0  0  0  0
  2  3  1  0  0  0  0
  2 26  1  0  0  0  0
  2 27  1  0  0  0  0
  3 19  1  0  0  0  0
  3  4  1  0  0  0  0
  3  6  1  0  0  0  0
  4  5  1  0  0  0  0
  4 28  1  0  0  0  0
  4 29  1  0  0  0  0
  5 30  1  0  0  0  0
  5 31  1  0  0  0  0
  5 32  1  0  0  0  0
  6  7  1  0  0  0  0
  6 17  1  0  0  0  0
  6 33  1  0  0  0  0
  7  8  1  0  0  0  0
  7 34  1  0  0  0  0
  8  9  2  0  0  0  0
  8 10  1  0  0  0  0
 10 11  1  0  0  0  0
 10 35  1  0  0  0  0
 10 36  1  0  0  0  0
 11 16  2  0  0  0  0
 11 12  1  0  0  0  0
 12 13  2  0  0  0  0
 12 37  1  0  0  0  0
 13 14  1  0  0  0  0
 13 15  1  0  0  0  0
 14 38  1  0  0  0  0
 14 39  1  0  0  0  0
 14 40  1  0  0  0  0
 15 22  1  0  0  0  0
 15 16  1  0  0  0  0
 17 18  1  0  0  0  0
 17 19  1  0  0  0  0
 17 41  1  0  0  0  0
 18 42  1  0  0  0  0
 18 43  1  0  0  0  0
 18 44  1  0  0  0  0
 19 20  1  0  0  0  0
 19 45  1  0  0  0  0
 20 21  1  0  0  0  0
 21 46  1  0  0  0  0
 21 47  1  0  0  0  0
 21 48  1  0  0  0  0
M  END
> <s_m_source_file>
AV-unprocessed.smi

> <i_m_source_file_index>
2510

> <i_lp_mmshare_version>
43012

> <i_f3d_flags>
0

> <s_epik_input>
W0NIM11PW0NAQEhdMVtDQEhdKFtDSDNdKVtDQEBIXShDMShbQ0gyXVtDSDNdKVtDSDJdW0NIM10pW05IXUMoPU8pW0NIMl1jMltjSF1jKFtDSDNdKVtuSF1uMg==

> <s_epik_cmdline>
J2VwaWtfcHl0aG9uJywgJy1waCcsICc3LjAnLCAnLXRuJywgJzgnLCAnLW1hJywgJzIwMCcsICctbWV0YWxfYmluZGluZycsICctaW1hZScsICc8aW5maWxlLm1hZT4nLCAnLW9tYWUnLCAnPG91dGZpbGUubWFlPic=

> <r_lp_tautomer_probability>
0.5

> <r_epik_Ionization_Penalty>
9.73156e-05

> <r_epik_Ionization_Penalty_Charging>
0

> <r_epik_Ionization_Penalty_Neutral>
9.73156e-05

> <r_epik_State_Penalty>
0.41068

> <r_epik_Charging_Adjusted_Penalty>
0.41068

> <i_epik_Tot_Q>
0

> <i_epik_Tot_abs_Q>
0

> <r_epik_Metal_State_Penalty>
0.410699

> <b_epik_Metal_Only>
0

> <s_lp_Force_Field>
OPLS_2005

> <r_lp_Energy>
23.9763

> <b_lp_Chiralities_Consistent>
1

> <s_lp_Variant>
AV-unprocessed.smi:2510-3

> <Gold.Version>
5.8.1

> <Gold.Id.Protein>
6NUR|6NUR_protein|mol2

> <Gold.PLP.Fitness>
38.6757

> <Gold.PLP.PLP>
-30.1218

> <Gold.PLP.part.hbond>
-3.0000

> <Gold.PLP.part.metal>
0.0000

> <Gold.PLP.part.buried>
-2.8538

> <Gold.PLP.part.nonpolar>
-25.0949

> <Gold.PLP.part.repulsive>
0.1468

> <Gold.PLP.ligand.clash>
0.0000

> <Gold.PLP.ligand.torsion>
0.5379

> <Gold.PLP.Chemscore.Hbond>
3.0000

> <Gold.PLP.Chemscore.CHOScore>
0.0000

> <Gold.PLP.Chemscore.Metal>
0.0000

> <Gold.Chemscore.Hbonds>
donor molecule, donor type, donor heavy atom, donor atom, acceptor molecule, acceptor atom, score
      L1  H     7    34       P1  7948  0.90
      L1  H    15    22       P1 10957  0.70
      P1  H 10752 10764       L1    20  0.83

> <Gold.PLP.Chemscore.Internal.Correction>
0.6296

> <Gold.Rescore>
     Score         DG    S(hbond)    S(metal)    S(lipo)     H(rot)  DE(clash)    DE(int)     intcor
     15.80     -17.94       2.50        0.00      74.83       1.81       0.17       1.97       ----

> <Gold.Chemscore.Fitness>
15.8026

> <Gold.Chemscore.DG>
-17.9392

> <Gold.Chemscore.ZeroCoef>
-5.4800

> <Gold.Chemscore.Hbond>
2.4966

> <Gold.Chemscore.Metal>
0.0000

> <Gold.Chemscore.Lipo>
74.8267

> <Gold.Chemscore.Internal_Hbond>
0.0000

> <Gold.Chemscore.DEClash>
0.1709

> <Gold.Chemscore.DEInternal>
1.9657

> <Gold.Chemscore.Rot>
1.8102

> <Gold.Chemscore.Internal.Correction>
   9.000000E+99

> <Gold.Chemscore.Hbonds>
donor molecule, donor type, donor heavy atom, donor atom, acceptor molecule, acceptor atom, score
      L1  H     7    34       P1  7948  0.17
      L1  H    15    22       P1 10957  0.07
      P1  H 10752 10764       L1    20  0.54

> <Gold.Chemscore.Hbond.Weighted>
-8.3386

> <Gold.Chemscore.Metal.Weighted>
-0.0000

> <Gold.Chemscore.Lipo.Weighted>
-8.7547

> <Gold.Chemscore.Internal_Hbond.Weighted>
0.0000

> <Gold.Chemscore.DEClash.Weighted>
0.1709

> <Gold.Chemscore.DEInternal.Weighted>
1.9657

> <Gold.Chemscore.Rot.Weighted>
4.6341

> <Gold.Chemscore.Internal.Correction.Weighted>
   9.000000E+99

> <Gold.Protein.RotatedTorsions>
[ 6907 6896 6895 6894 ] final   55.10 input  -60.11 | X-H torsion
[ 7974 7965 7964 7962 ] final   93.70 input  175.53 | X-H torsion
[ 8008 7997 7996 7995 ] final   49.24 input   59.86 | X-H torsion
[ 10167 10162 10161 10158 ] final  122.89 input  -65.29 | X-H torsion
[ 10718 10713 10712 10709 ] final  111.96 input   66.30 | X-H torsion
[ 10763 10752 10751 10750 ] final  -22.76 input  -60.55 | X-H torsion
[ 11005 11000 10999 10996 ] final -116.58 input  -57.11 | X-H torsion

> <Gold.Protein.ActiveResidues>
 VAL166  LYS551  ARG553  GLY616  TRP617  ASP618  TYR619  PRO620  LYS621  CYS622 
 ASP623  PHE694  ASN695  SER759  ASP760  ASP761  ALA762  ILE779  LEU786  VAL792 
 PHE793  MET794  SER795  GLU796  ALA797  LYS798  CYS799  TRP800  GLU811  SER814 

> <Gold.Protein.RotatedAtoms>
  152.3505  134.7012  160.0237 H   0  0  0  0  0  0  0  0  0  0  0  0  # atno 6907 bound_to 6896
  151.7368  133.3314  159.3363 H   0  0  0  0  0  0  0  0  0  0  0  0  # atno 6908 bound_to 6896
  150.7537  134.6247  159.6199 H   0  0  0  0  0  0  0  0  0  0  0  0  # atno 6909 bound_to 6896
  145.4754  139.2280  143.2912 H   0  0  0  0  0  0  0  0  0  0  0  0  # atno 7974 bound_to 7965
  155.3989  140.3437  155.4256 H   0  0  0  0  0  0  0  0  0  0  0  0  # atno 8008 bound_to 7997
  156.1515  140.1572  156.8795 H   0  0  0  0  0  0  0  0  0  0  0  0  # atno 8009 bound_to 7997
  154.5056  140.0803  156.7869 H   0  0  0  0  0  0  0  0  0  0  0  0  # atno 8010 bound_to 7997
  139.5832  144.6995  151.3476 H   0  0  0  0  0  0  0  0  0  0  0  0  # atno 10167 bound_to 10162
  157.6417  131.0960  150.6826 H   0  0  0  0  0  0  0  0  0  0  0  0  # atno 10718 bound_to 10713
  153.6570  135.6978  153.5190 H   0  0  0  0  0  0  0  0  0  0  0  0  # atno 10763 bound_to 10752
  153.2662  135.4229  155.0942 H   0  0  0  0  0  0  0  0  0  0  0  0  # atno 10764 bound_to 10752
  154.8462  135.3567  154.6114 H   0  0  0  0  0  0  0  0  0  0  0  0  # atno 10765 bound_to 10752
  141.0412  133.9832  157.2991 H   0  0  0  0  0  0  0  0  0  0  0  0  # atno 11005 bound_to 11000
  146.2372  140.5536  142.8949 LP  0  0  0  0  0  0  0  0  0  0  0  0  # atno 17320 bound_to 7965
  144.7920  140.6050  143.6535 LP  0  0  0  0  0  0  0  0  0  0  0  0  # atno 17321 bound_to 7965
  140.7107  143.7397  150.7562 LP  0  0  0  0  0  0  0  0  0  0  0  0  # atno 17342 bound_to 10162
  140.0935  143.4855  152.2465 LP  0  0  0  0  0  0  0  0  0  0  0  0  # atno 17343 bound_to 10162
  156.7148  130.4663  149.5538 LP  0  0  0  0  0  0  0  0  0  0  0  0  # atno 17370 bound_to 10713
  156.1705  130.6434  151.0831 LP  0  0  0  0  0  0  0  0  0  0  0  0  # atno 17371 bound_to 10713
  139.9277  135.0201  156.8293 LP  0  0  0  0  0  0  0  0  0  0  0  0  # atno 17394 bound_to 11000
  140.6231  133.9976  155.7627 LP  0  0  0  0  0  0  0  0  0  0  0  0  # atno 17395 bound_to 11000

$$$$
