AV-unprocessed.smi:2784|AV-procd|sdf|10735|dock7
  -GOLD-   2272015173D 1   1.00000     0.00000
 Structure written by MMmdl.
 31 32  0  0  0  0  0  0  0  0  1 V2000
  144.6519  140.9066  159.3995 C   0  0  0  0  0  0  0  0  0  0  0  0
  145.2919  141.9558  160.1075 O   0  0  0  0  0  0  0  0  0  0  0  0
  144.5815  143.1908  160.0711 C   0  0  1  0  0  0  0  0  0  0  0  0
  143.2052  142.9227  160.6827 C   0  0  0  0  0  0  0  0  0  0  0  0
  143.4372  143.0162  162.1879 C   0  0  0  0  0  0  0  0  0  0  0  0
  144.4600  144.1432  162.3498 C   0  0  0  0  0  0  0  0  0  0  0  0
  145.2231  144.2372  161.0135 C   0  0  1  0  0  0  0  0  0  0  0  0
  146.6560  144.0269  161.2140 N   0  0  0  0  0  0  0  0  0  0  0  0
  147.6207  144.9186  160.9444 C   0  0  0  0  0  0  0  0  0  0  0  0
  147.3576  146.0357  160.4879 O   0  0  0  0  0  0  0  0  0  0  0  0
  148.8632  144.3767  161.2420 N   0  0  0  0  0  0  0  0  0  0  0  0
  149.8696  144.5787  160.4474 C   0  0  0  0  0  0  0  0  0  0  0  0
  150.0111  145.2797  159.2528 N   0  0  0  0  0  0  0  0  0  0  0  0
  151.3088  145.1623  158.8403 C   0  0  0  0  0  0  0  0  0  0  0  0
  151.9585  144.4200  159.7315 C   0  0  0  0  0  0  0  0  0  0  0  0
  151.1042  144.0482  160.7259 O   0  0  0  0  0  0  0  0  0  0  0  0
  145.2683  140.0086  159.4397 H   0  0  0  0  0  0  0  0  0  0  0  0
  144.5019  141.1657  158.3513 H   0  0  0  0  0  0  0  0  0  0  0  0
  143.6838  140.6709  159.8432 H   0  0  0  0  0  0  0  0  0  0  0  0
  144.4831  143.5725  159.0527 H   0  0  0  0  0  0  0  0  0  0  0  0
  142.5091  143.7034  160.3732 H   0  0  0  0  0  0  0  0  0  0  0  0
  142.7834  141.9641  160.3781 H   0  0  0  0  0  0  0  0  0  0  0  0
  142.5180  143.2001  162.7444 H   0  0  0  0  0  0  0  0  0  0  0  0
  143.8630  142.0796  162.5502 H   0  0  0  0  0  0  0  0  0  0  0  0
  143.9430  145.0845  162.5393 H   0  0  0  0  0  0  0  0  0  0  0  0
  145.1131  143.9613  163.2047 H   0  0  0  0  0  0  0  0  0  0  0  0
  145.0495  145.2350  160.6061 H   0  0  0  0  0  0  0  0  0  0  0  0
  146.9356  143.1258  161.5740 H   0  0  0  0  0  0  0  0  0  0  0  0
  149.3081  145.8003  158.7477 H   0  0  0  0  0  0  0  0  0  0  0  0
  151.6376  145.6366  157.9274 H   0  0  0  0  0  0  0  0  0  0  0  0
  152.9824  144.0832  159.7989 H   0  0  0  0  0  0  0  0  0  0  0  0
  1  2  1  0  0  0  0
  1 17  1  0  0  0  0
  1 18  1  0  0  0  0
  1 19  1  0  0  0  0
  2  3  1  0  0  0  0
  3  7  1  0  0  0  0
  3  4  1  0  0  0  0
  3 20  1  0  0  0  0
  4  5  1  0  0  0  0
  4 21  1  0  0  0  0
  4 22  1  0  0  0  0
  5  6  1  0  0  0  0
  5 23  1  0  0  0  0
  5 24  1  0  0  0  0
  6  7  1  0  0  0  0
  6 25  1  0  0  0  0
  6 26  1  0  0  0  0
  7  8  1  0  0  0  0
  7 27  1  0  0  0  0
  8 28  1  0  0  0  0
  8  9  1  0  0  0  0
  9 11  1  0  0  0  0
  9 10  2  0  0  0  0
 11 12  2  0  0  0  0
 12 16  1  0  0  0  0
 12 13  1  0  0  0  0
 13 29  1  0  0  0  0
 13 14  1  0  0  0  0
 14 30  1  0  0  0  0
 14 15  2  0  0  0  0
 15 31  1  0  0  0  0
 15 16  1  0  0  0  0
M  END
> <s_m_source_file>
AV-unprocessed.smi

> <i_m_source_file_index>
2784

> <i_lp_mmshare_version>
43012

> <i_f3d_flags>
0

> <s_epik_input>
W0NIM11PW0NAQEhdMVtDSDJdW0NIMl1bQ0gyXVtDQEhdMVtOSF1DKD1PKVtOSF1jMm5bY0hdW2NIXW8y

> <s_epik_cmdline>
J2VwaWtfcHl0aG9uJywgJy1waCcsICc3LjAnLCAnLXRuJywgJzgnLCAnLW1hJywgJzIwMCcsICctbWV0YWxfYmluZGluZycsICctaW1hZScsICc8aW5maWxlLm1hZT4nLCAnLW9tYWUnLCAnPG91dGZpbGUubWFlPic=

> <r_lp_tautomer_probability>
0.107061

> <r_epik_Ionization_Penalty>
1.29244

> <r_epik_Ionization_Penalty_Charging>
1.29208

> <r_epik_Ionization_Penalty_Neutral>
0.000359742

> <r_epik_State_Penalty>
2.59896

> <r_epik_Charging_Adjusted_Penalty>
3.89105

> <i_epik_Tot_Q>
0

> <i_epik_Tot_abs_Q>
0

> <r_epik_Metal_State_Penalty>
3.62496

> <b_epik_Metal_Only>
0

> <s_lp_Force_Field>
OPLS_2005

> <r_lp_Energy>
46.0915

> <b_lp_Chiralities_Consistent>
1

> <s_lp_Variant>
AV-unprocessed.smi:2784-10

> <Gold.Version>
5.8.1

> <Gold.Id.Protein>
6NUR|6NUR_protein|mol2

> <Gold.PLP.Fitness>
34.1652

> <Gold.PLP.PLP>
-27.4328

> <Gold.PLP.part.hbond>
-3.5624

> <Gold.PLP.part.metal>
0.0000

> <Gold.PLP.part.buried>
-5.1982

> <Gold.PLP.part.nonpolar>
-20.7642

> <Gold.PLP.part.repulsive>
0.9906

> <Gold.PLP.ligand.clash>
0.0000

> <Gold.PLP.ligand.torsion>
0.3392

> <Gold.PLP.Chemscore.Hbond>
2.4662

> <Gold.PLP.Chemscore.CHOScore>
0.0000

> <Gold.PLP.Chemscore.Metal>
0.0000

> <Gold.Chemscore.Hbonds>
donor molecule, donor type, donor heavy atom, donor atom, acceptor molecule, acceptor atom, score
      L1  H    13    29       P1  8029  0.99
      P1  H  6933  6944       L1    11  0.68
      P1  H  6934  6946       L1     2  0.79

> <Gold.PLP.Chemscore.Internal.Correction>
0.0122

> <Gold.Rescore>
     Score         DG    S(hbond)    S(metal)    S(lipo)     H(rot)  DE(clash)    DE(int)     intcor
     13.47     -13.83       1.79        0.00      49.14       1.32       0.02       0.34       ----

> <Gold.Chemscore.Fitness>
13.4651

> <Gold.Chemscore.DG>
-13.8266

> <Gold.Chemscore.ZeroCoef>
-5.4800

> <Gold.Chemscore.Hbond>
1.7922

> <Gold.Chemscore.Metal>
0.0000

> <Gold.Chemscore.Lipo>
49.1355

> <Gold.Chemscore.Internal_Hbond>
0.0000

> <Gold.Chemscore.DEClash>
0.0232

> <Gold.Chemscore.DEInternal>
0.3383

> <Gold.Chemscore.Rot>
1.3235

> <Gold.Chemscore.Internal.Correction>
   9.000000E+99

> <Gold.Chemscore.Hbonds>
donor molecule, donor type, donor heavy atom, donor atom, acceptor molecule, acceptor atom, score
      L1  H    13    29       P1  8029  0.89
      P1  H  6933  6944       L1    11  0.26
      P1  H  6934  6946       L1     2  0.11

> <Gold.Chemscore.Hbond.Weighted>
-5.9859

> <Gold.Chemscore.Metal.Weighted>
-0.0000

> <Gold.Chemscore.Lipo.Weighted>
-5.7489

> <Gold.Chemscore.Internal_Hbond.Weighted>
0.0000

> <Gold.Chemscore.DEClash.Weighted>
0.0232

> <Gold.Chemscore.DEInternal.Weighted>
0.3383

> <Gold.Chemscore.Rot.Weighted>
3.3882

> <Gold.Chemscore.Internal.Correction.Weighted>
   9.000000E+99

> <Gold.Protein.RotatedTorsions>
[ 6907 6896 6895 6894 ] final   63.32 input  -60.11 | X-H torsion
[ 7974 7965 7964 7962 ] final -156.22 input  175.53 | X-H torsion
[ 8008 7997 7996 7995 ] final  123.17 input   59.86 | X-H torsion
[ 10167 10162 10161 10158 ] final  164.50 input  -65.29 | X-H torsion
[ 10718 10713 10712 10709 ] final  -49.35 input   66.30 | X-H torsion
[ 10763 10752 10751 10750 ] final  -63.03 input  -60.55 | X-H torsion
[ 11005 11000 10999 10996 ] final  -46.10 input  -57.11 | X-H torsion

> <Gold.Protein.ActiveResidues>
 VAL166  LYS551  ARG553  GLY616  TRP617  ASP618  TYR619  PRO620  LYS621  CYS622 
 ASP623  PHE694  ASN695  SER759  ASP760  ASP761  ALA762  ILE779  LEU786  VAL792 
 PHE793  MET794  SER795  GLU796  ALA797  LYS798  CYS799  TRP800  GLU811  SER814 

> <Gold.Protein.RotatedAtoms>
  152.4243  134.5896  159.9970 H   0  0  0  0  0  0  0  0  0  0  0  0  # atno 6907 bound_to 6896
  151.6037  133.3348  159.3061 H   0  0  0  0  0  0  0  0  0  0  0  0  # atno 6908 bound_to 6896
  150.8132  134.7337  159.6772 H   0  0  0  0  0  0  0  0  0  0  0  0  # atno 6909 bound_to 6896
  144.7603  140.4140  143.5981 H   0  0  0  0  0  0  0  0  0  0  0  0  # atno 7974 bound_to 7965
  156.2756  140.2769  156.1584 H   0  0  0  0  0  0  0  0  0  0  0  0  # atno 8008 bound_to 7997
  155.0779  140.0387  157.2647 H   0  0  0  0  0  0  0  0  0  0  0  0  # atno 8009 bound_to 7997
  154.6987  140.2644  155.6746 H   0  0  0  0  0  0  0  0  0  0  0  0  # atno 8010 bound_to 7997
  139.4890  144.4229  151.9165 H   0  0  0  0  0  0  0  0  0  0  0  0  # atno 10167 bound_to 10162
  156.1902  130.4152  149.9383 H   0  0  0  0  0  0  0  0  0  0  0  0  # atno 10718 bound_to 10713
  154.3088  135.6219  153.5456 H   0  0  0  0  0  0  0  0  0  0  0  0  # atno 10763 bound_to 10752
  152.9832  135.5696  154.5200 H   0  0  0  0  0  0  0  0  0  0  0  0  # atno 10764 bound_to 10752
  154.4846  135.2864  155.1521 H   0  0  0  0  0  0  0  0  0  0  0  0  # atno 10765 bound_to 10752
  141.0557  133.6726  156.3106 H   0  0  0  0  0  0  0  0  0  0  0  0  # atno 11005 bound_to 11000
  145.6642  139.1587  143.2791 LP  0  0  0  0  0  0  0  0  0  0  0  0  # atno 17320 bound_to 7965
  146.1659  140.6719  142.9256 LP  0  0  0  0  0  0  0  0  0  0  0  0  # atno 17321 bound_to 7965
  140.3673  144.2898  150.5925 LP  0  0  0  0  0  0  0  0  0  0  0  0  # atno 17342 bound_to 10162
  140.5350  143.2235  151.8178 LP  0  0  0  0  0  0  0  0  0  0  0  0  # atno 17343 bound_to 10162
  156.7125  130.8976  151.3611 LP  0  0  0  0  0  0  0  0  0  0  0  0  # atno 17370 bound_to 10713
  157.6924  130.9247  150.0550 LP  0  0  0  0  0  0  0  0  0  0  0  0  # atno 17371 bound_to 10713
  140.5968  134.5595  157.5510 LP  0  0  0  0  0  0  0  0  0  0  0  0  # atno 17394 bound_to 11000
  139.9388  134.7825  156.0732 LP  0  0  0  0  0  0  0  0  0  0  0  0  # atno 17395 bound_to 11000

$$$$
