AV-unprocessed.smi:1291|AV-procd|sdf|5391|dock9
  -GOLD-   22720 4543D 1   1.00000     0.00000
 Structure written by MMmdl.
 43 45  0  0  0  0  0  0  0  0  1 V2000
  150.3037  140.5389  154.5847 O   0  0  0  0  0  0  0  0  0  0  0  0
  150.4924  139.8241  155.7863 C   0  0  0  0  0  0  0  0  0  0  0  0
  151.1825  140.6388  156.8368 C   0  0  0  0  0  0  0  0  0  0  0  0
  150.9867  141.9536  156.9440 N   0  0  0  0  0  0  0  0  0  0  0  0
  151.8151  142.3008  157.9929 C   0  0  0  0  0  0  0  0  0  0  0  0
  152.0619  143.5573  158.5912 C   0  0  0  0  0  0  0  0  0  0  0  0
  152.9690  143.6706  159.6650 C   0  0  0  0  0  0  0  0  0  0  0  0
  153.6414  142.5323  160.1547 C   0  0  0  0  0  0  0  0  0  0  0  0
  153.4092  141.2708  159.5737 C   0  0  0  0  0  0  0  0  0  0  0  0
  152.5010  141.1624  158.5032 C   0  0  0  0  0  0  0  0  0  0  0  0
  152.0537  140.0980  157.7265 N   0  0  0  0  0  0  0  0  0  0  0  0
  152.4688  138.7093  157.8640 C   0  0  0  0  0  0  0  0  0  0  0  0
  151.5605  137.9206  158.8356 C   0  0  2  0  0  0  0  0  0  0  0  0
  152.3604  136.9823  159.5279 O   0  0  0  0  0  0  0  0  0  0  0  0
  150.4401  137.1618  158.1063 C   0  0  0  0  0  0  0  0  0  0  0  0
  149.8086  136.2722  159.0163 O   0  0  0  0  0  0  0  0  0  0  0  0
  148.9123  136.9121  159.9146 C   0  0  0  0  0  0  0  0  0  0  0  0
  148.2530  135.9489  160.8894 C   0  0  0  0  0  0  0  0  0  0  0  0
  148.2478  136.2498  162.2678 C   0  0  0  0  0  0  0  0  0  0  0  0
  147.6384  135.3713  163.1844 C   0  0  0  0  0  0  0  0  0  0  0  0
  147.0276  134.1884  162.7259 C   0  0  0  0  0  0  0  0  0  0  0  0
  147.0245  133.8867  161.3506 C   0  0  0  0  0  0  0  0  0  0  0  0
  147.6337  134.7641  160.4320 C   0  0  0  0  0  0  0  0  0  0  0  0
  147.6237  134.4572  159.1125 F   0  0  0  0  0  0  0  0  0  0  0  0
  149.7557  140.0250  154.0118 H   0  0  0  0  0  0  0  0  0  0  0  0
  149.5160  139.5131  156.1597 H   0  0  0  0  0  0  0  0  0  0  0  0
  151.0507  138.9106  155.5853 H   0  0  0  0  0  0  0  0  0  0  0  0
  151.5533  144.4356  158.2218 H   0  0  0  0  0  0  0  0  0  0  0  0
  153.1507  144.6359  160.1143 H   0  0  0  0  0  0  0  0  0  0  0  0
  154.3357  142.6280  160.9767 H   0  0  0  0  0  0  0  0  0  0  0  0
  153.9248  140.3985  159.9467 H   0  0  0  0  0  0  0  0  0  0  0  0
  152.4582  138.2558  156.8726 H   0  0  0  0  0  0  0  0  0  0  0  0
  153.5152  138.6784  158.1685 H   0  0  0  0  0  0  0  0  0  0  0  0
  151.1173  138.5994  159.5663 H   0  0  0  0  0  0  0  0  0  0  0  0
  152.6156  137.3586  160.3560 H   0  0  0  0  0  0  0  0  0  0  0  0
  149.6897  137.8720  157.7553 H   0  0  0  0  0  0  0  0  0  0  0  0
  150.8276  136.6408  157.2293 H   0  0  0  0  0  0  0  0  0  0  0  0
  149.4828  137.6363  160.4964 H   0  0  0  0  0  0  0  0  0  0  0  0
  148.1718  137.4862  159.3566 H   0  0  0  0  0  0  0  0  0  0  0  0
  148.7157  137.1559  162.6246 H   0  0  0  0  0  0  0  0  0  0  0  0
  147.6397  135.6048  164.2388 H   0  0  0  0  0  0  0  0  0  0  0  0
  146.5611  133.5133  163.4282 H   0  0  0  0  0  0  0  0  0  0  0  0
  146.5544  132.9802  160.9988 H   0  0  0  0  0  0  0  0  0  0  0  0
  1  2  1  0  0  0  0
  1 25  1  0  0  0  0
  2  3  1  0  0  0  0
  2 26  1  0  0  0  0
  2 27  1  0  0  0  0
  3 11  1  0  0  0  0
  3  4  2  0  0  0  0
  4  5  1  0  0  0  0
  5 10  2  0  0  0  0
  5  6  1  0  0  0  0
  6  7  2  0  0  0  0
  6 28  1  0  0  0  0
  7  8  1  0  0  0  0
  7 29  1  0  0  0  0
  8  9  2  0  0  0  0
  8 30  1  0  0  0  0
  9 10  1  0  0  0  0
  9 31  1  0  0  0  0
 10 11  1  0  0  0  0
 11 12  1  0  0  0  0
 12 13  1  0  0  0  0
 12 32  1  0  0  0  0
 12 33  1  0  0  0  0
 13 14  1  0  0  0  0
 13 15  1  0  0  0  0
 13 34  1  0  0  0  0
 14 35  1  0  0  0  0
 15 16  1  0  0  0  0
 15 36  1  0  0  0  0
 15 37  1  0  0  0  0
 16 17  1  0  0  0  0
 17 18  1  0  0  0  0
 17 38  1  0  0  0  0
 17 39  1  0  0  0  0
 18 23  1  0  0  0  0
 18 19  2  0  0  0  0
 19 20  1  0  0  0  0
 19 40  1  0  0  0  0
 20 21  2  0  0  0  0
 20 41  1  0  0  0  0
 21 22  1  0  0  0  0
 21 42  1  0  0  0  0
 22 23  2  0  0  0  0
 22 43  1  0  0  0  0
 23 24  1  0  0  0  0
M  END
> <s_m_source_file>
AV-unprocessed.smi

> <i_m_source_file_index>
1291

> <i_lp_mmshare_version>
43012

> <i_f3d_flags>
0

> <s_epik_input>
W2NIXTFbY0hdW2NIXVtjSF1jKGMxMiluKGMobjIpW0NIMl1bT0hdKVtDSDJdW0NASF0oW09IXSlbQ0gyXU9bQ0gyXWMzW2NIXVtjSF1bY0hdW2NIXWMzRg==

> <s_epik_cmdline>
J2VwaWtfcHl0aG9uJywgJy1waCcsICc3LjAnLCAnLXRuJywgJzgnLCAnLW1hJywgJzIwMCcsICctbWV0YWxfYmluZGluZycsICctaW1hZScsICc8aW5maWxlLm1hZT4nLCAnLW9tYWUnLCAnPG91dGZpbGUubWFlPic=

> <r_epik_Ionization_Penalty>
0.0649918

> <r_epik_Ionization_Penalty_Charging>
0

> <r_epik_Ionization_Penalty_Neutral>
0.0649918

> <r_epik_State_Penalty>
0.0565791

> <r_epik_Charging_Adjusted_Penalty>
0.0565791

> <i_epik_Tot_Q>
0

> <i_epik_Tot_abs_Q>
0

> <r_epik_Metal_State_Penalty>
5.93658e-05

> <b_epik_Metal_Only>
0

> <s_lp_Force_Field>
OPLS_2005

> <r_lp_Energy>
20.1032

> <b_lp_Chiralities_Consistent>
1

> <s_lp_Variant>
AV-unprocessed.smi:1291-1

> <Gold.Version>
5.8.1

> <Gold.Id.Protein>
6NUR|6NUR_protein|mol2

> <Gold.PLP.Fitness>
56.4807

> <Gold.PLP.PLP>
-52.3920

> <Gold.PLP.part.hbond>
-3.9308

> <Gold.PLP.part.metal>
0.0000

> <Gold.PLP.part.buried>
-7.2520

> <Gold.PLP.part.nonpolar>
-42.8550

> <Gold.PLP.part.repulsive>
0.0727

> <Gold.PLP.ligand.clash>
0.0000

> <Gold.PLP.ligand.torsion>
1.4266

> <Gold.PLP.Chemscore.Hbond>
2.2830

> <Gold.PLP.Chemscore.CHOScore>
0.0000

> <Gold.PLP.Chemscore.Metal>
0.0000

> <Gold.Chemscore.Hbonds>
donor molecule, donor type, donor heavy atom, donor atom, acceptor molecule, acceptor atom, score
      P1  H  6896  6908       L1    16  0.36
      P1  H  6896  6909       L1    14  0.95
      P1  H  7989  7998       L1     1  0.88

> <Gold.PLP.Chemscore.Internal.Correction>
0.0929

> <Gold.Rescore>
     Score         DG    S(hbond)    S(metal)    S(lipo)     H(rot)  DE(clash)    DE(int)     intcor
     18.02     -20.72       2.40        0.00     134.77       3.33       0.17       2.53       ----

> <Gold.Chemscore.Fitness>
18.0218

> <Gold.Chemscore.DG>
-20.7232

> <Gold.Chemscore.ZeroCoef>
-5.4800

> <Gold.Chemscore.Hbond>
2.3965

> <Gold.Chemscore.Metal>
0.0000

> <Gold.Chemscore.Lipo>
134.7655

> <Gold.Chemscore.Internal_Hbond>
0.0000

> <Gold.Chemscore.DEClash>
0.1745

> <Gold.Chemscore.DEInternal>
2.5269

> <Gold.Chemscore.Rot>
3.3316

> <Gold.Chemscore.Internal.Correction>
   9.000000E+99

> <Gold.Chemscore.Hbonds>
donor molecule, donor type, donor heavy atom, donor atom, acceptor molecule, acceptor atom, score
      P1  H  6896  6908       L1    16  0.35
      P1  H  6896  6909       L1    14  0.26
      P1  H  7989  7998       L1     1  0.19

> <Gold.Chemscore.Hbond.Weighted>
-8.0044

> <Gold.Chemscore.Metal.Weighted>
-0.0000

> <Gold.Chemscore.Lipo.Weighted>
-15.7676

> <Gold.Chemscore.Internal_Hbond.Weighted>
0.0000

> <Gold.Chemscore.DEClash.Weighted>
0.1745

> <Gold.Chemscore.DEInternal.Weighted>
2.5269

> <Gold.Chemscore.Rot.Weighted>
8.5288

> <Gold.Chemscore.Internal.Correction.Weighted>
   9.000000E+99

> <Gold.Protein.RotatedTorsions>
[ 6907 6896 6895 6894 ] final  151.47 input  -60.11 | X-H torsion
[ 7974 7965 7964 7962 ] final  -19.94 input  175.53 | X-H torsion
[ 8008 7997 7996 7995 ] final -133.22 input   59.86 | X-H torsion
[ 10167 10162 10161 10158 ] final -143.24 input  -65.29 | X-H torsion
[ 10718 10713 10712 10709 ] final  -69.51 input   66.30 | X-H torsion
[ 10763 10752 10751 10750 ] final  -35.73 input  -60.55 | X-H torsion
[ 11005 11000 10999 10996 ] final -137.30 input  -57.11 | X-H torsion

> <Gold.Protein.ActiveResidues>
 VAL166  LYS551  ARG553  GLY616  TRP617  ASP618  TYR619  PRO620  LYS621  CYS622 
 ASP623  PHE694  ASN695  SER759  ASP760  ASP761  ALA762  ILE779  LEU786  VAL792 
 PHE793  MET794  SER795  GLU796  ALA797  LYS798  CYS799  TRP800  GLU811  SER814 

> <Gold.Protein.RotatedAtoms>
  152.1002  133.4245  159.4583 H   0  0  0  0  0  0  0  0  0  0  0  0  # atno 6907 bound_to 6896
  150.6864  134.2770  159.4620 H   0  0  0  0  0  0  0  0  0  0  0  0  # atno 6908 bound_to 6896
  152.0629  134.9582  160.0625 H   0  0  0  0  0  0  0  0  0  0  0  0  # atno 6909 bound_to 6896
  146.1815  140.4132  142.8493 H   0  0  0  0  0  0  0  0  0  0  0  0  # atno 7974 bound_to 7965
  155.3419  140.0472  157.3045 H   0  0  0  0  0  0  0  0  0  0  0  0  # atno 8008 bound_to 7997
  154.5272  140.2245  155.8833 H   0  0  0  0  0  0  0  0  0  0  0  0  # atno 8009 bound_to 7997
  156.1752  140.3087  155.9052 H   0  0  0  0  0  0  0  0  0  0  0  0  # atno 8010 bound_to 7997
  139.8012  143.7831  152.2658 H   0  0  0  0  0  0  0  0  0  0  0  0  # atno 10167 bound_to 10162
  156.0452  130.4314  150.2158 H   0  0  0  0  0  0  0  0  0  0  0  0  # atno 10718 bound_to 10713
  153.8680  135.6833  153.4777 H   0  0  0  0  0  0  0  0  0  0  0  0  # atno 10763 bound_to 10752
  153.1304  135.4700  154.9337 H   0  0  0  0  0  0  0  0  0  0  0  0  # atno 10764 bound_to 10752
  154.7727  135.3244  154.8105 H   0  0  0  0  0  0  0  0  0  0  0  0  # atno 10765 bound_to 10752
  140.8724  134.2034  157.4643 H   0  0  0  0  0  0  0  0  0  0  0  0  # atno 11005 bound_to 11000
  144.8323  140.6726  143.6283 LP  0  0  0  0  0  0  0  0  0  0  0  0  # atno 17320 bound_to 7965
  145.4063  139.1588  143.4150 LP  0  0  0  0  0  0  0  0  0  0  0  0  # atno 17321 bound_to 7965
  139.7951  144.7395  150.9901 LP  0  0  0  0  0  0  0  0  0  0  0  0  # atno 17342 bound_to 10162
  140.7820  143.4402  151.0563 LP  0  0  0  0  0  0  0  0  0  0  0  0  # atno 17343 bound_to 10162
  157.0248  130.9990  151.3329 LP  0  0  0  0  0  0  0  0  0  0  0  0  # atno 17370 bound_to 10713
  157.5319  130.8064  149.7926 LP  0  0  0  0  0  0  0  0  0  0  0  0  # atno 17371 bound_to 10713
  139.8713  134.9780  156.4981 LP  0  0  0  0  0  0  0  0  0  0  0  0  # atno 17394 bound_to 11000
  140.8558  133.8097  155.9214 LP  0  0  0  0  0  0  0  0  0  0  0  0  # atno 17395 bound_to 11000

$$$$
