AV-unprocessed.smi:2106|AV-procd|sdf|8599|dock10
  -GOLD-   2272011333D 1   1.00000     0.00000
 Structure written by MMmdl.
 48 49  0  0  0  0  0  0  0  0  2 V2000
  151.2504  144.5410  158.4925 C   0  0  0  0  0  0  0  0  0  0  0  0
  151.9255  143.7897  159.6027 C   0  0  0  0  0  0  0  0  0  0  0  0
  152.0631  144.1756  160.9648 C   0  0  0  0  0  0  0  0  0  0  0  0
  152.7560  143.1479  161.5402 C   0  0  0  0  0  0  0  0  0  0  0  0
  153.2066  142.9686  162.9527 C   0  0  0  0  0  0  0  0  0  0  0  0
  153.0029  142.2210  160.5417 N   0  0  0  0  0  0  0  0  0  0  0  0
  153.7224  140.9568  160.6114 C   0  0  0  0  0  0  0  0  0  0  0  0
  153.5946  140.1811  159.2989 C   0  0  0  0  0  0  0  0  0  0  0  0
  154.5817  139.6412  158.8011 O   0  0  0  0  0  0  0  0  0  0  0  0
  152.3663  140.1067  158.7639 N   0  0  0  0  0  0  0  0  0  0  0  0
  152.0119  139.3225  157.5854 C   0  0  0  0  0  0  0  0  0  0  0  0
  150.7166  139.8163  156.9105 C   0  0  0  0  0  0  0  0  0  0  0  0
  150.6182  139.3547  155.4987 N   0  3  1  0  0  0  0  0  0  0  0  0
  150.7923  137.8937  155.3198 C   0  0  0  0  0  0  0  0  0  0  0  0
  149.5056  137.1282  155.6917 C   0  0  2  0  0  0  0  0  0  0  0  0
  149.6306  135.6256  155.4179 C   0  0  0  0  0  0  0  0  0  0  0  0
  148.4255  137.6325  154.9127 O   0  0  0  0  0  0  0  0  0  0  0  0
  148.1650  139.0103  155.1591 C   0  0  2  0  0  0  0  0  0  0  0  0
  146.9392  139.4237  154.3375 C   0  0  0  0  0  0  0  0  0  0  0  0
  149.4121  139.8344  154.7819 C   0  0  0  0  0  0  0  0  0  0  0  0
  152.4893  142.6187  159.3566 N   0  0  0  0  0  0  0  0  0  0  0  0
  150.2104  144.7518  158.7417 H   0  0  0  0  0  0  0  0  0  0  0  0
  151.2592  143.9784  157.5584 H   0  0  0  0  0  0  0  0  0  0  0  0
  151.7472  145.4938  158.3100 H   0  0  0  0  0  0  0  0  0  0  0  0
  151.7053  145.0732  161.4470 H   0  0  0  0  0  0  0  0  0  0  0  0
  152.9268  143.8287  163.5610 H   0  0  0  0  0  0  0  0  0  0  0  0
  154.2893  142.8602  163.0091 H   0  0  0  0  0  0  0  0  0  0  0  0
  152.7514  142.0832  163.3966 H   0  0  0  0  0  0  0  0  0  0  0  0
  154.7727  141.1438  160.8372 H   0  0  0  0  0  0  0  0  0  0  0  0
  153.3218  140.3640  161.4353 H   0  0  0  0  0  0  0  0  0  0  0  0
  151.6170  140.5963  159.2316 H   0  0  0  0  0  0  0  0  0  0  0  0
  152.8399  139.3950  156.8794 H   0  0  0  0  0  0  0  0  0  0  0  0
  151.9243  138.2674  157.8497 H   0  0  0  0  0  0  0  0  0  0  0  0
  149.8623  139.4672  157.4916 H   0  0  0  0  0  0  0  0  0  0  0  0
  150.6738  140.9051  156.9596 H   0  0  0  0  0  0  0  0  0  0  0  0
  151.0374  137.7074  154.2733 H   0  0  0  0  0  0  0  0  0  0  0  0
  151.6443  137.5407  155.9023 H   0  0  0  0  0  0  0  0  0  0  0  0
  149.2795  137.2663  156.7504 H   0  0  0  0  0  0  0  0  0  0  0  0
  150.4407  135.1864  156.0004 H   0  0  0  0  0  0  0  0  0  0  0  0
  149.8317  135.4308  154.3641 H   0  0  0  0  0  0  0  0  0  0  0  0
  148.7108  135.1038  155.6831 H   0  0  0  0  0  0  0  0  0  0  0  0
  147.9305  139.1458  156.2159 H   0  0  0  0  0  0  0  0  0  0  0  0
  146.6972  140.4751  154.4966 H   0  0  0  0  0  0  0  0  0  0  0  0
  146.0651  138.8353  154.6176 H   0  0  0  0  0  0  0  0  0  0  0  0
  147.1111  139.2779  153.2708 H   0  0  0  0  0  0  0  0  0  0  0  0
  149.2465  140.8914  154.9855 H   0  0  0  0  0  0  0  0  0  0  0  0
  149.5971  139.7516  153.7100 H   0  0  0  0  0  0  0  0  0  0  0  0
  151.4052  139.7852  155.0347 H   0  0  0  0  0  0  0  0  0  0  0  0
  1  2  1  0  0  0  0
  1 22  1  0  0  0  0
  1 23  1  0  0  0  0
  1 24  1  0  0  0  0
  2 21  2  0  0  0  0
  2  3  1  0  0  0  0
  3  4  2  0  0  0  0
  3 25  1  0  0  0  0
  4  5  1  0  0  0  0
  4  6  1  0  0  0  0
  5 26  1  0  0  0  0
  5 27  1  0  0  0  0
  5 28  1  0  0  0  0
  6  7  1  0  0  0  0
  6 21  1  0  0  0  0
  7  8  1  0  0  0  0
  7 29  1  0  0  0  0
  7 30  1  0  0  0  0
  8  9  2  0  0  0  0
  8 10  1  0  0  0  0
 10 11  1  0  0  0  0
 10 31  1  0  0  0  0
 11 12  1  0  0  0  0
 11 32  1  0  0  0  0
 11 33  1  0  0  0  0
 12 13  1  0  0  0  0
 12 34  1  0  0  0  0
 12 35  1  0  0  0  0
 13 20  1  0  0  0  0
 13 14  1  0  0  0  0
 13 48  1  0  0  0  0
 14 15  1  0  0  0  0
 14 36  1  0  0  0  0
 14 37  1  0  0  0  0
 15 16  1  0  0  0  0
 15 17  1  0  0  0  0
 15 38  1  0  0  0  0
 16 39  1  0  0  0  0
 16 40  1  0  0  0  0
 16 41  1  0  0  0  0
 17 18  1  0  0  0  0
 18 19  1  0  0  0  0
 18 20  1  0  0  0  0
 18 42  1  0  0  0  0
 19 43  1  0  0  0  0
 19 44  1  0  0  0  0
 19 45  1  0  0  0  0
 20 46  1  0  0  0  0
 20 47  1  0  0  0  0
M  CHG  1  13   1
M  END
> <s_m_source_file>
AV-unprocessed.smi

> <i_m_source_file_index>
2106

> <i_lp_mmshare_version>
43012

> <i_f3d_flags>
0

> <s_epik_input>
W0NIM11jMVtjSF1jKFtDSDNdKW4objEpW0NIMl1DKD1PKVtOSF1bQ0gyXVtDSDJdTjJbQ0gyXVtDQEBIXShbQ0gzXSlPW0NAQEhdKFtDSDNdKVtDSDJdMg==

> <s_epik_cmdline>
J2VwaWtfcHl0aG9uJywgJy1waCcsICc3LjAnLCAnLXRuJywgJzgnLCAnLW1hJywgJzIwMCcsICctbWV0YWxfYmluZGluZycsICctaW1hZScsICc8aW5maWxlLm1hZT4nLCAnLW9tYWUnLCAnPG91dGZpbGUubWFlPic=

> <r_lp_tautomer_probability>
1

> <r_epik_Ionization_Penalty>
0.748586

> <r_epik_Ionization_Penalty_Charging>
0.748396

> <r_epik_Ionization_Penalty_Neutral>
0.000189656

> <r_epik_State_Penalty>
0.775162

> <r_epik_Charging_Adjusted_Penalty>
1.52356

> <i_epik_Tot_Q>
1

> <i_epik_Tot_abs_Q>
1

> <r_epik_Metal_State_Penalty>
0.775295

> <b_epik_Metal_Only>
0

> <s_lp_Force_Field>
OPLS_2005

> <r_lp_Energy>
21.363

> <b_lp_Chiralities_Consistent>
1

> <s_lp_Variant>
AV-unprocessed.smi:2106-7

> <Gold.Version>
5.8.1

> <Gold.Id.Protein>
6NUR|6NUR_protein|mol2

> <Gold.PLP.Fitness>
45.9619

> <Gold.PLP.PLP>
-43.9320

> <Gold.PLP.part.hbond>
-1.0000

> <Gold.PLP.part.metal>
0.0000

> <Gold.PLP.part.buried>
-4.0319

> <Gold.PLP.part.nonpolar>
-38.1732

> <Gold.PLP.part.repulsive>
0.6015

> <Gold.PLP.ligand.clash>
0.0000

> <Gold.PLP.ligand.torsion>
0.5037

> <Gold.PLP.Chemscore.Hbond>
1.0000

> <Gold.PLP.Chemscore.CHOScore>
0.0000

> <Gold.PLP.Chemscore.Metal>
0.0000

> <Gold.Chemscore.Hbonds>
donor molecule, donor type, donor heavy atom, donor atom, acceptor molecule, acceptor atom, score
      P1  H  7997  8009       L1     9  1.00

> <Gold.PLP.Chemscore.Internal.Correction>
0.0374

> <Gold.Rescore>
     Score         DG    S(hbond)    S(metal)    S(lipo)     H(rot)  DE(clash)    DE(int)     intcor
     15.48     -17.31       0.92        0.00     112.78       1.73       0.02       1.80       ----

> <Gold.Chemscore.Fitness>
15.4834

> <Gold.Chemscore.DG>
-17.3074

> <Gold.Chemscore.ZeroCoef>
-5.4800

> <Gold.Chemscore.Hbond>
0.9178

> <Gold.Chemscore.Metal>
0.0000

> <Gold.Chemscore.Lipo>
112.7764

> <Gold.Chemscore.Internal_Hbond>
0.0000

> <Gold.Chemscore.DEClash>
0.0248

> <Gold.Chemscore.DEInternal>
1.7993

> <Gold.Chemscore.Rot>
1.7316

> <Gold.Chemscore.Internal.Correction>
   9.000000E+99

> <Gold.Chemscore.Hbonds>
donor molecule, donor type, donor heavy atom, donor atom, acceptor molecule, acceptor atom, score
      P1  H  7997  8009       L1     9  0.89

> <Gold.Chemscore.Hbond.Weighted>
-3.0656

> <Gold.Chemscore.Metal.Weighted>
-0.0000

> <Gold.Chemscore.Lipo.Weighted>
-13.1948

> <Gold.Chemscore.Internal_Hbond.Weighted>
0.0000

> <Gold.Chemscore.DEClash.Weighted>
0.0248

> <Gold.Chemscore.DEInternal.Weighted>
1.7993

> <Gold.Chemscore.Rot.Weighted>
4.4330

> <Gold.Chemscore.Internal.Correction.Weighted>
   9.000000E+99

> <Gold.Protein.RotatedTorsions>
[ 6907 6896 6895 6894 ] final  -57.39 input  -60.11 | X-H torsion
[ 7974 7965 7964 7962 ] final  -83.80 input  175.53 | X-H torsion
[ 8008 7997 7996 7995 ] final  135.58 input   59.86 | X-H torsion
[ 10167 10162 10161 10158 ] final  133.75 input  -65.29 | X-H torsion
[ 10718 10713 10712 10709 ] final  -97.76 input   66.30 | X-H torsion
[ 10763 10752 10751 10750 ] final -149.99 input  -60.55 | X-H torsion
[ 11005 11000 10999 10996 ] final   33.52 input  -57.11 | X-H torsion

> <Gold.Protein.ActiveResidues>
 VAL166  LYS551  ARG553  GLY616  TRP617  ASP618  TYR619  PRO620  LYS621  CYS622 
 ASP623  PHE694  ASN695  SER759  ASP760  ASP761  ALA762  ILE779  LEU786  VAL792 
 PHE793  MET794  SER795  GLU796  ALA797  LYS798  CYS799  TRP800  GLU811  SER814 

> <Gold.Protein.RotatedAtoms>
  150.8090  134.7233  159.6669 H   0  0  0  0  0  0  0  0  0  0  0  0  # atno 6907 bound_to 6896
  152.4210  134.5952  159.9995 H   0  0  0  0  0  0  0  0  0  0  0  0  # atno 6908 bound_to 6896
  151.6168  133.3305  159.3115 H   0  0  0  0  0  0  0  0  0  0  0  0  # atno 6909 bound_to 6896
  145.5151  140.9536  143.1686 H   0  0  0  0  0  0  0  0  0  0  0  0  # atno 7974 bound_to 7965
  156.3003  140.2467  156.3605 H   0  0  0  0  0  0  0  0  0  0  0  0  # atno 8008 bound_to 7997
  154.8881  140.0410  157.1842 H   0  0  0  0  0  0  0  0  0  0  0  0  # atno 8009 bound_to 7997
  154.8626  140.2923  155.5534 H   0  0  0  0  0  0  0  0  0  0  0  0  # atno 8010 bound_to 7997
  139.5284  144.6601  151.5041 H   0  0  0  0  0  0  0  0  0  0  0  0  # atno 10167 bound_to 10162
  156.0091  130.5208  150.6423 H   0  0  0  0  0  0  0  0  0  0  0  0  # atno 10718 bound_to 10713
  154.8145  135.3295  154.7213 H   0  0  0  0  0  0  0  0  0  0  0  0  # atno 10763 bound_to 10752
  153.7856  135.6915  153.4885 H   0  0  0  0  0  0  0  0  0  0  0  0  # atno 10764 bound_to 10752
  153.1951  135.4537  155.0144 H   0  0  0  0  0  0  0  0  0  0  0  0  # atno 10765 bound_to 10752
  140.2622  134.3178  155.7854 H   0  0  0  0  0  0  0  0  0  0  0  0  # atno 11005 bound_to 11000
  144.7706  139.6743  143.7196 LP  0  0  0  0  0  0  0  0  0  0  0  0  # atno 17320 bound_to 7965
  146.2142  139.5519  142.9661 LP  0  0  0  0  0  0  0  0  0  0  0  0  # atno 17321 bound_to 7965
  140.6444  143.8823  150.6723 LP  0  0  0  0  0  0  0  0  0  0  0  0  # atno 17342 bound_to 10162
  140.2168  143.3840  152.1674 LP  0  0  0  0  0  0  0  0  0  0  0  0  # atno 17343 bound_to 10162
  157.4200  131.0835  151.1140 LP  0  0  0  0  0  0  0  0  0  0  0  0  # atno 17370 bound_to 10713
  157.1744  130.6282  149.5651 LP  0  0  0  0  0  0  0  0  0  0  0  0  # atno 17371 bound_to 10713
  141.2189  133.7416  156.9205 LP  0  0  0  0  0  0  0  0  0  0  0  0  # atno 17394 bound_to 11000
  140.1453  134.9266  157.2521 LP  0  0  0  0  0  0  0  0  0  0  0  0  # atno 17395 bound_to 11000

$$$$
