AV-unprocessed.smi:1552|AV-procd|sdf|6236|dock6
  -GOLD-   22720 6413D 1   1.00000     0.00000
 Structure written by MMmdl.
 49 50  0  0  0  0  0  0  0  0  3 V2000
  146.5161  134.5223  153.1100 C   0  0  0  0  0  0  0  0  0  0  0  0
  146.3414  135.6535  152.1690 N   0  3  0  0  0  0  0  0  0  0  0  0
  145.8762  135.1986  150.8368 C   0  0  0  0  0  0  0  0  0  0  0  0
  145.6131  136.8229  152.7559 C   0  0  2  0  0  0  0  0  0  0  0  0
  146.2342  137.3151  154.0927 C   0  0  0  0  0  0  0  0  0  0  0  0
  147.6931  137.2340  154.1031 N   0  0  0  0  0  0  0  0  0  0  0  0
  148.5502  137.7571  154.9954 C   0  0  0  0  0  0  0  0  0  0  0  0
  148.1317  138.4247  155.9390 O   0  0  0  0  0  0  0  0  0  0  0  0
  150.0689  137.5624  154.8349 C   0  0  0  0  0  0  0  0  0  0  0  0
  150.8131  138.1651  155.9519 N   0  0  0  0  0  0  0  0  0  0  0  0
  150.5477  137.6917  157.2495 C   0  0  0  0  0  0  0  0  0  0  0  0
  151.1907  138.1771  158.3287 C   0  0  0  0  0  0  0  0  0  0  0  0
  152.1871  139.2216  158.1267 C   0  0  0  0  0  0  0  0  0  0  0  0
  152.7840  139.6775  159.1000 O   0  0  0  0  0  0  0  0  0  0  0  0
  152.4108  139.6462  156.8486 N   0  5  0  0  0  0  0  0  0  0  0  0
  151.7492  139.1436  155.7611 C   0  0  0  0  0  0  0  0  0  0  0  0
  151.9697  139.5424  154.6171 O   0  0  0  0  0  0  0  0  0  0  0  0
  144.0731  136.5845  152.7994 C   0  0  0  0  0  0  0  0  0  0  0  0
  143.3105  137.8374  153.2981 C   0  0  0  0  0  0  0  0  0  0  0  0
  141.7910  137.6106  153.3522 C   0  0  0  0  0  0  0  0  0  0  0  0
  141.4395  136.4024  154.2296 C   0  0  0  0  0  0  0  0  0  0  0  0
  142.1751  135.1467  153.7443 C   0  0  0  0  0  0  0  0  0  0  0  0
  143.6942  135.3751  153.6895 C   0  0  0  0  0  0  0  0  0  0  0  0
  145.5705  134.0271  153.3288 H   0  0  0  0  0  0  0  0  0  0  0  0
  146.9542  134.8574  154.0505 H   0  0  0  0  0  0  0  0  0  0  0  0
  147.1895  133.7779  152.6843 H   0  0  0  0  0  0  0  0  0  0  0  0
  144.9066  134.7057  150.8965 H   0  0  0  0  0  0  0  0  0  0  0  0
  146.5824  134.4811  150.4184 H   0  0  0  0  0  0  0  0  0  0  0  0
  145.8010  136.0260  150.1324 H   0  0  0  0  0  0  0  0  0  0  0  0
  145.7568  137.6389  152.0458 H   0  0  0  0  0  0  0  0  0  0  0  0
  145.8879  138.3248  154.2982 H   0  0  0  0  0  0  0  0  0  0  0  0
  145.8654  136.7049  154.9176 H   0  0  0  0  0  0  0  0  0  0  0  0
  148.1086  136.7510  153.3197 H   0  0  0  0  0  0  0  0  0  0  0  0
  150.3609  136.5223  154.7017 H   0  0  0  0  0  0  0  0  0  0  0  0
  150.3579  138.0385  153.8970 H   0  0  0  0  0  0  0  0  0  0  0  0
  149.8020  136.9128  157.3128 H   0  0  0  0  0  0  0  0  0  0  0  0
  150.9770  137.8004  159.3181 H   0  0  0  0  0  0  0  0  0  0  0  0
  143.7210  136.3667  151.7908 H   0  0  0  0  0  0  0  0  0  0  0  0
  143.6697  138.1174  154.2894 H   0  0  0  0  0  0  0  0  0  0  0  0
  143.5055  138.6913  152.6491 H   0  0  0  0  0  0  0  0  0  0  0  0
  141.2958  138.5033  153.7357 H   0  0  0  0  0  0  0  0  0  0  0  0
  141.4078  137.4540  152.3432 H   0  0  0  0  0  0  0  0  0  0  0  0
  141.7099  136.6094  155.2661 H   0  0  0  0  0  0  0  0  0  0  0  0
  140.3624  136.2327  154.2176 H   0  0  0  0  0  0  0  0  0  0  0  0
  141.9495  134.3074  154.4027 H   0  0  0  0  0  0  0  0  0  0  0  0
  141.8113  134.8687  152.7543 H   0  0  0  0  0  0  0  0  0  0  0  0
  144.1607  134.4623  153.3205 H   0  0  0  0  0  0  0  0  0  0  0  0
  144.0750  135.5277  154.7002 H   0  0  0  0  0  0  0  0  0  0  0  0
  147.2782  135.9978  152.0147 H   0  0  0  0  0  0  0  0  0  0  0  0
  1  2  1  0  0  0  0
  1 24  1  0  0  0  0
  1 25  1  0  0  0  0
  1 26  1  0  0  0  0
  2  3  1  0  0  0  0
  2  4  1  0  0  0  0
  2 49  1  0  0  0  0
  3 27  1  0  0  0  0
  3 28  1  0  0  0  0
  3 29  1  0  0  0  0
  4  5  1  0  0  0  0
  4 18  1  0  0  0  0
  4 30  1  0  0  0  0
  5  6  1  0  0  0  0
  5 31  1  0  0  0  0
  5 32  1  0  0  0  0
  6  7  1  0  0  0  0
  6 33  1  0  0  0  0
  7  8  2  0  0  0  0
  7  9  1  0  0  0  0
  9 10  1  0  0  0  0
  9 34  1  0  0  0  0
  9 35  1  0  0  0  0
 10 16  1  0  0  0  0
 10 11  1  0  0  0  0
 11 12  2  0  0  0  0
 11 36  1  0  0  0  0
 12 13  1  0  0  0  0
 12 37  1  0  0  0  0
 13 14  2  0  0  0  0
 13 15  1  0  0  0  0
 15 16  1  0  0  0  0
 16 17  2  0  0  0  0
 18 23  1  0  0  0  0
 18 19  1  0  0  0  0
 18 38  1  0  0  0  0
 19 20  1  0  0  0  0
 19 39  1  0  0  0  0
 19 40  1  0  0  0  0
 20 21  1  0  0  0  0
 20 41  1  0  0  0  0
 20 42  1  0  0  0  0
 21 22  1  0  0  0  0
 21 43  1  0  0  0  0
 21 44  1  0  0  0  0
 22 23  1  0  0  0  0
 22 45  1  0  0  0  0
 22 46  1  0  0  0  0
 23 47  1  0  0  0  0
 23 48  1  0  0  0  0
M  CHG  1   2   1
M  CHG  1  15  -1
M  END
> <s_m_source_file>
AV-unprocessed.smi

> <i_m_source_file_index>
1552

> <i_lp_mmshare_version>
43012

> <i_f3d_flags>
0

> <s_epik_input>
W0NIMl0xW0NIMl1bQ0gyXVtDSDJdW0NIMl1bQ0hdMVtDQEhdKE4oW0NIM10pW0NIM10pW0NIMl1bTkhdQyg9TylbQ0gyXW4yW2NIXVtjSF1jKD1PKVtuSF1jMj1P

> <s_epik_cmdline>
J2VwaWtfcHl0aG9uJywgJy1waCcsICc3LjAnLCAnLXRuJywgJzgnLCAnLW1hJywgJzIwMCcsICctbWV0YWxfYmluZGluZycsICctaW1hZScsICc8aW5maWxlLm1hZT4nLCAnLW9tYWUnLCAnPG91dGZpbGUubWFlPic=

> <r_lp_tautomer_probability>
1

> <r_epik_Ionization_Penalty>
2.93575

> <r_epik_Ionization_Penalty_Charging>
0.00331645

> <r_epik_Ionization_Penalty_Neutral>
2.93244

> <r_epik_State_Penalty>
2.92822

> <r_epik_Charging_Adjusted_Penalty>
2.93154

> <i_epik_Tot_Q>
0

> <i_epik_Tot_abs_Q>
2

> <r_epik_Metal_State_Penalty>
0.448509

> <b_epik_Metal_Only>
1

> <s_lp_Force_Field>
OPLS_2005

> <r_lp_Energy>
39.5493

> <b_lp_Chiralities_Consistent>
1

> <s_lp_Variant>
AV-unprocessed.smi:1552-3

> <Gold.Version>
5.8.1

> <Gold.Id.Protein>
6NUR|6NUR_protein|mol2

> <Gold.PLP.Fitness>
44.1032

> <Gold.PLP.PLP>
-26.6995

> <Gold.PLP.part.hbond>
-4.0000

> <Gold.PLP.part.metal>
0.0000

> <Gold.PLP.part.buried>
-1.3823

> <Gold.PLP.part.nonpolar>
-20.1744

> <Gold.PLP.part.repulsive>
0.1185

> <Gold.PLP.ligand.clash>
0.0000

> <Gold.PLP.ligand.torsion>
0.3778

> <Gold.PLP.Chemscore.Hbond>
5.9440

> <Gold.PLP.Chemscore.CHOScore>
0.0000

> <Gold.PLP.Chemscore.Metal>
0.0000

> <Gold.Chemscore.Hbonds>
donor molecule, donor type, donor heavy atom, donor atom, acceptor molecule, acceptor atom, score
      L1  H     2    49       P1  7948  2.00
      L1  H     6    33       P1  7948  1.00
      P1  H  7989  7998       L1    17  0.93
      P1  H  7997  8009       L1    15  2.00

> <Gold.PLP.Chemscore.Internal.Correction>
0.3272

> <Gold.Rescore>
     Score         DG    S(hbond)    S(metal)    S(lipo)     H(rot)  DE(clash)    DE(int)     intcor
     14.14     -17.34       3.67        0.00      49.88       2.43       1.41       1.78       ----

> <Gold.Chemscore.Fitness>
14.1425

> <Gold.Chemscore.DG>
-17.3373

> <Gold.Chemscore.ZeroCoef>
-5.4800

> <Gold.Chemscore.Hbond>
3.6656

> <Gold.Chemscore.Metal>
0.0000

> <Gold.Chemscore.Lipo>
49.8824

> <Gold.Chemscore.Internal_Hbond>
0.0000

> <Gold.Chemscore.DEClash>
1.4099

> <Gold.Chemscore.DEInternal>
1.7850

> <Gold.Chemscore.Rot>
2.4305

> <Gold.Chemscore.Internal.Correction>
   9.000000E+99

> <Gold.Chemscore.Hbonds>
donor molecule, donor type, donor heavy atom, donor atom, acceptor molecule, acceptor atom, score
      L1  H     2    49       P1  7948  1.00
      L1  H     6    33       P1  7948  1.00
      P1  H  7989  7998       L1    17  0.90
      P1  H  7997  8009       L1    15  0.71

> <Gold.Chemscore.Hbond.Weighted>
-12.2431

> <Gold.Chemscore.Metal.Weighted>
-0.0000

> <Gold.Chemscore.Lipo.Weighted>
-5.8362

> <Gold.Chemscore.Internal_Hbond.Weighted>
0.0000

> <Gold.Chemscore.DEClash.Weighted>
1.4099

> <Gold.Chemscore.DEInternal.Weighted>
1.7850

> <Gold.Chemscore.Rot.Weighted>
6.2220

> <Gold.Chemscore.Internal.Correction.Weighted>
   9.000000E+99

> <Gold.Protein.RotatedTorsions>
[ 6907 6896 6895 6894 ] final   96.63 input  -60.11 | X-H torsion
[ 7974 7965 7964 7962 ] final  -51.71 input  175.53 | X-H torsion
[ 8008 7997 7996 7995 ] final -169.41 input   59.86 | X-H torsion
[ 10167 10162 10161 10158 ] final -177.08 input  -65.29 | X-H torsion
[ 10718 10713 10712 10709 ] final   93.11 input   66.30 | X-H torsion
[ 10763 10752 10751 10750 ] final  -54.46 input  -60.55 | X-H torsion
[ 11005 11000 10999 10996 ] final   29.83 input  -57.11 | X-H torsion

> <Gold.Protein.ActiveResidues>
 VAL166  LYS551  ARG553  GLY616  TRP617  ASP618  TYR619  PRO620  LYS621  CYS622 
 ASP623  PHE694  ASN695  SER759  ASP760  ASP761  ALA762  ILE779  LEU786  VAL792 
 PHE793  MET794  SER795  GLU796  ALA797  LYS798  CYS799  TRP800  GLU811  SER814 

> <Gold.Protein.RotatedAtoms>
  152.5433  134.0857  159.8254 H   0  0  0  0  0  0  0  0  0  0  0  0  # atno 6907 bound_to 6896
  151.0953  133.5277  159.2620 H   0  0  0  0  0  0  0  0  0  0  0  0  # atno 6908 bound_to 6896
  151.2053  135.0468  159.8943 H   0  0  0  0  0  0  0  0  0  0  0  0  # atno 6909 bound_to 6896
  145.9159  140.7875  142.9671 H   0  0  0  0  0  0  0  0  0  0  0  0  # atno 7974 bound_to 7965
  155.9045  140.1047  157.1325 H   0  0  0  0  0  0  0  0  0  0  0  0  # atno 8008 bound_to 7997
  154.4031  140.1286  156.4543 H   0  0  0  0  0  0  0  0  0  0  0  0  # atno 8009 bound_to 7997
  155.7383  140.3467  155.5094 H   0  0  0  0  0  0  0  0  0  0  0  0  # atno 8010 bound_to 7997
  139.5498  144.2140  152.1055 H   0  0  0  0  0  0  0  0  0  0  0  0  # atno 10167 bound_to 10162
  157.6956  131.0467  150.3985 H   0  0  0  0  0  0  0  0  0  0  0  0  # atno 10718 bound_to 10713
  154.1751  135.6452  153.5019 H   0  0  0  0  0  0  0  0  0  0  0  0  # atno 10763 bound_to 10752
  153.0074  135.5392  154.6572 H   0  0  0  0  0  0  0  0  0  0  0  0  # atno 10764 bound_to 10752
  154.5921  135.2935  155.0596 H   0  0  0  0  0  0  0  0  0  0  0  0  # atno 10765 bound_to 10752
  140.3008  134.2758  155.7754 H   0  0  0  0  0  0  0  0  0  0  0  0  # atno 11005 bound_to 11000
  144.6748  140.1899  143.7397 LP  0  0  0  0  0  0  0  0  0  0  0  0  # atno 17320 bound_to 7965
  145.8612  139.2223  143.1716 LP  0  0  0  0  0  0  0  0  0  0  0  0  # atno 17321 bound_to 7965
  140.1633  144.5005  150.6620 LP  0  0  0  0  0  0  0  0  0  0  0  0  # atno 17342 bound_to 10162
  140.6757  143.2304  151.5514 LP  0  0  0  0  0  0  0  0  0  0  0  0  # atno 17343 bound_to 10162
  156.4381  130.3986  149.6716 LP  0  0  0  0  0  0  0  0  0  0  0  0  # atno 17370 bound_to 10713
  156.3909  130.7626  151.2627 LP  0  0  0  0  0  0  0  0  0  0  0  0  # atno 17371 bound_to 10713
  141.2128  133.7645  156.9764 LP  0  0  0  0  0  0  0  0  0  0  0  0  # atno 17394 bound_to 11000
  140.1111  134.9476  157.2066 LP  0  0  0  0  0  0  0  0  0  0  0  0  # atno 17395 bound_to 11000

$$$$
