#       Name:                AV-unprocessed.smi:16
#       Creating user name   scv26
#       Creation time:       Thu Mar 26 15:23:41 2020


#       File generated by GOLD software.
#

@<TRIPOS>MOLECULE
AV-unprocessed.smi:16
    70    74     1
SMALL
NO_CHARGES


@<TRIPOS>ATOM
      1 ****        -1.9835  -1.1742   4.3429 C.3            1 S1                 0.0000
      2 ****        -1.6587  -1.4193   2.8594 C.3            1 S1                 0.0000
      3 ****        -2.6056  -0.7766   1.9129 N.4            1 S1                 1.0000
      4 ****        -3.9805  -1.3346   1.9495 C.3            1 S1                 0.0000
      5 ****        -4.7997  -0.8122   0.7594 C.3            1 S1                 0.0000
      6 ****        -4.8095   0.7327   0.7264 C.3            1 S1                 0.0000
      7 ****        -5.5362   1.2541  -0.3881 O.3            1 S1                 0.0000
      8 ****        -4.9076   1.0613  -1.6538 C.3            1 S1                 0.0000
      9 ****        -3.4947   1.6614  -1.6363 C.3            1 S1                 0.0000
     10 ****        -2.7227   1.1040  -0.5313 N.3            1 S1                 0.0000
     11 ****        -1.4138   1.4370  -0.5819 C.ar           1 S1                 0.0000
     12 ****        -1.0381   2.7423  -0.5586 N.ar           1 S1                 0.0000
     13 ****         0.2603   3.0600  -0.5716 C.ar           1 S1                 0.0000
     14 ****         1.3188   2.2463  -0.5996 N.ar           1 S1                 0.0000
     15 ****         0.9400   0.9357  -0.6238 C.ar           1 S1                 0.0000
     16 ****        -0.3960   0.4492  -0.6133 C.ar           1 S1                 0.0000
     17 ****        -0.4027  -0.9395  -0.6160 N.2            1 S1                 0.0000
     18 ****         0.8633  -1.2581  -0.6299 C.2            1 S1                 0.0000
     19 ****         1.7380  -0.1947  -0.6602 N.pl3          1 S1                 0.0000
     20 ****         3.1692  -0.2664  -0.6286 C.3            1 S1                 0.0000
     21 ****         4.0354   0.7009  -1.4387 C.3            1 S1                 0.0000
     22 ****         5.0943  -0.4100  -1.6180 C.3            1 S1                 0.0000
     23 ****         5.7293  -0.4608  -3.0185 C.3            1 S1                 0.0000
     24 ****         6.2626  -1.7354  -3.3123 O.3            1 S1                 0.0000
     25 ****         6.2111  -0.3847  -0.5528 C.3            1 S1                 0.0000
     26 ****         6.8228  -1.6474  -0.3889 O.3            1 S1                 0.0000
     27 ****         3.9184  -1.3807  -1.3615 C.3            1 S1                 0.0000
     28 ****        -3.3751   1.3125   0.7659 C.3            1 S1                 0.0000
     29 ****        -2.6071   0.7075   1.9688 C.3            1 S1                 0.0000
     30 ****        -5.3362   1.0745   1.6183 H              1 S1                 0.0000
     31 ****        -3.4471   2.3905   0.9197 H              1 S1                 0.0000
     32 ****        -1.2560  -1.6799   4.9781 H              1 S1                 0.0000
     33 ****        -2.9675  -1.5568   4.6128 H              1 S1                 0.0000
     34 ****        -1.9494  -0.1149   4.5967 H              1 S1                 0.0000
     35 ****        -0.6530  -1.0567   2.6426 H              1 S1                 0.0000
     36 ****        -1.6397  -2.4916   2.6617 H              1 S1                 0.0000
     37 ****        -3.9382  -2.4237   1.9121 H              1 S1                 0.0000
     38 ****        -4.4710  -1.0647   2.8854 H              1 S1                 0.0000
     39 ****        -4.3691  -1.2201  -0.1544 H              1 S1                 0.0000
     40 ****        -5.8209  -1.1901   0.8144 H              1 S1                 0.0000
     41 ****        -4.8787   0.0044  -1.9171 H              1 S1                 0.0000
     42 ****        -5.5089   1.5507  -2.4200 H              1 S1                 0.0000
     43 ****        -2.9934   1.4581  -2.5837 H              1 S1                 0.0000
     44 ****        -3.5595   2.7455  -1.5317 H              1 S1                 0.0000
     45 ****         0.4836   4.1166  -0.5539 H              1 S1                 0.0000
     46 ****         1.1968  -2.2858  -0.6210 H              1 S1                 0.0000
     47 ****         3.4477  -0.2447   0.4264 H              1 S1                 0.0000
     48 ****         3.5589   0.9987  -2.3747 H              1 S1                 0.0000
     49 ****         4.3748   1.5751  -0.8818 H              1 S1                 0.0000
     50 ****         4.9894  -0.2347  -3.7868 H              1 S1                 0.0000
     51 ****         6.5171   0.2857  -3.1244 H              1 S1                 0.0000
     52 ****         6.6338  -1.7129  -4.1809 H              1 S1                 0.0000
     53 ****         6.9800   0.3455  -0.8070 H              1 S1                 0.0000
     54 ****         5.8210  -0.0834   0.4194 H              1 S1                 0.0000
     55 ****         7.5002  -1.5714   0.2656 H              1 S1                 0.0000
     56 ****         4.1567  -2.2460  -0.7425 H              1 S1                 0.0000
     57 ****         3.4162  -1.6874  -2.2811 H              1 S1                 0.0000
     58 ****        -3.0862   1.0300   2.8939 H              1 S1                 0.0000
     59 ****        -1.5852   1.0850   2.0162 H              1 S1                 0.0000
     60 ****        -2.2468  -1.0081   0.9969 H              1 S1                 0.0000
     61 ****        -5.6586   2.2367  -0.2478 LP             1 S1                 0.0000
     62 ****        -6.4304   0.8071  -0.4133 LP             1 S1                 0.0000
     63 ****        -2.7156   0.1107  -0.6464 LP             1 S1                 0.0000
     64 ****        -1.7307   3.4632  -0.5318 LP             1 S1                 0.0000
     65 ****         2.2689   2.5581  -0.6025 LP             1 S1                 0.0000
     66 ****        -1.1928  -1.5524  -0.6090 LP             1 S1                 0.0000
     67 ****         5.5364  -2.4217  -3.2737 LP             1 S1                 0.0000
     68 ****         6.9736  -1.9647  -2.6476 LP             1 S1                 0.0000
     69 ****         7.2238  -1.9426  -1.2561 LP             1 S1                 0.0000
     70 ****         6.1410  -2.3160  -0.0921 LP             1 S1                 0.0000
@<TRIPOS>BOND
    1    1    2 1     
    2    1   32 1     
    3    1   33 1     
    4    1   34 1     
    5    2    3 1     
    6    2   35 1     
    7    2   36 1     
    8    3   29 1     
    9    3    4 1     
   10    3   60 1     
   11    4    5 1     
   12    4   37 1     
   13    4   38 1     
   14    5    6 1     
   15    5   39 1     
   16    5   40 1     
   17    6   30 1     
   18    6   28 1     
   19    6    7 1     
   20    7    8 1     
   21    8    9 1     
   22    8   41 1     
   23    8   42 1     
   24    9   10 1     
   25    9   43 1     
   26    9   44 1     
   27   10   11 1     
   28   10   28 1     
   29   11   16 ar    
   30   11   12 ar    
   31   12   13 ar    
   32   13   14 ar    
   33   13   45 1     
   34   14   15 ar    
   35   15   19 1     
   36   15   16 ar    
   37   16   17 1     
   38   17   18 2     
   39   18   19 1     
   40   18   46 1     
   41   19   20 1     
   42   20   27 1     
   43   20   21 1     
   44   20   47 1     
   45   21   22 1     
   46   21   48 1     
   47   21   49 1     
   48   22   23 1     
   49   22   25 1     
   50   22   27 1     
   51   23   24 1     
   52   23   50 1     
   53   23   51 1     
   54   24   52 1     
   55   25   26 1     
   56   25   53 1     
   57   25   54 1     
   58   26   55 1     
   59   27   56 1     
   60   27   57 1     
   61   28   31 1     
   62   28   29 1     
   63   29   58 1     
   64   29   59 1     
   65    7   61 1     
   66    7   62 1     
   67   10   63 1     
   68   12   64 1     
   69   14   65 1     
   70   17   66 1     
   71   24   67 1     
   72   24   68 1     
   73   26   69 1     
   74   26   70 1     
@<TRIPOS>SUBSTRUCTURE
      1 S1             1
@<TRIPOS>SET
LONE_PAIRS      STATIC     ATOMS    <user>   **** ""
10 61 62 63 64 65 66 67 68 69 70
DONOR_HYDROGENS      STATIC     ATOMS    <user>   **** ""
3 60 52 55
ATOM$BLUE        STATIC     ATOMS    COLORGROUP SYSTEM
10 61 62 63 64 65 66 67 68 69 70
ATOM$RED        STATIC     ATOMS    COLORGROUP SYSTEM
3 60 52 55
