AV-unprocessed.smi:109|AV-procd|sdf|1054|dock1
  -GOLD-   2262018113D 1   1.00000     0.00000
 Structure written by MMmdl.
 58 61  0  0  0  0  0  0  0  0  1 V2000
  143.8018  132.8544  157.3585 O   0  0  0  0  0  0  0  0  0  0  0  0
  145.1524  133.2363  157.2131 C   0  0  0  0  0  0  0  0  0  0  0  0
  145.6607  133.8647  158.5202 C   0  0  0  0  0  0  0  0  0  0  0  0
  147.1975  133.8295  158.6694 C   0  0  1  0  0  0  0  0  0  0  0  0
  147.8478  134.6102  157.6153 N   0  0  0  0  0  0  0  0  0  0  0  0
  147.9722  134.1563  156.3483 C   0  0  0  0  0  0  0  0  0  0  0  0
  148.9194  133.2439  156.0081 N   0  0  0  0  0  0  0  0  0  0  0  0
  149.0151  132.8172  154.7456 C   0  0  0  0  0  0  0  0  0  0  0  0
  148.2788  133.1676  153.6891 N   0  0  0  0  0  0  0  0  0  0  0  0
  147.3256  134.0846  154.0242 C   0  0  0  0  0  0  0  0  0  0  0  0
  147.1101  134.6236  155.3231 C   0  0  0  0  0  0  0  0  0  0  0  0
  146.0571  135.5284  155.2885 N   0  0  0  0  0  0  0  0  0  0  0  0
  145.6785  135.5245  154.0386 C   0  0  0  0  0  0  0  0  0  0  0  0
  146.3860  134.6826  153.2094 N   0  0  0  0  0  0  0  0  0  0  0  0
  146.1893  134.4700  151.7444 C   0  0  1  0  0  0  0  0  0  0  0  0
  145.8512  133.1353  151.5439 O   0  0  0  0  0  0  0  0  0  0  0  0
  144.9685  133.0506  150.4349 C   0  0  1  0  0  0  0  0  0  0  0  0
  144.2230  131.7042  150.4206 C   0  0  0  0  0  0  0  0  0  0  0  0
  143.1703  131.7423  149.4809 O   0  0  0  0  0  0  0  0  0  0  0  0
  144.0869  134.2981  150.6003 C   0  0  1  0  0  0  0  0  0  0  0  0
  143.0012  134.0509  151.4742 O   0  0  0  0  0  0  0  0  0  0  0  0
  145.0350  135.3331  151.2042 C   0  0  2  0  0  0  0  0  0  0  0  0
  145.4870  136.2053  150.1875 O   0  0  0  0  0  0  0  0  0  0  0  0
  147.6682  134.2998  160.0689 C   0  0  0  0  0  0  0  0  0  0  0  0
  146.9986  133.5494  161.2450 C   0  0  0  0  0  0  0  0  0  0  0  0
  147.5270  134.0378  162.6041 C   0  0  0  0  0  0  0  0  0  0  0  0
  147.3579  135.5569  162.7574 C   0  0  0  0  0  0  0  0  0  0  0  0
  148.0355  136.3067  161.6009 C   0  0  0  0  0  0  0  0  0  0  0  0
  147.5044  135.8268  160.2408 C   0  0  0  0  0  0  0  0  0  0  0  0
  147.1562  134.6914  151.2897 H   0  0  0  0  0  0  0  0  0  0  0  0
  145.5526  133.1666  149.5193 H   0  0  0  0  0  0  0  0  0  0  0  0
  143.6693  134.6176  149.6442 H   0  0  0  0  0  0  0  0  0  0  0  0
  144.5660  135.9174  151.9983 H   0  0  0  0  0  0  0  0  0  0  0  0
  143.4684  132.6036  156.5104 H   0  0  0  0  0  0  0  0  0  0  0  0
  145.7437  132.3581  156.9522 H   0  0  0  0  0  0  0  0  0  0  0  0
  145.2279  133.9414  156.3853 H   0  0  0  0  0  0  0  0  0  0  0  0
  145.2991  134.8909  158.5932 H   0  0  0  0  0  0  0  0  0  0  0  0
  145.2118  133.3240  159.3544 H   0  0  0  0  0  0  0  0  0  0  0  0
  147.4966  132.7839  158.6008 H   0  0  0  0  0  0  0  0  0  0  0  0
  148.2185  135.5027  157.9085 H   0  0  0  0  0  0  0  0  0  0  0  0
  149.7932  132.0929  154.5548 H   0  0  0  0  0  0  0  0  0  0  0  0
  144.8648  136.1408  153.6848 H   0  0  0  0  0  0  0  0  0  0  0  0
  144.8986  130.8775  150.1978 H   0  0  0  0  0  0  0  0  0  0  0  0
  143.7799  131.5099  151.3977 H   0  0  0  0  0  0  0  0  0  0  0  0
  142.3496  131.7484  149.9496 H   0  0  0  0  0  0  0  0  0  0  0  0
  142.2220  133.9231  150.9530 H   0  0  0  0  0  0  0  0  0  0  0  0
  144.9286  136.9678  150.1762 H   0  0  0  0  0  0  0  0  0  0  0  0
  148.7386  134.0964  160.1265 H   0  0  0  0  0  0  0  0  0  0  0  0
  145.9173  133.6878  161.2139 H   0  0  0  0  0  0  0  0  0  0  0  0
  147.1750  132.4770  161.1627 H   0  0  0  0  0  0  0  0  0  0  0  0
  147.0053  133.5235  163.4117 H   0  0  0  0  0  0  0  0  0  0  0  0
  148.5812  133.7756  162.7019 H   0  0  0  0  0  0  0  0  0  0  0  0
  146.2964  135.8068  162.7833 H   0  0  0  0  0  0  0  0  0  0  0  0
  147.7767  135.8841  163.7094 H   0  0  0  0  0  0  0  0  0  0  0  0
  147.8705  137.3793  161.7063 H   0  0  0  0  0  0  0  0  0  0  0  0
  149.1144  136.1536  161.6473 H   0  0  0  0  0  0  0  0  0  0  0  0
  148.0296  136.3507  159.4415 H   0  0  0  0  0  0  0  0  0  0  0  0
  146.4533  136.1039  160.1497 H   0  0  0  0  0  0  0  0  0  0  0  0
  1  2  1  0  0  0  0
  1 34  1  0  0  0  0
  2  3  1  0  0  0  0
  2 35  1  0  0  0  0
  2 36  1  0  0  0  0
  3  4  1  0  0  0  0
  3 37  1  0  0  0  0
  3 38  1  0  0  0  0
  4  5  1  0  0  0  0
  4 24  1  0  0  0  0
  4 39  1  0  0  0  0
  5  6  1  0  0  0  0
  5 40  1  0  0  0  0
  6 11  1  0  0  0  0
  6  7  2  0  0  0  0
  7  8  1  0  0  0  0
  8  9  2  0  0  0  0
  8 41  1  0  0  0  0
  9 10  1  0  0  0  0
 10 14  1  0  0  0  0
 10 11  2  0  0  0  0
 11 12  1  0  0  0  0
 12 13  2  0  0  0  0
 13 14  1  0  0  0  0
 13 42  1  0  0  0  0
 14 15  1  0  0  0  0
 15 30  1  0  0  0  0
 15 22  1  0  0  0  0
 15 16  1  0  0  0  0
 16 17  1  0  0  0  0
 17 31  1  0  0  0  0
 17 18  1  0  0  0  0
 17 20  1  0  0  0  0
 18 19  1  0  0  0  0
 18 43  1  0  0  0  0
 18 44  1  0  0  0  0
 19 45  1  0  0  0  0
 20 32  1  0  0  0  0
 20 21  1  0  0  0  0
 20 22  1  0  0  0  0
 21 46  1  0  0  0  0
 22 33  1  0  0  0  0
 22 23  1  0  0  0  0
 23 47  1  0  0  0  0
 24 29  1  0  0  0  0
 24 25  1  0  0  0  0
 24 48  1  0  0  0  0
 25 26  1  0  0  0  0
 25 49  1  0  0  0  0
 25 50  1  0  0  0  0
 26 27  1  0  0  0  0
 26 51  1  0  0  0  0
 26 52  1  0  0  0  0
 27 28  1  0  0  0  0
 27 53  1  0  0  0  0
 27 54  1  0  0  0  0
 28 29  1  0  0  0  0
 28 55  1  0  0  0  0
 28 56  1  0  0  0  0
 29 57  1  0  0  0  0
 29 58  1  0  0  0  0
M  END
> <s_m_source_file>
AV-unprocessed.smi

> <i_m_source_file_index>
109

> <i_lp_mmshare_version>
43012

> <i_f3d_flags>
0

> <s_epik_input>
W0NIMl0xW0NIMl1bQ0gyXVtDSDJdW0NIMl1bQ0hdMVtDQEhdKFtDSDJdW0NIMl1bT0hdKVtOSF1jKG5bY0hdbjIpYyhjMjMpbltjSF1uM1tDQEBIXTRPW0NASF0oW0NIMl1bT0hdKVtDQEBIXShbT0hdKVtDQEhdNFtPSF0=

> <s_epik_cmdline>
J2VwaWtfcHl0aG9uJywgJy1waCcsICc3LjAnLCAnLXRuJywgJzgnLCAnLW1hJywgJzIwMCcsICctbWV0YWxfYmluZGluZycsICctaW1hZScsICc8aW5maWxlLm1hZT4nLCAnLW9tYWUnLCAnPG91dGZpbGUubWFlPic=

> <r_lp_tautomer_probability>
1

> <r_epik_Ionization_Penalty>
0.000793976

> <r_epik_Ionization_Penalty_Charging>
0

> <r_epik_Ionization_Penalty_Neutral>
0.000793976

> <r_epik_State_Penalty>
-0

> <r_epik_Charging_Adjusted_Penalty>
0

> <i_epik_Tot_Q>
0

> <i_epik_Tot_abs_Q>
0

> <r_epik_Metal_State_Penalty>
-0

> <b_epik_Metal_Only>
0

> <s_epik_Chemistry_Notes>
This compound contains an acetal/aminal-like group ( X-CH(R)-Y where X, Y are N, S, or O) that may be acid/base labile, releasing an aldehyde.

> <s_lp_Force_Field>
OPLS_2005

> <r_lp_Energy>
50.1139

> <b_lp_Chiralities_Consistent>
1

> <s_lp_Variant>
AV-unprocessed.smi:109-24

> <Gold.Version>
5.8.1

> <Gold.Id.Protein>
6NUR|6NUR_protein|mol2

> <Gold.PLP.Fitness>
53.5116

> <Gold.PLP.PLP>
-42.4074

> <Gold.PLP.part.hbond>
-6.0000

> <Gold.PLP.part.metal>
0.0000

> <Gold.PLP.part.buried>
-5.8982

> <Gold.PLP.part.nonpolar>
-31.3340

> <Gold.PLP.part.repulsive>
0.3292

> <Gold.PLP.ligand.clash>
0.0000

> <Gold.PLP.ligand.torsion>
1.2268

> <Gold.PLP.Chemscore.Hbond>
4.3042

> <Gold.PLP.Chemscore.CHOScore>
0.0000

> <Gold.PLP.Chemscore.Metal>
0.0000

> <Gold.Chemscore.Hbonds>
donor molecule, donor type, donor heavy atom, donor atom, acceptor molecule, acceptor atom, score
      L1  H     1    34       P1 10957  0.99
      L1  H    19    45       P1 10952  0.38
      L1  H    21    46       P1 10186  1.00
      L1  H    23    47       P1 10171  1.00
      P1  H 10785 10796       L1    19  1.00

> <Gold.PLP.Chemscore.Internal.Correction>
0.6451

> <Gold.Rescore>
     Score         DG    S(hbond)    S(metal)    S(lipo)     H(rot)  DE(clash)    DE(int)     intcor
     10.80     -12.17       3.43        0.00      78.85       5.47       0.08       1.30       ----

> <Gold.Chemscore.Fitness>
10.7962

> <Gold.Chemscore.DG>
-12.1709

> <Gold.Chemscore.ZeroCoef>
-5.4800

> <Gold.Chemscore.Hbond>
3.4307

> <Gold.Chemscore.Metal>
0.0000

> <Gold.Chemscore.Lipo>
78.8527

> <Gold.Chemscore.Internal_Hbond>
0.0000

> <Gold.Chemscore.DEClash>
0.0786

> <Gold.Chemscore.DEInternal>
1.2961

> <Gold.Chemscore.Rot>
5.4662

> <Gold.Chemscore.Internal.Correction>
   9.000000E+99

> <Gold.Chemscore.Hbonds>
donor molecule, donor type, donor heavy atom, donor atom, acceptor molecule, acceptor atom, score
      L1  H     1    34       P1 10957  0.92
      L1  H    19    45       P1 10952  0.35
      L1  H    21    46       P1 10186  0.38
      L1  H    23    47       P1 10171  0.99
      P1  H 10785 10796       L1    19  0.18

> <Gold.Chemscore.Hbond.Weighted>
-11.4586

> <Gold.Chemscore.Metal.Weighted>
-0.0000

> <Gold.Chemscore.Lipo.Weighted>
-9.2258

> <Gold.Chemscore.Internal_Hbond.Weighted>
0.0000

> <Gold.Chemscore.DEClash.Weighted>
0.0786

> <Gold.Chemscore.DEInternal.Weighted>
1.2961

> <Gold.Chemscore.Rot.Weighted>
13.9935

> <Gold.Chemscore.Internal.Correction.Weighted>
   9.000000E+99

> <Gold.Protein.RotatedTorsions>
[ 6907 6896 6895 6894 ] final -163.79 input  -60.11 | X-H torsion
[ 7974 7965 7964 7962 ] final  -68.19 input  175.53 | X-H torsion
[ 8008 7997 7996 7995 ] final -129.61 input   59.86 | X-H torsion
[ 10167 10162 10161 10158 ] final   25.52 input  -65.29 | X-H torsion
[ 10718 10713 10712 10709 ] final -143.60 input   66.30 | X-H torsion
[ 10763 10752 10751 10750 ] final  -29.48 input  -60.55 | X-H torsion
[ 11005 11000 10999 10996 ] final   75.15 input  -57.11 | X-H torsion

> <Gold.Protein.ActiveResidues>
 VAL166  LYS551  ARG553  GLY616  TRP617  ASP618  TYR619  PRO620  LYS621  CYS622 
 ASP623  PHE694  ASN695  SER759  ASP760  ASP761  ALA762  ILE779  LEU786  VAL792 
 PHE793  MET794  SER795  GLU796  ALA797  LYS798  CYS799  TRP800  GLU811  SER814 

> <Gold.Protein.RotatedAtoms>
  151.4015  133.3756  159.2732 H   0  0  0  0  0  0  0  0  0  0  0  0  # atno 6907 bound_to 6896
  150.9430  134.8838  159.7634 H   0  0  0  0  0  0  0  0  0  0  0  0  # atno 6908 bound_to 6896
  152.5079  134.3967  159.9454 H   0  0  0  0  0  0  0  0  0  0  0  0  # atno 6909 bound_to 6896
  145.7197  140.9044  143.0637 H   0  0  0  0  0  0  0  0  0  0  0  0  # atno 7974 bound_to 7965
  155.2821  140.0444  157.3016 H   0  0  0  0  0  0  0  0  0  0  0  0  # atno 8008 bound_to 7997
  154.5591  140.2340  155.8332 H   0  0  0  0  0  0  0  0  0  0  0  0  # atno 8009 bound_to 7997
  156.2032  140.3020  155.9578 H   0  0  0  0  0  0  0  0  0  0  0  0  # atno 8010 bound_to 7997
  140.5100  144.0176  150.6368 H   0  0  0  0  0  0  0  0  0  0  0  0  # atno 10167 bound_to 10162
  156.3600  130.7733  151.1899 H   0  0  0  0  0  0  0  0  0  0  0  0  # atno 10718 bound_to 10713
  153.7653  135.6916  153.4917 H   0  0  0  0  0  0  0  0  0  0  0  0  # atno 10763 bound_to 10752
  153.1911  135.4471  155.0149 H   0  0  0  0  0  0  0  0  0  0  0  0  # atno 10764 bound_to 10752
  154.8138  135.3389  154.7166 H   0  0  0  0  0  0  0  0  0  0  0  0  # atno 10765 bound_to 10752
  139.9357  134.7493  156.1236 H   0  0  0  0  0  0  0  0  0  0  0  0  # atno 11005 bound_to 11000
  144.6920  139.9185  143.7467 LP  0  0  0  0  0  0  0  0  0  0  0  0  # atno 17320 bound_to 7965
  146.0637  139.3629  143.0565 LP  0  0  0  0  0  0  0  0  0  0  0  0  # atno 17321 bound_to 7965
  140.3496  143.2971  152.0501 LP  0  0  0  0  0  0  0  0  0  0  0  0  # atno 17342 bound_to 10162
  139.4893  144.6383  151.6929 LP  0  0  0  0  0  0  0  0  0  0  0  0  # atno 17343 bound_to 10162
  157.7472  131.0403  150.4591 LP  0  0  0  0  0  0  0  0  0  0  0  0  # atno 17370 bound_to 10713
  156.4800  130.4071  149.6467 LP  0  0  0  0  0  0  0  0  0  0  0  0  # atno 17371 bound_to 10713
  141.0969  133.6692  156.2666 LP  0  0  0  0  0  0  0  0  0  0  0  0  # atno 17394 bound_to 11000
  140.6082  134.5485  157.5529 LP  0  0  0  0  0  0  0  0  0  0  0  0  # atno 17395 bound_to 11000

$$$$
