AV-unprocessed.smi:1452|AV-procd|sdf|5905|dock1
  -GOLD-   22720 5593D 1   1.00000     0.00000
 Structure written by MMmdl.
 40 42  0  0  0  0  0  0  0  0  2 V2000
  150.2036  134.2353  155.7099 O   0  0  0  0  0  0  0  0  0  0  0  0
  149.8063  134.7896  154.6868 C   0  0  0  0  0  0  0  0  0  0  0  0
  150.1929  136.0468  154.3807 N   0  0  0  0  0  0  0  0  0  0  0  0
  151.0505  136.9650  155.0563 C   0  0  0  0  0  0  0  0  0  0  0  0
  150.9478  138.3009  154.6057 C   0  0  0  0  0  0  0  0  0  0  0  0
  151.7475  139.2989  155.1951 C   0  0  0  0  0  0  0  0  0  0  0  0
  152.6349  138.9361  156.2231 C   0  0  0  0  0  0  0  0  0  0  0  0
  152.6797  137.5856  156.6132 C   0  0  0  0  0  0  0  0  0  0  0  0
  151.9136  136.6278  156.0488 N   0  0  0  0  0  0  0  0  0  0  0  0
  148.9740  134.1942  153.8170 N   0  0  0  0  0  0  0  0  0  0  0  0
  148.4230  132.8496  153.9482 C   0  0  2  0  0  0  0  0  0  0  0  0
  149.4966  131.7778  154.0925 C   0  0  0  0  0  0  0  0  0  0  0  0
  148.7376  130.5074  153.7071 C   0  0  0  0  0  0  0  0  0  0  0  0
  147.7617  130.9154  152.6708 N   0  3  1  0  0  0  0  0  0  0  0  0
  146.4741  130.1799  152.7118 C   0  0  0  0  0  0  0  0  0  0  0  0
  145.5340  130.6634  151.5922 C   0  0  0  0  0  0  0  0  0  0  0  0
  145.3904  132.1991  151.5435 C   0  0  0  0  0  0  0  0  0  0  0  0
  146.1904  132.8990  152.6530 C   0  0  0  0  0  0  0  0  0  0  0  0
  147.6534  132.4020  152.6943 C   0  0  1  0  0  0  0  0  0  0  0  0
  149.8184  136.3949  153.5100 H   0  0  0  0  0  0  0  0  0  0  0  0
  150.2612  138.5648  153.8142 H   0  0  0  0  0  0  0  0  0  0  0  0
  151.6802  140.3246  154.8635 H   0  0  0  0  0  0  0  0  0  0  0  0
  153.2644  139.6729  156.6999 H   0  0  0  0  0  0  0  0  0  0  0  0
  153.3474  137.2648  157.3988 H   0  0  0  0  0  0  0  0  0  0  0  0
  148.7004  134.7229  153.0003 H   0  0  0  0  0  0  0  0  0  0  0  0
  147.7734  132.7898  154.8240 H   0  0  0  0  0  0  0  0  0  0  0  0
  150.3113  131.9547  153.3884 H   0  0  0  0  0  0  0  0  0  0  0  0
  149.9194  131.7302  155.0966 H   0  0  0  0  0  0  0  0  0  0  0  0
  149.3982  129.7192  153.3450 H   0  0  0  0  0  0  0  0  0  0  0  0
  148.2117  130.1249  154.5834 H   0  0  0  0  0  0  0  0  0  0  0  0
  146.6624  129.1109  152.6053 H   0  0  0  0  0  0  0  0  0  0  0  0
  146.0006  130.3196  153.6850 H   0  0  0  0  0  0  0  0  0  0  0  0
  145.9093  130.3107  150.6307 H   0  0  0  0  0  0  0  0  0  0  0  0
  144.5539  130.2024  151.7177 H   0  0  0  0  0  0  0  0  0  0  0  0
  145.7362  132.5592  150.5738 H   0  0  0  0  0  0  0  0  0  0  0  0
  144.3393  132.4811  151.6123 H   0  0  0  0  0  0  0  0  0  0  0  0
  146.1639  133.9783  152.5019 H   0  0  0  0  0  0  0  0  0  0  0  0
  145.7059  132.7183  153.6137 H   0  0  0  0  0  0  0  0  0  0  0  0
  148.1747  132.7552  151.8030 H   0  0  0  0  0  0  0  0  0  0  0  0
  148.1826  130.6944  151.7796 H   0  0  0  0  0  0  0  0  0  0  0  0
  1  2  2  0  0  0  0
  2  3  1  0  0  0  0
  2 10  1  0  0  0  0
  3  4  1  0  0  0  0
  3 20  1  0  0  0  0
  4  9  1  0  0  0  0
  4  5  2  0  0  0  0
  5  6  1  0  0  0  0
  5 21  1  0  0  0  0
  6  7  2  0  0  0  0
  6 22  1  0  0  0  0
  7  8  1  0  0  0  0
  7 23  1  0  0  0  0
  8  9  2  0  0  0  0
  8 24  1  0  0  0  0
 10 11  1  0  0  0  0
 10 25  1  0  0  0  0
 11 19  1  0  0  0  0
 11 12  1  0  0  0  0
 11 26  1  0  0  0  0
 12 13  1  0  0  0  0
 12 27  1  0  0  0  0
 12 28  1  0  0  0  0
 13 14  1  0  0  0  0
 13 29  1  0  0  0  0
 13 30  1  0  0  0  0
 14 19  1  0  0  0  0
 14 15  1  0  0  0  0
 14 40  1  0  0  0  0
 15 16  1  0  0  0  0
 15 31  1  0  0  0  0
 15 32  1  0  0  0  0
 16 17  1  0  0  0  0
 16 33  1  0  0  0  0
 16 34  1  0  0  0  0
 17 18  1  0  0  0  0
 17 35  1  0  0  0  0
 17 36  1  0  0  0  0
 18 19  1  0  0  0  0
 18 37  1  0  0  0  0
 18 38  1  0  0  0  0
 19 39  1  0  0  0  0
M  CHG  1  14   1
M  END
> <s_m_source_file>
AV-unprocessed.smi

> <i_m_source_file_index>
1452

> <i_lp_mmshare_version>
43012

> <i_f3d_flags>
0

> <s_epik_input>
W0NIMl0xW0NIMl1bQ0gyXVtDSDJdW0NASF0oTjEyKVtDQEBIXShbQ0gyXVtDSDJdMilbTkhdQyg9TylbTkhdYzNbY0hdW2NIXVtjSF1bY0hdbjM=

> <s_epik_cmdline>
J2VwaWtfcHl0aG9uJywgJy1waCcsICc3LjAnLCAnLXRuJywgJzgnLCAnLW1hJywgJzIwMCcsICctbWV0YWxfYmluZGluZycsICctaW1hZScsICc8aW5maWxlLm1hZT4nLCAnLW9tYWUnLCAnPG91dGZpbGUubWFlPic=

> <r_epik_Ionization_Penalty>
0.00100813

> <r_epik_Ionization_Penalty_Charging>
0.000974069

> <r_epik_Ionization_Penalty_Neutral>
3.40643e-05

> <r_epik_State_Penalty>
0.000633842

> <r_epik_Charging_Adjusted_Penalty>
0.00160791

> <i_epik_Tot_Q>
1

> <i_epik_Tot_abs_Q>
1

> <r_epik_Metal_State_Penalty>
-0

> <b_epik_Metal_Only>
0

> <s_lp_Force_Field>
OPLS_2005

> <r_lp_Energy>
44.0476

> <b_lp_Chiralities_Consistent>
1

> <s_lp_Variant>
AV-unprocessed.smi:1452-3

> <Gold.Version>
5.8.1

> <Gold.Id.Protein>
6NUR|6NUR_protein|mol2

> <Gold.PLP.Fitness>
46.5268

> <Gold.PLP.PLP>
-34.7194

> <Gold.PLP.part.hbond>
-4.8846

> <Gold.PLP.part.metal>
0.0000

> <Gold.PLP.part.buried>
-1.1115

> <Gold.PLP.part.nonpolar>
-28.1046

> <Gold.PLP.part.repulsive>
0.1278

> <Gold.PLP.ligand.clash>
0.0000

> <Gold.PLP.ligand.torsion>
0.0883

> <Gold.PLP.Chemscore.Hbond>
3.9920

> <Gold.PLP.Chemscore.CHOScore>
0.0000

> <Gold.PLP.Chemscore.Metal>
0.0000

> <Gold.Chemscore.Hbonds>
donor molecule, donor type, donor heavy atom, donor atom, acceptor molecule, acceptor atom, score
      L1  H     3    20       P1  7948  0.95
      L1  H    10    25       P1  7948  0.94
      L1  H    14    40       P1 10747  1.00
      P1  H 10752 10763       L1     9  1.00

> <Gold.PLP.Chemscore.Internal.Correction>
0.0080

> <Gold.Rescore>
     Score         DG    S(hbond)    S(metal)    S(lipo)     H(rot)  DE(clash)    DE(int)     intcor
     19.76     -20.84       2.88        0.00      70.99       1.00       0.00       1.08       ----

> <Gold.Chemscore.Fitness>
19.7624

> <Gold.Chemscore.DG>
-20.8416

> <Gold.Chemscore.ZeroCoef>
-5.4800

> <Gold.Chemscore.Hbond>
2.8789

> <Gold.Chemscore.Metal>
0.0000

> <Gold.Chemscore.Lipo>
70.9922

> <Gold.Chemscore.Internal_Hbond>
0.0000

> <Gold.Chemscore.DEClash>
0.0021

> <Gold.Chemscore.DEInternal>
1.0770

> <Gold.Chemscore.Rot>
1.0000

> <Gold.Chemscore.Internal.Correction>
   9.000000E+99

> <Gold.Chemscore.Hbonds>
donor molecule, donor type, donor heavy atom, donor atom, acceptor molecule, acceptor atom, score
      L1  H     3    20       P1  7948  0.21
      L1  H    10    25       P1  7948  0.20
      L1  H    14    40       P1 10747  1.00
      P1  H 10752 10763       L1     9  0.17

> <Gold.Chemscore.Hbond.Weighted>
-9.6155

> <Gold.Chemscore.Metal.Weighted>
-0.0000

> <Gold.Chemscore.Lipo.Weighted>
-8.3061

> <Gold.Chemscore.Internal_Hbond.Weighted>
0.0000

> <Gold.Chemscore.DEClash.Weighted>
0.0021

> <Gold.Chemscore.DEInternal.Weighted>
1.0770

> <Gold.Chemscore.Rot.Weighted>
2.5600

> <Gold.Chemscore.Internal.Correction.Weighted>
   9.000000E+99

> <Gold.Protein.RotatedTorsions>
[ 6907 6896 6895 6894 ] final  136.70 input  -60.11 | X-H torsion
[ 7974 7965 7964 7962 ] final    6.43 input  175.53 | X-H torsion
[ 8008 7997 7996 7995 ] final -149.81 input   59.86 | X-H torsion
[ 10167 10162 10161 10158 ] final  -42.61 input  -65.29 | X-H torsion
[ 10718 10713 10712 10709 ] final -138.59 input   66.30 | X-H torsion
[ 10763 10752 10751 10750 ] final   93.71 input  -60.55 | X-H torsion
[ 11005 11000 10999 10996 ] final -169.62 input  -57.11 | X-H torsion

> <Gold.Protein.ActiveResidues>
 VAL166  LYS551  ARG553  GLY616  TRP617  ASP618  TYR619  PRO620  LYS621  CYS622 
 ASP623  PHE694  ASN695  SER759  ASP760  ASP761  ALA762  ILE779  LEU786  VAL792 
 PHE793  MET794  SER795  GLU796  ALA797  LYS798  CYS799  TRP800  GLU811  SER814 

> <Gold.Protein.RotatedAtoms>
  152.2864  133.5519  159.5529 H   0  0  0  0  0  0  0  0  0  0  0  0  # atno 6907 bound_to 6896
  150.7217  134.0491  159.3801 H   0  0  0  0  0  0  0  0  0  0  0  0  # atno 6908 bound_to 6896
  151.8399  135.0594  160.0498 H   0  0  0  0  0  0  0  0  0  0  0  0  # atno 6909 bound_to 6896
  146.2435  140.0234  142.8396 H   0  0  0  0  0  0  0  0  0  0  0  0  # atno 7974 bound_to 7965
  155.6136  140.0674  157.2699 H   0  0  0  0  0  0  0  0  0  0  0  0  # atno 8008 bound_to 7997
  154.4247  140.1797  156.1346 H   0  0  0  0  0  0  0  0  0  0  0  0  # atno 8009 bound_to 7997
  156.0065  140.3331  155.6901 H   0  0  0  0  0  0  0  0  0  0  0  0  # atno 8010 bound_to 7997
  140.6963  143.3028  151.3234 H   0  0  0  0  0  0  0  0  0  0  0  0  # atno 10167 bound_to 10162
  156.3011  130.7429  151.1481 H   0  0  0  0  0  0  0  0  0  0  0  0  # atno 10718 bound_to 10713
  153.2333  135.4316  155.0619 H   0  0  0  0  0  0  0  0  0  0  0  0  # atno 10763 bound_to 10752
  154.8307  135.3385  154.6755 H   0  0  0  0  0  0  0  0  0  0  0  0  # atno 10764 bound_to 10752
  153.7181  135.7018  153.5076 H   0  0  0  0  0  0  0  0  0  0  0  0  # atno 10765 bound_to 10752
  140.5287  134.5637  157.5069 H   0  0  0  0  0  0  0  0  0  0  0  0  # atno 11005 bound_to 11000
  145.1220  140.9468  143.4595 LP  0  0  0  0  0  0  0  0  0  0  0  0  # atno 17320 bound_to 7965
  145.0472  139.3211  143.5947 LP  0  0  0  0  0  0  0  0  0  0  0  0  # atno 17321 bound_to 7965
  139.6422  144.0517  152.2563 LP  0  0  0  0  0  0  0  0  0  0  0  0  # atno 17342 bound_to 10162
  140.0027  144.6282  150.7716 LP  0  0  0  0  0  0  0  0  0  0  0  0  # atno 17343 bound_to 10162
  157.7368  131.0558  150.5392 LP  0  0  0  0  0  0  0  0  0  0  0  0  # atno 17370 bound_to 10713
  156.5520  130.4234  149.6103 LP  0  0  0  0  0  0  0  0  0  0  0  0  # atno 17371 bound_to 10713
  139.9566  134.7525  156.0328 LP  0  0  0  0  0  0  0  0  0  0  0  0  # atno 17394 bound_to 11000
  141.1293  133.6590  156.3422 LP  0  0  0  0  0  0  0  0  0  0  0  0  # atno 17395 bound_to 11000

$$$$
