AV-unprocessed.smi:3303|AV-procd|sdf|12684|dock3
  -GOLD-   2272019 23D 1   1.00000     0.00000
 Structure written by MMmdl.
 44 45  0  0  0  0  0  0  0  0  2 V2000
  152.8522  138.8812  154.8228 C   0  0  0  0  0  0  0  0  0  0  0  0
  151.4123  138.4911  154.4448 C   0  0  1  0  0  0  0  0  0  0  0  0
  150.9964  137.1344  155.0459 C   0  0  0  0  0  0  0  0  0  0  0  0
  149.6469  136.7328  154.5765 N   0  3  1  0  0  0  0  0  0  0  0  0
  149.3085  135.3353  154.9295 C   0  0  0  0  0  0  0  0  0  0  0  0
  148.5832  137.7223  154.9106 C   0  0  1  0  0  0  0  0  0  0  0  0
  148.1952  137.7344  156.4056 C   0  0  0  0  0  0  0  0  0  0  0  0
  148.9527  139.1219  154.3674 C   0  0  0  0  0  0  0  0  0  0  0  0
  150.3752  139.5969  154.7494 C   0  0  1  0  0  0  0  0  0  0  0  0
  150.4688  140.0341  156.1401 N   0  0  0  0  0  0  0  0  0  0  0  0
  150.0525  141.4180  156.3184 C   0  0  0  0  0  0  0  0  0  0  0  0
  149.7593  141.6752  157.8023 C   0  0  0  0  0  0  0  0  0  0  0  0
  150.5465  142.8543  158.3411 C   0  0  0  0  0  0  0  0  0  0  0  0
  151.4700  143.5381  157.5219 C   0  0  0  0  0  0  0  0  0  0  0  0
  152.1826  144.6204  158.0733 C   0  0  0  0  0  0  0  0  0  0  0  0
  151.9466  144.9745  159.4157 C   0  0  0  0  0  0  0  0  0  0  0  0
  151.0048  144.2268  160.1504 C   0  0  0  0  0  0  0  0  0  0  0  0
  150.3163  143.1870  159.6314 N   0  0  0  0  0  0  0  0  0  0  0  0
  152.9791  138.9671  155.9024 H   0  0  0  0  0  0  0  0  0  0  0  0
  153.1303  139.8363  154.3762 H   0  0  0  0  0  0  0  0  0  0  0  0
  153.5638  138.1347  154.4691 H   0  0  0  0  0  0  0  0  0  0  0  0
  151.4122  138.3624  153.3610 H   0  0  0  0  0  0  0  0  0  0  0  0
  151.7160  136.3733  154.7412 H   0  0  0  0  0  0  0  0  0  0  0  0
  151.0250  137.1668  156.1355 H   0  0  0  0  0  0  0  0  0  0  0  0
  149.3229  135.1805  156.0088 H   0  0  0  0  0  0  0  0  0  0  0  0
  150.0275  134.6474  154.4839 H   0  0  0  0  0  0  0  0  0  0  0  0
  148.3198  135.0686  154.5544 H   0  0  0  0  0  0  0  0  0  0  0  0
  147.6900  137.4104  154.3676 H   0  0  0  0  0  0  0  0  0  0  0  0
  147.4520  138.5071  156.6043 H   0  0  0  0  0  0  0  0  0  0  0  0
  149.0450  137.9266  157.0587 H   0  0  0  0  0  0  0  0  0  0  0  0
  147.7530  136.7871  156.7132 H   0  0  0  0  0  0  0  0  0  0  0  0
  148.9089  139.0745  153.2785 H   0  0  0  0  0  0  0  0  0  0  0  0
  148.1911  139.8504  154.6434 H   0  0  0  0  0  0  0  0  0  0  0  0
  150.6294  140.4566  154.1272 H   0  0  0  0  0  0  0  0  0  0  0  0
  151.4284  139.9507  156.4456 H   0  0  0  0  0  0  0  0  0  0  0  0
  150.8421  142.0871  155.9745 H   0  0  0  0  0  0  0  0  0  0  0  0
  149.1610  141.6306  155.7298 H   0  0  0  0  0  0  0  0  0  0  0  0
  148.6940  141.8604  157.9468 H   0  0  0  0  0  0  0  0  0  0  0  0
  150.0007  140.7903  158.3932 H   0  0  0  0  0  0  0  0  0  0  0  0
  151.6313  143.2413  156.4959 H   0  0  0  0  0  0  0  0  0  0  0  0
  152.8977  145.1683  157.4776 H   0  0  0  0  0  0  0  0  0  0  0  0
  152.4746  145.7988  159.8717 H   0  0  0  0  0  0  0  0  0  0  0  0
  150.7996  144.4698  161.1825 H   0  0  0  0  0  0  0  0  0  0  0  0
  149.7050  136.7430  153.5682 H   0  0  0  0  0  0  0  0  0  0  0  0
  1  2  1  0  0  0  0
  1 19  1  0  0  0  0
  1 20  1  0  0  0  0
  1 21  1  0  0  0  0
  2  9  1  0  0  0  0
  2  3  1  0  0  0  0
  2 22  1  0  0  0  0
  3  4  1  0  0  0  0
  3 23  1  0  0  0  0
  3 24  1  0  0  0  0
  4  5  1  0  0  0  0
  4  6  1  0  0  0  0
  4 44  1  0  0  0  0
  5 25  1  0  0  0  0
  5 26  1  0  0  0  0
  5 27  1  0  0  0  0
  6  7  1  0  0  0  0
  6  8  1  0  0  0  0
  6 28  1  0  0  0  0
  7 29  1  0  0  0  0
  7 30  1  0  0  0  0
  7 31  1  0  0  0  0
  8  9  1  0  0  0  0
  8 32  1  0  0  0  0
  8 33  1  0  0  0  0
  9 10  1  0  0  0  0
  9 34  1  0  0  0  0
 10 11  1  0  0  0  0
 10 35  1  0  0  0  0
 11 12  1  0  0  0  0
 11 36  1  0  0  0  0
 11 37  1  0  0  0  0
 12 13  1  0  0  0  0
 12 38  1  0  0  0  0
 12 39  1  0  0  0  0
 13 18  1  0  0  0  0
 13 14  2  0  0  0  0
 14 15  1  0  0  0  0
 14 40  1  0  0  0  0
 15 16  2  0  0  0  0
 15 41  1  0  0  0  0
 16 17  1  0  0  0  0
 16 42  1  0  0  0  0
 17 18  2  0  0  0  0
 17 43  1  0  0  0  0
M  CHG  1   4   1
M  END
> <s_m_source_file>
AV-unprocessed.smi

> <i_m_source_file_index>
3303

> <i_lp_mmshare_version>
43012

> <i_f3d_flags>
0

> <s_epik_input>
W0NIM11bQ0BASF0xW0NIMl1OKFtDSDNdKVtDQEBIXShbQ0gzXSlbQ0gyXVtDQEhdMVtOSF1bQ0gyXVtDSDJdYzJbY0hdW2NIXVtjSF1bY0hdbjI=

> <s_epik_cmdline>
J2VwaWtfcHl0aG9uJywgJy1waCcsICc3LjAnLCAnLXRuJywgJzgnLCAnLW1hJywgJzIwMCcsICctbWV0YWxfYmluZGluZycsICctaW1hZScsICc8aW5maWxlLm1hZT4nLCAnLW9tYWUnLCAnPG91dGZpbGUubWFlPic=

> <r_epik_Ionization_Penalty>
2.31085

> <r_epik_Ionization_Penalty_Charging>
0.000313057

> <r_epik_Ionization_Penalty_Neutral>
2.31054

> <r_epik_State_Penalty>
2.4087

> <r_epik_Charging_Adjusted_Penalty>
2.40902

> <i_epik_Tot_Q>
1

> <i_epik_Tot_abs_Q>
1

> <r_epik_Metal_State_Penalty>
2.30979

> <b_epik_Metal_Only>
0

> <s_lp_Force_Field>
OPLS_2005

> <r_lp_Energy>
26.6876

> <b_lp_Chiralities_Consistent>
1

> <s_lp_Variant>
AV-unprocessed.smi:3303-28

> <Gold.Version>
5.8.1

> <Gold.Id.Protein>
6NUR|6NUR_protein|mol2

> <Gold.PLP.Fitness>
43.6379

> <Gold.PLP.PLP>
-39.1263

> <Gold.PLP.part.hbond>
-1.6915

> <Gold.PLP.part.metal>
0.0000

> <Gold.PLP.part.buried>
-4.6415

> <Gold.PLP.part.nonpolar>
-32.6588

> <Gold.PLP.part.repulsive>
0.0964

> <Gold.PLP.ligand.clash>
0.0000

> <Gold.PLP.ligand.torsion>
0.7501

> <Gold.PLP.Chemscore.Hbond>
2.0000

> <Gold.PLP.Chemscore.CHOScore>
0.0000

> <Gold.PLP.Chemscore.Metal>
0.0000

> <Gold.Chemscore.Hbonds>
donor molecule, donor type, donor heavy atom, donor atom, acceptor molecule, acceptor atom, score
      L1  H     4    44       P1  7948  2.00

> <Gold.PLP.Chemscore.Internal.Correction>
0.0117

> <Gold.Rescore>
     Score         DG    S(hbond)    S(metal)    S(lipo)     H(rot)  DE(clash)    DE(int)     intcor
     17.96     -18.75       0.99        0.00     114.33       1.33       0.07       0.73       ----

> <Gold.Chemscore.Fitness>
17.9551

> <Gold.Chemscore.DG>
-18.7541

> <Gold.Chemscore.ZeroCoef>
-5.4800

> <Gold.Chemscore.Hbond>
0.9865

> <Gold.Chemscore.Metal>
0.0000

> <Gold.Chemscore.Lipo>
114.3322

> <Gold.Chemscore.Internal_Hbond>
0.0000

> <Gold.Chemscore.DEClash>
0.0712

> <Gold.Chemscore.DEInternal>
0.7278

> <Gold.Chemscore.Rot>
1.3272

> <Gold.Chemscore.Internal.Correction>
   9.000000E+99

> <Gold.Chemscore.Hbonds>
donor molecule, donor type, donor heavy atom, donor atom, acceptor molecule, acceptor atom, score
      L1  H     4    44       P1  7948  0.52

> <Gold.Chemscore.Hbond.Weighted>
-3.2949

> <Gold.Chemscore.Metal.Weighted>
-0.0000

> <Gold.Chemscore.Lipo.Weighted>
-13.3769

> <Gold.Chemscore.Internal_Hbond.Weighted>
0.0000

> <Gold.Chemscore.DEClash.Weighted>
0.0712

> <Gold.Chemscore.DEInternal.Weighted>
0.7278

> <Gold.Chemscore.Rot.Weighted>
3.3976

> <Gold.Chemscore.Internal.Correction.Weighted>
   9.000000E+99

> <Gold.Protein.RotatedTorsions>
[ 6907 6896 6895 6894 ] final -134.76 input  -60.11 | X-H torsion
[ 7974 7965 7964 7962 ] final -172.23 input  175.53 | X-H torsion
[ 8008 7997 7996 7995 ] final -127.65 input   59.86 | X-H torsion
[ 10167 10162 10161 10158 ] final  -86.58 input  -65.29 | X-H torsion
[ 10718 10713 10712 10709 ] final -131.08 input   66.30 | X-H torsion
[ 10763 10752 10751 10750 ] final  -95.29 input  -60.55 | X-H torsion
[ 11005 11000 10999 10996 ] final  -50.09 input  -57.11 | X-H torsion

> <Gold.Protein.ActiveResidues>
 VAL166  LYS551  ARG553  GLY616  TRP617  ASP618  TYR619  PRO620  LYS621  CYS622 
 ASP623  PHE694  ASN695  SER759  ASP760  ASP761  ALA762  ILE779  LEU786  VAL792 
 PHE793  MET794  SER795  GLU796  ALA797  LYS798  CYS799  TRP800  GLU811  SER814 

> <Gold.Protein.RotatedAtoms>
  150.9897  133.6162  159.2709 H   0  0  0  0  0  0  0  0  0  0  0  0  # atno 6907 bound_to 6896
  151.3387  135.0858  159.9373 H   0  0  0  0  0  0  0  0  0  0  0  0  # atno 6908 bound_to 6896
  152.5242  133.9512  159.7727 H   0  0  0  0  0  0  0  0  0  0  0  0  # atno 6909 bound_to 6896
  144.7148  140.1803  143.6359 H   0  0  0  0  0  0  0  0  0  0  0  0  # atno 7974 bound_to 7965
  155.2496  140.0432  157.2985 H   0  0  0  0  0  0  0  0  0  0  0  0  # atno 8008 bound_to 7997
  154.5777  140.2392  155.8068 H   0  0  0  0  0  0  0  0  0  0  0  0  # atno 8009 bound_to 7997
  156.2170  140.2981  155.9871 H   0  0  0  0  0  0  0  0  0  0  0  0  # atno 8010 bound_to 7997
  140.3928  143.2697  151.9243 H   0  0  0  0  0  0  0  0  0  0  0  0  # atno 10167 bound_to 10162
  156.2208  130.6977  151.0754 H   0  0  0  0  0  0  0  0  0  0  0  0  # atno 10718 bound_to 10713
  154.7134  135.5126  153.8701 H   0  0  0  0  0  0  0  0  0  0  0  0  # atno 10763 bound_to 10752
  153.0800  135.6628  154.0074 H   0  0  0  0  0  0  0  0  0  0  0  0  # atno 10764 bound_to 10752
  153.9912  135.3019  155.3391 H   0  0  0  0  0  0  0  0  0  0  0  0  # atno 10765 bound_to 10752
  141.0796  133.6656  156.3681 H   0  0  0  0  0  0  0  0  0  0  0  0  # atno 11005 bound_to 11000
  145.8862  139.2350  143.1576 LP  0  0  0  0  0  0  0  0  0  0  0  0  # atno 17320 bound_to 7965
  145.9947  140.8572  143.0049 LP  0  0  0  0  0  0  0  0  0  0  0  0  # atno 17321 bound_to 7965
  139.4788  144.5711  151.8087 LP  0  0  0  0  0  0  0  0  0  0  0  0  # atno 17342 bound_to 10162
  140.4822  144.1433  150.5934 LP  0  0  0  0  0  0  0  0  0  0  0  0  # atno 17343 bound_to 10162
  157.7086  131.0745  150.6579 LP  0  0  0  0  0  0  0  0  0  0  0  0  # atno 17370 bound_to 10713
  156.6642  130.4521  149.5678 LP  0  0  0  0  0  0  0  0  0  0  0  0  # atno 17371 bound_to 10713
  140.5497  134.6040  157.5404 LP  0  0  0  0  0  0  0  0  0  0  0  0  # atno 17394 bound_to 11000
  139.9610  134.7453  156.0238 LP  0  0  0  0  0  0  0  0  0  0  0  0  # atno 17395 bound_to 11000

$$$$
