AV-unprocessed.smi:2451|AV-procd|sdf|9672|dock10
  -GOLD-   2272013313D 1   1.00000     0.00000
 Structure written by MMmdl.
 38 39  0  0  0  0  0  0  0  0  1 V2000
  152.2706  143.2410  161.4713 C   0  0  0  0  0  0  0  0  0  0  0  0
  153.1773  143.1181  160.2291 C   0  0  1  0  0  0  0  0  0  0  0  0
  153.9419  141.7792  160.2186 C   0  0  0  0  0  0  0  0  0  0  0  0
  153.0233  140.5901  159.8973 C   0  0  0  0  0  0  0  0  0  0  0  0
  152.3015  140.7988  158.5594 C   0  0  0  0  0  0  0  0  0  0  0  0
  151.5316  142.1329  158.5214 C   0  0  2  0  0  0  0  0  0  0  0  0
  150.9671  142.3085  157.1798 N   0  0  0  0  0  0  0  0  0  0  0  0
  149.8150  141.1604  156.6074 S   0  0  0  0  0  0  0  0  0  0  0  0
  150.5028  139.8660  156.4859 O   0  0  0  0  0  0  0  0  0  0  0  0
  148.6136  141.2777  157.4488 O   0  0  0  0  0  0  0  0  0  0  0  0
  149.4187  141.7984  154.9254 C   0  0  0  0  0  0  0  0  0  0  0  0
  148.4207  140.8911  154.2649 C   0  0  0  0  0  0  0  0  0  0  0  0
  147.1898  141.2366  153.6412 C   0  0  0  0  0  0  0  0  0  0  0  0
  146.7000  140.0356  153.2157 C   0  0  0  0  0  0  0  0  0  0  0  0
  147.5536  139.0323  153.5419 O   0  0  0  0  0  0  0  0  0  0  0  0
  148.6502  139.5887  154.2103 N   0  0  0  0  0  0  0  0  0  0  0  0
  152.4412  143.3357  158.8790 C   0  0  1  0  0  0  0  0  0  0  0  0
  151.6874  144.6801  158.8405 C   0  0  0  0  0  0  0  0  0  0  0  0
  151.4367  142.5402  161.4437 H   0  0  0  0  0  0  0  0  0  0  0  0
  151.8560  144.2441  161.5681 H   0  0  0  0  0  0  0  0  0  0  0  0
  152.8335  143.0437  162.3839 H   0  0  0  0  0  0  0  0  0  0  0  0
  153.9259  143.9062  160.3212 H   0  0  0  0  0  0  0  0  0  0  0  0
  154.7369  141.8255  159.4731 H   0  0  0  0  0  0  0  0  0  0  0  0
  154.4377  141.6195  161.1768 H   0  0  0  0  0  0  0  0  0  0  0  0
  153.6089  139.6712  159.8606 H   0  0  0  0  0  0  0  0  0  0  0  0
  152.2924  140.4534  160.6947 H   0  0  0  0  0  0  0  0  0  0  0  0
  153.0365  140.7757  157.7533 H   0  0  0  0  0  0  0  0  0  0  0  0
  151.6193  139.9674  158.3767 H   0  0  0  0  0  0  0  0  0  0  0  0
  150.7148  142.0823  159.2424 H   0  0  0  0  0  0  0  0  0  0  0  0
  151.6984  142.4776  156.4896 H   0  0  0  0  0  0  0  0  0  0  0  0
  149.0178  142.8066  155.0275 H   0  0  0  0  0  0  0  0  0  0  0  0
  150.3442  141.8636  154.3527 H   0  0  0  0  0  0  0  0  0  0  0  0
  146.7369  142.2105  153.5288 H   0  0  0  0  0  0  0  0  0  0  0  0
  145.8021  139.7439  152.6912 H   0  0  0  0  0  0  0  0  0  0  0  0
  153.2150  143.3927  158.1113 H   0  0  0  0  0  0  0  0  0  0  0  0
  150.8151  144.6714  159.4943 H   0  0  0  0  0  0  0  0  0  0  0  0
  151.3346  144.9100  157.8349 H   0  0  0  0  0  0  0  0  0  0  0  0
  152.3326  145.5021  159.1510 H   0  0  0  0  0  0  0  0  0  0  0  0
  1  2  1  0  0  0  0
  1 19  1  0  0  0  0
  1 20  1  0  0  0  0
  1 21  1  0  0  0  0
  2 17  1  0  0  0  0
  2  3  1  0  0  0  0
  2 22  1  0  0  0  0
  3  4  1  0  0  0  0
  3 23  1  0  0  0  0
  3 24  1  0  0  0  0
  4  5  1  0  0  0  0
  4 25  1  0  0  0  0
  4 26  1  0  0  0  0
  5  6  1  0  0  0  0
  5 27  1  0  0  0  0
  5 28  1  0  0  0  0
  6  7  1  0  0  0  0
  6 17  1  0  0  0  0
  6 29  1  0  0  0  0
  7  8  1  0  0  0  0
  7 30  1  0  0  0  0
  8  9  2  0  0  0  0
  8 10  2  0  0  0  0
  8 11  1  0  0  0  0
 11 12  1  0  0  0  0
 11 31  1  0  0  0  0
 11 32  1  0  0  0  0
 12 16  2  0  0  0  0
 12 13  1  0  0  0  0
 13 14  2  0  0  0  0
 13 33  1  0  0  0  0
 14 15  1  0  0  0  0
 14 34  1  0  0  0  0
 15 16  1  0  0  0  0
 17 18  1  0  0  0  0
 17 35  1  0  0  0  0
 18 36  1  0  0  0  0
 18 37  1  0  0  0  0
 18 38  1  0  0  0  0
M  END
> <s_m_source_file>
AV-unprocessed.smi

> <i_m_source_file_index>
2451

> <i_lp_mmshare_version>
43012

> <i_f3d_flags>
0

> <s_epik_input>
W0NIM11bQ0BASF0xW0NIMl1bQ0gyXVtDSDJdW0NASF0oW0NASF0xW0NIM10pW05IXVMoPU8pKD1PKVtDSDJdYzJbY0hdW2NIXW9uMg==

> <s_epik_cmdline>
J2VwaWtfcHl0aG9uJywgJy1waCcsICc3LjAnLCAnLXRuJywgJzgnLCAnLW1hJywgJzIwMCcsICctbWV0YWxfYmluZGluZycsICctaW1hZScsICc8aW5maWxlLm1hZT4nLCAnLW9tYWUnLCAnPG91dGZpbGUubWFlPic=

> <r_lp_tautomer_probability>
1

> <r_epik_Ionization_Penalty>
8.73668e-05

> <r_epik_Ionization_Penalty_Charging>
0

> <r_epik_Ionization_Penalty_Neutral>
8.73668e-05

> <r_epik_State_Penalty>
-0

> <r_epik_Charging_Adjusted_Penalty>
0

> <i_epik_Tot_Q>
0

> <i_epik_Tot_abs_Q>
0

> <r_epik_Metal_State_Penalty>
0.0716439

> <b_epik_Metal_Only>
0

> <s_lp_Force_Field>
OPLS_2005

> <r_lp_Energy>
8.38809

> <b_lp_Chiralities_Consistent>
1

> <s_lp_Variant>
AV-unprocessed.smi:2451-4

> <Gold.Version>
5.8.1

> <Gold.Id.Protein>
6NUR|6NUR_protein|mol2

> <Gold.PLP.Fitness>
41.2710

> <Gold.PLP.PLP>
-38.4238

> <Gold.PLP.part.hbond>
0.0000

> <Gold.PLP.part.metal>
0.0000

> <Gold.PLP.part.buried>
-4.0006

> <Gold.PLP.part.nonpolar>
-35.2034

> <Gold.PLP.part.repulsive>
0.5405

> <Gold.PLP.ligand.clash>
0.0000

> <Gold.PLP.ligand.torsion>
0.1448

> <Gold.PLP.Chemscore.Hbond>
0.0000

> <Gold.PLP.Chemscore.CHOScore>
1.0000

> <Gold.PLP.Chemscore.Metal>
0.0000

> <Gold.Chemscore.Hbonds>
donor molecule, donor type, donor heavy atom, donor atom, acceptor molecule, acceptor atom, score
      L1  C    14    34       P1 10175  1.00

> <Gold.PLP.Chemscore.Internal.Correction>
0.1368

> <Gold.Rescore>
     Score         DG    S(hbond)    S(metal)    S(lipo)     H(rot)  DE(clash)    DE(int)     intcor
     13.22     -14.73       0.00        0.00     115.32       1.66       0.14       1.36       ----

> <Gold.Chemscore.Fitness>
13.2244

> <Gold.Chemscore.DG>
-14.7254

> <Gold.Chemscore.ZeroCoef>
-5.4800

> <Gold.Chemscore.Hbond>
0.0000

> <Gold.Chemscore.Metal>
0.0000

> <Gold.Chemscore.Lipo>
115.3164

> <Gold.Chemscore.Internal_Hbond>
0.0000

> <Gold.Chemscore.DEClash>
0.1436

> <Gold.Chemscore.DEInternal>
1.3574

> <Gold.Chemscore.Rot>
1.6588

> <Gold.Chemscore.Internal.Correction>
   9.000000E+99

> <Gold.Chemscore.Hbond.Weighted>
-0.0000

> <Gold.Chemscore.Metal.Weighted>
-0.0000

> <Gold.Chemscore.Lipo.Weighted>
-13.4920

> <Gold.Chemscore.Internal_Hbond.Weighted>
0.0000

> <Gold.Chemscore.DEClash.Weighted>
0.1436

> <Gold.Chemscore.DEInternal.Weighted>
1.3574

> <Gold.Chemscore.Rot.Weighted>
4.2466

> <Gold.Chemscore.Internal.Correction.Weighted>
   9.000000E+99

> <Gold.Protein.RotatedTorsions>
[ 6907 6896 6895 6894 ] final  -78.42 input  -60.11 | X-H torsion
[ 7974 7965 7964 7962 ] final  141.41 input  175.53 | X-H torsion
[ 8008 7997 7996 7995 ] final  120.10 input   59.86 | X-H torsion
[ 10167 10162 10161 10158 ] final -126.08 input  -65.29 | X-H torsion
[ 10718 10713 10712 10709 ] final  157.64 input   66.30 | X-H torsion
[ 10763 10752 10751 10750 ] final  -20.81 input  -60.55 | X-H torsion
[ 11005 11000 10999 10996 ] final  109.37 input  -57.11 | X-H torsion

> <Gold.Protein.ActiveResidues>
 VAL166  LYS551  ARG553  GLY616  TRP617  ASP618  TYR619  PRO620  LYS621  CYS622 
 ASP623  PHE694  ASN695  SER759  ASP760  ASP761  ALA762  ILE779  LEU786  VAL792 
 PHE793  MET794  SER795  GLU796  ALA797  LYS798  CYS799  TRP800  GLU811  SER814 

> <Gold.Protein.RotatedAtoms>
  150.6973  134.4274  159.5232 H   0  0  0  0  0  0  0  0  0  0  0  0  # atno 6907 bound_to 6896
  152.2006  134.8588  160.0517 H   0  0  0  0  0  0  0  0  0  0  0  0  # atno 6908 bound_to 6896
  151.9509  133.3631  159.4036 H   0  0  0  0  0  0  0  0  0  0  0  0  # atno 6909 bound_to 6896
  144.9098  139.5308  143.5714 H   0  0  0  0  0  0  0  0  0  0  0  0  # atno 7974 bound_to 7965
  156.2627  140.2838  156.1097 H   0  0  0  0  0  0  0  0  0  0  0  0  # atno 8008 bound_to 7997
  155.1271  140.0393  157.2782 H   0  0  0  0  0  0  0  0  0  0  0  0  # atno 8009 bound_to 7997
  154.6627  140.2570  155.7097 H   0  0  0  0  0  0  0  0  0  0  0  0  # atno 8010 bound_to 7997
  139.9753  143.5801  152.2398 H   0  0  0  0  0  0  0  0  0  0  0  0  # atno 10167 bound_to 10162
  157.1887  131.0649  151.2091 H   0  0  0  0  0  0  0  0  0  0  0  0  # atno 10718 bound_to 10713
  153.6263  135.6991  153.5292 H   0  0  0  0  0  0  0  0  0  0  0  0  # atno 10763 bound_to 10752
  153.2896  135.4161  155.1154 H   0  0  0  0  0  0  0  0  0  0  0  0  # atno 10764 bound_to 10752
  154.8532  135.3622  154.5804 H   0  0  0  0  0  0  0  0  0  0  0  0  # atno 10765 bound_to 10752
  139.8861  134.9456  156.6115 H   0  0  0  0  0  0  0  0  0  0  0  0  # atno 11005 bound_to 11000
  146.3153  139.7896  142.8988 LP  0  0  0  0  0  0  0  0  0  0  0  0  # atno 17320 bound_to 7965
  145.3473  141.0300  143.3358 LP  0  0  0  0  0  0  0  0  0  0  0  0  # atno 17321 bound_to 7965
  139.6450  144.7657  151.2261 LP  0  0  0  0  0  0  0  0  0  0  0  0  # atno 17342 bound_to 10162
  140.7508  143.6254  150.8474 LP  0  0  0  0  0  0  0  0  0  0  0  0  # atno 17343 bound_to 10162
  157.3881  130.7267  149.6678 LP  0  0  0  0  0  0  0  0  0  0  0  0  # atno 17370 bound_to 10713
  155.9714  130.4154  150.4179 LP  0  0  0  0  0  0  0  0  0  0  0  0  # atno 17371 bound_to 10713
  140.7808  133.8662  155.8566 LP  0  0  0  0  0  0  0  0  0  0  0  0  # atno 17394 bound_to 11000
  140.9762  134.1466  157.4534 LP  0  0  0  0  0  0  0  0  0  0  0  0  # atno 17395 bound_to 11000

$$$$
