AV-unprocessed.smi:1420|AV-procd|sdf|5787|dock8
  -GOLD-   22720 5433D 1   1.00000     0.00000
 Structure written by MMmdl.
 38 39  0  0  0  0  0  0  0  0  1 V2000
  146.0534  137.7779  155.2887 C   0  0  0  0  0  0  0  0  0  0  0  0
  147.4892  137.1938  155.2970 C   0  0  1  0  0  0  0  0  0  0  0  0
  147.4498  135.7585  154.6951 C   0  0  0  0  0  0  0  0  0  0  0  0
  146.9553  135.7184  153.3218 N   0  0  0  0  0  0  0  0  0  0  0  0
  145.7720  135.2113  152.9420 C   0  0  0  0  0  0  0  0  0  0  0  0
  144.9638  134.7138  153.7256 O   0  0  0  0  0  0  0  0  0  0  0  0
  145.4459  135.2817  151.4495 C   0  0  0  0  0  0  0  0  0  0  0  0
  145.3046  133.9543  150.8781 N   0  0  0  0  0  0  0  0  0  0  0  0
  144.1774  133.3687  150.3396 C   0  0  0  0  0  0  0  0  0  0  0  0
  144.5268  132.1133  149.9317 C   0  0  0  0  0  0  0  0  0  0  0  0
  145.9065  132.0204  150.2672 C   0  0  0  0  0  0  0  0  0  0  0  0
  146.3694  133.1232  150.8336 N   0  0  0  0  0  0  0  0  0  0  0  0
  148.4729  138.0817  154.6338 N   0  0  0  0  0  0  0  0  0  0  0  0
  148.3559  139.4769  155.0739 C   0  0  0  0  0  0  0  0  0  0  0  0
  149.3920  140.4023  154.4128 C   0  0  0  0  0  0  0  0  0  0  0  0
  150.7016  139.9186  154.6763 O   0  0  0  0  0  0  0  0  0  0  0  0
  150.8866  138.5946  154.1961 C   0  0  0  0  0  0  0  0  0  0  0  0
  149.8601  137.6549  154.8528 C   0  0  0  0  0  0  0  0  0  0  0  0
  145.3245  137.0983  155.7287 H   0  0  0  0  0  0  0  0  0  0  0  0
  145.7235  137.9987  154.2730 H   0  0  0  0  0  0  0  0  0  0  0  0
  145.9762  138.6923  155.8752 H   0  0  0  0  0  0  0  0  0  0  0  0
  147.7842  137.0955  156.3428 H   0  0  0  0  0  0  0  0  0  0  0  0
  148.4498  135.3238  154.7078 H   0  0  0  0  0  0  0  0  0  0  0  0
  146.8166  135.0872  155.2732 H   0  0  0  0  0  0  0  0  0  0  0  0
  147.5571  136.1034  152.6078 H   0  0  0  0  0  0  0  0  0  0  0  0
  144.5145  135.8284  151.2961 H   0  0  0  0  0  0  0  0  0  0  0  0
  146.2293  135.8287  150.9222 H   0  0  0  0  0  0  0  0  0  0  0  0
  143.2317  133.8887  150.2940 H   0  0  0  0  0  0  0  0  0  0  0  0
  143.8933  131.3738  149.4646 H   0  0  0  0  0  0  0  0  0  0  0  0
  146.5807  131.1899  150.1169 H   0  0  0  0  0  0  0  0  0  0  0  0
  147.3730  139.8753  154.8301 H   0  0  0  0  0  0  0  0  0  0  0  0
  148.4616  139.5328  156.1584 H   0  0  0  0  0  0  0  0  0  0  0  0
  149.2264  140.4619  153.3359 H   0  0  0  0  0  0  0  0  0  0  0  0
  149.3011  141.4145  154.8070 H   0  0  0  0  0  0  0  0  0  0  0  0
  150.7883  138.5754  153.1095 H   0  0  0  0  0  0  0  0  0  0  0  0
  151.9004  138.2702  154.4311 H   0  0  0  0  0  0  0  0  0  0  0  0
  150.0625  137.5887  155.9230 H   0  0  0  0  0  0  0  0  0  0  0  0
  150.0310  136.6649  154.4358 H   0  0  0  0  0  0  0  0  0  0  0  0
  1  2  1  0  0  0  0
  1 19  1  0  0  0  0
  1 20  1  0  0  0  0
  1 21  1  0  0  0  0
  2  3  1  0  0  0  0
  2 13  1  0  0  0  0
  2 22  1  0  0  0  0
  3  4  1  0  0  0  0
  3 23  1  0  0  0  0
  3 24  1  0  0  0  0
  4  5  1  0  0  0  0
  4 25  1  0  0  0  0
  5  6  2  0  0  0  0
  5  7  1  0  0  0  0
  7  8  1  0  0  0  0
  7 26  1  0  0  0  0
  7 27  1  0  0  0  0
  8 12  1  0  0  0  0
  8  9  1  0  0  0  0
  9 10  2  0  0  0  0
  9 28  1  0  0  0  0
 10 11  1  0  0  0  0
 10 29  1  0  0  0  0
 11 12  2  0  0  0  0
 11 30  1  0  0  0  0
 13 18  1  0  0  0  0
 13 14  1  0  0  0  0
 14 15  1  0  0  0  0
 14 31  1  0  0  0  0
 14 32  1  0  0  0  0
 15 16  1  0  0  0  0
 15 33  1  0  0  0  0
 15 34  1  0  0  0  0
 16 17  1  0  0  0  0
 17 18  1  0  0  0  0
 17 35  1  0  0  0  0
 17 36  1  0  0  0  0
 18 37  1  0  0  0  0
 18 38  1  0  0  0  0
M  END
> <s_m_source_file>
AV-unprocessed.smi

> <i_m_source_file_index>
1420

> <i_lp_mmshare_version>
43012

> <i_f3d_flags>
0

> <s_epik_input>
W0NIMl0xW0NIMl1PW0NIMl1bQ0gyXU4xW0NASF0oW0NIM10pW0NIMl1bTkhdQyg9TylbQ0gyXW4yW2NIXVtjSF1bY0hdbjI=

> <s_epik_cmdline>
J2VwaWtfcHl0aG9uJywgJy1waCcsICc3LjAnLCAnLXRuJywgJzgnLCAnLW1hJywgJzIwMCcsICctbWV0YWxfYmluZGluZycsICctaW1hZScsICc8aW5maWxlLm1hZT4nLCAnLW9tYWUnLCAnPG91dGZpbGUubWFlPic=

> <r_lp_tautomer_probability>
1

> <r_epik_Ionization_Penalty>
0.196927

> <r_epik_Ionization_Penalty_Charging>
0

> <r_epik_Ionization_Penalty_Neutral>
0.196927

> <r_epik_State_Penalty>
0.186684

> <r_epik_Charging_Adjusted_Penalty>
0.186684

> <i_epik_Tot_Q>
0

> <i_epik_Tot_abs_Q>
0

> <r_epik_Metal_State_Penalty>
0.186682

> <b_epik_Metal_Only>
0

> <s_lp_Force_Field>
OPLS_2005

> <r_lp_Energy>
28.9216

> <b_lp_Chiralities_Consistent>
1

> <s_lp_Variant>
AV-unprocessed.smi:1420-2

> <Gold.Version>
5.8.1

> <Gold.Id.Protein>
6NUR|6NUR_protein|mol2

> <Gold.PLP.Fitness>
37.9118

> <Gold.PLP.PLP>
-26.2402

> <Gold.PLP.part.hbond>
-1.9490

> <Gold.PLP.part.metal>
0.0000

> <Gold.PLP.part.buried>
-4.9381

> <Gold.PLP.part.nonpolar>
-19.6924

> <Gold.PLP.part.repulsive>
0.4965

> <Gold.PLP.ligand.clash>
0.0000

> <Gold.PLP.ligand.torsion>
0.1916

> <Gold.PLP.Chemscore.Hbond>
2.0000

> <Gold.PLP.Chemscore.CHOScore>
2.0000

> <Gold.PLP.Chemscore.Metal>
0.0000

> <Gold.Chemscore.Hbonds>
donor molecule, donor type, donor heavy atom, donor atom, acceptor molecule, acceptor atom, score
      L1  H     4    25       P1  7948  1.00
      P1  H  7989  7998       L1    16  1.00
      L1  C     9    28       P1 10186  1.00
      L1  C    11    30       P1 10747  1.00

> <Gold.PLP.Chemscore.Internal.Correction>
0.0547

> <Gold.Rescore>
     Score         DG    S(hbond)    S(metal)    S(lipo)     H(rot)  DE(clash)    DE(int)     intcor
     11.83     -12.04       1.19        0.00      62.99       1.87       0.07       0.14       ----

> <Gold.Chemscore.Fitness>
11.8313

> <Gold.Chemscore.DG>
-12.0388

> <Gold.Chemscore.ZeroCoef>
-5.4800

> <Gold.Chemscore.Hbond>
1.1880

> <Gold.Chemscore.Metal>
0.0000

> <Gold.Chemscore.Lipo>
62.9921

> <Gold.Chemscore.Internal_Hbond>
0.0000

> <Gold.Chemscore.DEClash>
0.0678

> <Gold.Chemscore.DEInternal>
0.1397

> <Gold.Chemscore.Rot>
1.8669

> <Gold.Chemscore.Internal.Correction>
   9.000000E+99

> <Gold.Chemscore.Hbonds>
donor molecule, donor type, donor heavy atom, donor atom, acceptor molecule, acceptor atom, score
      L1  H     4    25       P1  7948  0.94
      P1  H  7989  7998       L1    16  0.09

> <Gold.Chemscore.Hbond.Weighted>
-3.9679

> <Gold.Chemscore.Metal.Weighted>
-0.0000

> <Gold.Chemscore.Lipo.Weighted>
-7.3701

> <Gold.Chemscore.Internal_Hbond.Weighted>
0.0000

> <Gold.Chemscore.DEClash.Weighted>
0.0678

> <Gold.Chemscore.DEInternal.Weighted>
0.1397

> <Gold.Chemscore.Rot.Weighted>
4.7792

> <Gold.Chemscore.Internal.Correction.Weighted>
   9.000000E+99

> <Gold.Protein.RotatedTorsions>
[ 6907 6896 6895 6894 ] final   14.82 input  -60.11 | X-H torsion
[ 7974 7965 7964 7962 ] final   31.53 input  175.53 | X-H torsion
[ 8008 7997 7996 7995 ] final  -29.68 input   59.86 | X-H torsion
[ 10167 10162 10161 10158 ] final  -56.39 input  -65.29 | X-H torsion
[ 10718 10713 10712 10709 ] final -127.81 input   66.30 | X-H torsion
[ 10763 10752 10751 10750 ] final -178.06 input  -60.55 | X-H torsion
[ 11005 11000 10999 10996 ] final  130.09 input  -57.11 | X-H torsion

> <Gold.Protein.ActiveResidues>
 VAL166  LYS551  ARG553  GLY616  TRP617  ASP618  TYR619  PRO620  LYS621  CYS622 
 ASP623  PHE694  ASN695  SER759  ASP760  ASP761  ALA762  ILE779  LEU786  VAL792 
 PHE793  MET794  SER795  GLU796  ALA797  LYS798  CYS799  TRP800  GLU811  SER814 

> <Gold.Protein.RotatedAtoms>
  151.8083  135.0688  160.0409 H   0  0  0  0  0  0  0  0  0  0  0  0  # atno 6907 bound_to 6896
  152.3039  133.5678  159.5644 H   0  0  0  0  0  0  0  0  0  0  0  0  # atno 6908 bound_to 6896
  150.7286  134.0168  159.3730 H   0  0  0  0  0  0  0  0  0  0  0  0  # atno 6909 bound_to 6896
  146.1544  139.6644  142.9076 H   0  0  0  0  0  0  0  0  0  0  0  0  # atno 7974 bound_to 7965
  154.4280  140.1811  156.1287 H   0  0  0  0  0  0  0  0  0  0  0  0  # atno 8008 bound_to 7997
  156.0085  140.3353  155.6891 H   0  0  0  0  0  0  0  0  0  0  0  0  # atno 8009 bound_to 7997
  155.6144  140.0653  157.2687 H   0  0  0  0  0  0  0  0  0  0  0  0  # atno 8010 bound_to 7997
  140.6320  143.2464  151.5217 H   0  0  0  0  0  0  0  0  0  0  0  0  # atno 10167 bound_to 10162
  156.1892  130.6783  151.0402 H   0  0  0  0  0  0  0  0  0  0  0  0  # atno 10718 bound_to 10713
  154.5524  135.2814  155.0996 H   0  0  0  0  0  0  0  0  0  0  0  0  # atno 10763 bound_to 10752
  154.2437  135.6352  153.5219 H   0  0  0  0  0  0  0  0  0  0  0  0  # atno 10764 bound_to 10752
  153.0006  135.5566  154.6094 H   0  0  0  0  0  0  0  0  0  0  0  0  # atno 10765 bound_to 10752
  139.9652  134.9592  156.9243 H   0  0  0  0  0  0  0  0  0  0  0  0  # atno 11005 bound_to 11000
  145.4744  141.0437  143.2680 LP  0  0  0  0  0  0  0  0  0  0  0  0  # atno 17320 bound_to 7965
  144.7945  139.6263  143.7099 LP  0  0  0  0  0  0  0  0  0  0  0  0  # atno 17321 bound_to 7965
  139.5533  144.2339  152.1569 LP  0  0  0  0  0  0  0  0  0  0  0  0  # atno 17342 bound_to 10162
  140.1585  144.5048  150.6646 LP  0  0  0  0  0  0  0  0  0  0  0  0  # atno 17343 bound_to 10162
  157.6918  131.0807  150.7085 LP  0  0  0  0  0  0  0  0  0  0  0  0  # atno 17370 bound_to 10713
  156.7142  130.4661  149.5539 LP  0  0  0  0  0  0  0  0  0  0  0  0  # atno 17371 bound_to 10713
  140.5412  134.0718  155.7342 LP  0  0  0  0  0  0  0  0  0  0  0  0  # atno 17394 bound_to 11000
  141.1331  133.9268  157.2492 LP  0  0  0  0  0  0  0  0  0  0  0  0  # atno 17395 bound_to 11000

$$$$
