#       Name:                AV-unprocessed.smi:261
#       Creating user name   scv26
#       Creation time:       Thu Mar 26 21:18:59 2020


#       File generated by GOLD software.
#

@<TRIPOS>MOLECULE
AV-unprocessed.smi:261
    62    65     1
SMALL
NO_CHARGES


@<TRIPOS>ATOM
      1 ****        -5.6473   2.8241  -3.3485 C.3            1 S1                 0.0000
      2 ****        -4.3113   3.1205  -2.9755 O.3            1 S1                 0.0000
      3 ****        -3.7300   2.1445  -2.1229 C.3            1 S1                 0.0000
      4 ****        -3.3791   0.8380  -2.8410 C.3            1 S1                 0.0000
      5 ****        -2.2510   0.2255  -1.9929 C.3            1 S1                 0.0000
      6 ****        -2.8074  -0.7012  -0.8964 C.2            1 S1                 0.0000
      7 ****        -2.9129  -1.9963  -1.2028 N.am           1 S1                 0.0000
      8 ****        -3.1463  -0.2612   0.2013 O.2            1 S1                 0.0000
      9 ****        -1.5797   1.3993  -1.4341 N.pl3          1 S1                 0.0000
     10 ****        -0.3116   1.4195  -0.9369 C.ar           1 S1                 0.0000
     11 ****         0.1671   2.6054  -0.4748 N.ar           1 S1                 0.0000
     12 ****         1.4001   2.6982   0.0284 C.ar           1 S1                 0.0000
     13 ****         2.3168   1.7409   0.1660 N.ar           1 S1                 0.0000
     14 ****         1.8524   0.5447  -0.2937 C.ar           1 S1                 0.0000
     15 ****         0.5666   0.2946  -0.8584 C.ar           1 S1                 0.0000
     16 ****         0.4774  -1.0476  -1.2145 N.2            1 S1                 0.0000
     17 ****         1.6302  -1.5561  -0.8796 C.2            1 S1                 0.0000
     18 ****         2.5110  -0.6730  -0.3009 N.pl3          1 S1                 0.0000
     19 ****         3.8583  -0.9658   0.1590 C.3            1 S1                 0.0000
     20 ****         3.9192  -2.0483   1.2615 C.3            1 S1                 0.0000
     21 ****         5.2811  -2.4108   1.3689 O.3            1 S1                 0.0000
     22 ****         3.4572  -1.5937   2.6655 C.3            1 S1                 0.0000
     23 ****         2.0339  -1.0398   2.7636 C.3            1 S1                 0.0000
     24 ****         1.6550  -1.2709   4.2164 C.3            1 S1                 0.0000
     25 ****         2.6413  -2.3415   4.6850 C.3            1 S1                 0.0000
     26 ****         3.3524  -2.7264   3.5166 O.3            1 S1                 0.0000
     27 ****        -2.3683   2.6149  -1.6106 C.3            1 S1                 0.0000
     28 ****        -4.3793   1.9401  -1.2694 H              1 S1                 0.0000
     29 ****        -1.5819  -0.3311  -2.6496 H              1 S1                 0.0000
     30 ****        -6.0404   3.6327  -3.9644 H              1 S1                 0.0000
     31 ****        -6.2905   2.7270  -2.4729 H              1 S1                 0.0000
     32 ****        -5.7067   1.9042  -3.9309 H              1 S1                 0.0000
     33 ****        -4.2407   0.1793  -2.9597 H              1 S1                 0.0000
     34 ****        -2.9997   1.0593  -3.8398 H              1 S1                 0.0000
     35 ****        -3.2804  -2.6469  -0.5238 H              1 S1                 0.0000
     36 ****        -2.6327  -2.3187  -2.1177 H              1 S1                 0.0000
     37 ****         1.6928   3.6796   0.3712 H              1 S1                 0.0000
     38 ****         1.8673  -2.5977  -1.0411 H              1 S1                 0.0000
     39 ****         4.4245  -1.2928  -0.7145 H              1 S1                 0.0000
     40 ****         4.3311  -0.0458   0.5050 H              1 S1                 0.0000
     41 ****         3.3585  -2.9301   0.9495 H              1 S1                 0.0000
     42 ****         5.7688  -1.6604   1.6723 H              1 S1                 0.0000
     43 ****         4.1596  -0.8756   3.0938 H              1 S1                 0.0000
     44 ****         1.9677   0.0110   2.4835 H              1 S1                 0.0000
     45 ****         1.3614  -1.6088   2.1203 H              1 S1                 0.0000
     46 ****         1.7748  -0.3604   4.8047 H              1 S1                 0.0000
     47 ****         0.6189  -1.5979   4.3079 H              1 S1                 0.0000
     48 ****         3.3396  -1.9292   5.4143 H              1 S1                 0.0000
     49 ****         2.1437  -3.2001   5.1362 H              1 S1                 0.0000
     50 ****        -1.8756   3.2500  -2.3484 H              1 S1                 0.0000
     51 ****        -2.4710   3.1806  -0.6838 H              1 S1                 0.0000
     52 ****        -4.3033   4.0004  -2.5006 LP             1 S1                 0.0000
     53 ****        -3.7579   3.1849  -3.8060 LP             1 S1                 0.0000
     54 ****        -3.0629   0.7161   0.3956 LP             1 S1                 0.0000
     55 ****        -3.5052  -0.8810   0.8992 LP             1 S1                 0.0000
     56 ****        -0.4126   3.4193  -0.5125 LP             1 S1                 0.0000
     57 ****         3.2269   1.8817   0.5557 LP             1 S1                 0.0000
     58 ****        -0.2989  -1.5179  -1.6343 LP             1 S1                 0.0000
     59 ****         5.6252  -2.6975   0.4748 LP             1 S1                 0.0000
     60 ****         5.3794  -3.1628   2.0206 LP             1 S1                 0.0000
     61 ****         4.2659  -3.0472   3.7668 LP             1 S1                 0.0000
     62 ****         2.8594  -3.4584   3.0463 LP             1 S1                 0.0000
@<TRIPOS>BOND
    1    1    2 1     
    2    1   30 1     
    3    1   31 1     
    4    1   32 1     
    5    2    3 1     
    6    3   28 1     
    7    3   27 1     
    8    3    4 1     
    9    4    5 1     
   10    4   33 1     
   11    4   34 1     
   12    5   29 1     
   13    5    6 1     
   14    5    9 1     
   15    6    7 am    
   16    6    8 2     
   17    7   35 1     
   18    7   36 1     
   19    9   10 1     
   20    9   27 1     
   21   10   15 ar    
   22   10   11 ar    
   23   11   12 ar    
   24   12   13 ar    
   25   12   37 1     
   26   13   14 ar    
   27   14   18 1     
   28   14   15 ar    
   29   15   16 1     
   30   16   17 2     
   31   17   18 1     
   32   17   38 1     
   33   18   19 1     
   34   19   20 1     
   35   19   39 1     
   36   19   40 1     
   37   20   21 1     
   38   20   22 1     
   39   20   41 1     
   40   21   42 1     
   41   22   26 1     
   42   22   23 1     
   43   22   43 1     
   44   23   24 1     
   45   23   44 1     
   46   23   45 1     
   47   24   25 1     
   48   24   46 1     
   49   24   47 1     
   50   25   26 1     
   51   25   48 1     
   52   25   49 1     
   53   27   50 1     
   54   27   51 1     
   55    2   52 1     
   56    2   53 1     
   57    8   54 1     
   58    8   55 1     
   59   11   56 1     
   60   13   57 1     
   61   16   58 1     
   62   21   59 1     
   63   21   60 1     
   64   26   61 1     
   65   26   62 1     
@<TRIPOS>SUBSTRUCTURE
      1 S1             1
@<TRIPOS>SET
LONE_PAIRS      STATIC     ATOMS    <user>   **** ""
11 52 53 54 55 56 57 58 59 60 61 62
DONOR_HYDROGENS      STATIC     ATOMS    <user>   **** ""
3 35 36 42
ATOM$BLUE        STATIC     ATOMS    COLORGROUP SYSTEM
11 52 53 54 55 56 57 58 59 60 61 62
ATOM$RED        STATIC     ATOMS    COLORGROUP SYSTEM
3 35 36 42
