AV-unprocessed.smi:481|AV-procd|sdf|2682|dock3
  -GOLD-   2262023103D 1   1.00000     0.00000
 Structure written by MMmdl.
 42 44  0  0  0  0  0  0  0  0  2 V2000
  150.4406  140.2448  155.4204 C   0  0  0  0  0  0  0  0  0  0  0  0
  151.1422  139.5339  154.4156 O   0  0  0  0  0  0  0  0  0  0  0  0
  150.9686  138.1310  154.5228 C   0  0  0  0  0  0  0  0  0  0  0  0
  151.7822  137.6186  155.7175 C   0  0  0  0  0  0  0  0  0  0  0  0
  150.9840  137.5900  156.9394 N   0  0  0  0  0  0  0  0  0  0  0  0
  151.0377  138.4597  157.9799 C   0  0  0  0  0  0  0  0  0  0  0  0
  151.9414  139.5217  157.9519 N   0  0  0  0  0  0  0  0  0  0  0  0
  152.0092  140.3794  158.9549 N   0  0  0  0  0  0  0  0  0  0  0  0
  152.0887  141.6202  158.6324 C   0  0  0  0  0  0  0  0  0  0  0  0
  152.1721  142.6906  159.6373 C   0  0  0  0  0  0  0  0  0  0  0  0
  152.5037  142.4256  160.9874 C   0  0  0  0  0  0  0  0  0  0  0  0
  152.5733  143.4761  161.9233 C   0  0  0  0  0  0  0  0  0  0  0  0
  152.3127  144.7992  161.5194 C   0  0  0  0  0  0  0  0  0  0  0  0
  151.9826  145.0710  160.1783 C   0  0  0  0  0  0  0  0  0  0  0  0
  151.9130  144.0212  159.2418 C   0  0  0  0  0  0  0  0  0  0  0  0
  150.1847  138.1944  158.9747 N   0  0  0  0  0  0  0  0  0  0  0  0
  149.5414  137.0495  158.5274 C   0  0  0  0  0  0  0  0  0  0  0  0
  150.0091  136.6612  157.3113 C   0  0  0  0  0  0  0  0  0  0  0  0
  149.5310  135.4640  156.5890 C   0  0  0  0  0  0  0  0  0  0  0  0
  150.0101  135.1458  155.5023 O   0  0  0  0  0  0  0  0  0  0  0  0
  148.5436  134.8078  157.2775 N   0  5  0  0  0  0  0  0  0  0  0  0
  148.0336  135.1685  158.5072 C   0  0  0  0  0  0  0  0  0  0  0  0
  147.1426  134.5154  159.0509 O   0  0  0  0  0  0  0  0  0  0  0  0
  148.5233  136.2785  159.1485 N   0  0  0  0  0  0  0  0  0  0  0  0
  148.0449  136.7201  160.4622 C   0  0  0  0  0  0  0  0  0  0  0  0
  150.6086  141.3146  155.2976 H   0  0  0  0  0  0  0  0  0  0  0  0
  150.7831  139.9628  156.4168 H   0  0  0  0  0  0  0  0  0  0  0  0
  149.3671  140.0631  155.3540 H   0  0  0  0  0  0  0  0  0  0  0  0
  149.9121  137.8926  154.6544 H   0  0  0  0  0  0  0  0  0  0  0  0
  151.3046  137.6447  153.6055 H   0  0  0  0  0  0  0  0  0  0  0  0
  152.1617  136.6180  155.5093 H   0  0  0  0  0  0  0  0  0  0  0  0
  152.6657  138.2354  155.8775 H   0  0  0  0  0  0  0  0  0  0  0  0
  152.5516  139.6118  157.1524 H   0  0  0  0  0  0  0  0  0  0  0  0
  152.0964  141.9131  157.5801 H   0  0  0  0  0  0  0  0  0  0  0  0
  152.7075  141.4179  161.3202 H   0  0  0  0  0  0  0  0  0  0  0  0
  152.8266  143.2652  162.9520 H   0  0  0  0  0  0  0  0  0  0  0  0
  152.3657  145.6042  162.2373 H   0  0  0  0  0  0  0  0  0  0  0  0
  151.7818  146.0855  159.8666 H   0  0  0  0  0  0  0  0  0  0  0  0
  151.6577  144.2470  158.2165 H   0  0  0  0  0  0  0  0  0  0  0  0
  147.2551  136.0997  160.8865 H   0  0  0  0  0  0  0  0  0  0  0  0
  147.6567  137.7366  160.3927 H   0  0  0  0  0  0  0  0  0  0  0  0
  148.8711  136.7254  161.1739 H   0  0  0  0  0  0  0  0  0  0  0  0
  1  2  1  0  0  0  0
  1 26  1  0  0  0  0
  1 27  1  0  0  0  0
  1 28  1  0  0  0  0
  2  3  1  0  0  0  0
  3  4  1  0  0  0  0
  3 29  1  0  0  0  0
  3 30  1  0  0  0  0
  4  5  1  0  0  0  0
  4 31  1  0  0  0  0
  4 32  1  0  0  0  0
  5 18  1  0  0  0  0
  5  6  1  0  0  0  0
  6  7  1  0  0  0  0
  6 16  2  0  0  0  0
  7  8  1  0  0  0  0
  7 33  1  0  0  0  0
  8  9  2  0  0  0  0
  9 10  1  0  0  0  0
  9 34  1  0  0  0  0
 10 15  1  0  0  0  0
 10 11  2  0  0  0  0
 11 12  1  0  0  0  0
 11 35  1  0  0  0  0
 12 13  2  0  0  0  0
 12 36  1  0  0  0  0
 13 14  1  0  0  0  0
 13 37  1  0  0  0  0
 14 15  2  0  0  0  0
 14 38  1  0  0  0  0
 15 39  1  0  0  0  0
 16 17  1  0  0  0  0
 17 24  1  0  0  0  0
 17 18  2  0  0  0  0
 18 19  1  0  0  0  0
 19 20  2  0  0  0  0
 19 21  1  0  0  0  0
 21 22  1  0  0  0  0
 22 23  2  0  0  0  0
 22 24  1  0  0  0  0
 24 25  1  0  0  0  0
 25 40  1  0  0  0  0
 25 41  1  0  0  0  0
 25 42  1  0  0  0  0
M  CHG  1  21  -1
M  END
> <s_m_source_file>
AV-unprocessed.smi

> <i_m_source_file_index>
481

> <i_lp_mmshare_version>
43012

> <i_f3d_flags>
0

> <s_epik_input>
W0NIM11uMWMoPU8pW25IXWMoPU8pYyhjMTIpbihbQ0gyXVtDSDJdT1tDSDNdKWMobjIpW05IXS9OPVtDSF0vYzNbY0hdW2NIXVtjSF1bY0hdW2NIXTM=

> <s_epik_cmdline>
J2VwaWtfcHl0aG9uJywgJy1waCcsICc3LjAnLCAnLXRuJywgJzgnLCAnLW1hJywgJzIwMCcsICctbWV0YWxfYmluZGluZycsICctaW1hZScsICc8aW5maWxlLm1hZT4nLCAnLW9tYWUnLCAnPG91dGZpbGUubWFlPic=

> <r_epik_Ionization_Penalty>
4.48471

> <r_epik_Ionization_Penalty_Charging>
4.58449e-09

> <r_epik_Ionization_Penalty_Neutral>
4.48471

> <r_epik_State_Penalty>
4.48428

> <r_epik_Charging_Adjusted_Penalty>
4.48428

> <i_epik_Tot_Q>
-1

> <i_epik_Tot_abs_Q>
1

> <r_epik_Metal_State_Penalty>
0.811551

> <b_epik_Metal_Only>
1

> <s_epik_Chemistry_Notes>
This compound has an imine and may undergo hydrolysis.

> <s_lp_Force_Field>
OPLS_2005

> <r_lp_Energy>
36.4971

> <b_lp_Chiralities_Consistent>
1

> <s_lp_Variant>
AV-unprocessed.smi:481-3

> <Gold.Version>
5.8.1

> <Gold.Id.Protein>
6NUR|6NUR_protein|mol2

> <Gold.PLP.Fitness>
42.6723

> <Gold.PLP.PLP>
-41.0258

> <Gold.PLP.part.hbond>
-1.1331

> <Gold.PLP.part.metal>
0.0000

> <Gold.PLP.part.buried>
-4.6715

> <Gold.PLP.part.nonpolar>
-34.7523

> <Gold.PLP.part.repulsive>
0.2964

> <Gold.PLP.ligand.clash>
0.0000

> <Gold.PLP.ligand.torsion>
0.7032

> <Gold.PLP.Chemscore.Hbond>
1.0000

> <Gold.PLP.Chemscore.CHOScore>
0.0000

> <Gold.PLP.Chemscore.Metal>
0.0000

> <Gold.Chemscore.Hbonds>
donor molecule, donor type, donor heavy atom, donor atom, acceptor molecule, acceptor atom, score
      P1  H  7989  7998       L1     2  0.90

> <Gold.PLP.Chemscore.Internal.Correction>
0.0528

> <Gold.Rescore>
     Score         DG    S(hbond)    S(metal)    S(lipo)     H(rot)  DE(clash)    DE(int)     intcor
     16.58     -17.30       0.99        0.00     106.12       1.52       0.14       0.58       ----

> <Gold.Chemscore.Fitness>
16.5789

> <Gold.Chemscore.DG>
-17.2982

> <Gold.Chemscore.ZeroCoef>
-5.4800

> <Gold.Chemscore.Hbond>
0.9882

> <Gold.Chemscore.Metal>
0.0000

> <Gold.Chemscore.Lipo>
106.1236

> <Gold.Chemscore.Internal_Hbond>
0.0000

> <Gold.Chemscore.DEClash>
0.1358

> <Gold.Chemscore.DEInternal>
0.5834

> <Gold.Chemscore.Rot>
1.5230

> <Gold.Chemscore.Internal.Correction>
   9.000000E+99

> <Gold.Chemscore.Hbonds>
donor molecule, donor type, donor heavy atom, donor atom, acceptor molecule, acceptor atom, score
      P1  H  7989  7998       L1     2  0.18

> <Gold.Chemscore.Hbond.Weighted>
-3.3005

> <Gold.Chemscore.Metal.Weighted>
-0.0000

> <Gold.Chemscore.Lipo.Weighted>
-12.4165

> <Gold.Chemscore.Internal_Hbond.Weighted>
0.0000

> <Gold.Chemscore.DEClash.Weighted>
0.1358

> <Gold.Chemscore.DEInternal.Weighted>
0.5834

> <Gold.Chemscore.Rot.Weighted>
3.8989

> <Gold.Chemscore.Internal.Correction.Weighted>
   9.000000E+99

> <Gold.Protein.RotatedTorsions>
[ 6907 6896 6895 6894 ] final  135.91 input  -60.11 | X-H torsion
[ 7974 7965 7964 7962 ] final -154.68 input  175.53 | X-H torsion
[ 8008 7997 7996 7995 ] final   51.69 input   59.86 | X-H torsion
[ 10167 10162 10161 10158 ] final   73.71 input  -65.29 | X-H torsion
[ 10718 10713 10712 10709 ] final  156.07 input   66.30 | X-H torsion
[ 10763 10752 10751 10750 ] final  161.81 input  -60.55 | X-H torsion
[ 11005 11000 10999 10996 ] final  116.33 input  -57.11 | X-H torsion

> <Gold.Protein.ActiveResidues>
 VAL166  LYS551  ARG553  GLY616  TRP617  ASP618  TYR619  PRO620  LYS621  CYS622 
 ASP623  PHE694  ASN695  SER759  ASP760  ASP761  ALA762  ILE779  LEU786  VAL792 
 PHE793  MET794  SER795  GLU796  ALA797  LYS798  CYS799  TRP800  GLU811  SER814 

> <Gold.Protein.RotatedAtoms>
  152.2952  133.5600  159.5582 H   0  0  0  0  0  0  0  0  0  0  0  0  # atno 6907 bound_to 6896
  150.7253  134.0371  159.3762 H   0  0  0  0  0  0  0  0  0  0  0  0  # atno 6908 bound_to 6896
  151.8274  135.0632  160.0483 H   0  0  0  0  0  0  0  0  0  0  0  0  # atno 6909 bound_to 6896
  144.7677  140.4354  143.5930 H   0  0  0  0  0  0  0  0  0  0  0  0  # atno 7974 bound_to 7965
  155.4394  140.3454  155.4288 H   0  0  0  0  0  0  0  0  0  0  0  0  # atno 8008 bound_to 7997
  156.1288  140.1508  156.9127 H   0  0  0  0  0  0  0  0  0  0  0  0  # atno 8009 bound_to 7997
  154.4878  140.0850  156.7507 H   0  0  0  0  0  0  0  0  0  0  0  0  # atno 8010 bound_to 7997
  140.0215  144.5537  150.7578 H   0  0  0  0  0  0  0  0  0  0  0  0  # atno 10167 bound_to 10162
  157.2099  131.0695  151.1975 H   0  0  0  0  0  0  0  0  0  0  0  0  # atno 10718 bound_to 10713
  154.2687  135.2766  155.2747 H   0  0  0  0  0  0  0  0  0  0  0  0  # atno 10763 bound_to 10752
  154.5320  135.5727  153.6770 H   0  0  0  0  0  0  0  0  0  0  0  0  # atno 10764 bound_to 10752
  152.9949  135.6230  154.2841 H   0  0  0  0  0  0  0  0  0  0  0  0  # atno 10765 bound_to 10752
  139.9038  134.9596  156.7181 H   0  0  0  0  0  0  0  0  0  0  0  0  # atno 11005 bound_to 11000
  145.6419  139.1551  143.2911 LP  0  0  0  0  0  0  0  0  0  0  0  0  # atno 17320 bound_to 7965
  146.1798  140.6515  142.9194 LP  0  0  0  0  0  0  0  0  0  0  0  0  # atno 17321 bound_to 7965
  140.7340  143.2724  151.3846 LP  0  0  0  0  0  0  0  0  0  0  0  0  # atno 17342 bound_to 10162
  139.6137  144.1047  152.2324 LP  0  0  0  0  0  0  0  0  0  0  0  0  # atno 17343 bound_to 10162
  157.3683  130.7167  149.6547 LP  0  0  0  0  0  0  0  0  0  0  0  0  # atno 17370 bound_to 10713
  155.9691  130.4206  150.4430 LP  0  0  0  0  0  0  0  0  0  0  0  0  # atno 17371 bound_to 10713
  140.7022  133.9296  155.8031 LP  0  0  0  0  0  0  0  0  0  0  0  0  # atno 17394 bound_to 11000
  141.0363  134.0685  157.3955 LP  0  0  0  0  0  0  0  0  0  0  0  0  # atno 17395 bound_to 11000

$$$$
