AV-unprocessed.smi:2007|AV-procd|sdf|8137|dock8
  -GOLD-   2272010373D 1   1.00000     0.00000
 Structure written by MMmdl.
 35 36  0  0  0  0  0  0  0  0  2 V2000
  151.9954  138.3180  154.6763 C   0  0  0  0  0  0  0  0  0  0  0  0
  151.4030  139.1572  155.8161 C   0  0  2  0  0  0  0  0  0  0  0  0
  150.7292  140.4355  155.2698 C   0  0  0  0  0  0  0  0  0  0  0  0
  149.2762  140.3697  155.1060 N   0  0  0  0  0  0  0  0  0  0  0  0
  148.7397  141.6370  154.6248 C   0  0  0  0  0  0  0  0  0  0  0  0
  147.2100  141.5873  154.4669 C   0  0  0  0  0  0  0  0  0  0  0  0
  146.8548  140.5234  153.5896 O   0  0  0  0  0  0  0  0  0  0  0  0
  147.3259  139.2585  154.0441 C   0  0  0  0  0  0  0  0  0  0  0  0
  148.8555  139.3027  154.2008 C   0  0  0  0  0  0  0  0  0  0  0  0
  152.4737  139.5059  156.7500 N   0  0  0  0  0  0  0  0  0  0  0  0
  152.4896  139.2814  158.0724 C   0  0  0  0  0  0  0  0  0  0  0  0
  151.5419  138.7091  158.6157 O   0  0  0  0  0  0  0  0  0  0  0  0
  153.6038  139.7406  158.6867 N   0  5  0  0  0  0  0  0  0  0  0  0
  153.4966  140.5543  159.7494 C   0  0  0  0  0  0  0  0  0  0  0  0
  152.4777  141.4049  159.9177 N   0  0  0  0  0  0  0  0  0  0  0  0
  152.5655  142.1498  161.0950 C   0  0  0  0  0  0  0  0  0  0  0  0
  153.6722  141.8528  161.8454 C   0  0  0  0  0  0  0  0  0  0  0  0
  154.6437  140.6216  161.0906 S   0  0  0  0  0  0  0  0  0  0  0  0
  151.2226  138.0169  153.9688 H   0  0  0  0  0  0  0  0  0  0  0  0
  152.4615  137.4098  155.0597 H   0  0  0  0  0  0  0  0  0  0  0  0
  152.7540  138.8742  154.1244 H   0  0  0  0  0  0  0  0  0  0  0  0
  150.6618  138.5285  156.3096 H   0  0  0  0  0  0  0  0  0  0  0  0
  150.9710  141.2526  155.9513 H   0  0  0  0  0  0  0  0  0  0  0  0
  151.1850  140.7040  154.3155 H   0  0  0  0  0  0  0  0  0  0  0  0
  149.0027  142.4374  155.3174 H   0  0  0  0  0  0  0  0  0  0  0  0
  149.1942  141.8913  153.6660 H   0  0  0  0  0  0  0  0  0  0  0  0
  146.7262  141.4467  155.4350 H   0  0  0  0  0  0  0  0  0  0  0  0
  146.8399  142.5269  154.0566 H   0  0  0  0  0  0  0  0  0  0  0  0
  146.8493  139.0030  154.9920 H   0  0  0  0  0  0  0  0  0  0  0  0
  147.0402  138.4913  153.3246 H   0  0  0  0  0  0  0  0  0  0  0  0
  149.3156  139.4446  153.2218 H   0  0  0  0  0  0  0  0  0  0  0  0
  149.1938  138.3346  154.5665 H   0  0  0  0  0  0  0  0  0  0  0  0
  153.2753  139.9786  156.3594 H   0  0  0  0  0  0  0  0  0  0  0  0
  151.7929  142.8695  161.3207 H   0  0  0  0  0  0  0  0  0  0  0  0
  153.9737  142.2788  162.7903 H   0  0  0  0  0  0  0  0  0  0  0  0
  1  2  1  0  0  0  0
  1 19  1  0  0  0  0
  1 20  1  0  0  0  0
  1 21  1  0  0  0  0
  2  3  1  0  0  0  0
  2 10  1  0  0  0  0
  2 22  1  0  0  0  0
  3  4  1  0  0  0  0
  3 23  1  0  0  0  0
  3 24  1  0  0  0  0
  4  9  1  0  0  0  0
  4  5  1  0  0  0  0
  5  6  1  0  0  0  0
  5 25  1  0  0  0  0
  5 26  1  0  0  0  0
  6  7  1  0  0  0  0
  6 27  1  0  0  0  0
  6 28  1  0  0  0  0
  7  8  1  0  0  0  0
  8  9  1  0  0  0  0
  8 29  1  0  0  0  0
  8 30  1  0  0  0  0
  9 31  1  0  0  0  0
  9 32  1  0  0  0  0
 10 11  1  0  0  0  0
 10 33  1  0  0  0  0
 11 12  2  0  0  0  0
 11 13  1  0  0  0  0
 13 14  1  0  0  0  0
 14 18  1  0  0  0  0
 14 15  2  0  0  0  0
 15 16  1  0  0  0  0
 16 17  2  0  0  0  0
 16 34  1  0  0  0  0
 17 18  1  0  0  0  0
 17 35  1  0  0  0  0
M  CHG  1  13  -1
M  END
> <s_m_source_file>
AV-unprocessed.smi

> <i_m_source_file_index>
2007

> <i_lp_mmshare_version>
43012

> <i_f3d_flags>
0

> <s_epik_input>
W0NIMl0xW0NIMl1PW0NIMl1bQ0gyXU4xW0NIMl1bQ0BASF0oW0NIM10pW05IXUMoPU8pW05IXWMybltjSF1bY0hdczI=

> <s_epik_cmdline>
J2VwaWtfcHl0aG9uJywgJy1waCcsICc3LjAnLCAnLXRuJywgJzgnLCAnLW1hJywgJzIwMCcsICctbWV0YWxfYmluZGluZycsICctaW1hZScsICc8aW5maWxlLm1hZT4nLCAnLW9tYWUnLCAnPG91dGZpbGUubWFlPic=

> <r_lp_tautomer_probability>
0.999

> <r_epik_Ionization_Penalty>
7.09127

> <r_epik_Ionization_Penalty_Charging>
5.74083

> <r_epik_Ionization_Penalty_Neutral>
1.35044

> <r_epik_State_Penalty>
5.95014

> <r_epik_Charging_Adjusted_Penalty>
11.691

> <i_epik_Tot_Q>
-1

> <i_epik_Tot_abs_Q>
1

> <r_epik_Metal_State_Penalty>
1.93831

> <b_epik_Metal_Only>
1

> <s_lp_Force_Field>
OPLS_2005

> <r_lp_Energy>
21.0216

> <b_lp_Chiralities_Consistent>
1

> <s_lp_Variant>
AV-unprocessed.smi:2007-5

> <Gold.Version>
5.8.1

> <Gold.Id.Protein>
6NUR|6NUR_protein|mol2

> <Gold.PLP.Fitness>
35.8536

> <Gold.PLP.PLP>
-32.3001

> <Gold.PLP.part.hbond>
-1.0000

> <Gold.PLP.part.metal>
0.0000

> <Gold.PLP.part.buried>
-1.6847

> <Gold.PLP.part.nonpolar>
-30.1294

> <Gold.PLP.part.repulsive>
1.3371

> <Gold.PLP.ligand.clash>
0.0000

> <Gold.PLP.ligand.torsion>
1.2571

> <Gold.PLP.Chemscore.Hbond>
2.0000

> <Gold.PLP.Chemscore.CHOScore>
0.0000

> <Gold.PLP.Chemscore.Metal>
0.0000

> <Gold.Chemscore.Hbonds>
donor molecule, donor type, donor heavy atom, donor atom, acceptor molecule, acceptor atom, score
      P1  H  7997  8010       L1    13  2.00

> <Gold.PLP.Chemscore.Internal.Correction>
0.0677

> <Gold.Rescore>
     Score         DG    S(hbond)    S(metal)    S(lipo)     H(rot)  DE(clash)    DE(int)     intcor
     11.01     -12.95       0.85        0.00      73.66       1.55       0.71       1.23       ----

> <Gold.Chemscore.Fitness>
11.0082

> <Gold.Chemscore.DG>
-12.9545

> <Gold.Chemscore.ZeroCoef>
-5.4800

> <Gold.Chemscore.Hbond>
0.8465

> <Gold.Chemscore.Metal>
0.0000

> <Gold.Chemscore.Lipo>
73.6555

> <Gold.Chemscore.Internal_Hbond>
0.0000

> <Gold.Chemscore.DEClash>
0.7139

> <Gold.Chemscore.DEInternal>
1.2324

> <Gold.Chemscore.Rot>
1.5510

> <Gold.Chemscore.Internal.Correction>
   9.000000E+99

> <Gold.Chemscore.Hbonds>
donor molecule, donor type, donor heavy atom, donor atom, acceptor molecule, acceptor atom, score
      P1  H  7997  8010       L1    13  0.48

> <Gold.Chemscore.Hbond.Weighted>
-2.8274

> <Gold.Chemscore.Metal.Weighted>
-0.0000

> <Gold.Chemscore.Lipo.Weighted>
-8.6177

> <Gold.Chemscore.Internal_Hbond.Weighted>
0.0000

> <Gold.Chemscore.DEClash.Weighted>
0.7139

> <Gold.Chemscore.DEInternal.Weighted>
1.2324

> <Gold.Chemscore.Rot.Weighted>
3.9706

> <Gold.Chemscore.Internal.Correction.Weighted>
   9.000000E+99

> <Gold.Protein.RotatedTorsions>
[ 6907 6896 6895 6894 ] final -132.92 input  -60.11 | X-H torsion
[ 7974 7965 7964 7962 ] final  -78.98 input  175.53 | X-H torsion
[ 8008 7997 7996 7995 ] final   11.88 input   59.86 | X-H torsion
[ 10167 10162 10161 10158 ] final  102.52 input  -65.29 | X-H torsion
[ 10718 10713 10712 10709 ] final -170.37 input   66.30 | X-H torsion
[ 10763 10752 10751 10750 ] final  -80.01 input  -60.55 | X-H torsion
[ 11005 11000 10999 10996 ] final  116.19 input  -57.11 | X-H torsion

> <Gold.Protein.ActiveResidues>
 VAL166  LYS551  ARG553  GLY616  TRP617  ASP618  TYR619  PRO620  LYS621  CYS622 
 ASP623  PHE694  ASN695  SER759  ASP760  ASP761  ALA762  ILE779  LEU786  VAL792 
 PHE793  MET794  SER795  GLU796  ALA797  LYS798  CYS799  TRP800  GLU811  SER814 

> <Gold.Protein.RotatedAtoms>
  150.9680  133.6374  159.2742 H   0  0  0  0  0  0  0  0  0  0  0  0  # atno 6907 bound_to 6896
  151.3673  135.0914  159.9463 H   0  0  0  0  0  0  0  0  0  0  0  0  # atno 6908 bound_to 6896
  152.5172  133.9242  159.7603 H   0  0  0  0  0  0  0  0  0  0  0  0  # atno 6909 bound_to 6896
  145.5793  140.9451  143.1352 H   0  0  0  0  0  0  0  0  0  0  0  0  # atno 7974 bound_to 7965
  154.8130  140.2871  155.5840 H   0  0  0  0  0  0  0  0  0  0  0  0  # atno 8008 bound_to 7997
  156.2990  140.2564  156.2952 H   0  0  0  0  0  0  0  0  0  0  0  0  # atno 8009 bound_to 7997
  154.9425  140.0381  157.2093 H   0  0  0  0  0  0  0  0  0  0  0  0  # atno 8010 bound_to 7997
  139.7343  144.7028  151.0674 H   0  0  0  0  0  0  0  0  0  0  0  0  # atno 10167 bound_to 10162
  156.7251  130.9285  151.3100 H   0  0  0  0  0  0  0  0  0  0  0  0  # atno 10718 bound_to 10713
  154.5459  135.5676  153.6879 H   0  0  0  0  0  0  0  0  0  0  0  0  # atno 10763 bound_to 10752
  152.9976  135.6239  154.2440 H   0  0  0  0  0  0  0  0  0  0  0  0  # atno 10764 bound_to 10752
  154.2373  135.2863  155.2847 H   0  0  0  0  0  0  0  0  0  0  0  0  # atno 10765 bound_to 10752
  139.9033  134.9594  156.7161 H   0  0  0  0  0  0  0  0  0  0  0  0  # atno 11005 bound_to 11000
  144.7401  139.7473  143.7314 LP  0  0  0  0  0  0  0  0  0  0  0  0  # atno 17320 bound_to 7965
  146.1727  139.4885  142.9917 LP  0  0  0  0  0  0  0  0  0  0  0  0  # atno 17321 bound_to 7965
  140.7776  143.5004  150.9778 LP  0  0  0  0  0  0  0  0  0  0  0  0  # atno 17342 bound_to 10162
  139.8692  143.7214  152.3167 LP  0  0  0  0  0  0  0  0  0  0  0  0  # atno 17343 bound_to 10162
  157.6882  130.9206  150.0442 LP  0  0  0  0  0  0  0  0  0  0  0  0  # atno 17370 bound_to 10713
  156.1567  130.3643  149.9358 LP  0  0  0  0  0  0  0  0  0  0  0  0  # atno 17371 bound_to 10713
  140.7037  133.9283  155.8040 LP  0  0  0  0  0  0  0  0  0  0  0  0  # atno 17394 bound_to 11000
  141.0352  134.0699  157.3967 LP  0  0  0  0  0  0  0  0  0  0  0  0  # atno 17395 bound_to 11000

$$$$
