#       Name:                AV-unprocessed.smi:634
#       Creating user name   scv26
#       Creation time:       Fri Mar 27 00:06:14 2020


#       File generated by GOLD software.
#

@<TRIPOS>MOLECULE
AV-unprocessed.smi:634
    38    39     1
SMALL
NO_CHARGES


@<TRIPOS>ATOM
      1 ****        -5.6911  -3.0771  -0.8433 C.3            1 S1                 0.0000
      2 ****        -4.4707  -2.2496  -0.6285 C.2            1 S1                 0.0000
      3 ****        -3.1347  -2.5181  -0.7296 C.2            1 S1                 0.0000
      4 ****        -2.5308  -1.2799  -0.3831 C.2            1 S1                 0.0000
      5 ****        -1.1176  -1.1447  -0.3627 N.am           1 S1                 0.0000
      6 ****        -0.3784  -0.0680  -0.0407 C.2            1 S1                 0.0000
      7 ****        -0.9250   0.9969   0.2651 O.2            1 S1                 0.0000
      8 ****         0.9585  -0.3258  -0.1022 N.pl3          1 S1                -1.0000
      9 ****         2.0727   0.5950   0.1903 C.3            1 S1                 0.0000
     10 ****         3.3744  -0.2028  -0.0335 C.3            1 S1                 0.0000
     11 ****         2.0602   1.8376  -0.7413 C.3            1 S1                 0.0000
     12 ****         2.9975   2.9138  -0.1699 C.3            1 S1                 0.0000
     13 ****         2.9673   2.6975   1.6519 S.o2           1 S1                 0.0000
     14 ****         4.3387   2.4533   2.1263 O.2            1 S1                 0.0000
     15 ****         2.1398   3.7519   2.2586 O.2            1 S1                 0.0000
     16 ****         2.0246   1.1204   1.6444 C.3            1 S1                 0.0000
     17 ****        -3.4204  -0.3396  -0.0994 N.2            1 S1                 0.0000
     18 ****        -4.6675  -0.9562  -0.2550 O.3            1 S1                 0.0000
     19 ****        -5.4376  -4.1354  -0.9090 H              1 S1                 0.0000
     20 ****        -6.1931  -2.7903  -1.7672 H              1 S1                 0.0000
     21 ****        -6.3951  -2.9494  -0.0208 H              1 S1                 0.0000
     22 ****        -2.6660  -3.4514  -1.0046 H              1 S1                 0.0000
     23 ****        -0.5960  -1.9730  -0.6083 H              1 S1                 0.0000
     24 ****         4.2622   0.3935   0.1767 H              1 S1                 0.0000
     25 ****         3.4547  -0.5516  -1.0639 H              1 S1                 0.0000
     26 ****         3.4174  -1.0810   0.6122 H              1 S1                 0.0000
     27 ****         2.3263   1.5833  -1.7679 H              1 S1                 0.0000
     28 ****         1.0612   2.2706  -0.7838 H              1 S1                 0.0000
     29 ****         4.0228   2.7736  -0.5142 H              1 S1                 0.0000
     30 ****         2.6827   3.9241  -0.4311 H              1 S1                 0.0000
     31 ****         1.0117   1.3580   1.9674 H              1 S1                 0.0000
     32 ****         2.4510   0.4260   2.3685 H              1 S1                 0.0000
     33 ****        -1.9228   1.0621   0.2742 LP             1 S1                 0.0000
     34 ****        -0.3696   1.7936   0.5034 LP             1 S1                 0.0000
     35 ****         1.2150  -1.2518  -0.3794 LP             1 S1                 0.0000
     36 ****        -3.2397   0.6068   0.1682 LP             1 S1                 0.0000
     37 ****        -5.1671  -0.9283   0.6107 LP             1 S1                 0.0000
     38 ****        -5.1934  -0.4790  -0.9590 LP             1 S1                 0.0000
@<TRIPOS>BOND
    1    1    2 1     
    2    1   19 1     
    3    1   20 1     
    4    1   21 1     
    5    2   18 1     
    6    2    3 2     
    7    3    4 1     
    8    3   22 1     
    9    4    5 1     
   10    4   17 2     
   11    5    6 am    
   12    5   23 1     
   13    6    7 2     
   14    6    8 1     
   15    8    9 1     
   16    9   16 1     
   17    9   10 1     
   18    9   11 1     
   19   10   24 1     
   20   10   25 1     
   21   10   26 1     
   22   11   12 1     
   23   11   27 1     
   24   11   28 1     
   25   12   13 1     
   26   12   29 1     
   27   12   30 1     
   28   13   14 2     
   29   13   15 2     
   30   13   16 1     
   31   16   31 1     
   32   16   32 1     
   33   17   18 1     
   34    7   33 1     
   35    7   34 1     
   36    8   35 1     
   37   17   36 1     
   38   18   37 1     
   39   18   38 1     
@<TRIPOS>SUBSTRUCTURE
      1 S1             1
@<TRIPOS>SET
LONE_PAIRS      STATIC     ATOMS    <user>   **** ""
8 33 34 35 14 15 36 37 38
DONOR_HYDROGENS      STATIC     ATOMS    <user>   **** ""
1 23
ATOM$BLUE        STATIC     ATOMS    COLORGROUP SYSTEM
8 33 34 35 14 15 36 37 38
ATOM$RED        STATIC     ATOMS    COLORGROUP SYSTEM
1 23
