AV-unprocessed.smi:1686|AV-procd|sdf|6763|dock6
  -GOLD-   22720 7523D 1   1.00000     0.00000
 Structure written by MMmdl.
 41 43  0  0  0  0  0  0  0  0  1 V2000
  149.2893  136.4355  155.6312 C   0  0  0  0  0  0  0  0  0  0  0  0
  149.7141  136.7769  157.0306 C   0  0  0  0  0  0  0  0  0  0  0  0
  149.0357  136.2700  158.0517 N   0  0  0  0  0  0  0  0  0  0  0  0
  149.6561  136.7459  159.2125 O   0  0  0  0  0  0  0  0  0  0  0  0
  150.6888  137.5256  158.8184 C   0  0  0  0  0  0  0  0  0  0  0  0
  151.7300  138.3100  159.9393 Cl  0  0  0  0  0  0  0  0  0  0  0  0
  150.7947  137.6029  157.4597 C   0  0  0  0  0  0  0  0  0  0  0  0
  151.7975  138.3579  156.6205 C   0  0  0  0  0  0  0  0  0  0  0  0
  151.3177  139.7785  156.2988 C   0  0  0  0  0  0  0  0  0  0  0  0
  151.1372  140.1453  155.1364 O   0  0  0  0  0  0  0  0  0  0  0  0
  151.1173  140.5755  157.3593 N   0  0  0  0  0  0  0  0  0  0  0  0
  150.6849  141.9706  157.3067 C   0  0  1  0  0  0  0  0  0  0  0  0
  149.1910  142.0211  156.9382 C   0  0  0  0  0  0  0  0  0  0  0  0
  150.9788  142.6633  158.6600 C   0  0  2  0  0  0  0  0  0  0  0  0
  150.5507  144.1510  158.7024 C   0  0  0  0  0  0  0  0  0  0  0  0
  151.8316  144.8774  159.1492 C   0  0  1  0  0  0  0  0  0  0  0  0
  152.1341  144.5326  160.6187 C   0  0  0  0  0  0  0  0  0  0  0  0
  152.6138  143.0720  160.5299 C   0  0  0  0  0  0  0  0  0  0  0  0
  152.4833  142.7615  159.0263 C   0  0  2  0  0  0  0  0  0  0  0  0
  152.9030  144.0906  158.4071 C   0  0  0  0  0  0  0  0  0  0  0  0
  149.9484  136.8878  154.8907 H   0  0  0  0  0  0  0  0  0  0  0  0
  148.2770  136.7879  155.4320 H   0  0  0  0  0  0  0  0  0  0  0  0
  149.3053  135.3574  155.4692 H   0  0  0  0  0  0  0  0  0  0  0  0
  152.7606  138.4219  157.1276 H   0  0  0  0  0  0  0  0  0  0  0  0
  151.9884  137.8421  155.6790 H   0  0  0  0  0  0  0  0  0  0  0  0
  151.2905  140.1909  158.2766 H   0  0  0  0  0  0  0  0  0  0  0  0
  151.2499  142.4853  156.5276 H   0  0  0  0  0  0  0  0  0  0  0  0
  148.8333  143.0463  156.8469 H   0  0  0  0  0  0  0  0  0  0  0  0
  148.5801  141.5228  157.6918 H   0  0  0  0  0  0  0  0  0  0  0  0
  149.0040  141.5299  155.9827 H   0  0  0  0  0  0  0  0  0  0  0  0
  150.4549  142.1093  159.4409 H   0  0  0  0  0  0  0  0  0  0  0  0
  150.2516  144.5105  157.7171 H   0  0  0  0  0  0  0  0  0  0  0  0
  149.7159  144.3233  159.3829 H   0  0  0  0  0  0  0  0  0  0  0  0
  151.8211  145.9481  158.9435 H   0  0  0  0  0  0  0  0  0  0  0  0
  152.9229  145.1722  161.0164 H   0  0  0  0  0  0  0  0  0  0  0  0
  151.2570  144.6449  161.2570 H   0  0  0  0  0  0  0  0  0  0  0  0
  153.6530  142.9917  160.8514 H   0  0  0  0  0  0  0  0  0  0  0  0
  152.0219  142.3990  161.1511 H   0  0  0  0  0  0  0  0  0  0  0  0
  153.0857  141.9067  158.7191 H   0  0  0  0  0  0  0  0  0  0  0  0
  152.7921  144.1220  157.3221 H   0  0  0  0  0  0  0  0  0  0  0  0
  153.9196  144.3890  158.6701 H   0  0  0  0  0  0  0  0  0  0  0  0
  1  2  1  0  0  0  0
  1 21  1  0  0  0  0
  1 22  1  0  0  0  0
  1 23  1  0  0  0  0
  2  7  1  0  0  0  0
  2  3  2  0  0  0  0
  3  4  1  0  0  0  0
  4  5  1  0  0  0  0
  5  6  1  0  0  0  0
  5  7  2  0  0  0  0
  7  8  1  0  0  0  0
  8  9  1  0  0  0  0
  8 24  1  0  0  0  0
  8 25  1  0  0  0  0
  9 10  2  0  0  0  0
  9 11  1  0  0  0  0
 11 12  1  0  0  0  0
 11 26  1  0  0  0  0
 12 13  1  0  0  0  0
 12 14  1  0  0  0  0
 12 27  1  0  0  0  0
 13 28  1  0  0  0  0
 13 29  1  0  0  0  0
 13 30  1  0  0  0  0
 14 19  1  0  0  0  0
 14 15  1  0  0  0  0
 14 31  1  0  0  0  0
 15 16  1  0  0  0  0
 15 32  1  0  0  0  0
 15 33  1  0  0  0  0
 16 20  1  0  0  0  0
 16 17  1  0  0  0  0
 16 34  1  0  0  0  0
 17 18  1  0  0  0  0
 17 35  1  0  0  0  0
 17 36  1  0  0  0  0
 18 19  1  0  0  0  0
 18 37  1  0  0  0  0
 18 38  1  0  0  0  0
 19 20  1  0  0  0  0
 19 39  1  0  0  0  0
 20 40  1  0  0  0  0
 20 41  1  0  0  0  0
M  END
> <s_m_source_file>
AV-unprocessed.smi

> <i_m_source_file_index>
1686

> <i_lp_mmshare_version>
43012

> <i_f3d_flags>
0

> <s_epik_input>
W0NIM11jMW5vYyhDbCljMVtDSDJdQyg9TylbTkhdW0NASF0oW0NIM10pW0NASF0oW0NIMl1bQ0BIXTIzKVtDQEhdKFtDSDJdMylbQ0gyXVtDSDJdMg==

> <s_epik_cmdline>
J2VwaWtfcHl0aG9uJywgJy1waCcsICc3LjAnLCAnLXRuJywgJzgnLCAnLW1hJywgJzIwMCcsICctbWV0YWxfYmluZGluZycsICctaW1hZScsICc8aW5maWxlLm1hZT4nLCAnLW9tYWUnLCAnPG91dGZpbGUubWFlPic=

> <r_lp_tautomer_probability>
1

> <r_epik_Ionization_Penalty>
2.01576e-08

> <r_epik_Ionization_Penalty_Charging>
0

> <r_epik_Ionization_Penalty_Neutral>
2.01576e-08

> <r_epik_State_Penalty>
-0

> <r_epik_Charging_Adjusted_Penalty>
0

> <i_epik_Tot_Q>
0

> <i_epik_Tot_abs_Q>
0

> <r_epik_Metal_State_Penalty>
-0

> <b_epik_Metal_Only>
0

> <s_lp_Force_Field>
OPLS_2005

> <r_lp_Energy>
46.9039

> <b_lp_Chiralities_Consistent>
1

> <s_lp_Variant>
AV-unprocessed.smi:1686-6

> <Gold.Version>
5.8.1

> <Gold.Id.Protein>
6NUR|6NUR_protein|mol2

> <Gold.PLP.Fitness>
46.6010

> <Gold.PLP.PLP>
-41.7711

> <Gold.PLP.part.hbond>
-3.0000

> <Gold.PLP.part.metal>
0.0000

> <Gold.PLP.part.buried>
-6.2209

> <Gold.PLP.part.nonpolar>
-33.6809

> <Gold.PLP.part.repulsive>
0.1324

> <Gold.PLP.ligand.clash>
0.0000

> <Gold.PLP.ligand.torsion>
0.5859

> <Gold.PLP.Chemscore.Hbond>
1.9920

> <Gold.PLP.Chemscore.CHOScore>
0.0000

> <Gold.PLP.Chemscore.Metal>
0.0000

> <Gold.Chemscore.Hbonds>
donor molecule, donor type, donor heavy atom, donor atom, acceptor molecule, acceptor atom, score
      P1  H  7989  7998       L1    10  1.00

> <Gold.PLP.Chemscore.Internal.Correction>
0.0258

> <Gold.Rescore>
     Score         DG    S(hbond)    S(metal)    S(lipo)     H(rot)  DE(clash)    DE(int)     intcor
     20.40     -21.14       1.66        0.00     118.60       1.46       0.04       0.70       ----

> <Gold.Chemscore.Fitness>
20.3997

> <Gold.Chemscore.DG>
-21.1411

> <Gold.Chemscore.ZeroCoef>
-5.4800

> <Gold.Chemscore.Hbond>
1.6573

> <Gold.Chemscore.Metal>
0.0000

> <Gold.Chemscore.Lipo>
118.5962

> <Gold.Chemscore.Internal_Hbond>
0.0000

> <Gold.Chemscore.DEClash>
0.0372

> <Gold.Chemscore.DEInternal>
0.7042

> <Gold.Chemscore.Rot>
1.4648

> <Gold.Chemscore.Internal.Correction>
   9.000000E+99

> <Gold.Chemscore.Hbonds>
donor molecule, donor type, donor heavy atom, donor atom, acceptor molecule, acceptor atom, score
      P1  H  7989  7998       L1    10  0.99

> <Gold.Chemscore.Hbond.Weighted>
-5.5353

> <Gold.Chemscore.Metal.Weighted>
-0.0000

> <Gold.Chemscore.Lipo.Weighted>
-13.8758

> <Gold.Chemscore.Internal_Hbond.Weighted>
0.0000

> <Gold.Chemscore.DEClash.Weighted>
0.0372

> <Gold.Chemscore.DEInternal.Weighted>
0.7042

> <Gold.Chemscore.Rot.Weighted>
3.7500

> <Gold.Chemscore.Internal.Correction.Weighted>
   9.000000E+99

> <Gold.Protein.RotatedTorsions>
[ 6907 6896 6895 6894 ] final  -11.99 input  -60.11 | X-H torsion
[ 7974 7965 7964 7962 ] final  108.53 input  175.53 | X-H torsion
[ 8008 7997 7996 7995 ] final  136.00 input   59.86 | X-H torsion
[ 10167 10162 10161 10158 ] final  135.93 input  -65.29 | X-H torsion
[ 10718 10713 10712 10709 ] final -170.86 input   66.30 | X-H torsion
[ 10763 10752 10751 10750 ] final  -84.82 input  -60.55 | X-H torsion
[ 11005 11000 10999 10996 ] final  153.95 input  -57.11 | X-H torsion

> <Gold.Protein.ActiveResidues>
 VAL166  LYS551  ARG553  GLY616  TRP617  ASP618  TYR619  PRO620  LYS621  CYS622 
 ASP623  PHE694  ASN695  SER759  ASP760  ASP761  ALA762  ILE779  LEU786  VAL792 
 PHE793  MET794  SER795  GLU796  ALA797  LYS798  CYS799  TRP800  GLU811  SER814 

> <Gold.Protein.RotatedAtoms>
  151.3775  135.0934  159.9485 H   0  0  0  0  0  0  0  0  0  0  0  0  # atno 6907 bound_to 6896
  152.5118  133.9104  159.7495 H   0  0  0  0  0  0  0  0  0  0  0  0  # atno 6908 bound_to 6896
  150.9531  133.6472  159.2797 H   0  0  0  0  0  0  0  0  0  0  0  0  # atno 6909 bound_to 6896
  145.2795  139.2638  143.3923 H   0  0  0  0  0  0  0  0  0  0  0  0  # atno 7974 bound_to 7965
  156.3004  140.2456  156.3673 H   0  0  0  0  0  0  0  0  0  0  0  0  # atno 8008 bound_to 7997
  154.8821  140.0412  157.1808 H   0  0  0  0  0  0  0  0  0  0  0  0  # atno 8009 bound_to 7997
  154.8685  140.2931  155.5500 H   0  0  0  0  0  0  0  0  0  0  0  0  # atno 8010 bound_to 7997
  139.5199  144.6491  151.5353 H   0  0  0  0  0  0  0  0  0  0  0  0  # atno 10167 bound_to 10162
  156.7325  130.9311  151.3105 H   0  0  0  0  0  0  0  0  0  0  0  0  # atno 10718 bound_to 10713
  154.6040  135.5507  153.7403 H   0  0  0  0  0  0  0  0  0  0  0  0  # atno 10763 bound_to 10752
  153.0166  135.6373  154.1674 H   0  0  0  0  0  0  0  0  0  0  0  0  # atno 10764 bound_to 10752
  154.1613  135.2897  155.3088 H   0  0  0  0  0  0  0  0  0  0  0  0  # atno 10765 bound_to 10752
  140.1445  134.8717  157.2374 H   0  0  0  0  0  0  0  0  0  0  0  0  # atno 11005 bound_to 11000
  146.3221  140.3259  142.8636 LP  0  0  0  0  0  0  0  0  0  0  0  0  # atno 17320 bound_to 7965
  144.9265  140.7927  143.5715 LP  0  0  0  0  0  0  0  0  0  0  0  0  # atno 17321 bound_to 7965
  140.6289  143.9115  150.6588 LP  0  0  0  0  0  0  0  0  0  0  0  0  # atno 17342 bound_to 10162
  140.2413  143.3662  152.1484 LP  0  0  0  0  0  0  0  0  0  0  0  0  # atno 17343 bound_to 10162
  157.6853  130.9179  150.0370 LP  0  0  0  0  0  0  0  0  0  0  0  0  # atno 17370 bound_to 10713
  156.1519  130.3642  149.9425 LP  0  0  0  0  0  0  0  0  0  0  0  0  # atno 17371 bound_to 10713
  140.2681  134.3492  155.7383 LP  0  0  0  0  0  0  0  0  0  0  0  0  # atno 17394 bound_to 11000
  141.2190  133.7407  156.9182 LP  0  0  0  0  0  0  0  0  0  0  0  0  # atno 17395 bound_to 11000

$$$$
