#       Name:                AV-unprocessed.smi:999
#       Creating user name   scv26
#       Creation time:       Fri Mar 27 02:25:14 2020


#       File generated by GOLD software.
#

@<TRIPOS>MOLECULE
AV-unprocessed.smi:999
    44    45     1
SMALL
NO_CHARGES


@<TRIPOS>ATOM
      1 ****        -2.7220  -2.1780  -2.1360 C.3            1 S1                 0.0000
      2 ****        -2.2636  -1.3466  -0.9201 C.3            1 S1                 0.0000
      3 ****        -0.7348  -1.2199  -0.8325 C.2            1 S1                 0.0000
      4 ****        -0.0029  -2.1036  -1.2805 O.2            1 S1                 0.0000
      5 ****        -0.2684  -0.1050  -0.2484 N.am           1 S1                 0.0000
      6 ****         1.1385   0.2281  -0.0533 C.3            1 S1                 0.0000
      7 ****         1.2752   1.1548   1.1698 C.3            1 S1                 0.0000
      8 ****         2.7304   1.6181   1.3700 C.3            1 S1                 0.0000
      9 ****         3.3075   2.3064   0.1090 C.3            1 S1                 0.0000
     10 ****         2.6844   3.6993  -0.1462 C.2            1 S1                 0.0000
     11 ****         2.6339   4.1109  -1.3265 O.co2          1 S1                 0.0000
     12 ****         2.2910   4.3531   0.8454 O.co2          1 S1                -1.0000
     13 ****         3.1680   1.3562  -1.1059 C.3            1 S1                 0.0000
     14 ****         1.7166   0.8879  -1.3228 C.3            1 S1                 0.0000
     15 ****        -2.8003  -1.8533   0.3379 N.pl3          1 S1                 0.0000
     16 ****        -3.3092  -1.1264   1.3953 C.2            1 S1                 0.0000
     17 ****        -3.6544  -2.0118   2.3757 C.2            1 S1                 0.0000
     18 ****        -3.3009  -3.2759   1.8281 C.2            1 S1                 0.0000
     19 ****        -2.7814  -3.1778   0.6158 N.2            1 S1                 0.0000
     20 ****        -2.3447  -1.7517  -3.0661 H              1 S1                 0.0000
     21 ****        -3.8098  -2.1977  -2.2046 H              1 S1                 0.0000
     22 ****        -2.3755  -3.2108  -2.0835 H              1 S1                 0.0000
     23 ****        -2.6653  -0.3407  -1.0547 H              1 S1                 0.0000
     24 ****        -0.9408   0.5694   0.0867 H              1 S1                 0.0000
     25 ****         1.6988  -0.6857   0.1536 H              1 S1                 0.0000
     26 ****         0.6256   2.0233   1.0523 H              1 S1                 0.0000
     27 ****         0.9318   0.6379   2.0665 H              1 S1                 0.0000
     28 ****         2.7972   2.2713   2.2408 H              1 S1                 0.0000
     29 ****         3.3469   0.7518   1.6117 H              1 S1                 0.0000
     30 ****         4.3698   2.4858   0.2775 H              1 S1                 0.0000
     31 ****         3.5506   1.8211  -2.0153 H              1 S1                 0.0000
     32 ****         3.7986   0.4815  -0.9422 H              1 S1                 0.0000
     33 ****         1.6841   0.1862  -2.1569 H              1 S1                 0.0000
     34 ****         1.0959   1.7359  -1.6152 H              1 S1                 0.0000
     35 ****        -3.3825  -0.0492   1.3622 H              1 S1                 0.0000
     36 ****        -4.0873  -1.7901   3.3398 H              1 S1                 0.0000
     37 ****        -3.4003  -4.2544   2.2742 H              1 S1                 0.0000
     38 ****        -0.4023  -2.9150  -1.7072 LP             1 S1                 0.0000
     39 ****         0.9907  -2.0096  -1.2176 LP             1 S1                 0.0000
     40 ****         2.2604   5.0172  -1.5245 LP             1 S1                 0.0000
     41 ****         2.9670   3.5336  -2.0721 LP             1 S1                 0.0000
     42 ****         1.9059   5.2675   0.7206 LP             1 S1                 0.0000
     43 ****         2.3616   3.9612   1.7627 LP             1 S1                 0.0000
     44 ****        -2.4481  -3.9189   0.0329 LP             1 S1                 0.0000
@<TRIPOS>BOND
    1    1    2 1     
    2    1   20 1     
    3    1   21 1     
    4    1   22 1     
    5    2    3 1     
    6    2   15 1     
    7    2   23 1     
    8    3    4 2     
    9    3    5 am    
   10    5    6 1     
   11    5   24 1     
   12    6   14 1     
   13    6    7 1     
   14    6   25 1     
   15    7    8 1     
   16    7   26 1     
   17    7   27 1     
   18    8    9 1     
   19    8   28 1     
   20    8   29 1     
   21    9   10 1     
   22    9   13 1     
   23    9   30 1     
   24   10   11 ar    
   25   10   12 ar    
   26   13   14 1     
   27   13   31 1     
   28   13   32 1     
   29   14   33 1     
   30   14   34 1     
   31   15   19 1     
   32   15   16 1     
   33   16   17 2     
   34   16   35 1     
   35   17   18 1     
   36   17   36 1     
   37   18   19 2     
   38   18   37 1     
   39    4   38 1     
   40    4   39 1     
   41   11   40 1     
   42   11   41 1     
   43   12   42 1     
   44   12   43 1     
   45   19   44 1     
@<TRIPOS>SUBSTRUCTURE
      1 S1             1
@<TRIPOS>SET
LONE_PAIRS      STATIC     ATOMS    <user>   **** ""
7 38 39 40 41 42 43 44
DONOR_HYDROGENS      STATIC     ATOMS    <user>   **** ""
1 24
ATOM$BLUE        STATIC     ATOMS    COLORGROUP SYSTEM
7 38 39 40 41 42 43 44
ATOM$RED        STATIC     ATOMS    COLORGROUP SYSTEM
1 24
