#       Name:                AV-unprocessed.smi:2226
#       Creating user name   scv26
#       Creation time:       Fri Mar 27 12:21:21 2020


#       File generated by GOLD software.
#

@<TRIPOS>MOLECULE
AV-unprocessed.smi:2226
    45    47     1
SMALL
NO_CHARGES


@<TRIPOS>ATOM
      1 ****        -3.9598  -1.1384  -0.3650 C.3            1 S1                 0.0000
      2 ****        -2.5736  -1.6639  -0.3723 N.4            1 S1                 1.0000
      3 ****        -1.7902  -1.3721   0.8518 C.3            1 S1                 0.0000
      4 ****        -0.5626  -2.3105   0.9027 C.3            1 S1                 0.0000
      5 ****         0.2981  -2.2812  -0.3747 C.3            1 S1                 0.0000
      6 ****        -0.5526  -2.2525  -1.6594 C.3            1 S1                 0.0000
      7 ****        -1.7821  -1.3180  -1.5772 C.3            1 S1                 0.0000
      8 ****        -1.4639   0.1978  -1.6311 C.3            1 S1                 0.0000
      9 ****        -0.9433   0.8280  -0.3155 C.3            1 S1                 0.0000
     10 ****         0.5096   0.9860  -0.3357 N.am           1 S1                 0.0000
     11 ****         1.2163   1.8411   0.4189 C.2            1 S1                 0.0000
     12 ****         0.7065   2.6018   1.2419 O.2            1 S1                 0.0000
     13 ****         2.5306   1.7505   0.1568 N.am           1 S1                 0.0000
     14 ****         3.5836   2.4784   0.7658 C.2            1 S1                 0.0000
     15 ****         3.4648   3.3843   1.7375 N.2            1 S1                 0.0000
     16 ****         4.7645   3.8011   1.9871 C.2            1 S1                 0.0000
     17 ****         5.6024   3.1167   1.1446 C.2            1 S1                 0.0000
     18 ****         4.8644   2.2699   0.3617 O.3            1 S1                 0.0000
     19 ****        -1.4679   0.1381   0.9732 C.3            1 S1                 0.0000
     20 ****        -3.9892  -0.0493  -0.3357 H              1 S1                 0.0000
     21 ****        -4.5033  -1.5136   0.5025 H              1 S1                 0.0000
     22 ****        -4.4954  -1.4666  -1.2561 H              1 S1                 0.0000
     23 ****        -2.4090  -1.6368   1.7106 H              1 S1                 0.0000
     24 ****         0.0538  -2.0861   1.7739 H              1 S1                 0.0000
     25 ****        -0.9210  -3.3307   1.0466 H              1 S1                 0.0000
     26 ****         0.9766  -1.4355  -0.3520 H              1 S1                 0.0000
     27 ****         0.9525  -3.1533  -0.3918 H              1 S1                 0.0000
     28 ****         0.0703  -1.9909  -2.5154 H              1 S1                 0.0000
     29 ****        -0.9092  -3.2656  -1.8511 H              1 S1                 0.0000
     30 ****        -2.3943  -1.5468  -2.4509 H              1 S1                 0.0000
     31 ****        -0.7848   0.4117  -2.4579 H              1 S1                 0.0000
     32 ****        -2.3866   0.7152  -1.8963 H              1 S1                 0.0000
     33 ****        -1.3277   1.8501  -0.3031 H              1 S1                 0.0000
     34 ****         1.0177   0.4043  -0.9858 H              1 S1                 0.0000
     35 ****         2.8110   1.0892  -0.5520 H              1 S1                 0.0000
     36 ****         4.9898   4.5449   2.7372 H              1 S1                 0.0000
     37 ****         6.6709   3.1158   0.9878 H              1 S1                 0.0000
     38 ****        -2.3901   0.6460   1.2573 H              1 S1                 0.0000
     39 ****        -0.7970   0.3082   1.8157 H              1 S1                 0.0000
     40 ****        -2.6796  -2.6682  -0.3946 H              1 S1                 0.0000
     41 ****        -0.2846   2.6029   1.3750 LP             1 S1                 0.0000
     42 ****         1.2835   3.2186   1.7772 LP             1 S1                 0.0000
     43 ****         2.6263   3.6940   2.1860 LP             1 S1                 0.0000
     44 ****         4.9727   2.4962  -0.6063 LP             1 S1                 0.0000
     45 ****         5.1346   1.3193   0.5141 LP             1 S1                 0.0000
@<TRIPOS>BOND
    1    1    2 1     
    2    1   20 1     
    3    1   21 1     
    4    1   22 1     
    5    2    7 1     
    6    2    3 1     
    7    2   40 1     
    8    3   19 1     
    9    3    4 1     
   10    3   23 1     
   11    4    5 1     
   12    4   24 1     
   13    4   25 1     
   14    5    6 1     
   15    5   26 1     
   16    5   27 1     
   17    6    7 1     
   18    6   28 1     
   19    6   29 1     
   20    7    8 1     
   21    7   30 1     
   22    8    9 1     
   23    8   31 1     
   24    8   32 1     
   25    9   10 1     
   26    9   19 1     
   27    9   33 1     
   28   10   11 am    
   29   10   34 1     
   30   11   12 2     
   31   11   13 am    
   32   13   14 1     
   33   13   35 1     
   34   14   18 1     
   35   14   15 2     
   36   15   16 1     
   37   16   17 2     
   38   16   36 1     
   39   17   18 1     
   40   17   37 1     
   41   19   38 1     
   42   19   39 1     
   43   12   41 1     
   44   12   42 1     
   45   15   43 1     
   46   18   44 1     
   47   18   45 1     
@<TRIPOS>SUBSTRUCTURE
      1 S1             1
@<TRIPOS>SET
LONE_PAIRS      STATIC     ATOMS    <user>   **** ""
5 41 42 43 44 45
DONOR_HYDROGENS      STATIC     ATOMS    <user>   **** ""
3 40 34 35
ATOM$BLUE        STATIC     ATOMS    COLORGROUP SYSTEM
5 41 42 43 44 45
ATOM$RED        STATIC     ATOMS    COLORGROUP SYSTEM
3 40 34 35
