AV-unprocessed.smi:3303|AV-procd|sdf|12664|dock6
  -GOLD-   2272019 03D 1   1.00000     0.00000
 Structure written by MMmdl.
 45 46  0  0  0  0  0  0  0  0  3 V2000
  152.6841  138.8486  154.6723 C   0  0  0  0  0  0  0  0  0  0  0  0
  151.2674  138.3373  154.3612 C   0  0  1  0  0  0  0  0  0  0  0  0
  151.0325  136.9105  154.8944 C   0  0  0  0  0  0  0  0  0  0  0  0
  149.6950  136.3879  154.5083 N   0  3  1  0  0  0  0  0  0  0  0  0
  149.5471  134.9676  154.9096 C   0  0  0  0  0  0  0  0  0  0  0  0
  148.5852  137.2705  154.9805 C   0  0  2  0  0  0  0  0  0  0  0  0
  147.1980  136.7629  154.5405 C   0  0  0  0  0  0  0  0  0  0  0  0
  148.7861  138.7182  154.4761 C   0  0  0  0  0  0  0  0  0  0  0  0
  150.1618  139.3007  154.8407 C   0  0  1  0  0  0  0  0  0  0  0  0
  150.2471  139.5724  156.2964 N   0  3  0  0  0  0  0  0  0  0  0  0
  150.5217  140.9801  156.6481 C   0  0  0  0  0  0  0  0  0  0  0  0
  150.6713  141.1507  158.1655 C   0  0  0  0  0  0  0  0  0  0  0  0
  151.1672  142.5346  158.5384 C   0  0  0  0  0  0  0  0  0  0  0  0
  151.4658  143.4882  157.5418 C   0  0  0  0  0  0  0  0  0  0  0  0
  151.9161  144.7603  157.9456 C   0  0  0  0  0  0  0  0  0  0  0  0
  152.0492  145.0276  159.3219 C   0  0  0  0  0  0  0  0  0  0  0  0
  151.7235  144.0076  160.2379 C   0  0  0  0  0  0  0  0  0  0  0  0
  151.2889  142.7851  159.8613 N   0  0  0  0  0  0  0  0  0  0  0  0
  152.8729  138.8935  155.7453 H   0  0  0  0  0  0  0  0  0  0  0  0
  152.8399  139.8476  154.2637 H   0  0  0  0  0  0  0  0  0  0  0  0
  153.4396  138.1955  154.2344 H   0  0  0  0  0  0  0  0  0  0  0  0
  151.1942  138.2851  153.2734 H   0  0  0  0  0  0  0  0  0  0  0  0
  151.8025  136.2504  154.4924 H   0  0  0  0  0  0  0  0  0  0  0  0
  151.1355  136.8850  155.9806 H   0  0  0  0  0  0  0  0  0  0  0  0
  149.4506  134.8743  155.9921 H   0  0  0  0  0  0  0  0  0  0  0  0
  150.4131  134.3837  154.5965 H   0  0  0  0  0  0  0  0  0  0  0  0
  148.6773  134.5074  154.4421 H   0  0  0  0  0  0  0  0  0  0  0  0
  148.6062  137.2788  156.0717 H   0  0  0  0  0  0  0  0  0  0  0  0
  146.4185  137.4751  154.8131 H   0  0  0  0  0  0  0  0  0  0  0  0
  146.9345  135.8198  155.0190 H   0  0  0  0  0  0  0  0  0  0  0  0
  147.1496  136.6206  153.4601 H   0  0  0  0  0  0  0  0  0  0  0  0
  148.6745  138.7347  153.3907 H   0  0  0  0  0  0  0  0  0  0  0  0
  147.9988  139.3656  154.8659 H   0  0  0  0  0  0  0  0  0  0  0  0
  150.2741  140.2436  154.3018 H   0  0  0  0  0  0  0  0  0  0  0  0
  149.3713  139.3090  156.7251 H   0  0  0  0  0  0  0  0  0  0  0  0
  151.4342  141.3058  156.1466 H   0  0  0  0  0  0  0  0  0  0  0  0
  149.7064  141.6043  156.2788 H   0  0  0  0  0  0  0  0  0  0  0  0
  149.7150  140.9741  158.6602 H   0  0  0  0  0  0  0  0  0  0  0  0
  151.3629  140.4042  158.5587 H   0  0  0  0  0  0  0  0  0  0  0  0
  151.3542  143.2553  156.4928 H   0  0  0  0  0  0  0  0  0  0  0  0
  152.1552  145.5170  157.2130 H   0  0  0  0  0  0  0  0  0  0  0  0
  152.3925  145.9916  159.6675 H   0  0  0  0  0  0  0  0  0  0  0  0
  151.8126  144.1783  161.3005 H   0  0  0  0  0  0  0  0  0  0  0  0
  150.9815  138.9998  156.6876 H   0  0  0  0  0  0  0  0  0  0  0  0
  149.6652  136.3995  153.4983 H   0  0  0  0  0  0  0  0  0  0  0  0
  1  2  1  0  0  0  0
  1 19  1  0  0  0  0
  1 20  1  0  0  0  0
  1 21  1  0  0  0  0
  2  9  1  0  0  0  0
  2  3  1  0  0  0  0
  2 22  1  0  0  0  0
  3  4  1  0  0  0  0
  3 23  1  0  0  0  0
  3 24  1  0  0  0  0
  4  5  1  0  0  0  0
  4  6  1  0  0  0  0
  4 45  1  0  0  0  0
  5 25  1  0  0  0  0
  5 26  1  0  0  0  0
  5 27  1  0  0  0  0
  6  7  1  0  0  0  0
  6  8  1  0  0  0  0
  6 28  1  0  0  0  0
  7 29  1  0  0  0  0
  7 30  1  0  0  0  0
  7 31  1  0  0  0  0
  8  9  1  0  0  0  0
  8 32  1  0  0  0  0
  8 33  1  0  0  0  0
  9 10  1  0  0  0  0
  9 34  1  0  0  0  0
 10 11  1  0  0  0  0
 10 35  1  0  0  0  0
 10 44  1  0  0  0  0
 11 12  1  0  0  0  0
 11 36  1  0  0  0  0
 11 37  1  0  0  0  0
 12 13  1  0  0  0  0
 12 38  1  0  0  0  0
 12 39  1  0  0  0  0
 13 18  1  0  0  0  0
 13 14  2  0  0  0  0
 14 15  1  0  0  0  0
 14 40  1  0  0  0  0
 15 16  2  0  0  0  0
 15 41  1  0  0  0  0
 16 17  1  0  0  0  0
 16 42  1  0  0  0  0
 17 18  2  0  0  0  0
 17 43  1  0  0  0  0
M  CHG  1   4   1
M  CHG  1  10   1
M  END
> <s_m_source_file>
AV-unprocessed.smi

> <i_m_source_file_index>
3303

> <i_lp_mmshare_version>
43012

> <i_f3d_flags>
0

> <s_epik_input>
W0NIM11bQ0BASF0xW0NIMl1OKFtDSDNdKVtDQEBIXShbQ0gzXSlbQ0gyXVtDQEhdMVtOSF1bQ0gyXVtDSDJdYzJbY0hdW2NIXVtjSF1bY0hdbjI=

> <s_epik_cmdline>
J2VwaWtfcHl0aG9uJywgJy1waCcsICc3LjAnLCAnLXRuJywgJzgnLCAnLW1hJywgJzIwMCcsICctbWV0YWxfYmluZGluZycsICctaW1hZScsICc8aW5maWxlLm1hZT4nLCAnLW9tYWUnLCAnPG91dGZpbGUubWFlPic=

> <r_epik_Ionization_Penalty>
0.0769462

> <r_epik_Ionization_Penalty_Charging>
0.0759813

> <r_epik_Ionization_Penalty_Neutral>
0.000964829

> <r_epik_State_Penalty>
0.0654373

> <r_epik_Charging_Adjusted_Penalty>
0.141419

> <i_epik_Tot_Q>
2

> <i_epik_Tot_abs_Q>
2

> <r_epik_Metal_State_Penalty>
0.0656439

> <b_epik_Metal_Only>
0

> <s_lp_Force_Field>
OPLS_2005

> <r_lp_Energy>
34.3244

> <b_lp_Chiralities_Consistent>
1

> <s_lp_Variant>
AV-unprocessed.smi:3303-8

> <Gold.Version>
5.8.1

> <Gold.Id.Protein>
6NUR|6NUR_protein|mol2

> <Gold.PLP.Fitness>
43.1276

> <Gold.PLP.PLP>
-38.6494

> <Gold.PLP.part.hbond>
-1.7256

> <Gold.PLP.part.metal>
0.0000

> <Gold.PLP.part.buried>
-5.0937

> <Gold.PLP.part.nonpolar>
-32.1291

> <Gold.PLP.part.repulsive>
0.0759

> <Gold.PLP.ligand.clash>
0.0000

> <Gold.PLP.ligand.torsion>
0.7733

> <Gold.PLP.Chemscore.Hbond>
2.0000

> <Gold.PLP.Chemscore.CHOScore>
0.0000

> <Gold.PLP.Chemscore.Metal>
0.0000

> <Gold.Chemscore.Hbonds>
donor molecule, donor type, donor heavy atom, donor atom, acceptor molecule, acceptor atom, score
      L1  H     4    45       P1  7948  2.00

> <Gold.PLP.Chemscore.Internal.Correction>
0.0248

> <Gold.Rescore>
     Score         DG    S(hbond)    S(metal)    S(lipo)     H(rot)  DE(clash)    DE(int)     intcor
     17.58     -18.53       0.98        0.00     113.79       1.37       0.17       0.78       ----

> <Gold.Chemscore.Fitness>
17.5782

> <Gold.Chemscore.DG>
-18.5339

> <Gold.Chemscore.ZeroCoef>
-5.4800

> <Gold.Chemscore.Hbond>
0.9757

> <Gold.Chemscore.Metal>
0.0000

> <Gold.Chemscore.Lipo>
113.7899

> <Gold.Chemscore.Internal_Hbond>
0.0000

> <Gold.Chemscore.DEClash>
0.1745

> <Gold.Chemscore.DEInternal>
0.7812

> <Gold.Chemscore.Rot>
1.3744

> <Gold.Chemscore.Internal.Correction>
   9.000000E+99

> <Gold.Chemscore.Hbonds>
donor molecule, donor type, donor heavy atom, donor atom, acceptor molecule, acceptor atom, score
      L1  H     4    45       P1  7948  0.39

> <Gold.Chemscore.Hbond.Weighted>
-3.2590

> <Gold.Chemscore.Metal.Weighted>
-0.0000

> <Gold.Chemscore.Lipo.Weighted>
-13.3134

> <Gold.Chemscore.Internal_Hbond.Weighted>
0.0000

> <Gold.Chemscore.DEClash.Weighted>
0.1745

> <Gold.Chemscore.DEInternal.Weighted>
0.7812

> <Gold.Chemscore.Rot.Weighted>
3.5185

> <Gold.Chemscore.Internal.Correction.Weighted>
   9.000000E+99

> <Gold.Protein.RotatedTorsions>
[ 6907 6896 6895 6894 ] final -133.87 input  -60.11 | X-H torsion
[ 7974 7965 7964 7962 ] final -163.88 input  175.53 | X-H torsion
[ 8008 7997 7996 7995 ] final  -78.53 input   59.86 | X-H torsion
[ 10167 10162 10161 10158 ] final  -40.72 input  -65.29 | X-H torsion
[ 10718 10713 10712 10709 ] final   49.78 input   66.30 | X-H torsion
[ 10763 10752 10751 10750 ] final -113.22 input  -60.55 | X-H torsion
[ 11005 11000 10999 10996 ] final   42.34 input  -57.11 | X-H torsion

> <Gold.Protein.ActiveResidues>
 VAL166  LYS551  ARG553  GLY616  TRP617  ASP618  TYR619  PRO620  LYS621  CYS622 
 ASP623  PHE694  ASN695  SER759  ASP760  ASP761  ALA762  ILE779  LEU786  VAL792 
 PHE793  MET794  SER795  GLU796  ALA797  LYS798  CYS799  TRP800  GLU811  SER814 

> <Gold.Protein.RotatedAtoms>
  150.9792  133.6263  159.2725 H   0  0  0  0  0  0  0  0  0  0  0  0  # atno 6907 bound_to 6896
  151.3524  135.0886  159.9417 H   0  0  0  0  0  0  0  0  0  0  0  0  # atno 6908 bound_to 6896
  152.5209  133.9382  159.7668 H   0  0  0  0  0  0  0  0  0  0  0  0  # atno 6909 bound_to 6896
  144.7313  140.3042  143.6199 H   0  0  0  0  0  0  0  0  0  0  0  0  # atno 7974 bound_to 7965
  154.5698  140.0693  156.8947 H   0  0  0  0  0  0  0  0  0  0  0  0  # atno 8008 bound_to 7997
  155.2656  140.3361  155.4251 H   0  0  0  0  0  0  0  0  0  0  0  0  # atno 8009 bound_to 7997
  156.2109  140.1759  156.7682 H   0  0  0  0  0  0  0  0  0  0  0  0  # atno 8010 bound_to 7997
  140.7025  143.3136  151.2965 H   0  0  0  0  0  0  0  0  0  0  0  0  # atno 10167 bound_to 10162
  157.4821  130.8321  149.8105 H   0  0  0  0  0  0  0  0  0  0  0  0  # atno 10718 bound_to 10713
  154.8386  135.4462  154.1315 H   0  0  0  0  0  0  0  0  0  0  0  0  # atno 10763 bound_to 10752
  153.2524  135.6928  153.7671 H   0  0  0  0  0  0  0  0  0  0  0  0  # atno 10764 bound_to 10752
  153.6978  135.3377  155.3193 H   0  0  0  0  0  0  0  0  0  0  0  0  # atno 10765 bound_to 10752
  140.1749  134.4176  155.8235 H   0  0  0  0  0  0  0  0  0  0  0  0  # atno 11005 bound_to 11000
  145.7730  139.1864  143.2201 LP  0  0  0  0  0  0  0  0  0  0  0  0  # atno 17320 bound_to 7965
  146.0895  140.7671  142.9602 LP  0  0  0  0  0  0  0  0  0  0  0  0  # atno 17321 bound_to 7965
  139.6568  144.0262  152.2665 LP  0  0  0  0  0  0  0  0  0  0  0  0  # atno 17342 bound_to 10162
  139.9816  144.6424  150.7895 LP  0  0  0  0  0  0  0  0  0  0  0  0  # atno 17343 bound_to 10162
  156.0127  130.3826  150.2212 LP  0  0  0  0  0  0  0  0  0  0  0  0  # atno 17370 bound_to 10713
  157.0398  131.0032  151.3287 LP  0  0  0  0  0  0  0  0  0  0  0  0  # atno 17371 bound_to 10713
  141.2220  133.6973  156.7828 LP  0  0  0  0  0  0  0  0  0  0  0  0  # atno 17394 bound_to 11000
  140.2335  134.8668  157.3500 LP  0  0  0  0  0  0  0  0  0  0  0  0  # atno 17395 bound_to 11000

$$$$
