AV-unprocessed.smi:657|AV-procd|sdf|3227|dock10
  -GOLD-   22720 0173D 1   1.00000     0.00000
 Structure written by MMmdl.
 46 47  0  0  0  0  0  0  0  0  3 V2000
  151.6748  137.5977  154.1811 C   0  0  0  0  0  0  0  0  0  0  0  0
  150.4673  136.9675  154.9083 C   0  0  0  0  0  0  0  0  0  0  0  0
  150.6137  135.4327  154.8437 C   0  0  0  0  0  0  0  0  0  0  0  0
  149.1491  137.4403  154.3609 N   0  3  1  0  0  0  0  0  0  0  0  0
  147.9574  136.9121  155.0984 C   0  0  0  0  0  0  0  0  0  0  0  0
  146.6265  137.2985  154.4301 C   0  0  0  0  0  0  0  0  0  0  0  0
  146.5149  138.8095  154.2248 C   0  0  0  0  0  0  0  0  0  0  0  0
  147.7200  139.2856  153.4086 C   0  0  0  0  0  0  0  0  0  0  0  0
  149.0643  138.9159  154.0768 C   0  0  1  0  0  0  0  0  0  0  0  0
  149.3640  139.8383  155.2852 C   0  0  0  0  0  0  0  0  0  0  0  0
  148.6283  139.7973  156.2769 O   0  0  0  0  0  0  0  0  0  0  0  0
  150.4495  140.6238  155.0382 N   0  5  0  0  0  0  0  0  0  0  0  0
  151.4566  140.9640  156.0455 C   0  0  0  0  0  0  0  0  0  0  0  0
  150.7850  141.3972  157.3694 C   0  0  0  0  0  0  0  0  0  0  0  0
  151.7574  141.8753  158.4256 C   0  0  0  0  0  0  0  0  0  0  0  0
  152.5114  143.0857  158.4594 C   0  0  0  0  0  0  0  0  0  0  0  0
  153.2940  143.1775  159.5226 N   0  0  0  0  0  0  0  0  0  0  0  0
  153.0634  142.0391  160.2074 N   0  0  0  0  0  0  0  0  0  0  0  0
  153.7725  141.7924  161.4442 C   0  0  0  0  0  0  0  0  0  0  0  0
  152.1312  141.2433  159.5792 C   0  0  0  0  0  0  0  0  0  0  0  0
  152.6125  137.1660  154.5318 H   0  0  0  0  0  0  0  0  0  0  0  0
  151.7534  138.6698  154.3596 H   0  0  0  0  0  0  0  0  0  0  0  0
  151.6208  137.4349  153.1042 H   0  0  0  0  0  0  0  0  0  0  0  0
  150.5279  137.2527  155.9593 H   0  0  0  0  0  0  0  0  0  0  0  0
  151.6218  135.1230  155.1208 H   0  0  0  0  0  0  0  0  0  0  0  0
  150.4201  135.0554  153.8391 H   0  0  0  0  0  0  0  0  0  0  0  0
  149.9448  134.9236  155.5367 H   0  0  0  0  0  0  0  0  0  0  0  0
  147.9794  135.8249  155.1285 H   0  0  0  0  0  0  0  0  0  0  0  0
  147.9699  137.2424  156.1363 H   0  0  0  0  0  0  0  0  0  0  0  0
  146.5427  136.7934  153.4670 H   0  0  0  0  0  0  0  0  0  0  0  0
  145.7917  136.9449  155.0360 H   0  0  0  0  0  0  0  0  0  0  0  0
  145.5883  139.0532  153.7048 H   0  0  0  0  0  0  0  0  0  0  0  0
  146.4752  139.3205  155.1874 H   0  0  0  0  0  0  0  0  0  0  0  0
  147.6790  138.8369  152.4152 H   0  0  0  0  0  0  0  0  0  0  0  0
  147.6562  140.3623  153.2477 H   0  0  0  0  0  0  0  0  0  0  0  0
  149.8105  139.1174  153.3071 H   0  0  0  0  0  0  0  0  0  0  0  0
  152.1450  140.1416  156.2458 H   0  0  0  0  0  0  0  0  0  0  0  0
  152.0863  141.7822  155.6956 H   0  0  0  0  0  0  0  0  0  0  0  0
  150.0657  142.1853  157.1457 H   0  0  0  0  0  0  0  0  0  0  0  0
  150.1882  140.5674  157.7502 H   0  0  0  0  0  0  0  0  0  0  0  0
  152.5226  143.8884  157.7368 H   0  0  0  0  0  0  0  0  0  0  0  0
  153.6083  140.7645  161.7690 H   0  0  0  0  0  0  0  0  0  0  0  0
  153.4125  142.4727  162.2164 H   0  0  0  0  0  0  0  0  0  0  0  0
  154.8416  141.9484  161.2963 H   0  0  0  0  0  0  0  0  0  0  0  0
  151.8248  140.2924  159.9891 H   0  0  0  0  0  0  0  0  0  0  0  0
  149.0861  137.0144  153.4479 H   0  0  0  0  0  0  0  0  0  0  0  0
  1  2  1  0  0  0  0
  1 21  1  0  0  0  0
  1 22  1  0  0  0  0
  1 23  1  0  0  0  0
  2  3  1  0  0  0  0
  2  4  1  0  0  0  0
  2 24  1  0  0  0  0
  3 25  1  0  0  0  0
  3 26  1  0  0  0  0
  3 27  1  0  0  0  0
  4  9  1  0  0  0  0
  4  5  1  0  0  0  0
  4 46  1  0  0  0  0
  5  6  1  0  0  0  0
  5 28  1  0  0  0  0
  5 29  1  0  0  0  0
  6  7  1  0  0  0  0
  6 30  1  0  0  0  0
  6 31  1  0  0  0  0
  7  8  1  0  0  0  0
  7 32  1  0  0  0  0
  7 33  1  0  0  0  0
  8  9  1  0  0  0  0
  8 34  1  0  0  0  0
  8 35  1  0  0  0  0
  9 10  1  0  0  0  0
  9 36  1  0  0  0  0
 10 11  2  0  0  0  0
 10 12  1  0  0  0  0
 12 13  1  0  0  0  0
 13 14  1  0  0  0  0
 13 37  1  0  0  0  0
 13 38  1  0  0  0  0
 14 15  1  0  0  0  0
 14 39  1  0  0  0  0
 14 40  1  0  0  0  0
 15 20  2  0  0  0  0
 15 16  1  0  0  0  0
 16 17  2  0  0  0  0
 16 41  1  0  0  0  0
 17 18  1  0  0  0  0
 18 19  1  0  0  0  0
 18 20  1  0  0  0  0
 19 42  1  0  0  0  0
 19 43  1  0  0  0  0
 19 44  1  0  0  0  0
 20 45  1  0  0  0  0
M  CHG  1   4   1
M  CHG  1  12  -1
M  END
> <s_m_source_file>
AV-unprocessed.smi

> <i_m_source_file_index>
657

> <i_lp_mmshare_version>
43012

> <i_f3d_flags>
0

> <s_epik_input>
W0NIM11bQ0hdKFtDSDNdKU4xW0NIMl1bQ0gyXVtDSDJdW0NIMl1bQ0BIXTFDKD1PKVtOSF1bQ0gyXVtDSDJdYzJbY0hdbm4oW0NIM10pW2NIXTI=

> <s_epik_cmdline>
J2VwaWtfcHl0aG9uJywgJy1waCcsICc3LjAnLCAnLXRuJywgJzgnLCAnLW1hJywgJzIwMCcsICctbWV0YWxfYmluZGluZycsICctaW1hZScsICc8aW5maWxlLm1hZT4nLCAnLW9tYWUnLCAnPG91dGZpbGUubWFlPic=

> <r_lp_tautomer_probability>
1

> <r_epik_Ionization_Penalty>
6.1622

> <r_epik_Ionization_Penalty_Charging>
6.16146

> <r_epik_Ionization_Penalty_Neutral>
0.00073675

> <r_epik_State_Penalty>
6.18018

> <r_epik_Charging_Adjusted_Penalty>
12.3416

> <i_epik_Tot_Q>
0

> <i_epik_Tot_abs_Q>
2

> <r_epik_Metal_State_Penalty>
2.12232

> <b_epik_Metal_Only>
1

> <s_lp_Force_Field>
OPLS_2005

> <r_lp_Energy>
12.187

> <b_lp_Chiralities_Consistent>
1

> <s_lp_Variant>
AV-unprocessed.smi:657-8

> <Gold.Version>
5.8.1

> <Gold.Id.Protein>
6NUR|6NUR_protein|mol2

> <Gold.PLP.Fitness>
41.6864

> <Gold.PLP.PLP>
-35.0920

> <Gold.PLP.part.hbond>
-2.0000

> <Gold.PLP.part.metal>
0.0000

> <Gold.PLP.part.buried>
-3.1523

> <Gold.PLP.part.nonpolar>
-28.9338

> <Gold.PLP.part.repulsive>
0.0997

> <Gold.PLP.ligand.clash>
0.0000

> <Gold.PLP.ligand.torsion>
0.6717

> <Gold.PLP.Chemscore.Hbond>
2.5712

> <Gold.PLP.Chemscore.CHOScore>
0.0000

> <Gold.PLP.Chemscore.Metal>
0.0000

> <Gold.Chemscore.Hbonds>
donor molecule, donor type, donor heavy atom, donor atom, acceptor molecule, acceptor atom, score
      L1  H     4    46       P1  7948  2.00
      P1  H  7989  7998       L1    12  0.74

> <Gold.PLP.Chemscore.Internal.Correction>
0.2243

> <Gold.Rescore>
     Score         DG    S(hbond)    S(metal)    S(lipo)     H(rot)  DE(clash)    DE(int)     intcor
     13.08     -15.33       1.02        0.00      89.62       1.57       0.10       2.14       ----

> <Gold.Chemscore.Fitness>
13.0808

> <Gold.Chemscore.DG>
-15.3285

> <Gold.Chemscore.ZeroCoef>
-5.4800

> <Gold.Chemscore.Hbond>
1.0158

> <Gold.Chemscore.Metal>
0.0000

> <Gold.Chemscore.Lipo>
89.6191

> <Gold.Chemscore.Internal_Hbond>
0.0000

> <Gold.Chemscore.DEClash>
0.1044

> <Gold.Chemscore.DEInternal>
2.1433

> <Gold.Chemscore.Rot>
1.5741

> <Gold.Chemscore.Internal.Correction>
   9.000000E+99

> <Gold.Chemscore.Hbonds>
donor molecule, donor type, donor heavy atom, donor atom, acceptor molecule, acceptor atom, score
      L1  H     4    46       P1  7948  1.00
      P1  H  7989  7998       L1    12  0.11

> <Gold.Chemscore.Hbond.Weighted>
-3.3927

> <Gold.Chemscore.Metal.Weighted>
-0.0000

> <Gold.Chemscore.Lipo.Weighted>
-10.4854

> <Gold.Chemscore.Internal_Hbond.Weighted>
0.0000

> <Gold.Chemscore.DEClash.Weighted>
0.1044

> <Gold.Chemscore.DEInternal.Weighted>
2.1433

> <Gold.Chemscore.Rot.Weighted>
4.0297

> <Gold.Chemscore.Internal.Correction.Weighted>
   9.000000E+99

> <Gold.Protein.RotatedTorsions>
[ 6907 6896 6895 6894 ] final  -33.92 input  -60.11 | X-H torsion
[ 7974 7965 7964 7962 ] final   62.43 input  175.53 | X-H torsion
[ 8008 7997 7996 7995 ] final  112.81 input   59.86 | X-H torsion
[ 10167 10162 10161 10158 ] final   62.63 input  -65.29 | X-H torsion
[ 10718 10713 10712 10709 ] final -167.97 input   66.30 | X-H torsion
[ 10763 10752 10751 10750 ] final  176.10 input  -60.55 | X-H torsion
[ 11005 11000 10999 10996 ] final -129.13 input  -57.11 | X-H torsion

> <Gold.Protein.ActiveResidues>
 VAL166  LYS551  ARG553  GLY616  TRP617  ASP618  TYR619  PRO620  LYS621  CYS622 
 ASP623  PHE694  ASN695  SER759  ASP760  ASP761  ALA762  ILE779  LEU786  VAL792 
 PHE793  MET794  SER795  GLU796  ALA797  LYS798  CYS799  TRP800  GLU811  SER814 

> <Gold.Protein.RotatedAtoms>
  151.0593  134.9726  159.8251 H   0  0  0  0  0  0  0  0  0  0  0  0  # atno 6907 bound_to 6896
  152.5393  134.2438  159.8882 H   0  0  0  0  0  0  0  0  0  0  0  0  # atno 6908 bound_to 6896
  151.2457  133.4333  159.2643 H   0  0  0  0  0  0  0  0  0  0  0  0  # atno 6909 bound_to 6896
  145.8734  139.3393  143.0749 H   0  0  0  0  0  0  0  0  0  0  0  0  # atno 7974 bound_to 7965
  156.2217  140.2992  155.9968 H   0  0  0  0  0  0  0  0  0  0  0  0  # atno 8008 bound_to 7997
  155.2464  140.0424  157.2998 H   0  0  0  0  0  0  0  0  0  0  0  0  # atno 8009 bound_to 7997
  154.5851  140.2386  155.8007 H   0  0  0  0  0  0  0  0  0  0  0  0  # atno 8010 bound_to 7997
  140.1418  144.4546  150.6807 H   0  0  0  0  0  0  0  0  0  0  0  0  # atno 10167 bound_to 10162
  156.6902  130.9156  151.3068 H   0  0  0  0  0  0  0  0  0  0  0  0  # atno 10718 bound_to 10713
  154.4765  135.2773  155.1603 H   0  0  0  0  0  0  0  0  0  0  0  0  # atno 10763 bound_to 10752
  154.3330  135.6186  153.5564 H   0  0  0  0  0  0  0  0  0  0  0  0  # atno 10764 bound_to 10752
  152.9870  135.5770  154.5157 H   0  0  0  0  0  0  0  0  0  0  0  0  # atno 10765 bound_to 10752
  140.9458  134.1132  157.4109 H   0  0  0  0  0  0  0  0  0  0  0  0  # atno 11005 bound_to 11000
  145.9110  140.9180  143.0454 LP  0  0  0  0  0  0  0  0  0  0  0  0  # atno 17320 bound_to 7965
  144.6726  140.1160  143.7452 LP  0  0  0  0  0  0  0  0  0  0  0  0  # atno 17321 bound_to 7965
  140.6756  143.2303  151.5516 LP  0  0  0  0  0  0  0  0  0  0  0  0  # atno 17342 bound_to 10162
  139.5468  144.2499  152.1457 LP  0  0  0  0  0  0  0  0  0  0  0  0  # atno 17343 bound_to 10162
  157.7012  130.9335  150.0790 LP  0  0  0  0  0  0  0  0  0  0  0  0  # atno 17370 bound_to 10713
  156.1803  130.3650  149.9044 LP  0  0  0  0  0  0  0  0  0  0  0  0  # atno 17371 bound_to 10713
  139.8833  135.0051  156.6289 LP  0  0  0  0  0  0  0  0  0  0  0  0  # atno 17394 bound_to 11000
  140.7672  133.8768  155.8463 LP  0  0  0  0  0  0  0  0  0  0  0  0  # atno 17395 bound_to 11000

$$$$
