AV-unprocessed.smi:797|AV-procd|sdf|3767|dock5
  -GOLD-   22720 1203D 1   1.00000     0.00000
 Structure written by MMmdl.
 35 36  0  0  0  0  0  0  0  0  1 V2000
  145.9126  137.9379  152.3762 C   0  0  0  0  0  0  0  0  0  0  0  0
  146.8666  138.7567  153.1944 C   0  0  0  0  0  0  0  0  0  0  0  0
  147.0681  140.1638  153.1729 C   0  0  0  0  0  0  0  0  0  0  0  0
  148.0482  140.3632  154.1032 C   0  0  0  0  0  0  0  0  0  0  0  0
  148.7531  141.5853  154.5886 C   0  0  0  0  0  0  0  0  0  0  0  0
  150.0666  141.1113  155.7920 S   0  0  0  0  0  0  0  0  0  0  0  0
  149.4292  140.5710  157.0024 O   0  0  0  0  0  0  0  0  0  0  0  0
  151.1012  140.3378  155.0877 O   0  0  0  0  0  0  0  0  0  0  0  0
  150.7441  142.6446  156.2124 N   0  0  0  0  0  0  0  0  0  0  0  0
  151.0157  142.9500  157.6194 C   0  0  0  0  0  0  0  0  0  0  0  0
  151.7065  144.3222  157.7484 C   0  0  0  0  0  0  0  0  0  0  0  0
  152.0834  144.6248  159.2077 C   0  0  0  0  0  0  0  0  0  0  0  0
  152.9533  143.5074  159.8041 C   0  0  0  0  0  0  0  0  0  0  0  0
  152.2604  142.1409  159.6828 C   0  0  0  0  0  0  0  0  0  0  0  0
  151.8878  141.8337  158.2234 C   0  0  0  0  0  0  0  0  0  0  0  0
  148.4170  139.1796  154.6572 O   0  0  0  0  0  0  0  0  0  0  0  0
  147.6576  138.1609  154.0713 N   0  0  0  0  0  0  0  0  0  0  0  0
  145.2591  138.5746  151.7796 H   0  0  0  0  0  0  0  0  0  0  0  0
  145.2804  137.3176  153.0120 H   0  0  0  0  0  0  0  0  0  0  0  0
  146.4486  137.2792  151.6924 H   0  0  0  0  0  0  0  0  0  0  0  0
  146.5775  140.9093  152.5648 H   0  0  0  0  0  0  0  0  0  0  0  0
  149.2072  142.1367  153.7656 H   0  0  0  0  0  0  0  0  0  0  0  0
  148.0536  142.2508  155.0947 H   0  0  0  0  0  0  0  0  0  0  0  0
  150.2324  143.4049  155.7656 H   0  0  0  0  0  0  0  0  0  0  0  0
  150.0690  142.9732  158.1605 H   0  0  0  0  0  0  0  0  0  0  0  0
  152.6056  144.3436  157.1309 H   0  0  0  0  0  0  0  0  0  0  0  0
  151.0544  145.1112  157.3727 H   0  0  0  0  0  0  0  0  0  0  0  0
  152.6112  145.5772  159.2652 H   0  0  0  0  0  0  0  0  0  0  0  0
  151.1761  144.7381  159.8024 H   0  0  0  0  0  0  0  0  0  0  0  0
  153.9141  143.4771  159.2888 H   0  0  0  0  0  0  0  0  0  0  0  0
  153.1699  143.7234  160.8507 H   0  0  0  0  0  0  0  0  0  0  0  0
  152.9112  141.3578  160.0727 H   0  0  0  0  0  0  0  0  0  0  0  0
  151.3606  142.1311  160.2993 H   0  0  0  0  0  0  0  0  0  0  0  0
  151.3614  140.8796  158.1720 H   0  0  0  0  0  0  0  0  0  0  0  0
  152.7994  141.7159  157.6360 H   0  0  0  0  0  0  0  0  0  0  0  0
  1  2  1  0  0  0  0
  1 18  1  0  0  0  0
  1 19  1  0  0  0  0
  1 20  1  0  0  0  0
  2 17  2  0  0  0  0
  2  3  1  0  0  0  0
  3  4  2  0  0  0  0
  3 21  1  0  0  0  0
  4  5  1  0  0  0  0
  4 16  1  0  0  0  0
  5  6  1  0  0  0  0
  5 22  1  0  0  0  0
  5 23  1  0  0  0  0
  6  7  2  0  0  0  0
  6  8  2  0  0  0  0
  6  9  1  0  0  0  0
  9 10  1  0  0  0  0
  9 24  1  0  0  0  0
 10 15  1  0  0  0  0
 10 11  1  0  0  0  0
 10 25  1  0  0  0  0
 11 12  1  0  0  0  0
 11 26  1  0  0  0  0
 11 27  1  0  0  0  0
 12 13  1  0  0  0  0
 12 28  1  0  0  0  0
 12 29  1  0  0  0  0
 13 14  1  0  0  0  0
 13 30  1  0  0  0  0
 13 31  1  0  0  0  0
 14 15  1  0  0  0  0
 14 32  1  0  0  0  0
 14 33  1  0  0  0  0
 15 34  1  0  0  0  0
 15 35  1  0  0  0  0
 16 17  1  0  0  0  0
M  END
> <s_m_source_file>
AV-unprocessed.smi

> <i_m_source_file_index>
797

> <i_lp_mmshare_version>
43012

> <i_f3d_flags>
0

> <s_epik_input>
W0NIM11jMVtjSF1jKG9uMSlbQ0gyXVMoPU8pKD1PKVtOSF1bQ0hdMltDSDJdW0NIMl1bQ0gyXVtDSDJdW0NIMl0y

> <s_epik_cmdline>
J2VwaWtfcHl0aG9uJywgJy1waCcsICc3LjAnLCAnLXRuJywgJzgnLCAnLW1hJywgJzIwMCcsICctbWV0YWxfYmluZGluZycsICctaW1hZScsICc8aW5maWxlLm1hZT4nLCAnLW9tYWUnLCAnPG91dGZpbGUubWFlPic=

> <r_lp_tautomer_probability>
1

> <r_epik_Ionization_Penalty>
5.6723e-05

> <r_epik_Ionization_Penalty_Charging>
0

> <r_epik_Ionization_Penalty_Neutral>
5.6723e-05

> <r_epik_State_Penalty>
-0

> <r_epik_Charging_Adjusted_Penalty>
0

> <i_epik_Tot_Q>
0

> <i_epik_Tot_abs_Q>
0

> <r_epik_Metal_State_Penalty>
0.0496356

> <b_epik_Metal_Only>
0

> <s_lp_Force_Field>
OPLS_2005

> <r_lp_Energy>
1.90415

> <b_lp_Chiralities_Consistent>
1

> <s_lp_Variant>
AV-unprocessed.smi:797-1

> <Gold.Version>
5.8.1

> <Gold.Id.Protein>
6NUR|6NUR_protein|mol2

> <Gold.PLP.Fitness>
42.7125

> <Gold.PLP.PLP>
-37.2777

> <Gold.PLP.part.hbond>
-2.0000

> <Gold.PLP.part.metal>
0.0000

> <Gold.PLP.part.buried>
-3.3031

> <Gold.PLP.part.nonpolar>
-33.6518

> <Gold.PLP.part.repulsive>
0.3554

> <Gold.PLP.ligand.clash>
0.0000

> <Gold.PLP.ligand.torsion>
0.3570

> <Gold.PLP.Chemscore.Hbond>
2.0000

> <Gold.PLP.Chemscore.CHOScore>
0.0000

> <Gold.PLP.Chemscore.Metal>
0.0000

> <Gold.Chemscore.Hbonds>
donor molecule, donor type, donor heavy atom, donor atom, acceptor molecule, acceptor atom, score
      L1  H     9    24       P1  8028  1.00
      P1  H  7989  7998       L1     8  1.00

> <Gold.PLP.Chemscore.Internal.Correction>
0.1487

> <Gold.Rescore>
     Score         DG    S(hbond)    S(metal)    S(lipo)     H(rot)  DE(clash)    DE(int)     intcor
     17.86     -19.93       1.94        0.00     103.00       1.60       0.12       1.95       ----

> <Gold.Chemscore.Fitness>
17.8599

> <Gold.Chemscore.DG>
-19.9289

> <Gold.Chemscore.ZeroCoef>
-5.4800

> <Gold.Chemscore.Hbond>
1.9408

> <Gold.Chemscore.Metal>
0.0000

> <Gold.Chemscore.Lipo>
102.9994

> <Gold.Chemscore.Internal_Hbond>
0.0000

> <Gold.Chemscore.DEClash>
0.1199

> <Gold.Chemscore.DEInternal>
1.9491

> <Gold.Chemscore.Rot>
1.5954

> <Gold.Chemscore.Internal.Correction>
   9.000000E+99

> <Gold.Chemscore.Hbonds>
donor molecule, donor type, donor heavy atom, donor atom, acceptor molecule, acceptor atom, score
      L1  H     9    24       P1  8028  0.98
      P1  H  7989  7998       L1     8  0.94

> <Gold.Chemscore.Hbond.Weighted>
-6.4823

> <Gold.Chemscore.Metal.Weighted>
-0.0000

> <Gold.Chemscore.Lipo.Weighted>
-12.0509

> <Gold.Chemscore.Internal_Hbond.Weighted>
0.0000

> <Gold.Chemscore.DEClash.Weighted>
0.1199

> <Gold.Chemscore.DEInternal.Weighted>
1.9491

> <Gold.Chemscore.Rot.Weighted>
4.0843

> <Gold.Chemscore.Internal.Correction.Weighted>
   9.000000E+99

> <Gold.Protein.RotatedTorsions>
[ 6907 6896 6895 6894 ] final  148.38 input  -60.11 | X-H torsion
[ 7974 7965 7964 7962 ] final   33.74 input  175.53 | X-H torsion
[ 8008 7997 7996 7995 ] final -137.84 input   59.86 | X-H torsion
[ 10167 10162 10161 10158 ] final  -89.95 input  -65.29 | X-H torsion
[ 10718 10713 10712 10709 ] final   60.47 input   66.30 | X-H torsion
[ 10763 10752 10751 10750 ] final -165.76 input  -60.55 | X-H torsion
[ 11005 11000 10999 10996 ] final -149.66 input  -57.11 | X-H torsion

> <Gold.Protein.ActiveResidues>
 VAL166  LYS551  ARG553  GLY616  TRP617  ASP618  TYR619  PRO620  LYS621  CYS622 
 ASP623  PHE694  ASN695  SER759  ASP760  ASP761  ALA762  ILE779  LEU786  VAL792 
 PHE793  MET794  SER795  GLU796  ALA797  LYS798  CYS799  TRP800  GLU811  SER814 

> <Gold.Protein.RotatedAtoms>
  152.1423  133.4471  159.4772 H   0  0  0  0  0  0  0  0  0  0  0  0  # atno 6907 bound_to 6896
  150.6887  134.2291  159.4436 H   0  0  0  0  0  0  0  0  0  0  0  0  # atno 6908 bound_to 6896
  152.0182  134.9837  160.0620 H   0  0  0  0  0  0  0  0  0  0  0  0  # atno 6909 bound_to 6896
  146.1400  139.6358  142.9169 H   0  0  0  0  0  0  0  0  0  0  0  0  # atno 7974 bound_to 7965
  155.4185  140.0517  157.3027 H   0  0  0  0  0  0  0  0  0  0  0  0  # atno 8008 bound_to 7997
  154.4913  140.2121  155.9501 H   0  0  0  0  0  0  0  0  0  0  0  0  # atno 8009 bound_to 7997
  156.1346  140.3165  155.8406 H   0  0  0  0  0  0  0  0  0  0  0  0  # atno 8010 bound_to 7997
  140.3598  143.2848  151.9628 H   0  0  0  0  0  0  0  0  0  0  0  0  # atno 10167 bound_to 10162
  157.5755  130.8940  149.9340 H   0  0  0  0  0  0  0  0  0  0  0  0  # atno 10718 bound_to 10713
  154.6901  135.2969  154.9492 H   0  0  0  0  0  0  0  0  0  0  0  0  # atno 10763 bound_to 10752
  154.0458  135.6651  153.4799 H   0  0  0  0  0  0  0  0  0  0  0  0  # atno 10764 bound_to 10752
  153.0606  135.5118  154.7988 H   0  0  0  0  0  0  0  0  0  0  0  0  # atno 10765 bound_to 10752
  140.7484  134.3435  157.5131 H   0  0  0  0  0  0  0  0  0  0  0  0  # atno 11005 bound_to 11000
  145.5068  141.0436  143.2510 LP  0  0  0  0  0  0  0  0  0  0  0  0  # atno 17320 bound_to 7965
  144.7782  139.6584  143.7166 LP  0  0  0  0  0  0  0  0  0  0  0  0  # atno 17321 bound_to 7965
  139.4815  144.6003  151.7617 LP  0  0  0  0  0  0  0  0  0  0  0  0  # atno 17342 bound_to 10162
  140.5138  144.0984  150.6002 LP  0  0  0  0  0  0  0  0  0  0  0  0  # atno 17343 bound_to 10162
  156.0800  130.3674  150.0600 LP  0  0  0  0  0  0  0  0  0  0  0  0  # atno 17370 bound_to 10713
  156.8747  130.9536  151.3606 LP  0  0  0  0  0  0  0  0  0  0  0  0  # atno 17371 bound_to 10713
  139.8792  134.9126  156.3064 LP  0  0  0  0  0  0  0  0  0  0  0  0  # atno 17394 bound_to 11000
  140.9773  133.7289  156.0621 LP  0  0  0  0  0  0  0  0  0  0  0  0  # atno 17395 bound_to 11000

$$$$
