AV-unprocessed.smi:486|AV-procd|sdf|2696|dock2
  -GOLD-   2262023133D 1   1.00000     0.00000
 Structure written by MMmdl.
 43 45  0  0  0  0  0  0  0  0  1 V2000
  144.6457  133.5855  162.4480 C   0  0  0  0  0  0  0  0  0  0  0  0
  144.6777  134.2774  161.2082 O   0  0  0  0  0  0  0  0  0  0  0  0
  145.8207  134.9772  160.8854 C   0  0  0  0  0  0  0  0  0  0  0  0
  146.6110  135.4433  161.9541 C   0  0  0  0  0  0  0  0  0  0  0  0
  147.7941  136.1668  161.7133 C   0  0  0  0  0  0  0  0  0  0  0  0
  148.2164  136.4414  160.3981 C   0  0  0  0  0  0  0  0  0  0  0  0
  149.3862  137.1561  160.2524 O   0  0  0  0  0  0  0  0  0  0  0  0
  149.6655  137.7362  158.9852 C   0  0  0  0  0  0  0  0  0  0  0  0
  151.1664  138.0719  158.9118 C   0  0  1  0  0  0  0  0  0  0  0  0
  151.8964  136.8706  159.0485 O   0  0  0  0  0  0  0  0  0  0  0  0
  151.6041  138.7135  157.5778 C   0  0  0  0  0  0  0  0  0  0  0  0
  151.4355  140.1601  157.5495 N   0  0  0  0  0  0  0  0  0  0  0  0
  150.8438  140.9124  156.5892 C   0  0  0  0  0  0  0  0  0  0  0  0
  150.2474  140.3011  155.3611 C   0  0  0  0  0  0  0  0  0  0  0  0
  150.8245  142.2270  156.8095 N   0  0  0  0  0  0  0  0  0  0  0  0
  151.4590  142.3391  158.0316 C   0  0  0  0  0  0  0  0  0  0  0  0
  151.7568  143.4797  158.8109 C   0  0  0  0  0  0  0  0  0  0  0  0
  152.4261  143.3464  160.0451 C   0  0  0  0  0  0  0  0  0  0  0  0
  152.8043  142.0734  160.5185 C   0  0  0  0  0  0  0  0  0  0  0  0
  152.5164  140.9237  159.7583 C   0  0  0  0  0  0  0  0  0  0  0  0
  151.8504  141.0623  158.5255 C   0  0  0  0  0  0  0  0  0  0  0  0
  147.4249  135.9749  159.3195 C   0  0  0  0  0  0  0  0  0  0  0  0
  146.2405  135.2512  159.5603 C   0  0  0  0  0  0  0  0  0  0  0  0
  143.6842  133.0833  162.5542 H   0  0  0  0  0  0  0  0  0  0  0  0
  144.7546  134.2706  163.2899 H   0  0  0  0  0  0  0  0  0  0  0  0
  145.4232  132.8223  162.5001 H   0  0  0  0  0  0  0  0  0  0  0  0
  146.3071  135.2440  162.9713 H   0  0  0  0  0  0  0  0  0  0  0  0
  148.3842  136.5145  162.5485 H   0  0  0  0  0  0  0  0  0  0  0  0
  149.3752  137.0756  158.1662 H   0  0  0  0  0  0  0  0  0  0  0  0
  149.0765  138.6493  158.9047 H   0  0  0  0  0  0  0  0  0  0  0  0
  151.4310  138.7350  159.7354 H   0  0  0  0  0  0  0  0  0  0  0  0
  152.8166  137.0710  158.9674 H   0  0  0  0  0  0  0  0  0  0  0  0
  152.6491  138.4809  157.3710 H   0  0  0  0  0  0  0  0  0  0  0  0
  151.0338  138.2856  156.7521 H   0  0  0  0  0  0  0  0  0  0  0  0
  149.8059  141.0709  154.7273 H   0  0  0  0  0  0  0  0  0  0  0  0
  149.4645  139.5926  155.6321 H   0  0  0  0  0  0  0  0  0  0  0  0
  151.0121  139.7822  154.7840 H   0  0  0  0  0  0  0  0  0  0  0  0
  151.4705  144.4593  158.4574 H   0  0  0  0  0  0  0  0  0  0  0  0
  152.6506  144.2255  160.6313 H   0  0  0  0  0  0  0  0  0  0  0  0
  153.3166  141.9800  161.4650 H   0  0  0  0  0  0  0  0  0  0  0  0
  152.8085  139.9479  160.1167 H   0  0  0  0  0  0  0  0  0  0  0  0
  147.7031  136.1598  158.2933 H   0  0  0  0  0  0  0  0  0  0  0  0
  145.6700  134.9168  158.7074 H   0  0  0  0  0  0  0  0  0  0  0  0
  1  2  1  0  0  0  0
  1 24  1  0  0  0  0
  1 25  1  0  0  0  0
  1 26  1  0  0  0  0
  2  3  1  0  0  0  0
  3 23  1  0  0  0  0
  3  4  2  0  0  0  0
  4  5  1  0  0  0  0
  4 27  1  0  0  0  0
  5  6  2  0  0  0  0
  5 28  1  0  0  0  0
  6  7  1  0  0  0  0
  6 22  1  0  0  0  0
  7  8  1  0  0  0  0
  8  9  1  0  0  0  0
  8 29  1  0  0  0  0
  8 30  1  0  0  0  0
  9 10  1  0  0  0  0
  9 11  1  0  0  0  0
  9 31  1  0  0  0  0
 10 32  1  0  0  0  0
 11 12  1  0  0  0  0
 11 33  1  0  0  0  0
 11 34  1  0  0  0  0
 12 21  1  0  0  0  0
 12 13  1  0  0  0  0
 13 14  1  0  0  0  0
 13 15  2  0  0  0  0
 14 35  1  0  0  0  0
 14 36  1  0  0  0  0
 14 37  1  0  0  0  0
 15 16  1  0  0  0  0
 16 21  2  0  0  0  0
 16 17  1  0  0  0  0
 17 18  2  0  0  0  0
 17 38  1  0  0  0  0
 18 19  1  0  0  0  0
 18 39  1  0  0  0  0
 19 20  2  0  0  0  0
 19 40  1  0  0  0  0
 20 21  1  0  0  0  0
 20 41  1  0  0  0  0
 22 23  2  0  0  0  0
 22 42  1  0  0  0  0
 23 43  1  0  0  0  0
M  END
> <s_m_source_file>
AV-unprocessed.smi

> <i_m_source_file_index>
486

> <i_lp_mmshare_version>
43012

> <i_f3d_flags>
0

> <s_epik_input>
W0NIM11PYzFbY0hdW2NIXWMoW2NIXVtjSF0xKU9bQ0gyXVtDQEhdKFtPSF0pW0NIMl1uKGMobjIpW0NIM10pYyhjMjMpW2NIXVtjSF1bY0hdW2NIXTM=

> <s_epik_cmdline>
J2VwaWtfcHl0aG9uJywgJy1waCcsICc3LjAnLCAnLXRuJywgJzgnLCAnLW1hJywgJzIwMCcsICctbWV0YWxfYmluZGluZycsICctaW1hZScsICc8aW5maWxlLm1hZT4nLCAnLW9tYWUnLCAnPG91dGZpbGUubWFlPic=

> <r_lp_tautomer_probability>
1

> <r_epik_Ionization_Penalty>
0.114052

> <r_epik_Ionization_Penalty_Charging>
0

> <r_epik_Ionization_Penalty_Neutral>
0.114052

> <r_epik_State_Penalty>
0.103717

> <r_epik_Charging_Adjusted_Penalty>
0.103717

> <i_epik_Tot_Q>
0

> <i_epik_Tot_abs_Q>
0

> <r_epik_Metal_State_Penalty>
0.000113338

> <b_epik_Metal_Only>
0

> <s_lp_Force_Field>
OPLS_2005

> <r_lp_Energy>
20.3049

> <b_lp_Chiralities_Consistent>
1

> <s_lp_Variant>
AV-unprocessed.smi:486-2

> <Gold.Version>
5.8.1

> <Gold.Id.Protein>
6NUR|6NUR_protein|mol2

> <Gold.PLP.Fitness>
44.9317

> <Gold.PLP.PLP>
-43.5676

> <Gold.PLP.part.hbond>
-2.0000

> <Gold.PLP.part.metal>
0.0000

> <Gold.PLP.part.buried>
-4.9024

> <Gold.PLP.part.nonpolar>
-37.2048

> <Gold.PLP.part.repulsive>
0.1071

> <Gold.PLP.ligand.clash>
0.0287

> <Gold.PLP.ligand.torsion>
1.0503

> <Gold.PLP.Chemscore.Hbond>
1.1312

> <Gold.PLP.Chemscore.CHOScore>
0.0000

> <Gold.PLP.Chemscore.Metal>
0.0000

> <Gold.Chemscore.Hbonds>
donor molecule, donor type, donor heavy atom, donor atom, acceptor molecule, acceptor atom, score
      P1  H  6896  6908       L1    10  0.96
      P1  H  6931  6943       L1     7  0.31

> <Gold.PLP.Chemscore.Internal.Correction>
0.0997

> <Gold.Rescore>
     Score         DG    S(hbond)    S(metal)    S(lipo)     H(rot)  DE(clash)    DE(int)     intcor
     16.16     -17.33       0.92        0.00     125.40       2.30       0.21       0.95       ----

> <Gold.Chemscore.Fitness>
16.1645

> <Gold.Chemscore.DG>
-17.3266

> <Gold.Chemscore.ZeroCoef>
-5.4800

> <Gold.Chemscore.Hbond>
0.9188

> <Gold.Chemscore.Metal>
0.0000

> <Gold.Chemscore.Lipo>
125.4010

> <Gold.Chemscore.Internal_Hbond>
0.0000

> <Gold.Chemscore.DEClash>
0.2088

> <Gold.Chemscore.DEInternal>
0.9533

> <Gold.Chemscore.Rot>
2.3023

> <Gold.Chemscore.Internal.Correction>
   9.000000E+99

> <Gold.Chemscore.Hbonds>
donor molecule, donor type, donor heavy atom, donor atom, acceptor molecule, acceptor atom, score
      P1  H  6896  6908       L1    10  0.80
      P1  H  6931  6943       L1     7  0.03

> <Gold.Chemscore.Hbond.Weighted>
-3.0687

> <Gold.Chemscore.Metal.Weighted>
-0.0000

> <Gold.Chemscore.Lipo.Weighted>
-14.6719

> <Gold.Chemscore.Internal_Hbond.Weighted>
0.0000

> <Gold.Chemscore.DEClash.Weighted>
0.2088

> <Gold.Chemscore.DEInternal.Weighted>
0.9533

> <Gold.Chemscore.Rot.Weighted>
5.8940

> <Gold.Chemscore.Internal.Correction.Weighted>
   9.000000E+99

> <Gold.Protein.RotatedTorsions>
[ 6907 6896 6895 6894 ] final -123.84 input  -60.11 | X-H torsion
[ 7974 7965 7964 7962 ] final  135.73 input  175.53 | X-H torsion
[ 8008 7997 7996 7995 ] final   22.41 input   59.86 | X-H torsion
[ 10167 10162 10161 10158 ] final   36.96 input  -65.29 | X-H torsion
[ 10718 10713 10712 10709 ] final   42.06 input   66.30 | X-H torsion
[ 10763 10752 10751 10750 ] final  137.69 input  -60.55 | X-H torsion
[ 11005 11000 10999 10996 ] final -176.85 input  -57.11 | X-H torsion

> <Gold.Protein.ActiveResidues>
 VAL166  LYS551  ARG553  GLY616  TRP617  ASP618  TYR619  PRO620  LYS621  CYS622 
 ASP623  PHE694  ASN695  SER759  ASP760  ASP761  ALA762  ILE779  LEU786  VAL792 
 PHE793  MET794  SER795  GLU796  ALA797  LYS798  CYS799  TRP800  GLU811  SER814 

> <Gold.Protein.RotatedAtoms>
  150.8709  133.7506  159.2961 H   0  0  0  0  0  0  0  0  0  0  0  0  # atno 6907 bound_to 6896
  151.5118  135.1063  159.9865 H   0  0  0  0  0  0  0  0  0  0  0  0  # atno 6908 bound_to 6896
  152.4695  133.7952  159.6979 H   0  0  0  0  0  0  0  0  0  0  0  0  # atno 6909 bound_to 6896
  144.9635  139.4684  143.5468 H   0  0  0  0  0  0  0  0  0  0  0  0  # atno 7974 bound_to 7965
  154.9653  140.3083  155.5012 H   0  0  0  0  0  0  0  0  0  0  0  0  # atno 8008 bound_to 7997
  156.2972  140.2294  156.4681 H   0  0  0  0  0  0  0  0  0  0  0  0  # atno 8009 bound_to 7997
  154.7926  140.0439  157.1201 H   0  0  0  0  0  0  0  0  0  0  0  0  # atno 8010 bound_to 7997
  140.4078  144.1635  150.6137 H   0  0  0  0  0  0  0  0  0  0  0  0  # atno 10167 bound_to 10162
  157.4006  130.7858  149.7345 H   0  0  0  0  0  0  0  0  0  0  0  0  # atno 10718 bound_to 10713
  153.8771  135.3048  155.3444 H   0  0  0  0  0  0  0  0  0  0  0  0  # atno 10763 bound_to 10752
  154.7778  135.4851  153.9785 H   0  0  0  0  0  0  0  0  0  0  0  0  # atno 10764 bound_to 10752
  153.1372  135.6816  153.9180 H   0  0  0  0  0  0  0  0  0  0  0  0  # atno 10765 bound_to 10752
  140.4475  134.6374  157.4786 H   0  0  0  0  0  0  0  0  0  0  0  0  # atno 11005 bound_to 11000
  146.3360  139.8800  142.8826 LP  0  0  0  0  0  0  0  0  0  0  0  0  # atno 17320 bound_to 7965
  145.2665  141.0094  143.3796 LP  0  0  0  0  0  0  0  0  0  0  0  0  # atno 17321 bound_to 7965
  140.4671  143.2427  151.9140 LP  0  0  0  0  0  0  0  0  0  0  0  0  # atno 17342 bound_to 10162
  139.4783  144.5408  151.8531 LP  0  0  0  0  0  0  0  0  0  0  0  0  # atno 17343 bound_to 10162
  155.9822  130.4012  150.3429 LP  0  0  0  0  0  0  0  0  0  0  0  0  # atno 17370 bound_to 10713
  157.1556  131.0332  151.2865 LP  0  0  0  0  0  0  0  0  0  0  0  0  # atno 17371 bound_to 10713
  140.0029  134.6809  155.9501 LP  0  0  0  0  0  0  0  0  0  0  0  0  # atno 17394 bound_to 11000
  141.1679  133.6537  156.4544 LP  0  0  0  0  0  0  0  0  0  0  0  0  # atno 17395 bound_to 11000

$$$$
