#       Name:                AV-unprocessed.smi:447
#       Creating user name   scv26
#       Creation time:       Thu Mar 26 22:59:29 2020


#       File generated by GOLD software.
#

@<TRIPOS>MOLECULE
AV-unprocessed.smi:447
    50    52     1
SMALL
NO_CHARGES


@<TRIPOS>ATOM
      1 ****        -2.3974   4.3853   0.3850 C.3            1 S1                 0.0000
      2 ****        -1.9044   2.9446   0.2971 C.2            1 S1                 0.0000
      3 ****        -1.6595   2.4487  -0.8019 O.2            1 S1                 0.0000
      4 ****        -1.7600   2.2859   1.4579 N.am           1 S1                 0.0000
      5 ****        -1.2821   0.9104   1.5974 C.3            1 S1                 0.0000
      6 ****        -1.7864   0.3086   2.9153 C.3            1 S1                 0.0000
      7 ****         0.2254   0.8997   1.5143 C.2            1 S1                 0.0000
      8 ****         0.9820   1.8136   2.1294 N.2            1 S1                 0.0000
      9 ****         2.2644   1.4268   1.7976 C.ar           1 S1                 0.0000
     10 ****         3.5116   1.9996   2.1346 C.ar           1 S1                 0.0000
     11 ****         4.7114   1.4191   1.6740 C.ar           1 S1                 0.0000
     12 ****         4.6808   0.2602   0.8716 C.ar           1 S1                 0.0000
     13 ****         3.4483  -0.3267   0.5257 C.ar           1 S1                 0.0000
     14 ****         2.2534   0.2569   0.9881 C.ar           1 S1                 0.0000
     15 ****         0.9066  -0.0598   0.8358 N.pl3          1 S1                 0.0000
     16 ****         0.3715  -1.1962   0.0972 C.3            1 S1                 0.0000
     17 ****        -0.0285  -0.8353  -1.3476 C.3            1 S1                 0.0000
     18 ****         1.0971  -0.3526  -2.0549 O.3            1 S1                 0.0000
     19 ****        -0.6891  -2.0119  -2.0478 C.ar           1 S1                 0.0000
     20 ****         0.0881  -3.0701  -2.5685 C.ar           1 S1                 0.0000
     21 ****        -0.5346  -4.1593  -3.2090 C.ar           1 S1                 0.0000
     22 ****        -1.9370  -4.1978  -3.3298 C.ar           1 S1                 0.0000
     23 ****        -2.7167  -3.1477  -2.8084 C.ar           1 S1                 0.0000
     24 ****        -2.0947  -2.0584  -2.1680 C.ar           1 S1                 0.0000
     25 ****        -2.4890   4.7163   1.4201 H              1 S1                 0.0000
     26 ****        -3.3732   4.4781  -0.0921 H              1 S1                 0.0000
     27 ****        -1.7023   5.0524  -0.1252 H              1 S1                 0.0000
     28 ****        -1.9761   2.7791   2.3119 H              1 S1                 0.0000
     29 ****        -1.7056   0.3259   0.7810 H              1 S1                 0.0000
     30 ****        -1.4621  -0.7273   3.0186 H              1 S1                 0.0000
     31 ****        -2.8757   0.3193   2.9606 H              1 S1                 0.0000
     32 ****        -1.4099   0.8622   3.7760 H              1 S1                 0.0000
     33 ****         3.5446   2.8878   2.7480 H              1 S1                 0.0000
     34 ****         5.6591   1.8660   1.9367 H              1 S1                 0.0000
     35 ****         5.6038  -0.1775   0.5205 H              1 S1                 0.0000
     36 ****         3.4209  -1.2119  -0.0922 H              1 S1                 0.0000
     37 ****         1.1171  -1.9921   0.0945 H              1 S1                 0.0000
     38 ****        -0.4836  -1.5954   0.6433 H              1 S1                 0.0000
     39 ****        -0.7457  -0.0157  -1.3242 H              1 S1                 0.0000
     40 ****         0.8055  -0.0261  -2.8924 H              1 S1                 0.0000
     41 ****         1.1643  -3.0506  -2.4768 H              1 S1                 0.0000
     42 ****         0.0637  -4.9657  -3.6067 H              1 S1                 0.0000
     43 ****        -2.4144  -5.0331  -3.8207 H              1 S1                 0.0000
     44 ****        -3.7926  -3.1779  -2.8989 H              1 S1                 0.0000
     45 ****        -2.7011  -1.2583  -1.7686 H              1 S1                 0.0000
     46 ****        -1.7838   2.9899  -1.6335 LP             1 S1                 0.0000
     47 ****        -1.3361   1.5045  -0.8635 LP             1 S1                 0.0000
     48 ****         0.6906   2.5874   2.6918 LP             1 S1                 0.0000
     49 ****         1.7537  -1.0943  -2.1915 LP             1 S1                 0.0000
     50 ****         1.5306   0.3850  -1.5371 LP             1 S1                 0.0000
@<TRIPOS>BOND
    1    1    2 1     
    2    1   25 1     
    3    1   26 1     
    4    1   27 1     
    5    2    3 2     
    6    2    4 am    
    7    4    5 1     
    8    4   28 1     
    9    5    6 1     
   10    5    7 1     
   11    5   29 1     
   12    6   30 1     
   13    6   31 1     
   14    6   32 1     
   15    7   15 1     
   16    7    8 2     
   17    8    9 1     
   18    9   14 ar    
   19    9   10 ar    
   20   10   11 ar    
   21   10   33 1     
   22   11   12 ar    
   23   11   34 1     
   24   12   13 ar    
   25   12   35 1     
   26   13   14 ar    
   27   13   36 1     
   28   14   15 1     
   29   15   16 1     
   30   16   17 1     
   31   16   37 1     
   32   16   38 1     
   33   17   18 1     
   34   17   19 1     
   35   17   39 1     
   36   18   40 1     
   37   19   24 ar    
   38   19   20 ar    
   39   20   21 ar    
   40   20   41 1     
   41   21   22 ar    
   42   21   42 1     
   43   22   23 ar    
   44   22   43 1     
   45   23   24 ar    
   46   23   44 1     
   47   24   45 1     
   48    3   46 1     
   49    3   47 1     
   50    8   48 1     
   51   18   49 1     
   52   18   50 1     
@<TRIPOS>SUBSTRUCTURE
      1 S1             1
@<TRIPOS>SET
LONE_PAIRS      STATIC     ATOMS    <user>   **** ""
5 46 47 48 49 50
DONOR_HYDROGENS      STATIC     ATOMS    <user>   **** ""
2 28 40
ATOM$BLUE        STATIC     ATOMS    COLORGROUP SYSTEM
5 46 47 48 49 50
ATOM$RED        STATIC     ATOMS    COLORGROUP SYSTEM
2 28 40
