AV-unprocessed.smi:759|AV-procd|sdf|3626|dock1
  -GOLD-   22720 1 23D 1   1.00000     0.00000
 Structure written by MMmdl.
 23 24  0  0  0  0  0  0  0  0  3 V2000
  152.4824  139.0655  154.9356 C   0  0  0  0  0  0  0  0  0  0  0  0
  152.9894  139.3297  156.1472 N   0  5  0  0  0  0  0  0  0  0  0  0
  152.1874  140.1909  156.7434 N   0  0  0  0  0  0  0  0  0  0  0  0
  151.1916  140.4365  155.8711 C   0  0  0  0  0  0  0  0  0  0  0  0
  150.0264  141.3680  156.1404 C   0  0  1  0  0  0  0  0  0  0  0  0
  148.6696  140.6485  156.0313 C   0  0  0  0  0  0  0  0  0  0  0  0
  147.5207  141.6224  156.3355 C   0  0  0  0  0  0  0  0  0  0  0  0
  147.7315  142.3145  157.6929 C   0  0  0  0  0  0  0  0  0  0  0  0
  149.0392  143.0052  157.7315 N   0  3  0  0  0  0  0  0  0  0  0  0
  150.1802  142.0956  157.4895 C   0  0  0  0  0  0  0  0  0  0  0  0
  151.3605  139.7405  154.7355 N   0  0  0  0  0  0  0  0  0  0  0  0
  152.9750  138.3770  154.2599 H   0  0  0  0  0  0  0  0  0  0  0  0
  150.0538  142.1272  155.3567 H   0  0  0  0  0  0  0  0  0  0  0  0
  148.5463  140.2213  155.0355 H   0  0  0  0  0  0  0  0  0  0  0  0
  148.6347  139.8154  156.7349 H   0  0  0  0  0  0  0  0  0  0  0  0
  147.4584  142.3729  155.5463 H   0  0  0  0  0  0  0  0  0  0  0  0
  146.5695  141.0892  156.3314 H   0  0  0  0  0  0  0  0  0  0  0  0
  146.9397  143.0416  157.8739 H   0  0  0  0  0  0  0  0  0  0  0  0
  147.6862  141.5849  158.5026 H   0  0  0  0  0  0  0  0  0  0  0  0
  149.0457  143.7223  157.0202 H   0  0  0  0  0  0  0  0  0  0  0  0
  150.2396  141.3760  158.3076 H   0  0  0  0  0  0  0  0  0  0  0  0
  151.1041  142.6745  157.5064 H   0  0  0  0  0  0  0  0  0  0  0  0
  149.1553  143.4403  158.6354 H   0  0  0  0  0  0  0  0  0  0  0  0
  1 11  2  0  0  0  0
  1 12  1  0  0  0  0
  1  2  1  0  0  0  0
  2  3  1  0  0  0  0
  3  4  2  0  0  0  0
  4 11  1  0  0  0  0
  4  5  1  0  0  0  0
  5 10  1  0  0  0  0
  5  6  1  0  0  0  0
  5 13  1  0  0  0  0
  6  7  1  0  0  0  0
  6 14  1  0  0  0  0
  6 15  1  0  0  0  0
  7  8  1  0  0  0  0
  7 16  1  0  0  0  0
  7 17  1  0  0  0  0
  8  9  1  0  0  0  0
  8 18  1  0  0  0  0
  8 19  1  0  0  0  0
  9 10  1  0  0  0  0
  9 20  1  0  0  0  0
  9 23  1  0  0  0  0
 10 21  1  0  0  0  0
 10 22  1  0  0  0  0
M  CHG  1   2  -1
M  CHG  1   9   1
M  END
> <s_m_source_file>
AV-unprocessed.smi

> <i_m_source_file_index>
759

> <i_lp_mmshare_version>
43012

> <i_f3d_flags>
0

> <s_epik_input>
W25IXTFbY0hdbm5jMVtDQEBIXTJbQ0gyXVtDSDJdW0NIMl1bTkhdW0NIMl0y

> <s_epik_cmdline>
J2VwaWtfcHl0aG9uJywgJy1waCcsICc3LjAnLCAnLXRuJywgJzgnLCAnLW1hJywgJzIwMCcsICctbWV0YWxfYmluZGluZycsICctaW1hZScsICc8aW5maWxlLm1hZT4nLCAnLW9tYWUnLCAnPG91dGZpbGUubWFlPic=

> <r_lp_tautomer_probability>
0.948284

> <r_epik_Ionization_Penalty>
7.12535

> <r_epik_Ionization_Penalty_Charging>
7.12535

> <r_epik_Ionization_Penalty_Neutral>
7.15677e-14

> <r_epik_State_Penalty>
3.13859

> <r_epik_Charging_Adjusted_Penalty>
10.2639

> <i_epik_Tot_Q>
0

> <i_epik_Tot_abs_Q>
2

> <r_epik_Metal_State_Penalty>
0.603007

> <b_epik_Metal_Only>
1

> <s_lp_Force_Field>
OPLS_2005

> <r_lp_Energy>
6.41651

> <b_lp_Chiralities_Consistent>
1

> <s_lp_Variant>
AV-unprocessed.smi:759-8

> <Gold.Version>
5.8.1

> <Gold.Id.Protein>
6NUR|6NUR_protein|mol2

> <Gold.PLP.Fitness>
33.1807

> <Gold.PLP.PLP>
-18.1894

> <Gold.PLP.part.hbond>
-4.2911

> <Gold.PLP.part.metal>
0.0000

> <Gold.PLP.part.buried>
-2.6121

> <Gold.PLP.part.nonpolar>
-12.0047

> <Gold.PLP.part.repulsive>
0.1155

> <Gold.PLP.ligand.clash>
0.0000

> <Gold.PLP.ligand.torsion>
0.0251

> <Gold.PLP.Chemscore.Hbond>
5.0000

> <Gold.PLP.Chemscore.CHOScore>
0.0000

> <Gold.PLP.Chemscore.Metal>
0.0000

> <Gold.Chemscore.Hbonds>
donor molecule, donor type, donor heavy atom, donor atom, acceptor molecule, acceptor atom, score
      L1  H     9    20       P1  8028  2.00
      P1  H  7989  7998       L1    11  1.00
      P1  H  7997  8010       L1     2  1.80

> <Gold.PLP.Chemscore.Internal.Correction>
0.0414

> <Gold.Rescore>
     Score         DG    S(hbond)    S(metal)    S(lipo)     H(rot)  DE(clash)    DE(int)     intcor
     11.11     -11.19       1.80        0.00      19.25       1.00       0.01       0.07       ----

> <Gold.Chemscore.Fitness>
11.1145

> <Gold.Chemscore.DG>
-11.1906

> <Gold.Chemscore.ZeroCoef>
-5.4800

> <Gold.Chemscore.Hbond>
1.8018

> <Gold.Chemscore.Metal>
0.0000

> <Gold.Chemscore.Lipo>
19.2524

> <Gold.Chemscore.Internal_Hbond>
0.0000

> <Gold.Chemscore.DEClash>
0.0060

> <Gold.Chemscore.DEInternal>
0.0700

> <Gold.Chemscore.Rot>
1.0000

> <Gold.Chemscore.Internal.Correction>
   9.000000E+99

> <Gold.Chemscore.Hbonds>
donor molecule, donor type, donor heavy atom, donor atom, acceptor molecule, acceptor atom, score
      L1  H     9    20       P1  8028  0.45
      P1  H  7989  7998       L1    11  0.39
      P1  H  7997  8010       L1     2  0.17

> <Gold.Chemscore.Hbond.Weighted>
-6.0180

> <Gold.Chemscore.Metal.Weighted>
-0.0000

> <Gold.Chemscore.Lipo.Weighted>
-2.2525

> <Gold.Chemscore.Internal_Hbond.Weighted>
0.0000

> <Gold.Chemscore.DEClash.Weighted>
0.0060

> <Gold.Chemscore.DEInternal.Weighted>
0.0700

> <Gold.Chemscore.Rot.Weighted>
2.5600

> <Gold.Chemscore.Internal.Correction.Weighted>
   9.000000E+99

> <Gold.Protein.RotatedTorsions>
[ 6907 6896 6895 6894 ] final  135.18 input  -60.11 | X-H torsion
[ 7974 7965 7964 7962 ] final  -36.74 input  175.53 | X-H torsion
[ 8008 7997 7996 7995 ] final   75.45 input   59.86 | X-H torsion
[ 10167 10162 10161 10158 ] final  155.74 input  -65.29 | X-H torsion
[ 10718 10713 10712 10709 ] final  110.38 input   66.30 | X-H torsion
[ 10763 10752 10751 10750 ] final   26.21 input  -60.55 | X-H torsion
[ 11005 11000 10999 10996 ] final  145.20 input  -57.11 | X-H torsion

> <Gold.Protein.ActiveResidues>
 VAL166  LYS551  ARG553  GLY616  TRP617  ASP618  TYR619  PRO620  LYS621  CYS622 
 ASP623  PHE694  ASN695  SER759  ASP760  ASP761  ALA762  ILE779  LEU786  VAL792 
 PHE793  MET794  SER795  GLU796  ALA797  LYS798  CYS799  TRP800  GLU811  SER814 

> <Gold.Protein.RotatedAtoms>
  152.3033  133.5677  159.5632 H   0  0  0  0  0  0  0  0  0  0  0  0  # atno 6907 bound_to 6896
  150.7288  134.0260  159.3726 H   0  0  0  0  0  0  0  0  0  0  0  0  # atno 6908 bound_to 6896
  151.8158  135.0667  160.0469 H   0  0  0  0  0  0  0  0  0  0  0  0  # atno 6909 bound_to 6896
  146.0635  140.6314  142.8986 H   0  0  0  0  0  0  0  0  0  0  0  0  # atno 7974 bound_to 7965
  155.8130  140.3472  155.5469 H   0  0  0  0  0  0  0  0  0  0  0  0  # atno 8008 bound_to 7997
  155.8421  140.0943  157.1748 H   0  0  0  0  0  0  0  0  0  0  0  0  # atno 8009 bound_to 7997
  154.4005  140.1392  156.3728 H   0  0  0  0  0  0  0  0  0  0  0  0  # atno 8010 bound_to 7997
  139.4821  144.5072  151.8080 H   0  0  0  0  0  0  0  0  0  0  0  0  # atno 10167 bound_to 10162
  157.6497  131.0931  150.6593 H   0  0  0  0  0  0  0  0  0  0  0  0  # atno 10718 bound_to 10713
  153.0638  135.6565  154.0401 H   0  0  0  0  0  0  0  0  0  0  0  0  # atno 10763 bound_to 10752
  154.0062  135.2932  155.3399 H   0  0  0  0  0  0  0  0  0  0  0  0  # atno 10764 bound_to 10752
  154.6988  135.5253  153.8565 H   0  0  0  0  0  0  0  0  0  0  0  0  # atno 10765 bound_to 10752
  140.0693  134.9161  157.1318 H   0  0  0  0  0  0  0  0  0  0  0  0  # atno 11005 bound_to 11000
  144.7189  140.4304  143.7023 LP  0  0  0  0  0  0  0  0  0  0  0  0  # atno 17320 bound_to 7965
  145.6518  139.1566  143.2857 LP  0  0  0  0  0  0  0  0  0  0  0  0  # atno 17321 bound_to 7965
  140.4571  144.1774  150.5902 LP  0  0  0  0  0  0  0  0  0  0  0  0  # atno 17342 bound_to 10162
  140.4524  143.2481  151.9330 LP  0  0  0  0  0  0  0  0  0  0  0  0  # atno 17343 bound_to 10162
  156.6906  130.4594  149.5601 LP  0  0  0  0  0  0  0  0  0  0  0  0  # atno 17370 bound_to 10713
  156.1864  130.6532  151.1011 LP  0  0  0  0  0  0  0  0  0  0  0  0  # atno 17371 bound_to 10713
  140.3651  134.2451  155.7183 LP  0  0  0  0  0  0  0  0  0  0  0  0  # atno 17394 bound_to 11000
  141.2005  133.7985  157.0484 LP  0  0  0  0  0  0  0  0  0  0  0  0  # atno 17395 bound_to 11000

$$$$
