AV-unprocessed.smi:1511|AV-procd|sdf|6099|dock2
  -GOLD-   22720 6233D 1   1.00000     0.00000
 Structure written by MMmdl.
 32 33  0  0  0  0  0  0  0  0  1 V2000
  144.5972  135.6968  153.3490 O   0  0  0  0  0  0  0  0  0  0  0  0
  145.7273  135.6583  152.8632 C   0  0  0  0  0  0  0  0  0  0  0  0
  146.3939  134.3120  152.5856 C   0  0  0  0  0  0  0  0  0  0  0  0
  145.6299  133.5650  151.6019 N   0  0  0  0  0  0  0  0  0  0  0  0
  145.9195  132.3357  151.0470 C   0  0  0  0  0  0  0  0  0  0  0  0
  144.9293  132.0504  150.1514 C   0  0  0  0  0  0  0  0  0  0  0  0
  144.0673  133.1798  150.2292 C   0  0  0  0  0  0  0  0  0  0  0  0
  144.4890  134.0851  151.0975 N   0  0  0  0  0  0  0  0  0  0  0  0
  146.4578  136.7499  152.5870 N   0  0  0  0  0  0  0  0  0  0  0  0
  146.0988  138.1196  152.9373 C   0  0  0  0  0  0  0  0  0  0  0  0
  147.3572  138.9753  153.1791 C   0  0  1  0  0  0  0  0  0  0  0  0
  147.0333  140.4739  153.3330 C   0  0  0  0  0  0  0  0  0  0  0  0
  148.2927  141.2005  153.8172 C   0  0  0  0  0  0  0  0  0  0  0  0
  149.1728  140.0064  154.8921 S   0  0  0  0  0  0  0  0  0  0  0  0
  150.5490  139.8447  154.3994 O   0  0  0  0  0  0  0  0  0  0  0  0
  148.9056  140.3236  156.3031 O   0  0  0  0  0  0  0  0  0  0  0  0
  148.1756  138.5473  154.4103 C   0  0  0  0  0  0  0  0  0  0  0  0
  147.4047  134.4648  152.2049 H   0  0  0  0  0  0  0  0  0  0  0  0
  146.4782  133.7314  153.5058 H   0  0  0  0  0  0  0  0  0  0  0  0
  146.7998  131.7767  151.3290 H   0  0  0  0  0  0  0  0  0  0  0  0
  144.8360  131.1700  149.5332 H   0  0  0  0  0  0  0  0  0  0  0  0
  143.1548  133.3682  149.6827 H   0  0  0  0  0  0  0  0  0  0  0  0
  147.3739  136.6102  152.1852 H   0  0  0  0  0  0  0  0  0  0  0  0
  145.5218  138.5382  152.1124 H   0  0  0  0  0  0  0  0  0  0  0  0
  145.4453  138.1470  153.8108 H   0  0  0  0  0  0  0  0  0  0  0  0
  148.0084  138.8766  152.3089 H   0  0  0  0  0  0  0  0  0  0  0  0
  146.6583  140.9044  152.4040 H   0  0  0  0  0  0  0  0  0  0  0  0
  146.2479  140.5956  154.0803 H   0  0  0  0  0  0  0  0  0  0  0  0
  148.9457  141.4442  152.9788 H   0  0  0  0  0  0  0  0  0  0  0  0
  148.0738  142.1155  154.3677 H   0  0  0  0  0  0  0  0  0  0  0  0
  147.5227  138.2985  155.2476 H   0  0  0  0  0  0  0  0  0  0  0  0
  148.8277  137.6954  154.2150 H   0  0  0  0  0  0  0  0  0  0  0  0
  1  2  2  0  0  0  0
  2  3  1  0  0  0  0
  2  9  1  0  0  0  0
  3  4  1  0  0  0  0
  3 18  1  0  0  0  0
  3 19  1  0  0  0  0
  4  8  1  0  0  0  0
  4  5  1  0  0  0  0
  5  6  2  0  0  0  0
  5 20  1  0  0  0  0
  6  7  1  0  0  0  0
  6 21  1  0  0  0  0
  7  8  2  0  0  0  0
  7 22  1  0  0  0  0
  9 10  1  0  0  0  0
  9 23  1  0  0  0  0
 10 11  1  0  0  0  0
 10 24  1  0  0  0  0
 10 25  1  0  0  0  0
 11 17  1  0  0  0  0
 11 12  1  0  0  0  0
 11 26  1  0  0  0  0
 12 13  1  0  0  0  0
 12 27  1  0  0  0  0
 12 28  1  0  0  0  0
 13 14  1  0  0  0  0
 13 29  1  0  0  0  0
 13 30  1  0  0  0  0
 14 15  2  0  0  0  0
 14 16  2  0  0  0  0
 14 17  1  0  0  0  0
 17 31  1  0  0  0  0
 17 32  1  0  0  0  0
M  END
> <s_m_source_file>
AV-unprocessed.smi

> <i_m_source_file_index>
1511

> <i_lp_mmshare_version>
43012

> <i_f3d_flags>
0

> <s_epik_input>
bjFbY0hdW2NIXVtjSF1uMVtDSDJdQyg9TylbTkhdW0NIMl1bQ0BASF0oW0NIMl0yKVtDSDJdW0NIMl1TMig9Tyk9Tw==

> <s_epik_cmdline>
J2VwaWtfcHl0aG9uJywgJy1waCcsICc3LjAnLCAnLXRuJywgJzgnLCAnLW1hJywgJzIwMCcsICctbWV0YWxfYmluZGluZycsICctaW1hZScsICc8aW5maWxlLm1hZT4nLCAnLW9tYWUnLCAnPG91dGZpbGUubWFlPic=

> <r_lp_tautomer_probability>
1

> <r_epik_Ionization_Penalty>
1.34373e-05

> <r_epik_Ionization_Penalty_Charging>
0

> <r_epik_Ionization_Penalty_Neutral>
1.34373e-05

> <r_epik_State_Penalty>
-0

> <r_epik_Charging_Adjusted_Penalty>
0

> <i_epik_Tot_Q>
0

> <i_epik_Tot_abs_Q>
0

> <r_epik_Metal_State_Penalty>
-0

> <b_epik_Metal_Only>
0

> <s_lp_Force_Field>
OPLS_2005

> <r_lp_Energy>
3.15153

> <b_lp_Chiralities_Consistent>
1

> <s_lp_Variant>
AV-unprocessed.smi:1511-2

> <Gold.Version>
5.8.1

> <Gold.Id.Protein>
6NUR|6NUR_protein|mol2

> <Gold.PLP.Fitness>
39.2226

> <Gold.PLP.PLP>
-27.6655

> <Gold.PLP.part.hbond>
-2.0000

> <Gold.PLP.part.metal>
0.0000

> <Gold.PLP.part.buried>
-2.7325

> <Gold.PLP.part.nonpolar>
-23.1616

> <Gold.PLP.part.repulsive>
0.3928

> <Gold.PLP.ligand.clash>
0.0000

> <Gold.PLP.ligand.torsion>
0.2257

> <Gold.PLP.Chemscore.Hbond>
2.0000

> <Gold.PLP.Chemscore.CHOScore>
2.0000

> <Gold.PLP.Chemscore.Metal>
0.0000

> <Gold.Chemscore.Hbonds>
donor molecule, donor type, donor heavy atom, donor atom, acceptor molecule, acceptor atom, score
      L1  H     9    23       P1  7948  1.00
      P1  H  7989  7998       L1    15  1.00
      L1  C     5    20       P1 10747  0.86
      L1  C     7    22       P1 10186  1.00

> <Gold.PLP.Chemscore.Internal.Correction>
0.0085

> <Gold.Rescore>
     Score         DG    S(hbond)    S(metal)    S(lipo)     H(rot)  DE(clash)    DE(int)     intcor
     13.42     -15.17       1.99        0.00      65.75       1.82       0.02       1.73       ----

> <Gold.Chemscore.Fitness>
13.4208

> <Gold.Chemscore.DG>
-15.1697

> <Gold.Chemscore.ZeroCoef>
-5.4800

> <Gold.Chemscore.Hbond>
1.9912

> <Gold.Chemscore.Metal>
0.0000

> <Gold.Chemscore.Lipo>
65.7491

> <Gold.Chemscore.Internal_Hbond>
0.0000

> <Gold.Chemscore.DEClash>
0.0154

> <Gold.Chemscore.DEInternal>
1.7335

> <Gold.Chemscore.Rot>
1.8178

> <Gold.Chemscore.Internal.Correction>
   9.000000E+99

> <Gold.Chemscore.Hbonds>
donor molecule, donor type, donor heavy atom, donor atom, acceptor molecule, acceptor atom, score
      L1  H     9    23       P1  7948  1.00
      P1  H  7989  7998       L1    15  1.00

> <Gold.Chemscore.Hbond.Weighted>
-6.6507

> <Gold.Chemscore.Metal.Weighted>
-0.0000

> <Gold.Chemscore.Lipo.Weighted>
-7.6926

> <Gold.Chemscore.Internal_Hbond.Weighted>
0.0000

> <Gold.Chemscore.DEClash.Weighted>
0.0154

> <Gold.Chemscore.DEInternal.Weighted>
1.7335

> <Gold.Chemscore.Rot.Weighted>
4.6537

> <Gold.Chemscore.Internal.Correction.Weighted>
   9.000000E+99

> <Gold.Protein.RotatedTorsions>
[ 6907 6896 6895 6894 ] final  152.27 input  -60.11 | X-H torsion
[ 7974 7965 7964 7962 ] final   66.23 input  175.53 | X-H torsion
[ 8008 7997 7996 7995 ] final -117.77 input   59.86 | X-H torsion
[ 10167 10162 10161 10158 ] final   35.16 input  -65.29 | X-H torsion
[ 10718 10713 10712 10709 ] final  -94.74 input   66.30 | X-H torsion
[ 10763 10752 10751 10750 ] final -159.97 input  -60.55 | X-H torsion
[ 11005 11000 10999 10996 ] final  -94.28 input  -57.11 | X-H torsion

> <Gold.Protein.ActiveResidues>
 VAL166  LYS551  ARG553  GLY616  TRP617  ASP618  TYR619  PRO620  LYS621  CYS622 
 ASP623  PHE694  ASN695  SER759  ASP760  ASP761  ALA762  ILE779  LEU786  VAL792 
 PHE793  MET794  SER795  GLU796  ALA797  LYS798  CYS799  TRP800  GLU811  SER814 

> <Gold.Protein.RotatedAtoms>
  152.0891  133.4191  159.4535 H   0  0  0  0  0  0  0  0  0  0  0  0  # atno 6907 bound_to 6896
  150.6862  134.2893  159.4669 H   0  0  0  0  0  0  0  0  0  0  0  0  # atno 6908 bound_to 6896
  152.0743  134.9513  160.0625 H   0  0  0  0  0  0  0  0  0  0  0  0  # atno 6909 bound_to 6896
  145.8291  139.3128  143.0998 H   0  0  0  0  0  0  0  0  0  0  0  0  # atno 7974 bound_to 7965
  155.0890  140.0395  157.2662 H   0  0  0  0  0  0  0  0  0  0  0  0  # atno 8008 bound_to 7997
  154.6847  140.2640  155.6848 H   0  0  0  0  0  0  0  0  0  0  0  0  # atno 8009 bound_to 7997
  156.2707  140.2771  156.1404 H   0  0  0  0  0  0  0  0  0  0  0  0  # atno 8010 bound_to 7997
  140.4248  144.1408  150.6152 H   0  0  0  0  0  0  0  0  0  0  0  0  # atno 10167 bound_to 10162
  156.0032  130.5080  150.5972 H   0  0  0  0  0  0  0  0  0  0  0  0  # atno 10718 bound_to 10713
  154.7430  135.3073  154.8694 H   0  0  0  0  0  0  0  0  0  0  0  0  # atno 10763 bound_to 10752
  153.9503  135.6764  153.4748 H   0  0  0  0  0  0  0  0  0  0  0  0  # atno 10764 bound_to 10752
  153.1028  135.4904  154.8822 H   0  0  0  0  0  0  0  0  0  0  0  0  # atno 10765 bound_to 10752
  141.1475  133.7945  157.0276 H   0  0  0  0  0  0  0  0  0  0  0  0  # atno 11005 bound_to 11000
  145.9591  140.8850  143.0220 LP  0  0  0  0  0  0  0  0  0  0  0  0  # atno 17320 bound_to 7965
  144.6741  140.1787  143.7408 LP  0  0  0  0  0  0  0  0  0  0  0  0  # atno 17321 bound_to 7965
  140.4493  143.2493  151.9369 LP  0  0  0  0  0  0  0  0  0  0  0  0  # atno 17342 bound_to 10162
  139.4783  144.5578  151.8287 LP  0  0  0  0  0  0  0  0  0  0  0  0  # atno 17343 bound_to 10162
  157.3827  131.0783  151.1463 LP  0  0  0  0  0  0  0  0  0  0  0  0  # atno 17370 bound_to 10713
  157.2180  130.6468  149.5800 LP  0  0  0  0  0  0  0  0  0  0  0  0  # atno 17371 bound_to 10713
  140.0775  134.9667  157.1569 LP  0  0  0  0  0  0  0  0  0  0  0  0  # atno 17394 bound_to 11000
  140.3624  134.2480  155.7186 LP  0  0  0  0  0  0  0  0  0  0  0  0  # atno 17395 bound_to 11000

$$$$
