AV-unprocessed.smi:1511|AV-procd|sdf|6098|dock10
  -GOLD-   22720 6223D 1   1.00000     0.00000
 Structure written by MMmdl.
 32 33  0  0  0  0  0  0  0  0  1 V2000
  152.7760  140.1759  157.6368 O   0  0  0  0  0  0  0  0  0  0  0  0
  151.7241  140.2863  157.0079 C   0  0  0  0  0  0  0  0  0  0  0  0
  150.8002  141.4795  157.2627 C   0  0  0  0  0  0  0  0  0  0  0  0
  151.4921  142.5394  157.9775 N   0  0  0  0  0  0  0  0  0  0  0  0
  151.5612  143.8811  157.6641 C   0  0  0  0  0  0  0  0  0  0  0  0
  152.3386  144.4812  158.6127 C   0  0  0  0  0  0  0  0  0  0  0  0
  152.7018  143.4118  159.4781 C   0  0  0  0  0  0  0  0  0  0  0  0
  152.1931  142.2515  159.0963 N   0  0  0  0  0  0  0  0  0  0  0  0
  151.3273  139.4094  156.0723 N   0  0  0  0  0  0  0  0  0  0  0  0
  152.1172  138.2833  155.5890 C   0  0  0  0  0  0  0  0  0  0  0  0
  151.3823  136.9404  155.7782 C   0  0  2  0  0  0  0  0  0  0  0  0
  150.0826  136.8263  154.9527 C   0  0  0  0  0  0  0  0  0  0  0  0
  149.3069  135.5974  155.4341 C   0  0  0  0  0  0  0  0  0  0  0  0
  149.6234  135.4917  157.2341 S   0  0  0  0  0  0  0  0  0  0  0  0
  148.4977  136.0933  157.9644 O   0  0  0  0  0  0  0  0  0  0  0  0
  150.1009  134.1392  157.5593 O   0  0  0  0  0  0  0  0  0  0  0  0
  151.0337  136.6638  157.2494 C   0  0  0  0  0  0  0  0  0  0  0  0
  150.4333  141.8702  156.3128 H   0  0  0  0  0  0  0  0  0  0  0  0
  149.9296  141.1675  157.8419 H   0  0  0  0  0  0  0  0  0  0  0  0
  151.0608  144.2917  156.7994 H   0  0  0  0  0  0  0  0  0  0  0  0
  152.6072  145.5250  158.6784 H   0  0  0  0  0  0  0  0  0  0  0  0
  153.3167  143.4436  160.3652 H   0  0  0  0  0  0  0  0  0  0  0  0
  150.4413  139.5727  155.6165 H   0  0  0  0  0  0  0  0  0  0  0  0
  152.3733  138.4323  154.5387 H   0  0  0  0  0  0  0  0  0  0  0  0
  153.0590  138.2747  156.1385 H   0  0  0  0  0  0  0  0  0  0  0  0
  152.0405  136.1344  155.4504 H   0  0  0  0  0  0  0  0  0  0  0  0
  149.4739  137.7163  155.1167 H   0  0  0  0  0  0  0  0  0  0  0  0
  150.2818  136.7690  153.8818 H   0  0  0  0  0  0  0  0  0  0  0  0
  148.2363  135.6604  155.2395 H   0  0  0  0  0  0  0  0  0  0  0  0
  149.6956  134.6908  154.9695 H   0  0  0  0  0  0  0  0  0  0  0  0
  151.8678  136.2398  157.8085 H   0  0  0  0  0  0  0  0  0  0  0  0
  150.7042  137.5716  157.7554 H   0  0  0  0  0  0  0  0  0  0  0  0
  1  2  2  0  0  0  0
  2  3  1  0  0  0  0
  2  9  1  0  0  0  0
  3  4  1  0  0  0  0
  3 18  1  0  0  0  0
  3 19  1  0  0  0  0
  4  8  1  0  0  0  0
  4  5  1  0  0  0  0
  5  6  2  0  0  0  0
  5 20  1  0  0  0  0
  6  7  1  0  0  0  0
  6 21  1  0  0  0  0
  7  8  2  0  0  0  0
  7 22  1  0  0  0  0
  9 10  1  0  0  0  0
  9 23  1  0  0  0  0
 10 11  1  0  0  0  0
 10 24  1  0  0  0  0
 10 25  1  0  0  0  0
 11 17  1  0  0  0  0
 11 12  1  0  0  0  0
 11 26  1  0  0  0  0
 12 13  1  0  0  0  0
 12 27  1  0  0  0  0
 12 28  1  0  0  0  0
 13 14  1  0  0  0  0
 13 29  1  0  0  0  0
 13 30  1  0  0  0  0
 14 15  2  0  0  0  0
 14 16  2  0  0  0  0
 14 17  1  0  0  0  0
 17 31  1  0  0  0  0
 17 32  1  0  0  0  0
M  END
> <s_m_source_file>
AV-unprocessed.smi

> <i_m_source_file_index>
1511

> <i_lp_mmshare_version>
43012

> <i_f3d_flags>
0

> <s_epik_input>
bjFbY0hdW2NIXVtjSF1uMVtDSDJdQyg9TylbTkhdW0NIMl1bQ0BASF0oW0NIMl0yKVtDSDJdW0NIMl1TMig9Tyk9Tw==

> <s_epik_cmdline>
J2VwaWtfcHl0aG9uJywgJy1waCcsICc3LjAnLCAnLXRuJywgJzgnLCAnLW1hJywgJzIwMCcsICctbWV0YWxfYmluZGluZycsICctaW1hZScsICc8aW5maWxlLm1hZT4nLCAnLW9tYWUnLCAnPG91dGZpbGUubWFlPic=

> <r_lp_tautomer_probability>
1

> <r_epik_Ionization_Penalty>
1.34373e-05

> <r_epik_Ionization_Penalty_Charging>
0

> <r_epik_Ionization_Penalty_Neutral>
1.34373e-05

> <r_epik_State_Penalty>
-0

> <r_epik_Charging_Adjusted_Penalty>
0

> <i_epik_Tot_Q>
0

> <i_epik_Tot_abs_Q>
0

> <r_epik_Metal_State_Penalty>
-0

> <b_epik_Metal_Only>
0

> <s_lp_Force_Field>
OPLS_2005

> <r_lp_Energy>
3.80917

> <b_lp_Chiralities_Consistent>
1

> <s_lp_Variant>
AV-unprocessed.smi:1511-1

> <Gold.Version>
5.8.1

> <Gold.Id.Protein>
6NUR|6NUR_protein|mol2

> <Gold.PLP.Fitness>
36.5909

> <Gold.PLP.PLP>
-28.3078

> <Gold.PLP.part.hbond>
-2.0000

> <Gold.PLP.part.metal>
0.0000

> <Gold.PLP.part.buried>
-3.4612

> <Gold.PLP.part.nonpolar>
-23.6249

> <Gold.PLP.part.repulsive>
0.1068

> <Gold.PLP.ligand.clash>
0.0000

> <Gold.PLP.ligand.torsion>
0.3144

> <Gold.PLP.Chemscore.Hbond>
1.9680

> <Gold.PLP.Chemscore.CHOScore>
1.0000

> <Gold.PLP.Chemscore.Metal>
0.0000

> <Gold.Chemscore.Hbonds>
donor molecule, donor type, donor heavy atom, donor atom, acceptor molecule, acceptor atom, score
      P1  H  6896  6908       L1    16  0.90
      P1  H  7997  8010       L1     1  1.00
      L1  C     5    20       P1  8028  1.00

> <Gold.PLP.Chemscore.Internal.Correction>
0.0078

> <Gold.Rescore>
     Score         DG    S(hbond)    S(metal)    S(lipo)     H(rot)  DE(clash)    DE(int)     intcor
     13.03     -15.12       1.93        0.00      67.13       1.82       0.00       2.09       ----

> <Gold.Chemscore.Fitness>
13.0287

> <Gold.Chemscore.DG>
-15.1188

> <Gold.Chemscore.ZeroCoef>
-5.4800

> <Gold.Chemscore.Hbond>
1.9277

> <Gold.Chemscore.Metal>
0.0000

> <Gold.Chemscore.Lipo>
67.1286

> <Gold.Chemscore.Internal_Hbond>
0.0000

> <Gold.Chemscore.DEClash>
0.0021

> <Gold.Chemscore.DEInternal>
2.0880

> <Gold.Chemscore.Rot>
1.8178

> <Gold.Chemscore.Internal.Correction>
   9.000000E+99

> <Gold.Chemscore.Hbonds>
donor molecule, donor type, donor heavy atom, donor atom, acceptor molecule, acceptor atom, score
      P1  H  6896  6908       L1    16  0.72
      P1  H  7997  8010       L1     1  0.95

> <Gold.Chemscore.Hbond.Weighted>
-6.4385

> <Gold.Chemscore.Metal.Weighted>
-0.0000

> <Gold.Chemscore.Lipo.Weighted>
-7.8540

> <Gold.Chemscore.Internal_Hbond.Weighted>
0.0000

> <Gold.Chemscore.DEClash.Weighted>
0.0021

> <Gold.Chemscore.DEInternal.Weighted>
2.0880

> <Gold.Chemscore.Rot.Weighted>
4.6537

> <Gold.Chemscore.Internal.Correction.Weighted>
   9.000000E+99

> <Gold.Protein.RotatedTorsions>
[ 6907 6896 6895 6894 ] final  133.68 input  -60.11 | X-H torsion
[ 7974 7965 7964 7962 ] final   58.96 input  175.53 | X-H torsion
[ 8008 7997 7996 7995 ] final   49.24 input   59.86 | X-H torsion
[ 10167 10162 10161 10158 ] final   -6.23 input  -65.29 | X-H torsion
[ 10718 10713 10712 10709 ] final -179.38 input   66.30 | X-H torsion
[ 10763 10752 10751 10750 ] final  166.77 input  -60.55 | X-H torsion
[ 11005 11000 10999 10996 ] final  -77.78 input  -57.11 | X-H torsion

> <Gold.Protein.ActiveResidues>
 VAL166  LYS551  ARG553  GLY616  TRP617  ASP618  TYR619  PRO620  LYS621  CYS622 
 ASP623  PHE694  ASN695  SER759  ASP760  ASP761  ALA762  ILE779  LEU786  VAL792 
 PHE793  MET794  SER795  GLU796  ALA797  LYS798  CYS799  TRP800  GLU811  SER814 

> <Gold.Protein.RotatedAtoms>
  152.3194  133.5837  159.5733 H   0  0  0  0  0  0  0  0  0  0  0  0  # atno 6907 bound_to 6896
  150.7363  134.0034  159.3654 H   0  0  0  0  0  0  0  0  0  0  0  0  # atno 6908 bound_to 6896
  151.7920  135.0733  160.0439 H   0  0  0  0  0  0  0  0  0  0  0  0  # atno 6909 bound_to 6896
  145.9124  139.3665  143.0527 H   0  0  0  0  0  0  0  0  0  0  0  0  # atno 7974 bound_to 7965
  155.3990  140.3437  155.4256 H   0  0  0  0  0  0  0  0  0  0  0  0  # atno 8008 bound_to 7997
  156.1514  140.1572  156.8795 H   0  0  0  0  0  0  0  0  0  0  0  0  # atno 8009 bound_to 7997
  154.5056  140.0803  156.7869 H   0  0  0  0  0  0  0  0  0  0  0  0  # atno 8010 bound_to 7997
  140.6990  143.6218  150.8606 H   0  0  0  0  0  0  0  0  0  0  0  0  # atno 10167 bound_to 10162
  156.8582  130.9742  151.3086 H   0  0  0  0  0  0  0  0  0  0  0  0  # atno 10718 bound_to 10713
  154.3439  135.2753  155.2408 H   0  0  0  0  0  0  0  0  0  0  0  0  # atno 10763 bound_to 10752
  154.4667  135.5893  153.6296 H   0  0  0  0  0  0  0  0  0  0  0  0  # atno 10764 bound_to 10752
  152.9855  135.6078  154.3643 H   0  0  0  0  0  0  0  0  0  0  0  0  # atno 10765 bound_to 10752
  141.1662  133.7036  156.7873 H   0  0  0  0  0  0  0  0  0  0  0  0  # atno 11005 bound_to 11000
  145.8654  140.9451  143.0678 LP  0  0  0  0  0  0  0  0  0  0  0  0  # atno 17320 bound_to 7965
  144.6744  140.0585  143.7477 LP  0  0  0  0  0  0  0  0  0  0  0  0  # atno 17321 bound_to 7965
  139.9938  143.5818  152.2900 LP  0  0  0  0  0  0  0  0  0  0  0  0  # atno 17342 bound_to 10162
  139.6483  144.7659  151.2200 LP  0  0  0  0  0  0  0  0  0  0  0  0  # atno 17343 bound_to 10162
  157.6265  130.8695  149.9198 LP  0  0  0  0  0  0  0  0  0  0  0  0  # atno 17370 bound_to 10713
  156.0791  130.3675  150.0617 LP  0  0  0  0  0  0  0  0  0  0  0  0  # atno 17371 bound_to 10713
  140.2351  134.8656  157.3516 LP  0  0  0  0  0  0  0  0  0  0  0  0  # atno 17394 bound_to 11000
  140.1852  134.4440  155.7748 LP  0  0  0  0  0  0  0  0  0  0  0  0  # atno 17395 bound_to 11000

$$$$
