#       Name:                AV-unprocessed.smi:66
#       Creating user name   scv26
#       Creation time:       Thu Mar 26 16:51:33 2020


#       File generated by GOLD software.
#

@<TRIPOS>MOLECULE
AV-unprocessed.smi:66
    38    40     1
SMALL
NO_CHARGES


@<TRIPOS>ATOM
      1 ****        -2.6284   2.3865   0.0226 O.co2          1 S1                 0.0000
      2 ****        -2.0148   1.5782   0.7526 C.2            1 S1                 0.0000
      3 ****        -2.5437   0.8071   1.5847 O.co2          1 S1                -1.0000
      4 ****        -0.4887   1.5350   0.6053 C.3            1 S1                 0.0000
      5 ****         0.2459   2.0656   1.8432 C.3            1 S1                 0.0000
      6 ****         1.5873   1.3464   1.7446 C.3            1 S1                 0.0000
      7 ****         2.2653   1.2838   2.9816 O.3            1 S1                 0.0000
      8 ****         1.2000  -0.0366   1.2154 C.3            1 S1                 0.0000
      9 ****        -0.0072   0.1651   0.4227 N.3            1 S1                 0.0000
     10 ****         0.0522  -0.3277  -0.8892 C.ar           1 S1                 0.0000
     11 ****         0.6819   0.3743  -1.8603 N.ar           1 S1                 0.0000
     12 ****         0.7212  -0.1630  -3.0880 C.ar           1 S1                 0.0000
     13 ****         0.2254  -1.3359  -3.5185 N.ar           1 S1                 0.0000
     14 ****        -0.3931  -2.0393  -2.5592 C.ar           1 S1                 0.0000
     15 ****        -0.9960  -3.2818  -2.7049 N.2            1 S1                 0.0000
     16 ****        -1.4460  -3.5168  -1.4717 C.2            1 S1                 0.0000
     17 ****        -1.1972  -2.5696  -0.5516 N.pl3          1 S1                 0.0000
     18 ****        -0.5045  -1.5739  -1.2171 C.ar           1 S1                 0.0000
     19 ****        -1.4812  -2.5953   0.4175 H              1 S1                 0.0000
     20 ****        -0.2034   2.1462  -0.2520 H              1 S1                 0.0000
     21 ****         0.3485   3.1512   1.8395 H              1 S1                 0.0000
     22 ****        -0.2700   1.7763   2.7611 H              1 S1                 0.0000
     23 ****         2.2171   1.8545   1.0127 H              1 S1                 0.0000
     24 ****         2.4232   2.1665   3.2798 H              1 S1                 0.0000
     25 ****         2.0170  -0.4942   0.6547 H              1 S1                 0.0000
     26 ****         0.9454  -0.7101   2.0349 H              1 S1                 0.0000
     27 ****         1.2272   0.4289  -3.8362 H              1 S1                 0.0000
     28 ****        -1.9837  -4.4207  -1.2255 H              1 S1                 0.0000
     29 ****        -3.6247   2.4531   0.0776 LP             1 S1                 0.0000
     30 ****        -2.1230   2.9664  -0.6163 LP             1 S1                 0.0000
     31 ****        -3.5363   0.8069   1.7058 LP             1 S1                 0.0000
     32 ****        -1.9736   0.1912   2.1285 LP             1 S1                 0.0000
     33 ****         3.1359   0.8055   2.8659 LP             1 S1                 0.0000
     34 ****         1.7037   0.7966   3.6504 LP             1 S1                 0.0000
     35 ****        -0.7282  -0.4296   0.7783 LP             1 S1                 0.0000
     36 ****         1.1024   1.2612  -1.6689 LP             1 S1                 0.0000
     37 ****         0.3097  -1.6532  -4.4630 LP             1 S1                 0.0000
     38 ****        -1.0728  -3.8524  -3.5225 LP             1 S1                 0.0000
@<TRIPOS>BOND
    1    1    2 ar    
    2    2    3 ar    
    3    2    4 1     
    4    4    9 1     
    5    4    5 1     
    6    4   20 1     
    7    5    6 1     
    8    5   21 1     
    9    5   22 1     
   10    6    7 1     
   11    6    8 1     
   12    6   23 1     
   13    7   24 1     
   14    8    9 1     
   15    8   25 1     
   16    8   26 1     
   17    9   10 1     
   18   10   18 ar    
   19   10   11 ar    
   20   11   12 ar    
   21   12   13 ar    
   22   12   27 1     
   23   13   14 ar    
   24   14   18 ar    
   25   14   15 1     
   26   15   16 2     
   27   16   17 1     
   28   16   28 1     
   29   17   19 1     
   30   17   18 1     
   31    1   29 1     
   32    1   30 1     
   33    3   31 1     
   34    3   32 1     
   35    7   33 1     
   36    7   34 1     
   37    9   35 1     
   38   11   36 1     
   39   13   37 1     
   40   15   38 1     
@<TRIPOS>SUBSTRUCTURE
      1 S1             1
@<TRIPOS>SET
LONE_PAIRS      STATIC     ATOMS    <user>   **** ""
10 29 30 31 32 33 34 35 36 37 38
DONOR_HYDROGENS      STATIC     ATOMS    <user>   **** ""
2 24 19
ATOM$BLUE        STATIC     ATOMS    COLORGROUP SYSTEM
10 29 30 31 32 33 34 35 36 37 38
ATOM$RED        STATIC     ATOMS    COLORGROUP SYSTEM
2 24 19
