AV-unprocessed.smi:2224|AV-procd|sdf|8995|dock4
  -GOLD-   2272012203D 1   1.00000     0.00000
 Structure written by MMmdl.
 44 46  0  0  0  0  0  0  0  0  1 V2000
  145.2479  132.1905  149.9550 C   0  0  0  0  0  0  0  0  0  0  0  0
  144.8212  133.2741  150.9227 C   0  0  0  0  0  0  0  0  0  0  0  0
  143.4999  133.3345  151.4058 C   0  0  0  0  0  0  0  0  0  0  0  0
  143.1660  134.3704  152.3002 C   0  0  0  0  0  0  0  0  0  0  0  0
  141.7649  134.4937  152.8609 C   0  0  0  0  0  0  0  0  0  0  0  0
  144.0517  135.3027  152.7121 N   0  0  0  0  0  0  0  0  0  0  0  0
  145.3268  135.2541  152.2534 C   0  0  0  0  0  0  0  0  0  0  0  0
  146.3348  136.1809  152.6290 N   0  0  0  0  0  0  0  0  0  0  0  0
  146.2076  137.2858  153.3845 C   0  0  0  0  0  0  0  0  0  0  0  0
  145.1521  137.7130  153.8532 O   0  0  0  0  0  0  0  0  0  0  0  0
  147.3921  137.8854  153.5681 N   0  0  0  0  0  0  0  0  0  0  0  0
  147.5880  139.1203  154.3216 C   0  0  2  0  0  0  0  0  0  0  0  0
  147.7375  140.3450  153.4051 C   0  0  1  0  0  0  0  0  0  0  0  0
  146.6952  141.4302  153.4256 C   0  0  0  0  0  0  0  0  0  0  0  0
  147.2917  142.4580  154.3912 C   0  0  0  0  0  0  0  0  0  0  0  0
  148.2148  141.7138  155.1825 O   0  0  0  0  0  0  0  0  0  0  0  0
  148.8693  140.7861  154.3202 C   0  0  1  0  0  0  0  0  0  0  0  0
  149.0300  139.3444  154.8471 C   0  0  0  0  0  0  0  0  0  0  0  0
  149.2281  139.2035  156.3575 C   0  0  0  0  0  0  0  0  0  0  0  0
  150.1623  138.5525  154.1770 C   0  0  0  0  0  0  0  0  0  0  0  0
  145.7453  134.2459  151.3562 C   0  0  0  0  0  0  0  0  0  0  0  0
  144.4076  131.5538  149.6761 H   0  0  0  0  0  0  0  0  0  0  0  0
  146.0176  131.5636  150.4056 H   0  0  0  0  0  0  0  0  0  0  0  0
  145.6543  132.6347  149.0461 H   0  0  0  0  0  0  0  0  0  0  0  0
  142.7623  132.6070  151.0998 H   0  0  0  0  0  0  0  0  0  0  0  0
  141.0926  133.7636  152.4093 H   0  0  0  0  0  0  0  0  0  0  0  0
  141.3639  135.4892  152.6681 H   0  0  0  0  0  0  0  0  0  0  0  0
  141.7730  134.3292  153.9386 H   0  0  0  0  0  0  0  0  0  0  0  0
  147.2612  135.9765  152.2857 H   0  0  0  0  0  0  0  0  0  0  0  0
  148.2111  137.4692  153.1503 H   0  0  0  0  0  0  0  0  0  0  0  0
  146.8364  139.2840  155.0972 H   0  0  0  0  0  0  0  0  0  0  0  0
  148.1066  140.0856  152.4111 H   0  0  0  0  0  0  0  0  0  0  0  0
  146.5181  141.8613  152.4401 H   0  0  0  0  0  0  0  0  0  0  0  0
  145.7448  141.0503  153.8016 H   0  0  0  0  0  0  0  0  0  0  0  0
  147.8356  143.2285  153.8426 H   0  0  0  0  0  0  0  0  0  0  0  0
  146.5367  142.9460  155.0078 H   0  0  0  0  0  0  0  0  0  0  0  0
  149.7283  141.2073  153.7957 H   0  0  0  0  0  0  0  0  0  0  0  0
  150.1825  139.6231  156.6769 H   0  0  0  0  0  0  0  0  0  0  0  0
  149.2048  138.1587  156.6689 H   0  0  0  0  0  0  0  0  0  0  0  0
  148.4463  139.7193  156.9157 H   0  0  0  0  0  0  0  0  0  0  0  0
  151.1400  138.9542  154.4447 H   0  0  0  0  0  0  0  0  0  0  0  0
  150.0914  138.5845  153.0895 H   0  0  0  0  0  0  0  0  0  0  0  0
  150.1501  137.5027  154.4720 H   0  0  0  0  0  0  0  0  0  0  0  0
  146.7646  134.2173  150.9988 H   0  0  0  0  0  0  0  0  0  0  0  0
  1  2  1  0  0  0  0
  1 22  1  0  0  0  0
  1 23  1  0  0  0  0
  1 24  1  0  0  0  0
  2 21  1  0  0  0  0
  2  3  2  0  0  0  0
  3  4  1  0  0  0  0
  3 25  1  0  0  0  0
  4  5  1  0  0  0  0
  4  6  2  0  0  0  0
  5 26  1  0  0  0  0
  5 27  1  0  0  0  0
  5 28  1  0  0  0  0
  6  7  1  0  0  0  0
  7  8  1  0  0  0  0
  7 21  2  0  0  0  0
  8  9  1  0  0  0  0
  8 29  1  0  0  0  0
  9 10  2  0  0  0  0
  9 11  1  0  0  0  0
 11 12  1  0  0  0  0
 11 30  1  0  0  0  0
 12 18  1  0  0  0  0
 12 13  1  0  0  0  0
 12 31  1  0  0  0  0
 13 17  1  0  0  0  0
 13 14  1  0  0  0  0
 13 32  1  0  0  0  0
 14 15  1  0  0  0  0
 14 33  1  0  0  0  0
 14 34  1  0  0  0  0
 15 16  1  0  0  0  0
 15 35  1  0  0  0  0
 15 36  1  0  0  0  0
 16 17  1  0  0  0  0
 17 18  1  0  0  0  0
 17 37  1  0  0  0  0
 18 19  1  0  0  0  0
 18 20  1  0  0  0  0
 19 38  1  0  0  0  0
 19 39  1  0  0  0  0
 19 40  1  0  0  0  0
 20 41  1  0  0  0  0
 20 42  1  0  0  0  0
 20 43  1  0  0  0  0
 21 44  1  0  0  0  0
M  END
> <s_m_source_file>
AV-unprocessed.smi

> <i_m_source_file_index>
2224

> <i_lp_mmshare_version>
43012

> <i_f3d_flags>
0

> <s_epik_input>
W0NIM11jMVtjSF1jKFtDSDNdKW5jKFtjSF0xKVtOSF1DKD1PKVtOSF1bQ0BIXTJDKFtDSDNdKShbQ0gzXSlbQ0BIXShbQ0BASF0yMylPW0NIMl1bQ0gyXTM=

> <s_epik_cmdline>
J2VwaWtfcHl0aG9uJywgJy1waCcsICc3LjAnLCAnLXRuJywgJzgnLCAnLW1hJywgJzIwMCcsICctbWV0YWxfYmluZGluZycsICctaW1hZScsICc8aW5maWxlLm1hZT4nLCAnLW9tYWUnLCAnPG91dGZpbGUubWFlPic=

> <r_lp_tautomer_probability>
1

> <r_epik_Ionization_Penalty>
0.000276544

> <r_epik_Ionization_Penalty_Charging>
0

> <r_epik_Ionization_Penalty_Neutral>
0.000276544

> <r_epik_State_Penalty>
-0

> <r_epik_Charging_Adjusted_Penalty>
0

> <i_epik_Tot_Q>
0

> <i_epik_Tot_abs_Q>
0

> <r_epik_Metal_State_Penalty>
-0

> <b_epik_Metal_Only>
0

> <s_lp_Force_Field>
OPLS_2005

> <r_lp_Energy>
38.5894

> <b_lp_Chiralities_Consistent>
1

> <s_lp_Variant>
AV-unprocessed.smi:2224-5

> <Gold.Version>
5.8.1

> <Gold.Id.Protein>
6NUR|6NUR_protein|mol2

> <Gold.PLP.Fitness>
39.1380

> <Gold.PLP.PLP>
-33.5726

> <Gold.PLP.part.hbond>
-2.0000

> <Gold.PLP.part.metal>
0.0000

> <Gold.PLP.part.buried>
-2.9188

> <Gold.PLP.part.nonpolar>
-29.6263

> <Gold.PLP.part.repulsive>
0.4625

> <Gold.PLP.ligand.clash>
0.0000

> <Gold.PLP.ligand.torsion>
0.2927

> <Gold.PLP.Chemscore.Hbond>
1.9920

> <Gold.PLP.Chemscore.CHOScore>
0.0000

> <Gold.PLP.Chemscore.Metal>
0.0000

> <Gold.Chemscore.Hbonds>
donor molecule, donor type, donor heavy atom, donor atom, acceptor molecule, acceptor atom, score
      L1  H     8    29       P1  7948  1.00
      L1  H    11    30       P1  7948  0.98

> <Gold.PLP.Chemscore.Internal.Correction>
0.1749

> <Gold.Rescore>
     Score         DG    S(hbond)    S(metal)    S(lipo)     H(rot)  DE(clash)    DE(int)     intcor
     17.83     -19.50       1.89        0.00      87.64       1.00       0.10       1.57       ----

> <Gold.Chemscore.Fitness>
17.8334

> <Gold.Chemscore.DG>
-19.5011

> <Gold.Chemscore.ZeroCoef>
-5.4800

> <Gold.Chemscore.Hbond>
1.8945

> <Gold.Chemscore.Metal>
0.0000

> <Gold.Chemscore.Lipo>
87.6358

> <Gold.Chemscore.Internal_Hbond>
0.0000

> <Gold.Chemscore.DEClash>
0.0975

> <Gold.Chemscore.DEInternal>
1.5703

> <Gold.Chemscore.Rot>
1.0000

> <Gold.Chemscore.Internal.Correction>
   9.000000E+99

> <Gold.Chemscore.Hbonds>
donor molecule, donor type, donor heavy atom, donor atom, acceptor molecule, acceptor atom, score
      L1  H     8    29       P1  7948  1.00
      L1  H    11    30       P1  7948  0.93

> <Gold.Chemscore.Hbond.Weighted>
-6.3277

> <Gold.Chemscore.Metal.Weighted>
-0.0000

> <Gold.Chemscore.Lipo.Weighted>
-10.2534

> <Gold.Chemscore.Internal_Hbond.Weighted>
0.0000

> <Gold.Chemscore.DEClash.Weighted>
0.0975

> <Gold.Chemscore.DEInternal.Weighted>
1.5703

> <Gold.Chemscore.Rot.Weighted>
2.5600

> <Gold.Chemscore.Internal.Correction.Weighted>
   9.000000E+99

> <Gold.Protein.RotatedTorsions>
[ 6907 6896 6895 6894 ] final   -6.82 input  -60.11 | X-H torsion
[ 7974 7965 7964 7962 ] final -146.91 input  175.53 | X-H torsion
[ 8008 7997 7996 7995 ] final  105.99 input   59.86 | X-H torsion
[ 10167 10162 10161 10158 ] final  122.59 input  -65.29 | X-H torsion
[ 10718 10713 10712 10709 ] final  176.22 input   66.30 | X-H torsion
[ 10763 10752 10751 10750 ] final   15.35 input  -60.55 | X-H torsion
[ 11005 11000 10999 10996 ] final -116.18 input  -57.11 | X-H torsion

> <Gold.Protein.ActiveResidues>
 VAL166  LYS551  ARG553  GLY616  TRP617  ASP618  TYR619  PRO620  LYS621  CYS622 
 ASP623  PHE694  ASN695  SER759  ASP760  ASP761  ALA762  ILE779  LEU786  VAL792 
 PHE793  MET794  SER795  GLU796  ALA797  LYS798  CYS799  TRP800  GLU811  SER814 

> <Gold.Protein.RotatedAtoms>
  151.4594  135.1037  159.9720 H   0  0  0  0  0  0  0  0  0  0  0  0  # atno 6907 bound_to 6896
  152.4858  133.8367  159.7141 H   0  0  0  0  0  0  0  0  0  0  0  0  # atno 6908 bound_to 6896
  150.8967  133.7111  159.2917 H   0  0  0  0  0  0  0  0  0  0  0  0  # atno 6909 bound_to 6896
  144.8128  140.5395  143.5631 H   0  0  0  0  0  0  0  0  0  0  0  0  # atno 7974 bound_to 7965
  156.1706  140.3121  155.8966 H   0  0  0  0  0  0  0  0  0  0  0  0  # atno 8008 bound_to 7997
  155.3595  140.0475  157.3063 H   0  0  0  0  0  0  0  0  0  0  0  0  # atno 8009 bound_to 7997
  154.5237  140.2207  155.8940 H   0  0  0  0  0  0  0  0  0  0  0  0  # atno 8010 bound_to 7997
  139.5849  144.7002  151.3433 H   0  0  0  0  0  0  0  0  0  0  0  0  # atno 10167 bound_to 10162
  156.9233  130.9947  151.3000 H   0  0  0  0  0  0  0  0  0  0  0  0  # atno 10718 bound_to 10713
  153.1533  135.6782  153.8849 H   0  0  0  0  0  0  0  0  0  0  0  0  # atno 10763 bound_to 10752
  153.8268  135.3123  155.3416 H   0  0  0  0  0  0  0  0  0  0  0  0  # atno 10764 bound_to 10752
  154.7879  135.4851  154.0073 H   0  0  0  0  0  0  0  0  0  0  0  0  # atno 10765 bound_to 10752
  141.0439  133.9793  157.2950 H   0  0  0  0  0  0  0  0  0  0  0  0  # atno 11005 bound_to 11000
  145.5284  139.1475  143.3513 LP  0  0  0  0  0  0  0  0  0  0  0  0  # atno 17320 bound_to 7965
  146.2428  140.5425  142.8926 LP  0  0  0  0  0  0  0  0  0  0  0  0  # atno 17321 bound_to 7965
  140.7122  143.7359  150.7589 LP  0  0  0  0  0  0  0  0  0  0  0  0  # atno 17342 bound_to 10162
  140.0901  143.4885  152.2483 LP  0  0  0  0  0  0  0  0  0  0  0  0  # atno 17343 bound_to 10162
  157.5893  130.8432  149.8636 LP  0  0  0  0  0  0  0  0  0  0  0  0  # atno 17370 bound_to 10713
  156.0481  130.3723  150.1269 LP  0  0  0  0  0  0  0  0  0  0  0  0  # atno 17371 bound_to 10713
  139.9297  135.0200  156.8356 LP  0  0  0  0  0  0  0  0  0  0  0  0  # atno 17394 bound_to 11000
  140.6183  134.0017  155.7607 LP  0  0  0  0  0  0  0  0  0  0  0  0  # atno 17395 bound_to 11000

$$$$
