AV-unprocessed.smi:1793|AV-procd|sdf|7225|dock2
  -GOLD-   22720 8463D 1   1.00000     0.00000
 Structure written by MMmdl.
 46 48  0  0  0  0  0  0  0  0  1 V2000
  150.4729  136.8340  156.8005 C   0  0  0  0  0  0  0  0  0  0  0  0
  150.8709  137.0070  155.3276 C   0  0  1  0  0  0  0  0  0  0  0  0
  150.2307  135.9579  154.5360 N   0  0  0  0  0  0  0  0  0  0  0  0
  150.2732  134.6421  154.7898 C   0  0  0  0  0  0  0  0  0  0  0  0
  150.8710  134.1469  155.7450 O   0  0  0  0  0  0  0  0  0  0  0  0
  149.5702  133.9537  153.8754 N   0  0  0  0  0  0  0  0  0  0  0  0
  149.3034  132.5558  153.8407 C   0  0  0  0  0  0  0  0  0  0  0  0
  150.1283  131.6282  154.5230 C   0  0  0  0  0  0  0  0  0  0  0  0
  149.8665  130.2526  154.4032 C   0  0  0  0  0  0  0  0  0  0  0  0
  148.7956  129.8490  153.5890 C   0  0  0  0  0  0  0  0  0  0  0  0
  148.0103  130.7176  152.9218 N   0  0  0  0  0  0  0  0  0  0  0  0
  148.2398  132.0492  153.0388 C   0  0  0  0  0  0  0  0  0  0  0  0
  147.3724  132.9091  152.3252 N   0  0  0  0  0  0  0  0  0  0  0  0
  146.4926  132.3800  151.2884 C   0  0  0  0  0  0  0  0  0  0  0  0
  145.4739  133.4866  151.0307 C   0  0  0  0  0  0  0  0  0  0  0  0
  145.2852  134.0853  152.4211 C   0  0  0  0  0  0  0  0  0  0  0  0
  146.6708  133.9563  153.0626 C   0  0  0  0  0  0  0  0  0  0  0  0
  150.4769  138.3937  154.7831 C   0  0  2  0  0  0  0  0  0  0  0  0
  150.9353  139.5751  155.6395 C   0  0  0  0  0  0  0  0  0  0  0  0
  149.9598  140.6799  155.2674 C   0  0  0  0  0  0  0  0  0  0  0  0
  148.7908  139.9398  154.6100 C   0  0  0  0  0  0  0  0  0  0  0  0
  149.0674  138.5575  154.7921 O   0  0  0  0  0  0  0  0  0  0  0  0
  150.9539  137.5845  157.4285 H   0  0  0  0  0  0  0  0  0  0  0  0
  150.7717  135.8543  157.1751 H   0  0  0  0  0  0  0  0  0  0  0  0
  149.3950  136.9288  156.9360 H   0  0  0  0  0  0  0  0  0  0  0  0
  151.9567  136.9146  155.2662 H   0  0  0  0  0  0  0  0  0  0  0  0
  149.7115  136.2630  153.7258 H   0  0  0  0  0  0  0  0  0  0  0  0
  149.0661  134.5050  153.1965 H   0  0  0  0  0  0  0  0  0  0  0  0
  150.9716  131.9469  155.1164 H   0  0  0  0  0  0  0  0  0  0  0  0
  150.4802  129.5245  154.9124 H   0  0  0  0  0  0  0  0  0  0  0  0
  148.5667  128.8011  153.4641 H   0  0  0  0  0  0  0  0  0  0  0  0
  147.0491  132.1231  150.3869 H   0  0  0  0  0  0  0  0  0  0  0  0
  145.9748  131.4865  151.6395 H   0  0  0  0  0  0  0  0  0  0  0  0
  145.8950  134.2341  150.3569 H   0  0  0  0  0  0  0  0  0  0  0  0
  144.5462  133.1172  150.5930 H   0  0  0  0  0  0  0  0  0  0  0  0
  144.9239  135.1136  152.3972 H   0  0  0  0  0  0  0  0  0  0  0  0
  144.5644  133.4882  152.9813 H   0  0  0  0  0  0  0  0  0  0  0  0
  146.5977  133.7323  154.1278 H   0  0  0  0  0  0  0  0  0  0  0  0
  147.2185  134.8921  152.9493 H   0  0  0  0  0  0  0  0  0  0  0  0
  150.8392  138.5182  153.7605 H   0  0  0  0  0  0  0  0  0  0  0  0
  150.8283  139.3346  156.6983 H   0  0  0  0  0  0  0  0  0  0  0  0
  151.9753  139.8496  155.4609 H   0  0  0  0  0  0  0  0  0  0  0  0
  149.6448  141.2403  156.1482 H   0  0  0  0  0  0  0  0  0  0  0  0
  150.4083  141.3828  154.5646 H   0  0  0  0  0  0  0  0  0  0  0  0
  147.8288  140.2042  155.0495 H   0  0  0  0  0  0  0  0  0  0  0  0
  148.7492  140.1606  153.5427 H   0  0  0  0  0  0  0  0  0  0  0  0
  1  2  1  0  0  0  0
  1 23  1  0  0  0  0
  1 24  1  0  0  0  0
  1 25  1  0  0  0  0
  2  3  1  0  0  0  0
  2 18  1  0  0  0  0
  2 26  1  0  0  0  0
  3  4  1  0  0  0  0
  3 27  1  0  0  0  0
  4  5  2  0  0  0  0
  4  6  1  0  0  0  0
  6  7  1  0  0  0  0
  6 28  1  0  0  0  0
  7 12  1  0  0  0  0
  7  8  2  0  0  0  0
  8  9  1  0  0  0  0
  8 29  1  0  0  0  0
  9 10  2  0  0  0  0
  9 30  1  0  0  0  0
 10 11  1  0  0  0  0
 10 31  1  0  0  0  0
 11 12  2  0  0  0  0
 12 13  1  0  0  0  0
 13 17  1  0  0  0  0
 13 14  1  0  0  0  0
 14 15  1  0  0  0  0
 14 32  1  0  0  0  0
 14 33  1  0  0  0  0
 15 16  1  0  0  0  0
 15 34  1  0  0  0  0
 15 35  1  0  0  0  0
 16 17  1  0  0  0  0
 16 36  1  0  0  0  0
 16 37  1  0  0  0  0
 17 38  1  0  0  0  0
 17 39  1  0  0  0  0
 18 22  1  0  0  0  0
 18 19  1  0  0  0  0
 18 40  1  0  0  0  0
 19 20  1  0  0  0  0
 19 41  1  0  0  0  0
 19 42  1  0  0  0  0
 20 21  1  0  0  0  0
 20 43  1  0  0  0  0
 20 44  1  0  0  0  0
 21 22  1  0  0  0  0
 21 45  1  0  0  0  0
 21 46  1  0  0  0  0
M  END
> <s_m_source_file>
AV-unprocessed.smi

> <i_m_source_file_index>
1793

> <i_lp_mmshare_version>
43012

> <i_f3d_flags>
0

> <s_epik_input>
TzFbQ0gyXVtDSDJdW0NIMl1bQ0BIXTFbQ0BIXShbQ0gzXSlbTkhdQyg9TylbTkhdYzJbY0hdW2NIXVtjSF1uYzJOM1tDSDJdW0NIMl1bQ0gyXVtDSDJdMw==

> <s_epik_cmdline>
J2VwaWtfcHl0aG9uJywgJy1waCcsICc3LjAnLCAnLXRuJywgJzgnLCAnLW1hJywgJzIwMCcsICctbWV0YWxfYmluZGluZycsICctaW1hZScsICc8aW5maWxlLm1hZT4nLCAnLW9tYWUnLCAnPG91dGZpbGUubWFlPic=

> <r_lp_tautomer_probability>
1

> <r_epik_Ionization_Penalty>
0.0992086

> <r_epik_Ionization_Penalty_Charging>
0

> <r_epik_Ionization_Penalty_Neutral>
0.0992086

> <r_epik_State_Penalty>
0.0887141

> <r_epik_Charging_Adjusted_Penalty>
0.0887141

> <i_epik_Tot_Q>
0

> <i_epik_Tot_abs_Q>
0

> <r_epik_Metal_State_Penalty>
0.075945

> <b_epik_Metal_Only>
0

> <s_lp_Force_Field>
OPLS_2005

> <r_lp_Energy>
46.0011

> <b_lp_Chiralities_Consistent>
1

> <s_lp_Variant>
AV-unprocessed.smi:1793-2

> <Gold.Version>
5.8.1

> <Gold.Id.Protein>
6NUR|6NUR_protein|mol2

> <Gold.PLP.Fitness>
40.4984

> <Gold.PLP.PLP>
-35.2822

> <Gold.PLP.part.hbond>
-2.4736

> <Gold.PLP.part.metal>
0.0000

> <Gold.PLP.part.buried>
-1.6149

> <Gold.PLP.part.nonpolar>
-31.2094

> <Gold.PLP.part.repulsive>
0.5668

> <Gold.PLP.ligand.clash>
0.0000

> <Gold.PLP.ligand.torsion>
0.3711

> <Gold.PLP.Chemscore.Hbond>
1.8560

> <Gold.PLP.Chemscore.CHOScore>
0.0000

> <Gold.PLP.Chemscore.Metal>
0.0000

> <Gold.Chemscore.Hbonds>
donor molecule, donor type, donor heavy atom, donor atom, acceptor molecule, acceptor atom, score
      L1  H     3    27       P1  7948  1.00
      L1  H     6    28       P1  7948  0.41

> <Gold.PLP.Chemscore.Internal.Correction>
0.3904

> <Gold.Rescore>
     Score         DG    S(hbond)    S(metal)    S(lipo)     H(rot)  DE(clash)    DE(int)     intcor
     12.32     -15.09       1.34        0.00      73.60       1.36       0.00       2.77       ----

> <Gold.Chemscore.Fitness>
12.3180

> <Gold.Chemscore.DG>
-15.0894

> <Gold.Chemscore.ZeroCoef>
-5.4800

> <Gold.Chemscore.Hbond>
1.3399

> <Gold.Chemscore.Metal>
0.0000

> <Gold.Chemscore.Lipo>
73.6002

> <Gold.Chemscore.Internal_Hbond>
0.0000

> <Gold.Chemscore.DEClash>
0.0018

> <Gold.Chemscore.DEInternal>
2.7696

> <Gold.Chemscore.Rot>
1.3582

> <Gold.Chemscore.Internal.Correction>
   9.000000E+99

> <Gold.Chemscore.Hbonds>
donor molecule, donor type, donor heavy atom, donor atom, acceptor molecule, acceptor atom, score
      L1  H     3    27       P1  7948  0.38
      L1  H     6    28       P1  7948  0.02

> <Gold.Chemscore.Hbond.Weighted>
-4.4752

> <Gold.Chemscore.Metal.Weighted>
-0.0000

> <Gold.Chemscore.Lipo.Weighted>
-8.6112

> <Gold.Chemscore.Internal_Hbond.Weighted>
0.0000

> <Gold.Chemscore.DEClash.Weighted>
0.0018

> <Gold.Chemscore.DEInternal.Weighted>
2.7696

> <Gold.Chemscore.Rot.Weighted>
3.4771

> <Gold.Chemscore.Internal.Correction.Weighted>
   9.000000E+99

> <Gold.Protein.RotatedTorsions>
[ 6907 6896 6895 6894 ] final   58.05 input  -60.11 | X-H torsion
[ 7974 7965 7964 7962 ] final -169.77 input  175.53 | X-H torsion
[ 8008 7997 7996 7995 ] final   93.85 input   59.86 | X-H torsion
[ 10167 10162 10161 10158 ] final  116.18 input  -65.29 | X-H torsion
[ 10718 10713 10712 10709 ] final  132.32 input   66.30 | X-H torsion
[ 10763 10752 10751 10750 ] final    1.75 input  -60.55 | X-H torsion
[ 11005 11000 10999 10996 ] final  178.79 input  -57.11 | X-H torsion

> <Gold.Protein.ActiveResidues>
 VAL166  LYS551  ARG553  GLY616  TRP617  ASP618  TYR619  PRO620  LYS621  CYS622 
 ASP623  PHE694  ASN695  SER759  ASP760  ASP761  ALA762  ILE779  LEU786  VAL792 
 PHE793  MET794  SER795  GLU796  ALA797  LYS798  CYS799  TRP800  GLU811  SER814 

> <Gold.Protein.RotatedAtoms>
  152.3788  134.6622  160.0150 H   0  0  0  0  0  0  0  0  0  0  0  0  # atno 6907 bound_to 6896
  151.6892  133.3305  159.3246 H   0  0  0  0  0  0  0  0  0  0  0  0  # atno 6908 bound_to 6896
  150.7731  134.6649  159.6404 H   0  0  0  0  0  0  0  0  0  0  0  0  # atno 6909 bound_to 6896
  144.7180  140.2172  143.6320 H   0  0  0  0  0  0  0  0  0  0  0  0  # atno 7974 bound_to 7965
  156.0513  140.3307  155.7354 H   0  0  0  0  0  0  0  0  0  0  0  0  # atno 8008 bound_to 7997
  155.5596  140.0618  157.2849 H   0  0  0  0  0  0  0  0  0  0  0  0  # atno 8009 bound_to 7997
  154.4437  140.1880  156.0757 H   0  0  0  0  0  0  0  0  0  0  0  0  # atno 8010 bound_to 7997
  139.6265  144.7109  151.2523 H   0  0  0  0  0  0  0  0  0  0  0  0  # atno 10167 bound_to 10162
  157.4882  131.1089  150.9592 H   0  0  0  0  0  0  0  0  0  0  0  0  # atno 10718 bound_to 10713
  153.3041  135.6958  153.7176 H   0  0  0  0  0  0  0  0  0  0  0  0  # atno 10763 bound_to 10752
  153.6078  135.3450  155.2969 H   0  0  0  0  0  0  0  0  0  0  0  0  # atno 10764 bound_to 10752
  154.8558  135.4356  154.2161 H   0  0  0  0  0  0  0  0  0  0  0  0  # atno 10765 bound_to 10752
  140.3990  134.6795  157.4551 H   0  0  0  0  0  0  0  0  0  0  0  0  # atno 11005 bound_to 11000
  145.8535  139.2187  143.1758 LP  0  0  0  0  0  0  0  0  0  0  0  0  # atno 17320 bound_to 7965
  146.0239  140.8322  142.9910 LP  0  0  0  0  0  0  0  0  0  0  0  0  # atno 17321 bound_to 7965
  140.7414  143.6559  150.8207 LP  0  0  0  0  0  0  0  0  0  0  0  0  # atno 17342 bound_to 10162
  140.0177  143.5575  152.2813 LP  0  0  0  0  0  0  0  0  0  0  0  0  # atno 17343 bound_to 10162
  157.0302  130.5708  149.5342 LP  0  0  0  0  0  0  0  0  0  0  0  0  # atno 17370 bound_to 10713
  156.0158  130.5252  150.8131 LP  0  0  0  0  0  0  0  0  0  0  0  0  # atno 17371 bound_to 10713
  140.0350  134.6350  155.9055 LP  0  0  0  0  0  0  0  0  0  0  0  0  # atno 17394 bound_to 11000
  141.1864  133.6557  156.5236 LP  0  0  0  0  0  0  0  0  0  0  0  0  # atno 17395 bound_to 11000

$$$$
