AV-unprocessed.smi:91|AV-procd|sdf|840|dock10
  -GOLD-   2262017273D 1   1.00000     0.00000
 Structure written by MMmdl.
 60 63  0  0  0  0  0  0  0  0  1 V2000
  153.6175  131.5284  158.5486 C   0  0  0  0  0  0  0  0  0  0  0  0
  152.7590  132.4910  157.9628 O   0  0  0  0  0  0  0  0  0  0  0  0
  151.9603  131.9477  156.9245 C   0  0  0  0  0  0  0  0  0  0  0  0
  150.8606  132.9505  156.5541 C   0  0  1  0  0  0  0  0  0  0  0  0
  151.4212  134.3602  156.3003 C   0  0  0  0  0  0  0  0  0  0  0  0
  150.3534  135.2363  155.8422 N   0  0  0  0  0  0  0  0  0  0  0  0
  150.6743  136.5446  155.7711 C   0  0  0  0  0  0  0  0  0  0  0  0
  150.6151  137.1250  154.5478 N   0  0  0  0  0  0  0  0  0  0  0  0
  150.9337  138.4152  154.4049 C   0  0  0  0  0  0  0  0  0  0  0  0
  151.3328  139.2856  155.3352 N   0  0  0  0  0  0  0  0  0  0  0  0
  151.3971  138.7007  156.5660 C   0  0  0  0  0  0  0  0  0  0  0  0
  151.0905  137.3452  156.8726 C   0  0  0  0  0  0  0  0  0  0  0  0
  151.2877  137.1103  158.2285 N   0  0  0  0  0  0  0  0  0  0  0  0
  151.6804  138.2633  158.6977 C   0  0  0  0  0  0  0  0  0  0  0  0
  151.7674  139.2754  157.7687 N   0  0  0  0  0  0  0  0  0  0  0  0
  152.1838  140.6456  158.0074 C   0  0  0  0  0  0  0  0  0  0  0  0
  152.4696  140.9512  159.5038 C   0  0  1  0  0  0  0  0  0  0  0  0
  153.6153  140.0904  160.0850 C   0  0  0  0  0  0  0  0  0  0  0  0
  154.7664  140.1187  159.2671 O   0  0  0  0  0  0  0  0  0  0  0  0
  152.7316  142.4556  159.7776 C   0  0  1  0  0  0  0  0  0  0  0  0
  151.6301  143.4173  159.3343 C   0  0  0  0  0  0  0  0  0  0  0  0
  151.6920  144.5145  160.3884 C   0  0  0  0  0  0  0  0  0  0  0  0
  151.9758  143.7884  161.5718 O   0  0  0  0  0  0  0  0  0  0  0  0
  152.9693  142.8227  161.2536 C   0  0  0  0  0  0  0  0  0  0  0  0
  149.6978  134.7393  154.6412 C   0  0  0  0  0  0  0  0  0  0  0  0
  149.1635  133.3053  154.8578 C   0  0  0  0  0  0  0  0  0  0  0  0
  147.9369  133.2835  155.7943 C   0  0  0  0  0  0  0  0  0  0  0  0
  148.7780  132.6867  153.5053 C   0  0  0  0  0  0  0  0  0  0  0  0
  150.2158  132.4779  155.3695 O   0  0  0  0  0  0  0  0  0  0  0  0
  154.2089  131.9964  159.3355 H   0  0  0  0  0  0  0  0  0  0  0  0
  154.3062  131.1136  157.8113 H   0  0  0  0  0  0  0  0  0  0  0  0
  153.0484  130.7123  158.9952 H   0  0  0  0  0  0  0  0  0  0  0  0
  152.5699  131.7093  156.0512 H   0  0  0  0  0  0  0  0  0  0  0  0
  151.5058  131.0174  157.2695 H   0  0  0  0  0  0  0  0  0  0  0  0
  150.1403  132.9789  157.3719 H   0  0  0  0  0  0  0  0  0  0  0  0
  151.8648  134.7615  157.2125 H   0  0  0  0  0  0  0  0  0  0  0  0
  152.2104  134.3098  155.5498 H   0  0  0  0  0  0  0  0  0  0  0  0
  150.8592  138.8060  153.4009 H   0  0  0  0  0  0  0  0  0  0  0  0
  151.9154  138.4089  159.7420 H   0  0  0  0  0  0  0  0  0  0  0  0
  153.0657  140.8429  157.3979 H   0  0  0  0  0  0  0  0  0  0  0  0
  151.3969  141.2900  157.6174 H   0  0  0  0  0  0  0  0  0  0  0  0
  151.5697  140.7102  160.0718 H   0  0  0  0  0  0  0  0  0  0  0  0
  153.8756  140.4176  161.0920 H   0  0  0  0  0  0  0  0  0  0  0  0
  153.3068  139.0475  160.1617 H   0  0  0  0  0  0  0  0  0  0  0  0
  155.4650  139.6669  159.7151 H   0  0  0  0  0  0  0  0  0  0  0  0
  153.6433  142.7356  159.2469 H   0  0  0  0  0  0  0  0  0  0  0  0
  151.7820  143.7975  158.3238 H   0  0  0  0  0  0  0  0  0  0  0  0
  150.6468  142.9512  159.3676 H   0  0  0  0  0  0  0  0  0  0  0  0
  152.5022  145.2151  160.1802 H   0  0  0  0  0  0  0  0  0  0  0  0
  150.7606  145.0748  160.4709 H   0  0  0  0  0  0  0  0  0  0  0  0
  152.9174  141.9725  161.9338 H   0  0  0  0  0  0  0  0  0  0  0  0
  153.9545  143.2754  161.3766 H   0  0  0  0  0  0  0  0  0  0  0  0
  148.8833  135.4065  154.3541 H   0  0  0  0  0  0  0  0  0  0  0  0
  150.4183  134.7482  153.8217 H   0  0  0  0  0  0  0  0  0  0  0  0
  147.0959  133.8137  155.3466 H   0  0  0  0  0  0  0  0  0  0  0  0
  148.1354  133.7614  156.7533 H   0  0  0  0  0  0  0  0  0  0  0  0
  147.6133  132.2617  155.9944 H   0  0  0  0  0  0  0  0  0  0  0  0
  147.9937  133.2636  153.0141 H   0  0  0  0  0  0  0  0  0  0  0  0
  148.4130  131.6663  153.6270 H   0  0  0  0  0  0  0  0  0  0  0  0
  149.6334  132.6500  152.8300 H   0  0  0  0  0  0  0  0  0  0  0  0
  1  2  1  0  0  0  0
  1 30  1  0  0  0  0
  1 31  1  0  0  0  0
  1 32  1  0  0  0  0
  2  3  1  0  0  0  0
  3  4  1  0  0  0  0
  3 33  1  0  0  0  0
  3 34  1  0  0  0  0
  4 29  1  0  0  0  0
  4  5  1  0  0  0  0
  4 35  1  0  0  0  0
  5  6  1  0  0  0  0
  5 36  1  0  0  0  0
  5 37  1  0  0  0  0
  6  7  1  0  0  0  0
  6 25  1  0  0  0  0
  7 12  1  0  0  0  0
  7  8  2  0  0  0  0
  8  9  1  0  0  0  0
  9 10  2  0  0  0  0
  9 38  1  0  0  0  0
 10 11  1  0  0  0  0
 11 15  1  0  0  0  0
 11 12  2  0  0  0  0
 12 13  1  0  0  0  0
 13 14  2  0  0  0  0
 14 15  1  0  0  0  0
 14 39  1  0  0  0  0
 15 16  1  0  0  0  0
 16 17  1  0  0  0  0
 16 40  1  0  0  0  0
 16 41  1  0  0  0  0
 17 18  1  0  0  0  0
 17 20  1  0  0  0  0
 17 42  1  0  0  0  0
 18 19  1  0  0  0  0
 18 43  1  0  0  0  0
 18 44  1  0  0  0  0
 19 45  1  0  0  0  0
 20 24  1  0  0  0  0
 20 21  1  0  0  0  0
 20 46  1  0  0  0  0
 21 22  1  0  0  0  0
 21 47  1  0  0  0  0
 21 48  1  0  0  0  0
 22 23  1  0  0  0  0
 22 49  1  0  0  0  0
 22 50  1  0  0  0  0
 23 24  1  0  0  0  0
 24 51  1  0  0  0  0
 24 52  1  0  0  0  0
 25 26  1  0  0  0  0
 25 53  1  0  0  0  0
 25 54  1  0  0  0  0
 26 27  1  0  0  0  0
 26 28  1  0  0  0  0
 26 29  1  0  0  0  0
 27 55  1  0  0  0  0
 27 56  1  0  0  0  0
 27 57  1  0  0  0  0
 28 58  1  0  0  0  0
 28 59  1  0  0  0  0
 28 60  1  0  0  0  0
M  END
> <s_m_source_file>
AV-unprocessed.smi

> <i_m_source_file_index>
91

> <i_lp_mmshare_version>
43012

> <i_f3d_flags>
0

> <s_epik_input>
W0NIM11PW0NIMl1bQ0BASF0oTzEpW0NIMl1OKFtDSDJdQzEoW0NIM10pW0NIM10pYyhuW2NIXW4yKWMoYzIzKW5bY0hdbjNbQ0gyXVtDQEhdKFtDSDJdW09IXSlbQ0BASF00W0NIMl1bQ0gyXU9bQ0gyXTQ=

> <s_epik_cmdline>
J2VwaWtfcHl0aG9uJywgJy1waCcsICc3LjAnLCAnLXRuJywgJzgnLCAnLW1hJywgJzIwMCcsICctbWV0YWxfYmluZGluZycsICctaW1hZScsICc8aW5maWxlLm1hZT4nLCAnLW9tYWUnLCAnPG91dGZpbGUubWFlPic=

> <r_lp_tautomer_probability>
1

> <r_epik_Ionization_Penalty>
8.63591e-05

> <r_epik_Ionization_Penalty_Charging>
0

> <r_epik_Ionization_Penalty_Neutral>
8.63591e-05

> <r_epik_State_Penalty>
-0

> <r_epik_Charging_Adjusted_Penalty>
0

> <i_epik_Tot_Q>
0

> <i_epik_Tot_abs_Q>
0

> <r_epik_Metal_State_Penalty>
-0

> <b_epik_Metal_Only>
0

> <s_lp_Force_Field>
OPLS_2005

> <r_lp_Energy>
49.4407

> <b_lp_Chiralities_Consistent>
1

> <s_lp_Variant>
AV-unprocessed.smi:91-8

> <Gold.Version>
5.8.1

> <Gold.Id.Protein>
6NUR|6NUR_protein|mol2

> <Gold.PLP.Fitness>
52.4917

> <Gold.PLP.PLP>
-45.3671

> <Gold.PLP.part.hbond>
-2.0000

> <Gold.PLP.part.metal>
0.0000

> <Gold.PLP.part.buried>
-6.3404

> <Gold.PLP.part.nonpolar>
-35.8445

> <Gold.PLP.part.repulsive>
0.4645

> <Gold.PLP.ligand.clash>
0.0000

> <Gold.PLP.ligand.torsion>
0.3708

> <Gold.PLP.Chemscore.Hbond>
2.0406

> <Gold.PLP.Chemscore.CHOScore>
0.4674

> <Gold.PLP.Chemscore.Metal>
0.0000

> <Gold.Chemscore.Hbonds>
donor molecule, donor type, donor heavy atom, donor atom, acceptor molecule, acceptor atom, score
      P1  H  6896  6908       L1     2  0.99
      P1  H  7997  8008       L1    19  0.98
      L1  C     9    38       P1  7957  0.26

> <Gold.PLP.Chemscore.Internal.Correction>
0.3422

> <Gold.Rescore>
     Score         DG    S(hbond)    S(metal)    S(lipo)     H(rot)  DE(clash)    DE(int)     intcor
     15.98     -16.52       1.95        0.00     105.08       3.03       0.13       0.41       ----

> <Gold.Chemscore.Fitness>
15.9822

> <Gold.Chemscore.DG>
-16.5248

> <Gold.Chemscore.ZeroCoef>
-5.4800

> <Gold.Chemscore.Hbond>
1.9472

> <Gold.Chemscore.Metal>
0.0000

> <Gold.Chemscore.Lipo>
105.0765

> <Gold.Chemscore.Internal_Hbond>
0.0000

> <Gold.Chemscore.DEClash>
0.1343

> <Gold.Chemscore.DEInternal>
0.4083

> <Gold.Chemscore.Rot>
3.0284

> <Gold.Chemscore.Internal.Correction>
   9.000000E+99

> <Gold.Chemscore.Hbonds>
donor molecule, donor type, donor heavy atom, donor atom, acceptor molecule, acceptor atom, score
      P1  H  6896  6908       L1     2  0.58
      P1  H  7997  8008       L1    19  0.50

> <Gold.Chemscore.Hbond.Weighted>
-6.5036

> <Gold.Chemscore.Metal.Weighted>
-0.0000

> <Gold.Chemscore.Lipo.Weighted>
-12.2940

> <Gold.Chemscore.Internal_Hbond.Weighted>
0.0000

> <Gold.Chemscore.DEClash.Weighted>
0.1343

> <Gold.Chemscore.DEInternal.Weighted>
0.4083

> <Gold.Chemscore.Rot.Weighted>
7.7528

> <Gold.Chemscore.Internal.Correction.Weighted>
   9.000000E+99

> <Gold.Protein.RotatedTorsions>
[ 6907 6896 6895 6894 ] final   57.89 input  -60.11 | X-H torsion
[ 7974 7965 7964 7962 ] final -117.94 input  175.53 | X-H torsion
[ 8008 7997 7996 7995 ] final -126.87 input   59.86 | X-H torsion
[ 10167 10162 10161 10158 ] final  100.11 input  -65.29 | X-H torsion
[ 10718 10713 10712 10709 ] final  165.62 input   66.30 | X-H torsion
[ 10763 10752 10751 10750 ] final   15.00 input  -60.55 | X-H torsion
[ 11005 11000 10999 10996 ] final  -38.41 input  -57.11 | X-H torsion

> <Gold.Protein.ActiveResidues>
 VAL166  LYS551  ARG553  GLY616  TRP617  ASP618  TYR619  PRO620  LYS621  CYS622 
 ASP623  PHE694  ASN695  SER759  ASP760  ASP761  ALA762  ILE779  LEU786  VAL792 
 PHE793  MET794  SER795  GLU796  ALA797  LYS798  CYS799  TRP800  GLU811  SER814 

> <Gold.Protein.RotatedAtoms>
  152.3773  134.6644  160.0155 H   0  0  0  0  0  0  0  0  0  0  0  0  # atno 6907 bound_to 6896
  151.6918  133.3305  159.3252 H   0  0  0  0  0  0  0  0  0  0  0  0  # atno 6908 bound_to 6896
  150.7720  134.6628  159.6393 H   0  0  0  0  0  0  0  0  0  0  0  0  # atno 6909 bound_to 6896
  145.0795  140.8416  143.4047 H   0  0  0  0  0  0  0  0  0  0  0  0  # atno 7974 bound_to 7965
  155.2369  140.0427  157.2970 H   0  0  0  0  0  0  0  0  0  0  0  0  # atno 8008 bound_to 7997
  154.5853  140.2412  155.7966 H   0  0  0  0  0  0  0  0  0  0  0  0  # atno 8009 bound_to 7997
  156.2222  140.2966  155.9987 H   0  0  0  0  0  0  0  0  0  0  0  0  # atno 8010 bound_to 7997
  139.7556  144.6970  151.0367 H   0  0  0  0  0  0  0  0  0  0  0  0  # atno 10167 bound_to 10162
  157.0775  131.0383  151.2588 H   0  0  0  0  0  0  0  0  0  0  0  0  # atno 10718 bound_to 10713
  153.1567  135.6788  153.8802 H   0  0  0  0  0  0  0  0  0  0  0  0  # atno 10763 bound_to 10752
  153.8211  135.3130  155.3411 H   0  0  0  0  0  0  0  0  0  0  0  0  # atno 10764 bound_to 10752
  154.7902  135.4839  154.0124 H   0  0  0  0  0  0  0  0  0  0  0  0  # atno 10765 bound_to 10752
  141.0025  133.6948  156.2049 H   0  0  0  0  0  0  0  0  0  0  0  0  # atno 11005 bound_to 11000
  145.1195  139.2703  143.5596 LP  0  0  0  0  0  0  0  0  0  0  0  0  # atno 17320 bound_to 7965
  146.3531  140.0815  142.8617 LP  0  0  0  0  0  0  0  0  0  0  0  0  # atno 17321 bound_to 7965
  140.7802  143.4757  151.0086 LP  0  0  0  0  0  0  0  0  0  0  0  0  # atno 17342 bound_to 10162
  139.8444  143.7521  152.3179 LP  0  0  0  0  0  0  0  0  0  0  0  0  # atno 17343 bound_to 10162
  157.4828  130.7775  149.7430 LP  0  0  0  0  0  0  0  0  0  0  0  0  # atno 17370 bound_to 10713
  155.9933  130.3925  150.2906 LP  0  0  0  0  0  0  0  0  0  0  0  0  # atno 17371 bound_to 10713
  140.6866  134.4710  157.5589 LP  0  0  0  0  0  0  0  0  0  0  0  0  # atno 17394 bound_to 11000
  139.9046  134.8478  156.1757 LP  0  0  0  0  0  0  0  0  0  0  0  0  # atno 17395 bound_to 11000

$$$$
