AV-unprocessed.smi:1721|AV-procd|sdf|6935|dock4
  -GOLD-   22720 8143D 1   1.00000     0.00000
 Structure written by MMmdl.
 44 46  0  0  0  0  0  0  0  0  2 V2000
  151.5222  138.2830  154.4025 C   0  0  0  0  0  0  0  0  0  0  0  0
  150.1506  138.1969  154.0314 O   0  0  0  0  0  0  0  0  0  0  0  0
  149.3838  139.3465  154.0640 C   0  0  0  0  0  0  0  0  0  0  0  0
  149.9472  140.4817  154.5482 N   0  0  0  0  0  0  0  0  0  0  0  0
  149.2022  141.6047  154.5836 C   0  0  0  0  0  0  0  0  0  0  0  0
  147.8676  141.6561  154.1433 C   0  0  0  0  0  0  0  0  0  0  0  0
  147.2803  140.4806  153.6401 C   0  0  0  0  0  0  0  0  0  0  0  0
  148.0501  139.2911  153.5938 C   0  0  0  0  0  0  0  0  0  0  0  0
  147.5748  138.0381  153.1096 N   0  0  0  0  0  0  0  0  0  0  0  0
  146.3323  137.6635  152.7589 C   0  0  0  0  0  0  0  0  0  0  0  0
  145.3285  138.3733  152.7968 O   0  0  0  0  0  0  0  0  0  0  0  0
  146.3146  136.3883  152.3461 N   0  0  0  0  0  0  0  0  0  0  0  0
  145.1273  135.6648  151.8994 C   0  0  2  0  0  0  0  0  0  0  0  0
  143.9130  135.9004  152.7898 C   0  0  0  0  0  0  0  0  0  0  0  0
  143.0151  134.7150  152.4315 C   0  0  0  0  0  0  0  0  0  0  0  0
  143.9275  133.5878  152.1295 N   0  3  1  0  0  0  0  0  0  0  0  0
  143.4577  132.6893  151.0467 C   0  0  0  0  0  0  0  0  0  0  0  0
  144.4546  131.5371  150.8213 C   0  0  0  0  0  0  0  0  0  0  0  0
  145.9146  132.0173  150.6836 C   0  0  0  0  0  0  0  0  0  0  0  0
  146.0340  133.5486  150.7260 C   0  0  0  0  0  0  0  0  0  0  0  0
  145.3022  134.1375  151.9540 C   0  0  1  0  0  0  0  0  0  0  0  0
  151.9781  137.2958  154.3282 H   0  0  0  0  0  0  0  0  0  0  0  0
  151.6371  138.6228  155.4329 H   0  0  0  0  0  0  0  0  0  0  0  0
  152.0733  138.9524  153.7405 H   0  0  0  0  0  0  0  0  0  0  0  0
  149.6839  142.4883  154.9754 H   0  0  0  0  0  0  0  0  0  0  0  0
  147.3060  142.5772  154.1909 H   0  0  0  0  0  0  0  0  0  0  0  0
  146.2566  140.5274  153.3074 H   0  0  0  0  0  0  0  0  0  0  0  0
  148.2882  137.3301  153.0114 H   0  0  0  0  0  0  0  0  0  0  0  0
  147.1859  135.8783  152.3478 H   0  0  0  0  0  0  0  0  0  0  0  0
  144.8587  135.9696  150.8853 H   0  0  0  0  0  0  0  0  0  0  0  0
  144.1943  135.8507  153.8429 H   0  0  0  0  0  0  0  0  0  0  0  0
  143.4336  136.8634  152.6106 H   0  0  0  0  0  0  0  0  0  0  0  0
  142.3196  134.4612  153.2319 H   0  0  0  0  0  0  0  0  0  0  0  0
  142.4272  134.9662  151.5471 H   0  0  0  0  0  0  0  0  0  0  0  0
  142.4769  132.2887  151.3055 H   0  0  0  0  0  0  0  0  0  0  0  0
  143.3297  133.2602  150.1256 H   0  0  0  0  0  0  0  0  0  0  0  0
  144.3886  130.8350  151.6534 H   0  0  0  0  0  0  0  0  0  0  0  0
  144.1627  130.9753  149.9334 H   0  0  0  0  0  0  0  0  0  0  0  0
  146.5082  131.5920  151.4939 H   0  0  0  0  0  0  0  0  0  0  0  0
  146.3502  131.6368  149.7590 H   0  0  0  0  0  0  0  0  0  0  0  0
  147.0855  133.8360  150.7413 H   0  0  0  0  0  0  0  0  0  0  0  0
  145.6215  133.9667  149.8067 H   0  0  0  0  0  0  0  0  0  0  0  0
  145.8511  133.8681  152.8580 H   0  0  0  0  0  0  0  0  0  0  0  0
  143.9704  133.0214  152.9647 H   0  0  0  0  0  0  0  0  0  0  0  0
  1  2  1  0  0  0  0
  1 22  1  0  0  0  0
  1 23  1  0  0  0  0
  1 24  1  0  0  0  0
  2  3  1  0  0  0  0
  3  8  1  0  0  0  0
  3  4  2  0  0  0  0
  4  5  1  0  0  0  0
  5  6  2  0  0  0  0
  5 25  1  0  0  0  0
  6  7  1  0  0  0  0
  6 26  1  0  0  0  0
  7  8  2  0  0  0  0
  7 27  1  0  0  0  0
  8  9  1  0  0  0  0
  9 10  1  0  0  0  0
  9 28  1  0  0  0  0
 10 11  2  0  0  0  0
 10 12  1  0  0  0  0
 12 13  1  0  0  0  0
 12 29  1  0  0  0  0
 13 21  1  0  0  0  0
 13 14  1  0  0  0  0
 13 30  1  0  0  0  0
 14 15  1  0  0  0  0
 14 31  1  0  0  0  0
 14 32  1  0  0  0  0
 15 16  1  0  0  0  0
 15 33  1  0  0  0  0
 15 34  1  0  0  0  0
 16 21  1  0  0  0  0
 16 17  1  0  0  0  0
 16 44  1  0  0  0  0
 17 18  1  0  0  0  0
 17 35  1  0  0  0  0
 17 36  1  0  0  0  0
 18 19  1  0  0  0  0
 18 37  1  0  0  0  0
 18 38  1  0  0  0  0
 19 20  1  0  0  0  0
 19 39  1  0  0  0  0
 19 40  1  0  0  0  0
 20 21  1  0  0  0  0
 20 41  1  0  0  0  0
 20 42  1  0  0  0  0
 21 43  1  0  0  0  0
M  CHG  1  16   1
M  END
> <s_m_source_file>
AV-unprocessed.smi

> <i_m_source_file_index>
1721

> <i_lp_mmshare_version>
43012

> <i_f3d_flags>
0

> <s_epik_input>
W0NIM11PYzFuW2NIXVtjSF1bY0hdYzFbTkhdQyg9TylbTkhdW0NASF0oW0NIMl1bQ0gyXTIpW0NAQEhdKE4yMylbQ0gyXVtDSDJdW0NIMl1bQ0gyXTM=

> <s_epik_cmdline>
J2VwaWtfcHl0aG9uJywgJy1waCcsICc3LjAnLCAnLXRuJywgJzgnLCAnLW1hJywgJzIwMCcsICctbWV0YWxfYmluZGluZycsICctaW1hZScsICc8aW5maWxlLm1hZT4nLCAnLW9tYWUnLCAnPG91dGZpbGUubWFlPic=

> <r_lp_tautomer_probability>
1

> <r_epik_Ionization_Penalty>
0.00104793

> <r_epik_Ionization_Penalty_Charging>
0.000974069

> <r_epik_Ionization_Penalty_Neutral>
7.38649e-05

> <r_epik_State_Penalty>
0.000633842

> <r_epik_Charging_Adjusted_Penalty>
0.00160791

> <i_epik_Tot_Q>
1

> <i_epik_Tot_abs_Q>
1

> <r_epik_Metal_State_Penalty>
-0

> <b_epik_Metal_Only>
0

> <s_lp_Force_Field>
OPLS_2005

> <r_lp_Energy>
42.7216

> <b_lp_Chiralities_Consistent>
1

> <s_lp_Variant>
AV-unprocessed.smi:1721-1

> <Gold.Version>
5.8.1

> <Gold.Id.Protein>
6NUR|6NUR_protein|mol2

> <Gold.PLP.Fitness>
46.0789

> <Gold.PLP.PLP>
-36.5170

> <Gold.PLP.part.hbond>
-3.0000

> <Gold.PLP.part.metal>
0.0000

> <Gold.PLP.part.buried>
-3.3340

> <Gold.PLP.part.nonpolar>
-33.5410

> <Gold.PLP.part.repulsive>
3.4891

> <Gold.PLP.ligand.clash>
0.0000

> <Gold.PLP.ligand.torsion>
0.2872

> <Gold.PLP.Chemscore.Hbond>
2.3763

> <Gold.PLP.Chemscore.CHOScore>
1.0000

> <Gold.PLP.Chemscore.Metal>
0.0000

> <Gold.Chemscore.Hbonds>
donor molecule, donor type, donor heavy atom, donor atom, acceptor molecule, acceptor atom, score
      L1  H     9    28       P1  7948  0.83
      L1  H    12    29       P1  7948  0.74
      P1  H  7989  7998       L1     4  0.86
      L1  C     5    25       P1  8028  1.00

> <Gold.PLP.Chemscore.Internal.Correction>
0.0075

> <Gold.Rescore>
     Score         DG    S(hbond)    S(metal)    S(lipo)     H(rot)  DE(clash)    DE(int)     intcor
     15.94     -20.23       2.57        0.00      80.12       1.25       1.42       2.87       ----

> <Gold.Chemscore.Fitness>
15.9407

> <Gold.Chemscore.DG>
-20.2310

> <Gold.Chemscore.ZeroCoef>
-5.4800

> <Gold.Chemscore.Hbond>
2.5660

> <Gold.Chemscore.Metal>
0.0000

> <Gold.Chemscore.Lipo>
80.1185

> <Gold.Chemscore.Internal_Hbond>
0.0000

> <Gold.Chemscore.DEClash>
1.4163

> <Gold.Chemscore.DEInternal>
2.8739

> <Gold.Chemscore.Rot>
1.2474

> <Gold.Chemscore.Internal.Correction>
   9.000000E+99

> <Gold.Chemscore.Hbonds>
donor molecule, donor type, donor heavy atom, donor atom, acceptor molecule, acceptor atom, score
      L1  H     9    28       P1  7948  0.83
      L1  H    12    29       P1  7948  0.72
      P1  H  7989  7998       L1     4  0.35

> <Gold.Chemscore.Hbond.Weighted>
-8.5705

> <Gold.Chemscore.Metal.Weighted>
-0.0000

> <Gold.Chemscore.Lipo.Weighted>
-9.3739

> <Gold.Chemscore.Internal_Hbond.Weighted>
0.0000

> <Gold.Chemscore.DEClash.Weighted>
1.4163

> <Gold.Chemscore.DEInternal.Weighted>
2.8739

> <Gold.Chemscore.Rot.Weighted>
3.1934

> <Gold.Chemscore.Internal.Correction.Weighted>
   9.000000E+99

> <Gold.Protein.RotatedTorsions>
[ 6907 6896 6895 6894 ] final  146.16 input  -60.11 | X-H torsion
[ 7974 7965 7964 7962 ] final  -93.27 input  175.53 | X-H torsion
[ 8008 7997 7996 7995 ] final  -41.29 input   59.86 | X-H torsion
[ 10167 10162 10161 10158 ] final  -63.73 input  -65.29 | X-H torsion
[ 10718 10713 10712 10709 ] final   27.33 input   66.30 | X-H torsion
[ 10763 10752 10751 10750 ] final -131.63 input  -60.55 | X-H torsion
[ 11005 11000 10999 10996 ] final  -52.96 input  -57.11 | X-H torsion

> <Gold.Protein.ActiveResidues>
 VAL166  LYS551  ARG553  GLY616  TRP617  ASP618  TYR619  PRO620  LYS621  CYS622 
 ASP623  PHE694  ASN695  SER759  ASP760  ASP761  ALA762  ILE779  LEU786  VAL792 
 PHE793  MET794  SER795  GLU796  ALA797  LYS798  CYS799  TRP800  GLU811  SER814 

> <Gold.Protein.RotatedAtoms>
  152.1715  133.4646  159.4911 H   0  0  0  0  0  0  0  0  0  0  0  0  # atno 6907 bound_to 6896
  150.6920  134.1947  159.4308 H   0  0  0  0  0  0  0  0  0  0  0  0  # atno 6908 bound_to 6896
  151.9855  135.0006  160.0610 H   0  0  0  0  0  0  0  0  0  0  0  0  # atno 6909 bound_to 6896
  145.3888  140.9526  143.2352 H   0  0  0  0  0  0  0  0  0  0  0  0  # atno 7974 bound_to 7965
  154.4005  140.1503  156.3167 H   0  0  0  0  0  0  0  0  0  0  0  0  # atno 8008 bound_to 7997
  155.8566  140.3455  155.5707 H   0  0  0  0  0  0  0  0  0  0  0  0  # atno 8009 bound_to 7997
  155.7926  140.0859  157.1991 H   0  0  0  0  0  0  0  0  0  0  0  0  # atno 8010 bound_to 7997
  140.5850  143.2332  151.6262 H   0  0  0  0  0  0  0  0  0  0  0  0  # atno 10167 bound_to 10162
  157.2187  130.6968  149.6260 H   0  0  0  0  0  0  0  0  0  0  0  0  # atno 10718 bound_to 10713
  154.8749  135.3824  154.4277 H   0  0  0  0  0  0  0  0  0  0  0  0  # atno 10763 bound_to 10752
  153.4974  135.7030  153.5855 H   0  0  0  0  0  0  0  0  0  0  0  0  # atno 10764 bound_to 10752
  153.4202  135.3903  155.2073 H   0  0  0  0  0  0  0  0  0  0  0  0  # atno 10765 bound_to 10752
  141.0951  133.6626  156.4101 H   0  0  0  0  0  0  0  0  0  0  0  0  # atno 11005 bound_to 11000
  144.8455  139.5404  143.6880 LP  0  0  0  0  0  0  0  0  0  0  0  0  # atno 17320 bound_to 7965
  146.2807  139.6871  142.9231 LP  0  0  0  0  0  0  0  0  0  0  0  0  # atno 17321 bound_to 7965
  139.5192  144.3260  152.0869 LP  0  0  0  0  0  0  0  0  0  0  0  0  # atno 17342 bound_to 10162
  140.2416  144.4264  150.6258 LP  0  0  0  0  0  0  0  0  0  0  0  0  # atno 17343 bound_to 10162
  155.9684  130.4527  150.5783 LP  0  0  0  0  0  0  0  0  0  0  0  0  # atno 17370 bound_to 10713
  157.3598  131.0748  151.1646 LP  0  0  0  0  0  0  0  0  0  0  0  0  # atno 17371 bound_to 10713
  140.5159  134.6351  157.5301 LP  0  0  0  0  0  0  0  0  0  0  0  0  # atno 17394 bound_to 11000
  139.9786  134.7174  155.9902 LP  0  0  0  0  0  0  0  0  0  0  0  0  # atno 17395 bound_to 11000

$$$$
