#       Name:                AV-unprocessed.smi:1012
#       Creating user name   scv26
#       Creation time:       Fri Mar 27 02:37:44 2020


#       File generated by GOLD software.
#

@<TRIPOS>MOLECULE
AV-unprocessed.smi:1012
    50    52     1
SMALL
NO_CHARGES


@<TRIPOS>ATOM
      1 ****        -2.7508   4.3647   3.1888 C.3            1 S1                 0.0000
      2 ****        -1.9777   3.8029   2.1382 O.3            1 S1                 0.0000
      3 ****        -2.6343   3.1693   1.1022 C.ar           1 S1                 0.0000
      4 ****        -4.0471   3.0536   1.0337 C.ar           1 S1                 0.0000
      5 ****        -4.6635   2.3966  -0.0478 C.ar           1 S1                 0.0000
      6 ****        -3.8810   1.8459  -1.0770 C.ar           1 S1                 0.0000
      7 ****        -2.4802   1.9534  -1.0217 C.ar           1 S1                 0.0000
      8 ****        -1.8538   2.6076   0.0601 C.ar           1 S1                 0.0000
      9 ****        -0.3367   2.7040   0.0622 C.3            1 S1                 0.0000
     10 ****         0.2625   1.4190   0.0349 O.3            1 S1                 0.0000
     11 ****         1.6791   1.4739   0.0090 C.3            1 S1                 0.0000
     12 ****         2.2331   0.0430  -0.0316 C.3            1 S1                 0.0000
     13 ****         3.6340   0.0926   0.1524 O.3            1 S1                 0.0000
     14 ****         1.9094  -0.6778  -1.3554 C.3            1 S1                 0.0000
     15 ****         2.4124  -2.0572  -1.3863 N.pl3          1 S1                 0.0000
     16 ****         3.5344  -2.5695  -1.9608 C.2            1 S1                 0.0000
     17 ****         3.5556  -3.9061  -1.6995 N.pl3          1 S1                 1.0000
     18 ****         2.4301  -4.2523  -0.9479 C.ar           1 S1                 0.0000
     19 ****         2.0123  -5.4786  -0.4414 C.ar           1 S1                 0.0000
     20 ****         0.8068  -5.4860   0.2913 C.ar           1 S1                 0.0000
     21 ****         0.3549  -6.6535   0.8072 F              1 S1                 0.0000
     22 ****         0.0650  -4.3030   0.4965 C.ar           1 S1                 0.0000
     23 ****        -1.0870  -4.3546   1.2063 F              1 S1                 0.0000
     24 ****         0.4986  -3.0652  -0.0225 C.ar           1 S1                 0.0000
     25 ****         1.6910  -3.0685  -0.7444 C.ar           1 S1                 0.0000
     26 ****        -2.0836   4.8192   3.9209 H              1 S1                 0.0000
     27 ****        -3.3360   3.6030   3.7058 H              1 S1                 0.0000
     28 ****        -3.4166   5.1463   2.8205 H              1 S1                 0.0000
     29 ****        -4.6860   3.4627   1.8013 H              1 S1                 0.0000
     30 ****        -5.7398   2.3166  -0.0873 H              1 S1                 0.0000
     31 ****        -4.3538   1.3435  -1.9081 H              1 S1                 0.0000
     32 ****        -1.8825   1.5306  -1.8161 H              1 S1                 0.0000
     33 ****        -0.0336   3.2685  -0.8211 H              1 S1                 0.0000
     34 ****         0.0269   3.2571   0.9282 H              1 S1                 0.0000
     35 ****         2.0255   2.0441  -0.8547 H              1 S1                 0.0000
     36 ****         2.0347   1.9858   0.9050 H              1 S1                 0.0000
     37 ****         1.8158  -0.5180   0.8053 H              1 S1                 0.0000
     38 ****         4.0071   0.6291  -0.5302 H              1 S1                 0.0000
     39 ****         0.8342  -0.7010  -1.5381 H              1 S1                 0.0000
     40 ****         2.3542  -0.1458  -2.1976 H              1 S1                 0.0000
     41 ****         4.2761  -2.0153  -2.5181 H              1 S1                 0.0000
     42 ****         2.5774  -6.3860  -0.5951 H              1 S1                 0.0000
     43 ****        -0.0742  -2.1643   0.1416 H              1 S1                 0.0000
     44 ****         4.2878  -4.5322  -2.0100 H              1 S1                 0.0000
     45 ****        -1.3619   3.1321   2.5513 LP             1 S1                 0.0000
     46 ****        -1.4411   4.5454   1.7372 LP             1 S1                 0.0000
     47 ****        -0.0536   0.9364  -0.7819 LP             1 S1                 0.0000
     48 ****        -0.0229   0.9160   0.8507 LP             1 S1                 0.0000
     49 ****         4.0139  -0.8310   0.1012 LP             1 S1                 0.0000
     50 ****         3.8430   0.4899   1.0460 LP             1 S1                 0.0000
@<TRIPOS>BOND
    1    1    2 1     
    2    1   26 1     
    3    1   27 1     
    4    1   28 1     
    5    2    3 1     
    6    3    8 ar    
    7    3    4 ar    
    8    4    5 ar    
    9    4   29 1     
   10    5    6 ar    
   11    5   30 1     
   12    6    7 ar    
   13    6   31 1     
   14    7    8 ar    
   15    7   32 1     
   16    8    9 1     
   17    9   10 1     
   18    9   33 1     
   19    9   34 1     
   20   10   11 1     
   21   11   12 1     
   22   11   35 1     
   23   11   36 1     
   24   12   13 1     
   25   12   14 1     
   26   12   37 1     
   27   13   38 1     
   28   14   15 1     
   29   14   39 1     
   30   14   40 1     
   31   15   25 1     
   32   15   16 1     
   33   16   17 2     
   34   16   41 1     
   35   17   18 1     
   36   17   44 1     
   37   18   25 ar    
   38   18   19 ar    
   39   19   20 ar    
   40   19   42 1     
   41   20   21 1     
   42   20   22 ar    
   43   22   23 1     
   44   22   24 ar    
   45   24   25 ar    
   46   24   43 1     
   47    2   45 1     
   48    2   46 1     
   49   10   47 1     
   50   10   48 1     
   51   13   49 1     
   52   13   50 1     
@<TRIPOS>SUBSTRUCTURE
      1 S1             1
@<TRIPOS>SET
LONE_PAIRS      STATIC     ATOMS    <user>   **** ""
6 45 46 47 48 49 50
DONOR_HYDROGENS      STATIC     ATOMS    <user>   **** ""
2 38 44
ATOM$BLUE        STATIC     ATOMS    COLORGROUP SYSTEM
6 45 46 47 48 49 50
ATOM$RED        STATIC     ATOMS    COLORGROUP SYSTEM
2 38 44
