AV-unprocessed.smi:2668|AV-procd|sdf|10341|dock2
  -GOLD-   2272014363D 1   1.00000     0.00000
 Structure written by MMmdl.
 53 54  0  0  0  0  0  0  0  0  2 V2000
  145.6075  135.7988  150.6775 C   0  0  0  0  0  0  0  0  0  0  0  0
  145.1001  135.9365  152.0413 N   0  0  0  0  0  0  0  0  0  0  0  0
  145.1252  134.5976  152.6270 C   0  0  0  0  0  0  0  0  0  0  0  0
  145.8905  136.9015  152.8288 C   0  0  2  0  0  0  0  0  0  0  0  0
  145.1394  137.3370  154.1090 C   0  0  0  0  0  0  0  0  0  0  0  0
  145.8780  138.4348  154.8940 C   0  0  0  0  0  0  0  0  0  0  0  0
  146.1466  139.6336  154.0471 N   0  3  1  0  0  0  0  0  0  0  0  0
  146.6601  140.8607  154.7653 C   0  0  0  0  0  0  0  0  0  0  0  0
  146.4618  142.1424  153.9120 C   0  0  0  0  0  0  0  0  0  0  0  0
  145.9119  141.0700  156.1052 C   0  0  0  0  0  0  0  0  0  0  0  0
  148.1936  140.6872  155.0011 C   0  0  0  0  0  0  0  0  0  0  0  0
  148.8003  141.7386  155.8185 N   0  0  0  0  0  0  0  0  0  0  0  0
  149.6296  141.5450  156.8543 C   0  0  0  0  0  0  0  0  0  0  0  0
  149.9737  140.4309  157.2476 O   0  0  0  0  0  0  0  0  0  0  0  0
  149.9997  142.7151  157.4021 N   0  0  0  0  0  0  0  0  0  0  0  0
  150.8489  142.9457  158.5184 C   0  0  0  0  0  0  0  0  0  0  0  0
  151.8260  142.0325  158.9847 C   0  0  0  0  0  0  0  0  0  0  0  0
  152.6142  142.3893  160.0958 C   0  0  0  0  0  0  0  0  0  0  0  0
  152.4047  143.6468  160.6942 C   0  0  0  0  0  0  0  0  0  0  0  0
  151.4873  144.5323  160.2522 N   0  0  0  0  0  0  0  0  0  0  0  0
  150.7347  144.1831  159.1872 C   0  0  0  0  0  0  0  0  0  0  0  0
  146.9367  139.2299  152.8478 C   0  0  0  0  0  0  0  0  0  0  0  0
  146.1942  138.1782  152.0111 C   0  0  0  0  0  0  0  0  0  0  0  0
  145.4728  136.7130  150.1012 H   0  0  0  0  0  0  0  0  0  0  0  0
  145.0653  135.0203  150.1391 H   0  0  0  0  0  0  0  0  0  0  0  0
  146.6666  135.5370  150.6726 H   0  0  0  0  0  0  0  0  0  0  0  0
  144.6047  134.5666  153.5831 H   0  0  0  0  0  0  0  0  0  0  0  0
  146.1480  134.2481  152.7752 H   0  0  0  0  0  0  0  0  0  0  0  0
  144.6139  133.8818  151.9819 H   0  0  0  0  0  0  0  0  0  0  0  0
  146.8333  136.4325  153.1164 H   0  0  0  0  0  0  0  0  0  0  0  0
  144.1411  137.6920  153.8474 H   0  0  0  0  0  0  0  0  0  0  0  0
  145.0013  136.4955  154.7870 H   0  0  0  0  0  0  0  0  0  0  0  0
  145.2395  138.6740  155.7417 H   0  0  0  0  0  0  0  0  0  0  0  0
  146.8144  138.0463  155.2964 H   0  0  0  0  0  0  0  0  0  0  0  0
  146.9230  143.0173  154.3701 H   0  0  0  0  0  0  0  0  0  0  0  0
  145.4093  142.4033  153.7980 H   0  0  0  0  0  0  0  0  0  0  0  0
  146.8967  142.0331  152.9178 H   0  0  0  0  0  0  0  0  0  0  0  0
  146.1752  142.0224  156.5659 H   0  0  0  0  0  0  0  0  0  0  0  0
  146.1489  140.2939  156.8333 H   0  0  0  0  0  0  0  0  0  0  0  0
  144.8307  141.0774  155.9659 H   0  0  0  0  0  0  0  0  0  0  0  0
  148.4323  139.7239  155.4488 H   0  0  0  0  0  0  0  0  0  0  0  0
  148.7092  140.6934  154.0400 H   0  0  0  0  0  0  0  0  0  0  0  0
  148.5711  142.6905  155.5718 H   0  0  0  0  0  0  0  0  0  0  0  0
  149.5758  143.5424  157.0083 H   0  0  0  0  0  0  0  0  0  0  0  0
  151.9970  141.0786  158.5113 H   0  0  0  0  0  0  0  0  0  0  0  0
  153.3665  141.7153  160.4778 H   0  0  0  0  0  0  0  0  0  0  0  0
  152.9935  143.9517  161.5466 H   0  0  0  0  0  0  0  0  0  0  0  0
  150.0121  144.9168  158.8609 H   0  0  0  0  0  0  0  0  0  0  0  0
  147.1523  140.0787  152.2032 H   0  0  0  0  0  0  0  0  0  0  0  0
  147.9002  138.8220  153.1558 H   0  0  0  0  0  0  0  0  0  0  0  0
  146.8190  137.9531  151.1476 H   0  0  0  0  0  0  0  0  0  0  0  0
  145.2682  138.6062  151.6240 H   0  0  0  0  0  0  0  0  0  0  0  0
  145.2397  139.9071  153.6965 H   0  0  0  0  0  0  0  0  0  0  0  0
  1  2  1  0  0  0  0
  1 24  1  0  0  0  0
  1 25  1  0  0  0  0
  1 26  1  0  0  0  0
  2  3  1  0  0  0  0
  2  4  1  0  0  0  0
  3 27  1  0  0  0  0
  3 28  1  0  0  0  0
  3 29  1  0  0  0  0
  4 23  1  0  0  0  0
  4  5  1  0  0  0  0
  4 30  1  0  0  0  0
  5  6  1  0  0  0  0
  5 31  1  0  0  0  0
  5 32  1  0  0  0  0
  6  7  1  0  0  0  0
  6 33  1  0  0  0  0
  6 34  1  0  0  0  0
  7  8  1  0  0  0  0
  7 22  1  0  0  0  0
  7 53  1  0  0  0  0
  8  9  1  0  0  0  0
  8 10  1  0  0  0  0
  8 11  1  0  0  0  0
  9 35  1  0  0  0  0
  9 36  1  0  0  0  0
  9 37  1  0  0  0  0
 10 38  1  0  0  0  0
 10 39  1  0  0  0  0
 10 40  1  0  0  0  0
 11 12  1  0  0  0  0
 11 41  1  0  0  0  0
 11 42  1  0  0  0  0
 12 13  1  0  0  0  0
 12 43  1  0  0  0  0
 13 14  2  0  0  0  0
 13 15  1  0  0  0  0
 15 16  1  0  0  0  0
 15 44  1  0  0  0  0
 16 21  1  0  0  0  0
 16 17  2  0  0  0  0
 17 18  1  0  0  0  0
 17 45  1  0  0  0  0
 18 19  2  0  0  0  0
 18 46  1  0  0  0  0
 19 20  1  0  0  0  0
 19 47  1  0  0  0  0
 20 21  2  0  0  0  0
 21 48  1  0  0  0  0
 22 23  1  0  0  0  0
 22 49  1  0  0  0  0
 22 50  1  0  0  0  0
 23 51  1  0  0  0  0
 23 52  1  0  0  0  0
M  CHG  1   7   1
M  END
> <s_m_source_file>
AV-unprocessed.smi

> <i_m_source_file_index>
2668

> <i_lp_mmshare_version>
43012

> <i_f3d_flags>
0

> <s_epik_input>
W0NIM11OKFtDSDNdKVtDSF0xW0NIMl1bQ0gyXU4oW0NIMl1bQ0gyXTEpQyhbQ0gzXSkoW0NIM10pW0NIMl1bTkhdQyg9TylbTkhdYzJbY0hdW2NIXVtjSF1uW2NIXTI=

> <s_epik_cmdline>
J2VwaWtfcHl0aG9uJywgJy1waCcsICc3LjAnLCAnLXRuJywgJzgnLCAnLW1hJywgJzIwMCcsICctbWV0YWxfYmluZGluZycsICctaW1hZScsICc8aW5maWxlLm1hZT4nLCAnLW9tYWUnLCAnPG91dGZpbGUubWFlPic=

> <r_epik_Ionization_Penalty>
1.32573

> <r_epik_Ionization_Penalty_Charging>
0.00219175

> <r_epik_Ionization_Penalty_Neutral>
1.32353

> <r_epik_State_Penalty>
1.51166

> <r_epik_Charging_Adjusted_Penalty>
1.51385

> <i_epik_Tot_Q>
1

> <i_epik_Tot_abs_Q>
1

> <r_epik_Metal_State_Penalty>
1.51178

> <b_epik_Metal_Only>
0

> <s_lp_Force_Field>
OPLS_2005

> <r_lp_Energy>
37.5279

> <b_lp_Chiralities_Consistent>
1

> <s_lp_Variant>
AV-unprocessed.smi:2668-4

> <Gold.Version>
5.8.1

> <Gold.Id.Protein>
6NUR|6NUR_protein|mol2

> <Gold.PLP.Fitness>
51.1274

> <Gold.PLP.PLP>
-37.8523

> <Gold.PLP.part.hbond>
-2.9953

> <Gold.PLP.part.metal>
0.0000

> <Gold.PLP.part.buried>
-6.1909

> <Gold.PLP.part.nonpolar>
-29.8561

> <Gold.PLP.part.repulsive>
0.3972

> <Gold.PLP.ligand.clash>
0.0000

> <Gold.PLP.ligand.torsion>
0.7961

> <Gold.PLP.Chemscore.Hbond>
3.9120

> <Gold.PLP.Chemscore.CHOScore>
1.0000

> <Gold.PLP.Chemscore.Metal>
0.0000

> <Gold.Chemscore.Hbonds>
donor molecule, donor type, donor heavy atom, donor atom, acceptor molecule, acceptor atom, score
      L1  H     7    53       P1 10175  1.85
      L1  H    12    43       P1  8028  0.96
      L1  H    15    44       P1  8028  1.00
      L1  C    21    48       P1  8029  0.25

> <Gold.PLP.Chemscore.Internal.Correction>
0.1312

> <Gold.Rescore>
     Score         DG    S(hbond)    S(metal)    S(lipo)     H(rot)  DE(clash)    DE(int)     intcor
     20.91     -23.16       2.91        0.00     103.46       1.62       0.44       1.81       ----

> <Gold.Chemscore.Fitness>
20.9080

> <Gold.Chemscore.DG>
-23.1570

> <Gold.Chemscore.ZeroCoef>
-5.4800

> <Gold.Chemscore.Hbond>
2.9122

> <Gold.Chemscore.Metal>
0.0000

> <Gold.Chemscore.Lipo>
103.4581

> <Gold.Chemscore.Internal_Hbond>
0.0000

> <Gold.Chemscore.DEClash>
0.4434

> <Gold.Chemscore.DEInternal>
1.8057

> <Gold.Chemscore.Rot>
1.6228

> <Gold.Chemscore.Internal.Correction>
   9.000000E+99

> <Gold.Chemscore.Hbonds>
donor molecule, donor type, donor heavy atom, donor atom, acceptor molecule, acceptor atom, score
      L1  H     7    53       P1 10175  0.88
      L1  H    12    43       P1  8028  0.88
      L1  H    15    44       P1  8028  0.94

> <Gold.Chemscore.Hbond.Weighted>
-9.7269

> <Gold.Chemscore.Metal.Weighted>
-0.0000

> <Gold.Chemscore.Lipo.Weighted>
-12.1046

> <Gold.Chemscore.Internal_Hbond.Weighted>
0.0000

> <Gold.Chemscore.DEClash.Weighted>
0.4434

> <Gold.Chemscore.DEInternal.Weighted>
1.8057

> <Gold.Chemscore.Rot.Weighted>
4.1545

> <Gold.Chemscore.Internal.Correction.Weighted>
   9.000000E+99

> <Gold.Protein.RotatedTorsions>
[ 6907 6896 6895 6894 ] final  -65.81 input  -60.11 | X-H torsion
[ 7974 7965 7964 7962 ] final  127.10 input  175.53 | X-H torsion
[ 8008 7997 7996 7995 ] final -136.75 input   59.86 | X-H torsion
[ 10167 10162 10161 10158 ] final   71.00 input  -65.29 | X-H torsion
[ 10718 10713 10712 10709 ] final -145.07 input   66.30 | X-H torsion
[ 10763 10752 10751 10750 ] final  -65.35 input  -60.55 | X-H torsion
[ 11005 11000 10999 10996 ] final  -50.81 input  -57.11 | X-H torsion

> <Gold.Protein.ActiveResidues>
 VAL166  LYS551  ARG553  GLY616  TRP617  ASP618  TYR619  PRO620  LYS621  CYS622 
 ASP623  PHE694  ASN695  SER759  ASP760  ASP761  ALA762  ILE779  LEU786  VAL792 
 PHE793  MET794  SER795  GLU796  ALA797  LYS798  CYS799  TRP800  GLU811  SER814 

> <Gold.Protein.RotatedAtoms>
  150.7502  134.6109  159.6085 H   0  0  0  0  0  0  0  0  0  0  0  0  # atno 6907 bound_to 6896
  152.3443  134.7089  160.0264 H   0  0  0  0  0  0  0  0  0  0  0  0  # atno 6908 bound_to 6896
  151.7531  133.3292  159.3433 H   0  0  0  0  0  0  0  0  0  0  0  0  # atno 6909 bound_to 6896
  145.0543  139.3857  143.5038 H   0  0  0  0  0  0  0  0  0  0  0  0  # atno 7974 bound_to 7965
  155.4004  140.0505  157.3037 H   0  0  0  0  0  0  0  0  0  0  0  0  # atno 8008 bound_to 7997
  154.4993  140.2150  155.9340 H   0  0  0  0  0  0  0  0  0  0  0  0  # atno 8009 bound_to 7997
  156.1447  140.3147  155.8556 H   0  0  0  0  0  0  0  0  0  0  0  0  # atno 8010 bound_to 7997
  140.0509  144.5313  150.7364 H   0  0  0  0  0  0  0  0  0  0  0  0  # atno 10167 bound_to 10162
  156.3779  130.7822  151.2011 H   0  0  0  0  0  0  0  0  0  0  0  0  # atno 10718 bound_to 10713
  154.3437  135.6151  153.5608 H   0  0  0  0  0  0  0  0  0  0  0  0  # atno 10763 bound_to 10752
  152.9802  135.5775  154.4824 H   0  0  0  0  0  0  0  0  0  0  0  0  # atno 10764 bound_to 10752
  154.4532  135.2853  155.1743 H   0  0  0  0  0  0  0  0  0  0  0  0  # atno 10765 bound_to 10752
  141.0837  133.6647  156.3786 H   0  0  0  0  0  0  0  0  0  0  0  0  # atno 11005 bound_to 11000
  146.3520  140.0209  142.8658 LP  0  0  0  0  0  0  0  0  0  0  0  0  # atno 17320 bound_to 7965
  145.1488  140.9612  143.4445 LP  0  0  0  0  0  0  0  0  0  0  0  0  # atno 17321 bound_to 7965
  140.7217  143.2595  151.4256 LP  0  0  0  0  0  0  0  0  0  0  0  0  # atno 17342 bound_to 10162
  139.5954  144.1409  152.2137 LP  0  0  0  0  0  0  0  0  0  0  0  0  # atno 17343 bound_to 10162
  157.7490  131.0353  150.4355 LP  0  0  0  0  0  0  0  0  0  0  0  0  # atno 17370 bound_to 10713
  156.4594  130.4028  149.6586 LP  0  0  0  0  0  0  0  0  0  0  0  0  # atno 17371 bound_to 10713
  140.5412  134.6118  157.5380 LP  0  0  0  0  0  0  0  0  0  0  0  0  # atno 17394 bound_to 11000
  139.9653  134.7384  156.0152 LP  0  0  0  0  0  0  0  0  0  0  0  0  # atno 17395 bound_to 11000

$$$$
