#       Name:                AV-unprocessed.smi:3117
#       Creating user name   scv26
#       Creation time:       Fri Mar 27 17:26:54 2020


#       File generated by GOLD software.
#

@<TRIPOS>MOLECULE
AV-unprocessed.smi:3117
    40    40     1
SMALL
NO_CHARGES


@<TRIPOS>ATOM
      1 ****        -1.9071  -0.4051   1.6777 C.3            1 S1                 0.0000
      2 ****        -1.4209   0.2314   0.3653 C.3            1 S1                 0.0000
      3 ****         0.0554   0.3411   0.3884 N.4            1 S1                 1.0000
      4 ****         0.5829   1.7216   0.4125 C.3            1 S1                 0.0000
      5 ****         2.1260   1.7556   0.3986 C.3            1 S1                 0.0000
      6 ****         2.6252   3.2095   0.3581 C.3            1 S1                 0.0000
      7 ****         2.7411   1.0130   1.5989 C.3            1 S1                 0.0000
      8 ****         2.5725   1.1351  -0.7917 O.3            1 S1                 0.0000
      9 ****        -1.9110  -0.5328  -0.8922 C.3            1 S1                 0.0000
     10 ****        -1.5259   0.1687  -2.2087 C.3            1 S1                 0.0000
     11 ****        -1.5254  -1.9410  -0.8957 N.pl3          1 S1                 0.0000
     12 ****        -2.3217  -3.0410  -0.6483 C.2            1 S1                 0.0000
     13 ****        -1.5314  -4.1501  -0.7440 C.2            1 S1                 0.0000
     14 ****        -0.2469  -3.6241  -1.0542 C.2            1 S1                 0.0000
     15 ****        -0.2450  -2.3038  -1.1396 N.2            1 S1                 0.0000
     16 ****        -2.9934  -0.4962   1.6905 H              1 S1                 0.0000
     17 ****        -1.6190   0.2019   2.5366 H              1 S1                 0.0000
     18 ****        -1.4878  -1.4011   1.8240 H              1 S1                 0.0000
     19 ****        -1.8474   1.2350   0.3190 H              1 S1                 0.0000
     20 ****         0.4037  -0.1540   1.1966 H              1 S1                 0.0000
     21 ****         0.1910   2.2623  -0.4507 H              1 S1                 0.0000
     22 ****         0.2053   2.2270   1.3026 H              1 S1                 0.0000
     23 ****         2.3140   3.7570   1.2484 H              1 S1                 0.0000
     24 ****         2.2331   3.7426  -0.5089 H              1 S1                 0.0000
     25 ****         3.7137   3.2571   0.3080 H              1 S1                 0.0000
     26 ****         2.4088   1.4478   2.5423 H              1 S1                 0.0000
     27 ****         3.8304   1.0658   1.5805 H              1 S1                 0.0000
     28 ****         2.4691  -0.0429   1.6083 H              1 S1                 0.0000
     29 ****         3.5159   1.1897  -0.8257 H              1 S1                 0.0000
     30 ****        -3.0015  -0.5198  -0.8555 H              1 S1                 0.0000
     31 ****        -1.9001   1.1925  -2.2297 H              1 S1                 0.0000
     32 ****        -1.9505  -0.3524  -3.0672 H              1 S1                 0.0000
     33 ****        -0.4454   0.2099  -2.3500 H              1 S1                 0.0000
     34 ****        -3.3745  -2.9449  -0.4264 H              1 S1                 0.0000
     35 ****        -1.8262  -5.1808  -0.6124 H              1 S1                 0.0000
     36 ****         0.6778  -4.1582  -1.2157 H              1 S1                 0.0000
     37 ****         0.4153  -0.1147  -0.4389 H              1 S1                 0.0000
     38 ****         2.1794   1.6030  -1.5833 LP             1 S1                 0.0000
     39 ****         2.2903   0.1757  -0.7976 LP             1 S1                 0.0000
     40 ****         0.5313  -1.7062  -1.3401 LP             1 S1                 0.0000
@<TRIPOS>BOND
    1    1    2 1     
    2    1   16 1     
    3    1   17 1     
    4    1   18 1     
    5    2    3 1     
    6    2    9 1     
    7    2   19 1     
    8    3    4 1     
    9    3   20 1     
   10    3   37 1     
   11    4    5 1     
   12    4   21 1     
   13    4   22 1     
   14    5    6 1     
   15    5    7 1     
   16    5    8 1     
   17    6   23 1     
   18    6   24 1     
   19    6   25 1     
   20    7   26 1     
   21    7   27 1     
   22    7   28 1     
   23    8   29 1     
   24    9   10 1     
   25    9   11 1     
   26    9   30 1     
   27   10   31 1     
   28   10   32 1     
   29   10   33 1     
   30   11   15 1     
   31   11   12 1     
   32   12   13 2     
   33   12   34 1     
   34   13   14 1     
   35   13   35 1     
   36   14   15 2     
   37   14   36 1     
   38    8   38 1     
   39    8   39 1     
   40   15   40 1     
@<TRIPOS>SUBSTRUCTURE
      1 S1             1
@<TRIPOS>SET
LONE_PAIRS      STATIC     ATOMS    <user>   **** ""
3 38 39 40
DONOR_HYDROGENS      STATIC     ATOMS    <user>   **** ""
3 20 37 29
ATOM$BLUE        STATIC     ATOMS    COLORGROUP SYSTEM
3 38 39 40
ATOM$RED        STATIC     ATOMS    COLORGROUP SYSTEM
3 20 37 29
