AV-unprocessed.smi:2655|AV-procd|sdf|10304|dock4
  -GOLD-   2272014323D 1   1.00000     0.00000
 Structure written by MMmdl.
 33 34  0  0  0  0  0  0  0  0  2 V2000
  150.8661  141.2810  156.6308 C   0  0  0  0  0  0  0  0  0  0  0  0
  150.5444  140.1753  155.6666 C   0  0  0  0  0  0  0  0  0  0  0  0
  150.4633  140.4557  154.3693 N   0  0  0  0  0  0  0  0  0  0  0  0
  150.1634  139.2779  153.7903 N   0  0  0  0  0  0  0  0  0  0  0  0
  150.0604  138.2713  154.7161 C   0  0  0  0  0  0  0  0  0  0  0  0
  149.7599  136.9992  154.3393 O   0  0  0  0  0  0  0  0  0  0  0  0
  150.3028  138.7952  155.9524 C   0  0  0  0  0  0  0  0  0  0  0  0
  150.3107  138.1007  157.2879 C   0  0  0  0  0  0  0  0  0  0  0  0
  149.1302  137.1305  157.4267 C   0  0  0  0  0  0  0  0  0  0  0  0
  148.4051  137.3789  158.6659 N   0  0  0  0  0  0  0  0  0  0  0  0
  148.2774  136.5059  159.6742 C   0  0  0  0  0  0  0  0  0  0  0  0
  148.8031  135.3933  159.5923 O   0  0  0  0  0  0  0  0  0  0  0  0
  147.5493  136.9756  160.7139 N   0  5  0  0  0  0  0  0  0  0  0  0
  146.6192  136.2008  161.2930 C   0  0  0  0  0  0  0  0  0  0  0  0
  146.6251  134.7798  161.3416 C   0  0  0  0  0  0  0  0  0  0  0  0
  145.4908  134.4865  162.0441 C   0  0  0  0  0  0  0  0  0  0  0  0
  144.8665  133.2006  162.4669 C   0  0  0  0  0  0  0  0  0  0  0  0
  144.8493  135.6307  162.4034 O   0  0  0  0  0  0  0  0  0  0  0  0
  145.5812  136.7236  161.9241 N   0  0  0  0  0  0  0  0  0  0  0  0
  150.5666  141.0222  157.6464 H   0  0  0  0  0  0  0  0  0  0  0  0
  150.3500  142.2034  156.3630 H   0  0  0  0  0  0  0  0  0  0  0  0
  151.9362  141.4883  156.6433 H   0  0  0  0  0  0  0  0  0  0  0  0
  150.0380  139.1872  152.7921 H   0  0  0  0  0  0  0  0  0  0  0  0
  150.2741  138.8311  158.0971 H   0  0  0  0  0  0  0  0  0  0  0  0
  151.2434  137.5531  157.4282 H   0  0  0  0  0  0  0  0  0  0  0  0
  148.4514  137.2439  156.5798 H   0  0  0  0  0  0  0  0  0  0  0  0
  149.4873  136.0996  157.4201 H   0  0  0  0  0  0  0  0  0  0  0  0
  147.9620  138.2801  158.7685 H   0  0  0  0  0  0  0  0  0  0  0  0
  147.3434  134.0897  160.9250 H   0  0  0  0  0  0  0  0  0  0  0  0
  145.5440  132.6359  163.1073 H   0  0  0  0  0  0  0  0  0  0  0  0
  144.6278  132.5851  161.5995 H   0  0  0  0  0  0  0  0  0  0  0  0
  143.9441  133.3741  163.0216 H   0  0  0  0  0  0  0  0  0  0  0  0
  149.6035  137.0011  153.4080 H   0  0  0  0  0  0  0  0  0  0  0  0
  1 20  1  0  0  0  0
  1 21  1  0  0  0  0
  1 22  1  0  0  0  0
  1  2  1  0  0  0  0
  2  7  1  0  0  0  0
  2  3  2  0  0  0  0
  3  4  1  0  0  0  0
  4 23  1  0  0  0  0
  4  5  1  0  0  0  0
  5  7  2  0  0  0  0
  5  6  1  0  0  0  0
  6 33  1  0  0  0  0
  7  8  1  0  0  0  0
  8  9  1  0  0  0  0
  8 24  1  0  0  0  0
  8 25  1  0  0  0  0
  9 10  1  0  0  0  0
  9 26  1  0  0  0  0
  9 27  1  0  0  0  0
 10 11  1  0  0  0  0
 10 28  1  0  0  0  0
 11 12  2  0  0  0  0
 11 13  1  0  0  0  0
 13 14  1  0  0  0  0
 14 19  2  0  0  0  0
 14 15  1  0  0  0  0
 15 16  2  0  0  0  0
 15 29  1  0  0  0  0
 16 17  1  0  0  0  0
 16 18  1  0  0  0  0
 17 30  1  0  0  0  0
 17 31  1  0  0  0  0
 17 32  1  0  0  0  0
 18 19  1  0  0  0  0
M  CHG  1  13  -1
M  END
> <s_m_source_file>
AV-unprocessed.smi

> <i_m_source_file_index>
2655

> <i_lp_mmshare_version>
43012

> <i_f3d_flags>
0

> <s_epik_input>
W0NIM11DMT1OW05IXUMoPU8pW0NASF0xW0NIMl1bQ0gyXVtOSF1DKD1PKVtOSF1jMltjSF1jKFtDSDNdKW9uMg==

> <s_epik_cmdline>
J2VwaWtfcHl0aG9uJywgJy1waCcsICc3LjAnLCAnLXRuJywgJzgnLCAnLW1hJywgJzIwMCcsICctbWV0YWxfYmluZGluZycsICctaW1hZScsICc8aW5maWxlLm1hZT4nLCAnLW9tYWUnLCAnPG91dGZpbGUubWFlPic=

> <r_lp_tautomer_probability>
0.0227396

> <r_epik_Ionization_Penalty>
10.1454

> <r_epik_Ionization_Penalty_Charging>
6.5559

> <r_epik_Ionization_Penalty_Neutral>
3.58948

> <r_epik_State_Penalty>
8.16616

> <r_epik_Charging_Adjusted_Penalty>
14.7221

> <i_epik_Tot_Q>
-1

> <i_epik_Tot_abs_Q>
1

> <r_epik_Metal_State_Penalty>
5.48631

> <b_epik_Metal_Only>
1

> <s_lp_Force_Field>
OPLS_2005

> <r_lp_Energy>
-4.29972

> <b_lp_Chiralities_Consistent>
1

> <s_lp_Variant>
AV-unprocessed.smi:2655-7

> <Gold.Version>
5.8.1

> <Gold.Id.Protein>
6NUR|6NUR_protein|mol2

> <Gold.PLP.Fitness>
46.4225

> <Gold.PLP.PLP>
-26.1528

> <Gold.PLP.part.hbond>
-5.7115

> <Gold.PLP.part.metal>
0.0000

> <Gold.PLP.part.buried>
-3.9991

> <Gold.PLP.part.nonpolar>
-18.1751

> <Gold.PLP.part.repulsive>
0.5547

> <Gold.PLP.ligand.clash>
0.0000

> <Gold.PLP.ligand.torsion>
1.1007

> <Gold.PLP.Chemscore.Hbond>
7.4720

> <Gold.PLP.Chemscore.CHOScore>
0.0000

> <Gold.PLP.Chemscore.Metal>
0.0000

> <Gold.Chemscore.Hbonds>
donor molecule, donor type, donor heavy atom, donor atom, acceptor molecule, acceptor atom, score
      L1  H     4    23       P1  7957  0.96
      L1  H     6    33       P1  7948  1.00
      P1  H  6896  6909       L1    12  0.98
      P1  H  6931  6943       L1    13  0.63
      P1  H  6934  6947       L1    13  1.72
      P1  H  7989  7998       L1     3  0.94

> <Gold.PLP.Chemscore.Internal.Correction>
0.0551

> <Gold.Rescore>
     Score         DG    S(hbond)    S(metal)    S(lipo)     H(rot)  DE(clash)    DE(int)     intcor
     16.32     -18.85       4.38        0.00      43.85       2.49       0.19       2.34       ----

> <Gold.Chemscore.Fitness>
16.3245

> <Gold.Chemscore.DG>
-18.8529

> <Gold.Chemscore.ZeroCoef>
-5.4800

> <Gold.Chemscore.Hbond>
4.3781

> <Gold.Chemscore.Metal>
0.0000

> <Gold.Chemscore.Lipo>
43.8478

> <Gold.Chemscore.Internal_Hbond>
0.0000

> <Gold.Chemscore.DEClash>
0.1889

> <Gold.Chemscore.DEInternal>
2.3394

> <Gold.Chemscore.Rot>
2.4922

> <Gold.Chemscore.Internal.Correction>
   9.000000E+99

> <Gold.Chemscore.Hbonds>
donor molecule, donor type, donor heavy atom, donor atom, acceptor molecule, acceptor atom, score
      L1  H     4    23       P1  7957  0.81
      L1  H     6    33       P1  7948  0.72
      P1  H  6896  6909       L1    12  0.89
      P1  H  6931  6943       L1    13  0.14
      P1  H  6934  6947       L1    13  0.69
      P1  H  7989  7998       L1     3  0.22

> <Gold.Chemscore.Hbond.Weighted>
-14.6227

> <Gold.Chemscore.Metal.Weighted>
-0.0000

> <Gold.Chemscore.Lipo.Weighted>
-5.1302

> <Gold.Chemscore.Internal_Hbond.Weighted>
0.0000

> <Gold.Chemscore.DEClash.Weighted>
0.1889

> <Gold.Chemscore.DEInternal.Weighted>
2.3394

> <Gold.Chemscore.Rot.Weighted>
6.3800

> <Gold.Chemscore.Internal.Correction.Weighted>
   9.000000E+99

> <Gold.Protein.RotatedTorsions>
[ 6907 6896 6895 6894 ] final   61.45 input  -60.11 | X-H torsion
[ 7974 7965 7964 7962 ] final -100.94 input  175.53 | X-H torsion
[ 8008 7997 7996 7995 ] final   39.63 input   59.86 | X-H torsion
[ 10167 10162 10161 10158 ] final  -60.27 input  -65.29 | X-H torsion
[ 10718 10713 10712 10709 ] final  -76.01 input   66.30 | X-H torsion
[ 10763 10752 10751 10750 ] final   28.91 input  -60.55 | X-H torsion
[ 11005 11000 10999 10996 ] final  -29.21 input  -57.11 | X-H torsion

> <Gold.Protein.ActiveResidues>
 VAL166  LYS551  ARG553  GLY616  TRP617  ASP618  TYR619  PRO620  LYS621  CYS622 
 ASP623  PHE694  ASN695  SER759  ASP760  ASP761  ALA762  ILE779  LEU786  VAL792 
 PHE793  MET794  SER795  GLU796  ALA797  LYS798  CYS799  TRP800  GLU811  SER814 

> <Gold.Protein.RotatedAtoms>
  152.4090  134.6158  160.0037 H   0  0  0  0  0  0  0  0  0  0  0  0  # atno 6907 bound_to 6896
  151.6341  133.3324  159.3123 H   0  0  0  0  0  0  0  0  0  0  0  0  # atno 6908 bound_to 6896
  150.7982  134.7098  159.6642 H   0  0  0  0  0  0  0  0  0  0  0  0  # atno 6909 bound_to 6896
  145.2880  140.9345  143.2894 H   0  0  0  0  0  0  0  0  0  0  0  0  # atno 7974 bound_to 7965
  155.2398  140.3344  155.4293 H   0  0  0  0  0  0  0  0  0  0  0  0  # atno 8008 bound_to 7997
  156.2260  140.1829  156.7406 H   0  0  0  0  0  0  0  0  0  0  0  0  # atno 8009 bound_to 7997
  154.5900  140.0639  156.9211 H   0  0  0  0  0  0  0  0  0  0  0  0  # atno 8010 bound_to 7997
  140.6082  143.2379  151.5771 H   0  0  0  0  0  0  0  0  0  0  0  0  # atno 10167 bound_to 10162
  156.0189  130.4455  150.3129 H   0  0  0  0  0  0  0  0  0  0  0  0  # atno 10718 bound_to 10713
  153.0463  135.6502  154.0810 H   0  0  0  0  0  0  0  0  0  0  0  0  # atno 10763 bound_to 10752
  154.0507  135.2896  155.3342 H   0  0  0  0  0  0  0  0  0  0  0  0  # atno 10764 bound_to 10752
  154.6722  135.5352  153.8219 H   0  0  0  0  0  0  0  0  0  0  0  0  # atno 10765 bound_to 10752
  140.9276  133.7359  156.0890 H   0  0  0  0  0  0  0  0  0  0  0  0  # atno 11005 bound_to 11000
  144.9197  139.4427  143.6547 LP  0  0  0  0  0  0  0  0  0  0  0  0  # atno 17320 bound_to 7965
  146.3194  139.8050  142.8957 LP  0  0  0  0  0  0  0  0  0  0  0  0  # atno 17321 bound_to 7965
  139.5341  144.2832  152.1212 LP  0  0  0  0  0  0  0  0  0  0  0  0  # atno 17342 bound_to 10162
  140.2026  144.4643  150.6424 LP  0  0  0  0  0  0  0  0  0  0  0  0  # atno 17343 bound_to 10162
  157.1230  131.0252  151.3001 LP  0  0  0  0  0  0  0  0  0  0  0  0  # atno 17370 bound_to 10713
  157.4612  130.7654  149.7238 LP  0  0  0  0  0  0  0  0  0  0  0  0  # atno 17371 bound_to 10713
  140.7905  134.3622  157.5465 LP  0  0  0  0  0  0  0  0  0  0  0  0  # atno 17394 bound_to 11000
  139.8789  134.9137  156.3091 LP  0  0  0  0  0  0  0  0  0  0  0  0  # atno 17395 bound_to 11000

$$$$
