AV-unprocessed.smi:21|AV-procd|sdf|151|dock10
  -GOLD-   2262015373D 1   1.00000     0.00000
 Structure written by MMmdl.
 62 65  0  0  0  0  0  0  0  0  2 V2000
  144.4977  131.3866  151.0994 C   0  0  0  0  0  0  0  0  0  0  0  0
  144.2771  132.7767  151.2819 O   0  0  0  0  0  0  0  0  0  0  0  0
  145.2612  133.5981  150.6673 C   0  0  1  0  0  0  0  0  0  0  0  0
  144.8147  135.0507  150.7776 C   0  0  0  0  0  0  0  0  0  0  0  0
  145.2801  135.4677  152.1756 C   0  0  2  0  0  0  0  0  0  0  0  0
  145.4593  136.9899  152.3486 C   0  0  0  0  0  0  0  0  0  0  0  0
  145.8659  137.3571  153.7070 N   0  0  0  0  0  0  0  0  0  0  0  0
  145.1585  136.7381  154.8210 C   0  0  0  0  0  0  0  0  0  0  0  0
  146.6175  138.4758  153.9157 C   0  0  0  0  0  0  0  0  0  0  0  0
  146.9150  139.2559  152.8418 N   0  0  0  0  0  0  0  0  0  0  0  0
  147.6433  140.3665  152.9800 C   0  0  0  0  0  0  0  0  0  0  0  0
  148.1667  140.8852  154.0900 N   0  0  0  0  0  0  0  0  0  0  0  0
  147.8753  140.1164  155.1766 C   0  0  0  0  0  0  0  0  0  0  0  0
  147.1200  138.9068  155.1832 C   0  0  0  0  0  0  0  0  0  0  0  0
  147.0386  138.4250  156.4868 N   0  0  0  0  0  0  0  0  0  0  0  0
  147.7080  139.2878  157.2001 C   0  0  0  0  0  0  0  0  0  0  0  0
  148.2343  140.3430  156.4931 N   0  0  0  0  0  0  0  0  0  0  0  0
  149.0088  141.4510  157.0233 C   0  0  0  0  0  0  0  0  0  0  0  0
  150.4107  141.0130  157.5212 C   0  0  1  0  0  0  0  0  0  0  0  0
  151.4114  140.8906  156.3487 C   0  0  0  0  0  0  0  0  0  0  0  0
  150.8811  140.1047  155.3019 O   0  0  0  0  0  0  0  0  0  0  0  0
  150.9656  141.9039  158.6666 C   0  0  1  0  0  0  0  0  0  0  0  0
  152.2166  141.3945  159.3750 C   0  0  0  0  0  0  0  0  0  0  0  0
  152.8556  142.6853  159.8669 C   0  0  0  0  0  0  0  0  0  0  0  0
  152.6449  143.5691  158.7787 O   0  0  0  0  0  0  0  0  0  0  0  0
  151.3350  143.3447  158.2685 C   0  0  0  0  0  0  0  0  0  0  0  0
  146.5550  134.7418  152.3787 N   0  3  1  0  0  0  0  0  0  0  0  0
  146.8422  134.4047  153.7903 C   0  0  0  0  0  0  0  0  0  0  0  0
  146.5709  133.5688  151.4713 C   0  0  0  0  0  0  0  0  0  0  0  0
  145.4046  133.3147  149.6232 H   0  0  0  0  0  0  0  0  0  0  0  0
  144.5545  135.0937  152.9007 H   0  0  0  0  0  0  0  0  0  0  0  0
  143.7191  130.8241  151.6146 H   0  0  0  0  0  0  0  0  0  0  0  0
  145.4599  131.0707  151.5026 H   0  0  0  0  0  0  0  0  0  0  0  0
  144.4591  131.1192  150.0425 H   0  0  0  0  0  0  0  0  0  0  0  0
  145.3285  135.6433  150.0193 H   0  0  0  0  0  0  0  0  0  0  0  0
  143.7419  135.1789  150.6287 H   0  0  0  0  0  0  0  0  0  0  0  0
  146.2385  137.3397  151.6708 H   0  0  0  0  0  0  0  0  0  0  0  0
  144.5577  137.5155  152.0336 H   0  0  0  0  0  0  0  0  0  0  0  0
  145.8207  136.6044  155.6770 H   0  0  0  0  0  0  0  0  0  0  0  0
  144.7825  135.7534  154.5417 H   0  0  0  0  0  0  0  0  0  0  0  0
  144.3062  137.3476  155.1232 H   0  0  0  0  0  0  0  0  0  0  0  0
  147.8336  140.9188  152.0713 H   0  0  0  0  0  0  0  0  0  0  0  0
  147.8270  139.1829  158.2688 H   0  0  0  0  0  0  0  0  0  0  0  0
  149.0952  142.2072  156.2431 H   0  0  0  0  0  0  0  0  0  0  0  0
  148.4242  141.9027  157.8237 H   0  0  0  0  0  0  0  0  0  0  0  0
  150.2977  140.0134  157.9443 H   0  0  0  0  0  0  0  0  0  0  0  0
  151.6449  141.8683  155.9281 H   0  0  0  0  0  0  0  0  0  0  0  0
  152.3536  140.4572  156.6851 H   0  0  0  0  0  0  0  0  0  0  0  0
  149.9377  140.1212  155.3607 H   0  0  0  0  0  0  0  0  0  0  0  0
  150.1894  141.9990  159.4272 H   0  0  0  0  0  0  0  0  0  0  0  0
  151.9933  140.6993  160.1845 H   0  0  0  0  0  0  0  0  0  0  0  0
  152.9007  140.9009  158.6864 H   0  0  0  0  0  0  0  0  0  0  0  0
  152.3450  143.0635  160.7541 H   0  0  0  0  0  0  0  0  0  0  0  0
  153.9153  142.5725  160.0966 H   0  0  0  0  0  0  0  0  0  0  0  0
  151.3164  143.5235  157.1941 H   0  0  0  0  0  0  0  0  0  0  0  0
  150.6433  144.0537  158.7251 H   0  0  0  0  0  0  0  0  0  0  0  0
  146.0887  133.7263  154.1931 H   0  0  0  0  0  0  0  0  0  0  0  0
  146.8591  135.3030  154.4078 H   0  0  0  0  0  0  0  0  0  0  0  0
  147.8167  133.9229  153.8750 H   0  0  0  0  0  0  0  0  0  0  0  0
  146.7082  132.6283  152.0060 H   0  0  0  0  0  0  0  0  0  0  0  0
  147.4231  133.6829  150.8007 H   0  0  0  0  0  0  0  0  0  0  0  0
  147.2910  135.3549  152.0582 H   0  0  0  0  0  0  0  0  0  0  0  0
  1  2  1  0  0  0  0
  1 32  1  0  0  0  0
  1 33  1  0  0  0  0
  1 34  1  0  0  0  0
  2  3  1  0  0  0  0
  3 30  1  0  0  0  0
  3 29  1  0  0  0  0
  3  4  1  0  0  0  0
  4  5  1  0  0  0  0
  4 35  1  0  0  0  0
  4 36  1  0  0  0  0
  5 31  1  0  0  0  0
  5  6  1  0  0  0  0
  5 27  1  0  0  0  0
  6  7  1  0  0  0  0
  6 37  1  0  0  0  0
  6 38  1  0  0  0  0
  7  8  1  0  0  0  0
  7  9  1  0  0  0  0
  8 39  1  0  0  0  0
  8 40  1  0  0  0  0
  8 41  1  0  0  0  0
  9 14  1  0  0  0  0
  9 10  2  0  0  0  0
 10 11  1  0  0  0  0
 11 12  2  0  0  0  0
 11 42  1  0  0  0  0
 12 13  1  0  0  0  0
 13 17  1  0  0  0  0
 13 14  2  0  0  0  0
 14 15  1  0  0  0  0
 15 16  2  0  0  0  0
 16 17  1  0  0  0  0
 16 43  1  0  0  0  0
 17 18  1  0  0  0  0
 18 19  1  0  0  0  0
 18 44  1  0  0  0  0
 18 45  1  0  0  0  0
 19 20  1  0  0  0  0
 19 22  1  0  0  0  0
 19 46  1  0  0  0  0
 20 21  1  0  0  0  0
 20 47  1  0  0  0  0
 20 48  1  0  0  0  0
 21 49  1  0  0  0  0
 22 26  1  0  0  0  0
 22 23  1  0  0  0  0
 22 50  1  0  0  0  0
 23 24  1  0  0  0  0
 23 51  1  0  0  0  0
 23 52  1  0  0  0  0
 24 25  1  0  0  0  0
 24 53  1  0  0  0  0
 24 54  1  0  0  0  0
 25 26  1  0  0  0  0
 26 55  1  0  0  0  0
 26 56  1  0  0  0  0
 27 28  1  0  0  0  0
 27 29  1  0  0  0  0
 27 62  1  0  0  0  0
 28 57  1  0  0  0  0
 28 58  1  0  0  0  0
 28 59  1  0  0  0  0
 29 60  1  0  0  0  0
 29 61  1  0  0  0  0
M  CHG  1  27   1
M  END
> <s_m_source_file>
AV-unprocessed.smi

> <i_m_source_file_index>
21

> <i_lp_mmshare_version>
43012

> <i_f3d_flags>
0

> <s_epik_input>
W0NIM11PW0NASF0xW0NIMl1bQ0BIXShOKFtDSDNdKVtDSDJdMSlbQ0gyXU4oW0NIM10pYyhuW2NIXW4yKWMoYzIzKW5bY0hdbjNbQ0gyXVtDQEhdKFtDSDJdW09IXSlbQ0BASF00W0NIMl1bQ0gyXU9bQ0gyXTQ=

> <s_epik_cmdline>
J2VwaWtfcHl0aG9uJywgJy1waCcsICc3LjAnLCAnLXRuJywgJzgnLCAnLW1hJywgJzIwMCcsICctbWV0YWxfYmluZGluZycsICctaW1hZScsICc8aW5maWxlLm1hZT4nLCAnLW9tYWUnLCAnPG91dGZpbGUubWFlPic=

> <r_lp_tautomer_probability>
1

> <r_epik_Ionization_Penalty>
0.0157465

> <r_epik_Ionization_Penalty_Charging>
0.015354

> <r_epik_Ionization_Penalty_Neutral>
0.000392529

> <r_epik_State_Penalty>
0.0120612

> <r_epik_Charging_Adjusted_Penalty>
0.0274152

> <i_epik_Tot_Q>
1

> <i_epik_Tot_abs_Q>
1

> <r_epik_Metal_State_Penalty>
0.0121253

> <b_epik_Metal_Only>
0

> <s_lp_Force_Field>
OPLS_2005

> <r_lp_Energy>
59.9021

> <b_lp_Chiralities_Consistent>
1

> <s_lp_Variant>
AV-unprocessed.smi:21-31

> <Gold.Version>
5.8.1

> <Gold.Id.Protein>
6NUR|6NUR_protein|mol2

> <Gold.PLP.Fitness>
48.2749

> <Gold.PLP.PLP>
-39.3107

> <Gold.PLP.part.hbond>
-2.0000

> <Gold.PLP.part.metal>
0.0000

> <Gold.PLP.part.buried>
-6.2782

> <Gold.PLP.part.nonpolar>
-31.3867

> <Gold.PLP.part.repulsive>
0.5957

> <Gold.PLP.ligand.clash>
0.0000

> <Gold.PLP.ligand.torsion>
0.8593

> <Gold.PLP.Chemscore.Hbond>
3.0000

> <Gold.PLP.Chemscore.CHOScore>
0.4413

> <Gold.PLP.Chemscore.Metal>
0.0000

> <Gold.Chemscore.Hbonds>
donor molecule, donor type, donor heavy atom, donor atom, acceptor molecule, acceptor atom, score
      L1  H    27    62       P1  7948  2.00
      P1  H  7989  7998       L1    21  0.83
      L1  C    11    42       P1  7957  0.56

> <Gold.PLP.Chemscore.Internal.Correction>
0.3590

> <Gold.Rescore>
     Score         DG    S(hbond)    S(metal)    S(lipo)     H(rot)  DE(clash)    DE(int)     intcor
     12.53     -14.84       1.88        0.00      93.63       3.08       0.42       1.89       ----

> <Gold.Chemscore.Fitness>
12.5277

> <Gold.Chemscore.DG>
-14.8394

> <Gold.Chemscore.ZeroCoef>
-5.4800

> <Gold.Chemscore.Hbond>
1.8799

> <Gold.Chemscore.Metal>
0.0000

> <Gold.Chemscore.Lipo>
93.6305

> <Gold.Chemscore.Internal_Hbond>
0.0000

> <Gold.Chemscore.DEClash>
0.4213

> <Gold.Chemscore.DEInternal>
1.8904

> <Gold.Chemscore.Rot>
3.0758

> <Gold.Chemscore.Internal.Correction>
   9.000000E+99

> <Gold.Chemscore.Hbonds>
donor molecule, donor type, donor heavy atom, donor atom, acceptor molecule, acceptor atom, score
      L1  H    27    62       P1  7948  1.00
      P1  H  7989  7998       L1    21  0.43

> <Gold.Chemscore.Hbond.Weighted>
-6.2787

> <Gold.Chemscore.Metal.Weighted>
-0.0000

> <Gold.Chemscore.Lipo.Weighted>
-10.9548

> <Gold.Chemscore.Internal_Hbond.Weighted>
0.0000

> <Gold.Chemscore.DEClash.Weighted>
0.4213

> <Gold.Chemscore.DEInternal.Weighted>
1.8904

> <Gold.Chemscore.Rot.Weighted>
7.8741

> <Gold.Chemscore.Internal.Correction.Weighted>
   9.000000E+99

> <Gold.Protein.RotatedTorsions>
[ 6907 6896 6895 6894 ] final  164.60 input  -60.11 | X-H torsion
[ 7974 7965 7964 7962 ] final   44.17 input  175.53 | X-H torsion
[ 8008 7997 7996 7995 ] final   68.77 input   59.86 | X-H torsion
[ 10167 10162 10161 10158 ] final -109.50 input  -65.29 | X-H torsion
[ 10718 10713 10712 10709 ] final  -13.47 input   66.30 | X-H torsion
[ 10763 10752 10751 10750 ] final  101.12 input  -60.55 | X-H torsion
[ 11005 11000 10999 10996 ] final  111.06 input  -57.11 | X-H torsion

> <Gold.Protein.ActiveResidues>
 VAL166  LYS551  ARG553  GLY616  TRP617  ASP618  TYR619  PRO620  LYS621  CYS622 
 ASP623  PHE694  ASN695  SER759  ASP760  ASP761  ALA762  ILE779  LEU786  VAL792 
 PHE793  MET794  SER795  GLU796  ALA797  LYS798  CYS799  TRP800  GLU811  SER814 

> <Gold.Protein.RotatedAtoms>
  151.9073  133.3552  159.3851 H   0  0  0  0  0  0  0  0  0  0  0  0  # atno 6907 bound_to 6896
  150.7066  134.4768  159.5460 H   0  0  0  0  0  0  0  0  0  0  0  0  # atno 6908 bound_to 6896
  152.2367  134.8269  160.0517 H   0  0  0  0  0  0  0  0  0  0  0  0  # atno 6909 bound_to 6896
  146.0592  139.5105  142.9669 H   0  0  0  0  0  0  0  0  0  0  0  0  # atno 7974 bound_to 7965
  155.7133  140.3494  155.4983 H   0  0  0  0  0  0  0  0  0  0  0  0  # atno 8008 bound_to 7997
  155.9336  140.1088  157.1135 H   0  0  0  0  0  0  0  0  0  0  0  0  # atno 8009 bound_to 7997
  154.4089  140.1226  156.4821 H   0  0  0  0  0  0  0  0  0  0  0  0  # atno 8010 bound_to 7997
  140.1546  143.4170  152.1470 H   0  0  0  0  0  0  0  0  0  0  0  0  # atno 10167 bound_to 10162
  156.6298  130.4898  149.6133 H   0  0  0  0  0  0  0  0  0  0  0  0  # atno 10718 bound_to 10713
  153.3226  135.4055  155.1429 H   0  0  0  0  0  0  0  0  0  0  0  0  # atno 10763 bound_to 10752
  154.8604  135.3591  154.5576 H   0  0  0  0  0  0  0  0  0  0  0  0  # atno 10764 bound_to 10752
  153.6010  135.7071  153.5443 H   0  0  0  0  0  0  0  0  0  0  0  0  # atno 10765 bound_to 10752
  139.8895  134.9499  156.6374 H   0  0  0  0  0  0  0  0  0  0  0  0  # atno 11005 bound_to 11000
  145.6590  141.0245  143.1719 LP  0  0  0  0  0  0  0  0  0  0  0  0  # atno 17320 bound_to 7965
  144.7165  139.8179  143.7397 LP  0  0  0  0  0  0  0  0  0  0  0  0  # atno 17321 bound_to 7965
  139.5409  144.7255  151.4736 LP  0  0  0  0  0  0  0  0  0  0  0  0  # atno 17342 bound_to 10162
  140.6681  143.8354  150.6966 LP  0  0  0  0  0  0  0  0  0  0  0  0  # atno 17343 bound_to 10162
  156.2243  130.6756  151.1400 LP  0  0  0  0  0  0  0  0  0  0  0  0  # atno 17370 bound_to 10713
  157.7203  131.0685  150.6162 LP  0  0  0  0  0  0  0  0  0  0  0  0  # atno 17371 bound_to 10713
  140.7620  133.8810  155.8425 LP  0  0  0  0  0  0  0  0  0  0  0  0  # atno 17394 bound_to 11000
  140.9914  134.1273  157.4404 LP  0  0  0  0  0  0  0  0  0  0  0  0  # atno 17395 bound_to 11000

$$$$
