AV-unprocessed.smi:2097|AV-procd|sdf|8563|dock3
  -GOLD-   2272011293D 1   1.00000     0.00000
 Structure written by MMmdl.
 41 42  0  0  0  0  0  0  0  0  1 V2000
  156.2923  135.5412  161.4655 C   0  0  0  0  0  0  0  0  0  0  0  0
  154.7581  135.4729  161.4948 C   0  0  2  0  0  0  0  0  0  0  0  0
  154.3697  134.2798  160.8175 O   0  0  0  0  0  0  0  0  0  0  0  0
  155.0188  133.0877  161.2489 C   0  0  0  0  0  0  0  0  0  0  0  0
  154.8271  131.9939  160.1914 C   0  0  0  0  0  0  0  0  0  0  0  0
  153.5548  131.5979  160.1954 F   0  0  0  0  0  0  0  0  0  0  0  0
  155.1245  132.4658  158.9812 F   0  0  0  0  0  0  0  0  0  0  0  0
  155.6023  130.9453  160.4670 F   0  0  0  0  0  0  0  0  0  0  0  0
  154.1296  136.7029  160.8193 C   0  0  0  0  0  0  0  0  0  0  0  0
  153.3377  136.5494  159.8897 O   0  0  0  0  0  0  0  0  0  0  0  0
  154.4765  137.8953  161.3388 N   0  0  0  0  0  0  0  0  0  0  0  0
  154.0450  139.1911  160.9471 C   0  0  0  0  0  0  0  0  0  0  0  0
  154.3147  140.2685  161.8127 C   0  0  0  0  0  0  0  0  0  0  0  0
  153.9076  141.5652  161.4466 C   0  0  0  0  0  0  0  0  0  0  0  0
  153.2433  141.7573  160.2123 C   0  0  0  0  0  0  0  0  0  0  0  0
  152.8166  143.0474  159.8285 N   0  0  0  0  0  0  0  0  0  0  0  0
  151.9834  143.7515  160.8005 C   0  0  0  0  0  0  0  0  0  0  0  0
  151.8393  145.2329  160.4112 C   0  0  0  0  0  0  0  0  0  0  0  0
  151.3434  145.3363  159.0807 O   0  0  0  0  0  0  0  0  0  0  0  0
  152.2299  144.7419  158.1385 C   0  0  0  0  0  0  0  0  0  0  0  0
  152.3830  143.2428  158.4460 C   0  0  0  0  0  0  0  0  0  0  0  0
  153.0075  140.7233  159.3678 N   0  0  0  0  0  0  0  0  0  0  0  0
  153.3967  139.4808  159.7233 C   0  0  0  0  0  0  0  0  0  0  0  0
  156.6588  136.4418  161.9597 H   0  0  0  0  0  0  0  0  0  0  0  0
  156.6756  135.5386  160.4443 H   0  0  0  0  0  0  0  0  0  0  0  0
  156.7262  134.6840  161.9805 H   0  0  0  0  0  0  0  0  0  0  0  0
  154.4385  135.4166  162.5373 H   0  0  0  0  0  0  0  0  0  0  0  0
  156.0833  133.2754  161.3957 H   0  0  0  0  0  0  0  0  0  0  0  0
  154.6136  132.7448  162.2016 H   0  0  0  0  0  0  0  0  0  0  0  0
  155.0706  137.8644  162.1545 H   0  0  0  0  0  0  0  0  0  0  0  0
  154.8247  140.1068  162.7512 H   0  0  0  0  0  0  0  0  0  0  0  0
  154.1202  142.3931  162.1062 H   0  0  0  0  0  0  0  0  0  0  0  0
  151.0017  143.2771  160.8301 H   0  0  0  0  0  0  0  0  0  0  0  0
  152.3951  143.6893  161.8068 H   0  0  0  0  0  0  0  0  0  0  0  0
  151.1460  145.7322  161.0880 H   0  0  0  0  0  0  0  0  0  0  0  0
  152.7955  145.7518  160.4959 H   0  0  0  0  0  0  0  0  0  0  0  0
  151.8270  144.8796  157.1352 H   0  0  0  0  0  0  0  0  0  0  0  0
  153.1976  145.2455  158.1652 H   0  0  0  0  0  0  0  0  0  0  0  0
  153.1072  142.8060  157.7573 H   0  0  0  0  0  0  0  0  0  0  0  0
  151.4324  142.7310  158.2893 H   0  0  0  0  0  0  0  0  0  0  0  0
  153.1930  138.7174  158.9888 H   0  0  0  0  0  0  0  0  0  0  0  0
  1  2  1  0  0  0  0
  1 24  1  0  0  0  0
  1 25  1  0  0  0  0
  1 26  1  0  0  0  0
  2  3  1  0  0  0  0
  2  9  1  0  0  0  0
  2 27  1  0  0  0  0
  3  4  1  0  0  0  0
  4  5  1  0  0  0  0
  4 28  1  0  0  0  0
  4 29  1  0  0  0  0
  5  6  1  0  0  0  0
  5  7  1  0  0  0  0
  5  8  1  0  0  0  0
  9 10  2  0  0  0  0
  9 11  1  0  0  0  0
 11 12  1  0  0  0  0
 11 30  1  0  0  0  0
 12 23  1  0  0  0  0
 12 13  2  0  0  0  0
 13 14  1  0  0  0  0
 13 31  1  0  0  0  0
 14 15  2  0  0  0  0
 14 32  1  0  0  0  0
 15 16  1  0  0  0  0
 15 22  1  0  0  0  0
 16 21  1  0  0  0  0
 16 17  1  0  0  0  0
 17 18  1  0  0  0  0
 17 33  1  0  0  0  0
 17 34  1  0  0  0  0
 18 19  1  0  0  0  0
 18 35  1  0  0  0  0
 18 36  1  0  0  0  0
 19 20  1  0  0  0  0
 20 21  1  0  0  0  0
 20 37  1  0  0  0  0
 20 38  1  0  0  0  0
 21 39  1  0  0  0  0
 21 40  1  0  0  0  0
 22 23  2  0  0  0  0
 23 41  1  0  0  0  0
M  END
> <s_m_source_file>
AV-unprocessed.smi

> <i_m_source_file_index>
2097

> <i_lp_mmshare_version>
43012

> <i_f3d_flags>
0

> <s_epik_input>
RkMoRikoRilbQ0gyXU9bQ0BASF0oW0NIM10pQyg9TylbTkhdYzFbY0hdW2NIXWMobltjSF0xKU4yW0NIMl1bQ0gyXU9bQ0gyXVtDSDJdMg==

> <s_epik_cmdline>
J2VwaWtfcHl0aG9uJywgJy1waCcsICc3LjAnLCAnLXRuJywgJzgnLCAnLW1hJywgJzIwMCcsICctbWV0YWxfYmluZGluZycsICctaW1hZScsICc8aW5maWxlLm1hZT4nLCAnLW9tYWUnLCAnPG91dGZpbGUubWFlPic=

> <r_lp_tautomer_probability>
1

> <r_epik_Ionization_Penalty>
0.000443452

> <r_epik_Ionization_Penalty_Charging>
0

> <r_epik_Ionization_Penalty_Neutral>
0.000443452

> <r_epik_State_Penalty>
0.00027288

> <r_epik_Charging_Adjusted_Penalty>
0.00027288

> <i_epik_Tot_Q>
0

> <i_epik_Tot_abs_Q>
0

> <r_epik_Metal_State_Penalty>
-0

> <b_epik_Metal_Only>
0

> <s_lp_Force_Field>
OPLS_2005

> <r_lp_Energy>
25.2007

> <b_lp_Chiralities_Consistent>
1

> <s_lp_Variant>
AV-unprocessed.smi:2097-1

> <Gold.Version>
5.8.1

> <Gold.Id.Protein>
6NUR|6NUR_protein|mol2

> <Gold.PLP.Fitness>
39.9861

> <Gold.PLP.PLP>
-37.4772

> <Gold.PLP.part.hbond>
-2.0037

> <Gold.PLP.part.metal>
0.0000

> <Gold.PLP.part.buried>
-6.2165

> <Gold.PLP.part.nonpolar>
-29.1086

> <Gold.PLP.part.repulsive>
0.1358

> <Gold.PLP.ligand.clash>
0.0000

> <Gold.PLP.ligand.torsion>
0.4343

> <Gold.PLP.Chemscore.Hbond>
1.0000

> <Gold.PLP.Chemscore.CHOScore>
0.0000

> <Gold.PLP.Chemscore.Metal>
0.0000

> <Gold.Chemscore.Hbonds>
donor molecule, donor type, donor heavy atom, donor atom, acceptor molecule, acceptor atom, score
      P1  H  6896  6909       L1     3  0.96

> <Gold.PLP.Chemscore.Internal.Correction>
0.3775

> <Gold.Rescore>
     Score         DG    S(hbond)    S(metal)    S(lipo)     H(rot)  DE(clash)    DE(int)     intcor
     12.68     -14.22       1.01        0.00      88.58       1.95       0.12       1.42       ----

> <Gold.Chemscore.Fitness>
12.6774

> <Gold.Chemscore.DG>
-14.2228

> <Gold.Chemscore.ZeroCoef>
-5.4800

> <Gold.Chemscore.Hbond>
1.0086

> <Gold.Chemscore.Metal>
0.0000

> <Gold.Chemscore.Lipo>
88.5799

> <Gold.Chemscore.Internal_Hbond>
0.0000

> <Gold.Chemscore.DEClash>
0.1207

> <Gold.Chemscore.DEInternal>
1.4246

> <Gold.Chemscore.Rot>
1.9491

> <Gold.Chemscore.Internal.Correction>
   9.000000E+99

> <Gold.Chemscore.Hbonds>
donor molecule, donor type, donor heavy atom, donor atom, acceptor molecule, acceptor atom, score
      P1  H  6896  6909       L1     3  0.86

> <Gold.Chemscore.Hbond.Weighted>
-3.3686

> <Gold.Chemscore.Metal.Weighted>
-0.0000

> <Gold.Chemscore.Lipo.Weighted>
-10.3638

> <Gold.Chemscore.Internal_Hbond.Weighted>
0.0000

> <Gold.Chemscore.DEClash.Weighted>
0.1207

> <Gold.Chemscore.DEInternal.Weighted>
1.4246

> <Gold.Chemscore.Rot.Weighted>
4.9897

> <Gold.Chemscore.Internal.Correction.Weighted>
   9.000000E+99

> <Gold.Protein.RotatedTorsions>
[ 6907 6896 6895 6894 ] final -152.10 input  -60.11 | X-H torsion
[ 7974 7965 7964 7962 ] final  -15.86 input  175.53 | X-H torsion
[ 8008 7997 7996 7995 ] final   52.69 input   59.86 | X-H torsion
[ 10167 10162 10161 10158 ] final   37.52 input  -65.29 | X-H torsion
[ 10718 10713 10712 10709 ] final  -50.95 input   66.30 | X-H torsion
[ 10763 10752 10751 10750 ] final   91.77 input  -60.55 | X-H torsion
[ 11005 11000 10999 10996 ] final   98.25 input  -57.11 | X-H torsion

> <Gold.Protein.ActiveResidues>
 VAL166  LYS551  ARG553  GLY616  TRP617  ASP618  TYR619  PRO620  LYS621  CYS622 
 ASP623  PHE694  ASN695  SER759  ASP760  ASP761  ALA762  ILE779  LEU786  VAL792 
 PHE793  MET794  SER795  GLU796  ALA797  LYS798  CYS799  TRP800  GLU811  SER814 

> <Gold.Protein.RotatedAtoms>
  151.2229  133.4493  159.2601 H   0  0  0  0  0  0  0  0  0  0  0  0  # atno 6907 bound_to 6896
  151.0868  134.9892  159.8393 H   0  0  0  0  0  0  0  0  0  0  0  0  # atno 6908 bound_to 6896
  152.5430  134.2165  159.8823 H   0  0  0  0  0  0  0  0  0  0  0  0  # atno 6909 bound_to 6896
  146.2013  140.3553  142.8422 H   0  0  0  0  0  0  0  0  0  0  0  0  # atno 7974 bound_to 7965
  155.4559  140.3460  155.4306 H   0  0  0  0  0  0  0  0  0  0  0  0  # atno 8008 bound_to 7997
  156.1191  140.1482  156.9260 H   0  0  0  0  0  0  0  0  0  0  0  0  # atno 8009 bound_to 7997
  154.4810  140.0870  156.7357 H   0  0  0  0  0  0  0  0  0  0  0  0  # atno 8010 bound_to 7997
  140.4025  144.1704  150.6134 H   0  0  0  0  0  0  0  0  0  0  0  0  # atno 10167 bound_to 10162
  156.1754  130.4150  149.9585 H   0  0  0  0  0  0  0  0  0  0  0  0  # atno 10718 bound_to 10713
  153.2118  135.4385  155.0389 H   0  0  0  0  0  0  0  0  0  0  0  0  # atno 10763 bound_to 10752
  154.8204  135.3335  154.7057 H   0  0  0  0  0  0  0  0  0  0  0  0  # atno 10764 bound_to 10752
  153.7494  135.6999  153.5005 H   0  0  0  0  0  0  0  0  0  0  0  0  # atno 10765 bound_to 10752
  139.8773  134.9040  156.4428 H   0  0  0  0  0  0  0  0  0  0  0  0  # atno 11005 bound_to 11000
  144.8691  140.7247  143.6058 LP  0  0  0  0  0  0  0  0  0  0  0  0  # atno 17320 bound_to 7965
  145.3473  139.1716  143.4454 LP  0  0  0  0  0  0  0  0  0  0  0  0  # atno 17321 bound_to 7965
  140.4725  143.2408  151.9069 LP  0  0  0  0  0  0  0  0  0  0  0  0  # atno 17342 bound_to 10162
  139.4784  144.5355  151.8605 LP  0  0  0  0  0  0  0  0  0  0  0  0  # atno 17343 bound_to 10162
  156.7372  130.9066  151.3630 LP  0  0  0  0  0  0  0  0  0  0  0  0  # atno 17370 bound_to 10713
  157.6832  130.9160  150.0319 LP  0  0  0  0  0  0  0  0  0  0  0  0  # atno 17371 bound_to 10713
  140.8987  133.7795  155.9655 LP  0  0  0  0  0  0  0  0  0  0  0  0  # atno 17394 bound_to 11000
  140.8675  134.2767  157.5206 LP  0  0  0  0  0  0  0  0  0  0  0  0  # atno 17395 bound_to 11000

$$$$
