AV-unprocessed.smi:2789|AV-procd|sdf|10765|dock6
  -GOLD-   2272015203D 1   1.00000     0.00000
 Structure written by MMmdl.
 35 36  0  0  0  0  0  0  0  0  1 V2000
  153.4395  141.3123  160.4886 C   0  0  0  0  0  0  0  0  0  0  0  0
  153.2598  142.0608  159.2973 O   0  0  0  0  0  0  0  0  0  0  0  0
  152.0697  142.8371  159.2855 C   0  0  1  0  0  0  0  0  0  0  0  0
  151.9360  143.7071  160.5414 C   0  0  0  0  0  0  0  0  0  0  0  0
  151.1430  144.9222  160.0741 C   0  0  0  0  0  0  0  0  0  0  0  0
  151.6800  145.1944  158.6690 C   0  0  0  0  0  0  0  0  0  0  0  0
  152.0884  143.8242  158.0963 C   0  0  2  0  0  0  0  0  0  0  0  0
  151.1619  143.4158  157.0435 N   0  0  0  0  0  0  0  0  0  0  0  0
  151.0667  142.1727  156.5500 C   0  0  0  0  0  0  0  0  0  0  0  0
  151.7676  141.2361  156.9339 O   0  0  0  0  0  0  0  0  0  0  0  0
  150.1131  142.0962  155.6055 N   0  0  0  0  0  0  0  0  0  0  0  0
  149.7196  141.0135  154.8832 C   0  0  0  0  0  0  0  0  0  0  0  0
  150.3092  139.7823  154.7887 C   0  0  0  0  0  0  0  0  0  0  0  0
  149.4447  139.0949  153.8895 C   0  0  0  0  0  0  0  0  0  0  0  0
  148.4272  139.8395  153.4746 N   0  0  0  0  0  0  0  0  0  0  0  0
  148.5951  141.0319  154.0871 N   0  0  0  0  0  0  0  0  0  0  0  0
  147.6475  142.1051  153.8583 C   0  0  0  0  0  0  0  0  0  0  0  0
  154.3584  140.7306  160.4176 H   0  0  0  0  0  0  0  0  0  0  0  0
  152.6143  140.6162  160.6440 H   0  0  0  0  0  0  0  0  0  0  0  0
  153.5211  141.9605  161.3616 H   0  0  0  0  0  0  0  0  0  0  0  0
  151.1942  142.1885  159.2083 H   0  0  0  0  0  0  0  0  0  0  0  0
  151.4552  143.1838  161.3683 H   0  0  0  0  0  0  0  0  0  0  0  0
  152.9230  144.0280  160.8784 H   0  0  0  0  0  0  0  0  0  0  0  0
  150.0825  144.6725  160.0228 H   0  0  0  0  0  0  0  0  0  0  0  0
  151.2541  145.7788  160.7397 H   0  0  0  0  0  0  0  0  0  0  0  0
  150.9557  145.7259  158.0499 H   0  0  0  0  0  0  0  0  0  0  0  0
  152.5638  145.8300  158.7414 H   0  0  0  0  0  0  0  0  0  0  0  0
  153.0942  143.9081  157.6797 H   0  0  0  0  0  0  0  0  0  0  0  0
  150.5489  144.1275  156.6739 H   0  0  0  0  0  0  0  0  0  0  0  0
  149.6069  142.9483  155.4145 H   0  0  0  0  0  0  0  0  0  0  0  0
  151.2044  139.4159  155.2684 H   0  0  0  0  0  0  0  0  0  0  0  0
  149.5262  138.0813  153.5254 H   0  0  0  0  0  0  0  0  0  0  0  0
  147.1751  142.3825  154.8008 H   0  0  0  0  0  0  0  0  0  0  0  0
  146.8747  141.7931  153.1544 H   0  0  0  0  0  0  0  0  0  0  0  0
  148.1677  142.9719  153.4504 H   0  0  0  0  0  0  0  0  0  0  0  0
  1  2  1  0  0  0  0
  1 18  1  0  0  0  0
  1 19  1  0  0  0  0
  1 20  1  0  0  0  0
  2  3  1  0  0  0  0
  3  7  1  0  0  0  0
  3  4  1  0  0  0  0
  3 21  1  0  0  0  0
  4  5  1  0  0  0  0
  4 22  1  0  0  0  0
  4 23  1  0  0  0  0
  5  6  1  0  0  0  0
  5 24  1  0  0  0  0
  5 25  1  0  0  0  0
  6  7  1  0  0  0  0
  6 26  1  0  0  0  0
  6 27  1  0  0  0  0
  7  8  1  0  0  0  0
  7 28  1  0  0  0  0
  8  9  1  0  0  0  0
  8 29  1  0  0  0  0
  9 10  2  0  0  0  0
  9 11  1  0  0  0  0
 11 12  1  0  0  0  0
 11 30  1  0  0  0  0
 12 16  1  0  0  0  0
 12 13  2  0  0  0  0
 13 14  1  0  0  0  0
 13 31  1  0  0  0  0
 14 15  2  0  0  0  0
 14 32  1  0  0  0  0
 15 16  1  0  0  0  0
 16 17  1  0  0  0  0
 17 33  1  0  0  0  0
 17 34  1  0  0  0  0
 17 35  1  0  0  0  0
M  END
> <s_m_source_file>
AV-unprocessed.smi

> <i_m_source_file_index>
2789

> <i_lp_mmshare_version>
43012

> <i_f3d_flags>
0

> <s_epik_input>
W0NIM11PW0NAQEhdMVtDSDJdW0NIMl1bQ0gyXVtDQEhdMVtOSF1DKD1PKVtOSF1jMltjSF1bY0hdbm4yW0NIM10=

> <s_epik_cmdline>
J2VwaWtfcHl0aG9uJywgJy1waCcsICc3LjAnLCAnLXRuJywgJzgnLCAnLW1hJywgJzIwMCcsICctbWV0YWxfYmluZGluZycsICctaW1hZScsICc8aW5maWxlLm1hZT4nLCAnLW9tYWUnLCAnPG91dGZpbGUubWFlPic=

> <r_lp_tautomer_probability>
1

> <r_epik_Ionization_Penalty>
4.40608e-05

> <r_epik_Ionization_Penalty_Charging>
0

> <r_epik_Ionization_Penalty_Neutral>
4.40608e-05

> <r_epik_State_Penalty>
-0

> <r_epik_Charging_Adjusted_Penalty>
0

> <i_epik_Tot_Q>
0

> <i_epik_Tot_abs_Q>
0

> <r_epik_Metal_State_Penalty>
-0

> <b_epik_Metal_Only>
0

> <s_lp_Force_Field>
OPLS_2005

> <r_lp_Energy>
20.286

> <b_lp_Chiralities_Consistent>
1

> <s_lp_Variant>
AV-unprocessed.smi:2789-4

> <Gold.Version>
5.8.1

> <Gold.Id.Protein>
6NUR|6NUR_protein|mol2

> <Gold.PLP.Fitness>
49.4366

> <Gold.PLP.PLP>
-41.1665

> <Gold.PLP.part.hbond>
-2.0000

> <Gold.PLP.part.metal>
0.0000

> <Gold.PLP.part.buried>
-5.6504

> <Gold.PLP.part.nonpolar>
-34.7646

> <Gold.PLP.part.repulsive>
1.3268

> <Gold.PLP.ligand.clash>
0.0000

> <Gold.PLP.ligand.torsion>
0.2382

> <Gold.PLP.Chemscore.Hbond>
2.0000

> <Gold.PLP.Chemscore.CHOScore>
0.9134

> <Gold.PLP.Chemscore.Metal>
0.0000

> <Gold.Chemscore.Hbonds>
donor molecule, donor type, donor heavy atom, donor atom, acceptor molecule, acceptor atom, score
      L1  H     8    29       P1  8028  1.00
      L1  H    11    30       P1  8028  1.00
      L1  C    14    32       P1  7948  1.00

> <Gold.PLP.Chemscore.Internal.Correction>
0.0065

> <Gold.Rescore>
     Score         DG    S(hbond)    S(metal)    S(lipo)     H(rot)  DE(clash)    DE(int)     intcor
     14.99     -19.28       1.96        0.00      89.88       1.27       0.18       4.11       ----

> <Gold.Chemscore.Fitness>
14.9932

> <Gold.Chemscore.DG>
-19.2778

> <Gold.Chemscore.ZeroCoef>
-5.4800

> <Gold.Chemscore.Hbond>
1.9571

> <Gold.Chemscore.Metal>
0.0000

> <Gold.Chemscore.Lipo>
89.8767

> <Gold.Chemscore.Internal_Hbond>
0.0000

> <Gold.Chemscore.DEClash>
0.1767

> <Gold.Chemscore.DEInternal>
4.1079

> <Gold.Chemscore.Rot>
1.2712

> <Gold.Chemscore.Internal.Correction>
   9.000000E+99

> <Gold.Chemscore.Hbonds>
donor molecule, donor type, donor heavy atom, donor atom, acceptor molecule, acceptor atom, score
      L1  H     8    29       P1  8028  0.93
      L1  H    11    30       P1  8028  0.99

> <Gold.Chemscore.Hbond.Weighted>
-6.5366

> <Gold.Chemscore.Metal.Weighted>
-0.0000

> <Gold.Chemscore.Lipo.Weighted>
-10.5156

> <Gold.Chemscore.Internal_Hbond.Weighted>
0.0000

> <Gold.Chemscore.DEClash.Weighted>
0.1767

> <Gold.Chemscore.DEInternal.Weighted>
4.1079

> <Gold.Chemscore.Rot.Weighted>
3.2544

> <Gold.Chemscore.Internal.Correction.Weighted>
   9.000000E+99

> <Gold.Protein.RotatedTorsions>
[ 6907 6896 6895 6894 ] final  -58.36 input  -60.11 | X-H torsion
[ 7974 7965 7964 7962 ] final  159.08 input  175.53 | X-H torsion
[ 8008 7997 7996 7995 ] final  156.73 input   59.86 | X-H torsion
[ 10167 10162 10161 10158 ] final -115.74 input  -65.29 | X-H torsion
[ 10718 10713 10712 10709 ] final  -43.23 input   66.30 | X-H torsion
[ 10763 10752 10751 10750 ] final  -94.48 input  -60.55 | X-H torsion
[ 11005 11000 10999 10996 ] final -105.95 input  -57.11 | X-H torsion

> <Gold.Protein.ActiveResidues>
 VAL166  LYS551  ARG553  GLY616  TRP617  ASP618  TYR619  PRO620  LYS621  CYS622 
 ASP623  PHE694  ASN695  SER759  ASP760  ASP761  ALA762  ILE779  LEU786  VAL792 
 PHE793  MET794  SER795  GLU796  ALA797  LYS798  CYS799  TRP800  GLU811  SER814 

> <Gold.Protein.RotatedAtoms>
  150.8013  134.7108  159.6602 H   0  0  0  0  0  0  0  0  0  0  0  0  # atno 6907 bound_to 6896
  152.4130  134.6088  160.0030 H   0  0  0  0  0  0  0  0  0  0  0  0  # atno 6908 bound_to 6896
  151.6326  133.3294  159.3148 H   0  0  0  0  0  0  0  0  0  0  0  0  # atno 6909 bound_to 6896
  144.7810  139.7567  143.6260 H   0  0  0  0  0  0  0  0  0  0  0  0  # atno 7974 bound_to 7965
  156.2405  140.1904  156.7000 H   0  0  0  0  0  0  0  0  0  0  0  0  # atno 8008 bound_to 7997
  154.6189  140.0611  156.9616 H   0  0  0  0  0  0  0  0  0  0  0  0  # atno 8009 bound_to 7997
  155.1894  140.3283  155.4364 H   0  0  0  0  0  0  0  0  0  0  0  0  # atno 8010 bound_to 7997
  140.0868  143.4736  152.1893 H   0  0  0  0  0  0  0  0  0  0  0  0  # atno 10167 bound_to 10162
  156.2511  130.4188  149.8648 H   0  0  0  0  0  0  0  0  0  0  0  0  # atno 10718 bound_to 10713
  154.7059  135.5156  153.8594 H   0  0  0  0  0  0  0  0  0  0  0  0  # atno 10763 bound_to 10752
  153.0741  135.6610  154.0193 H   0  0  0  0  0  0  0  0  0  0  0  0  # atno 10764 bound_to 10752
  154.0044  135.3008  155.3379 H   0  0  0  0  0  0  0  0  0  0  0  0  # atno 10765 bound_to 10752
  141.1028  133.8852  157.1797 H   0  0  0  0  0  0  0  0  0  0  0  0  # atno 11005 bound_to 11000
  146.2017  139.5317  142.9738 LP  0  0  0  0  0  0  0  0  0  0  0  0  # atno 17320 bound_to 7965
  145.6051  141.0349  143.1997 LP  0  0  0  0  0  0  0  0  0  0  0  0  # atno 17321 bound_to 7965
  139.5747  144.7481  151.3796 LP  0  0  0  0  0  0  0  0  0  0  0  0  # atno 17342 bound_to 10162
  140.7049  143.7538  150.7465 LP  0  0  0  0  0  0  0  0  0  0  0  0  # atno 17343 bound_to 10162
  156.6196  130.8621  151.3472 LP  0  0  0  0  0  0  0  0  0  0  0  0  # atno 17370 bound_to 10713
  157.7215  130.9564  150.1457 LP  0  0  0  0  0  0  0  0  0  0  0  0  # atno 17371 bound_to 10713
  139.9886  135.0073  156.9923 LP  0  0  0  0  0  0  0  0  0  0  0  0  # atno 17394 bound_to 11000
  140.4978  134.1128  155.7244 LP  0  0  0  0  0  0  0  0  0  0  0  0  # atno 17395 bound_to 11000

$$$$
