AV-unprocessed.smi:1139|AV-procd|sdf|4869|dock6
  -GOLD-   22720 3443D 1   1.00000     0.00000
 Structure written by MMmdl.
 43 44  0  0  0  0  0  0  0  0  2 V2000
  146.7641  133.8824  162.2387 C   0  0  0  0  0  0  0  0  0  0  0  0
  147.3261  135.0906  161.5457 C   0  0  0  0  0  0  0  0  0  0  0  0
  147.3708  136.2471  162.1854 N   0  0  0  0  0  0  0  0  0  0  0  0
  147.9396  137.1585  161.2905 O   0  0  0  0  0  0  0  0  0  0  0  0
  148.2184  136.5067  160.1330 C   0  0  0  0  0  0  0  0  0  0  0  0
  148.8373  137.3138  159.0422 C   0  0  0  0  0  0  0  0  0  0  0  0
  147.8544  135.1912  160.2263 C   0  0  0  0  0  0  0  0  0  0  0  0
  147.9804  134.1059  159.1892 C   0  0  0  0  0  0  0  0  0  0  0  0
  147.4394  134.6085  157.8504 C   0  0  0  0  0  0  0  0  0  0  0  0
  146.2956  135.0573  157.7781 O   0  0  0  0  0  0  0  0  0  0  0  0
  148.2700  134.5275  156.7989 N   0  0  0  0  0  0  0  0  0  0  0  0
  147.9414  134.9032  155.4260 C   0  0  0  0  0  0  0  0  0  0  0  0
  147.9416  133.6992  154.4482 C   0  0  2  0  0  0  0  0  0  0  0  0
  149.3504  133.0772  154.3166 C   0  0  0  0  0  0  0  0  0  0  0  0
  147.4106  134.0980  153.1104 N   0  3  0  0  0  0  0  0  0  0  0  0
  147.2245  132.9905  152.1471 C   0  0  0  0  0  0  0  0  0  0  0  0
  146.2706  133.5168  151.0728 C   0  0  0  0  0  0  0  0  0  0  0  0
  145.5371  134.6942  151.7189 C   0  0  0  0  0  0  0  0  0  0  0  0
  146.1156  134.8133  153.1311 C   0  0  0  0  0  0  0  0  0  0  0  0
  146.1374  133.2992  161.5643 H   0  0  0  0  0  0  0  0  0  0  0  0
  146.1516  134.1590  163.0977 H   0  0  0  0  0  0  0  0  0  0  0  0
  147.5633  133.2328  162.5957 H   0  0  0  0  0  0  0  0  0  0  0  0
  148.4823  136.9839  158.0658 H   0  0  0  0  0  0  0  0  0  0  0  0
  149.9225  137.2142  159.0582 H   0  0  0  0  0  0  0  0  0  0  0  0
  148.5924  138.3708  159.1488 H   0  0  0  0  0  0  0  0  0  0  0  0
  149.0203  133.8065  159.0538 H   0  0  0  0  0  0  0  0  0  0  0  0
  147.4451  133.2041  159.4901 H   0  0  0  0  0  0  0  0  0  0  0  0
  149.1917  134.1466  156.9580 H   0  0  0  0  0  0  0  0  0  0  0  0
  146.9520  135.3567  155.4746 H   0  0  0  0  0  0  0  0  0  0  0  0
  148.6128  135.6839  155.0637 H   0  0  0  0  0  0  0  0  0  0  0  0
  147.2771  132.9345  154.8542 H   0  0  0  0  0  0  0  0  0  0  0  0
  149.7381  132.7477  155.2799 H   0  0  0  0  0  0  0  0  0  0  0  0
  150.0608  133.7929  153.9014 H   0  0  0  0  0  0  0  0  0  0  0  0
  149.3536  132.1942  153.6784 H   0  0  0  0  0  0  0  0  0  0  0  0
  148.1695  132.6593  151.7156 H   0  0  0  0  0  0  0  0  0  0  0  0
  146.7670  132.1396  152.6548 H   0  0  0  0  0  0  0  0  0  0  0  0
  146.8334  133.8633  150.2051 H   0  0  0  0  0  0  0  0  0  0  0  0
  145.5848  132.7409  150.7305 H   0  0  0  0  0  0  0  0  0  0  0  0
  145.7283  135.6058  151.1511 H   0  0  0  0  0  0  0  0  0  0  0  0
  144.4574  134.5425  151.7419 H   0  0  0  0  0  0  0  0  0  0  0  0
  145.4435  134.3284  153.8411 H   0  0  0  0  0  0  0  0  0  0  0  0
  146.2289  135.8556  153.4305 H   0  0  0  0  0  0  0  0  0  0  0  0
  148.0797  134.7299  152.6935 H   0  0  0  0  0  0  0  0  0  0  0  0
  1  2  1  0  0  0  0
  1 20  1  0  0  0  0
  1 21  1  0  0  0  0
  1 22  1  0  0  0  0
  2  7  1  0  0  0  0
  2  3  2  0  0  0  0
  3  4  1  0  0  0  0
  4  5  1  0  0  0  0
  5  6  1  0  0  0  0
  5  7  2  0  0  0  0
  6 23  1  0  0  0  0
  6 24  1  0  0  0  0
  6 25  1  0  0  0  0
  7  8  1  0  0  0  0
  8  9  1  0  0  0  0
  8 26  1  0  0  0  0
  8 27  1  0  0  0  0
  9 10  2  0  0  0  0
  9 11  1  0  0  0  0
 11 12  1  0  0  0  0
 11 28  1  0  0  0  0
 12 13  1  0  0  0  0
 12 29  1  0  0  0  0
 12 30  1  0  0  0  0
 13 14  1  0  0  0  0
 13 15  1  0  0  0  0
 13 31  1  0  0  0  0
 14 32  1  0  0  0  0
 14 33  1  0  0  0  0
 14 34  1  0  0  0  0
 15 19  1  0  0  0  0
 15 16  1  0  0  0  0
 15 43  1  0  0  0  0
 16 17  1  0  0  0  0
 16 35  1  0  0  0  0
 16 36  1  0  0  0  0
 17 18  1  0  0  0  0
 17 37  1  0  0  0  0
 17 38  1  0  0  0  0
 18 19  1  0  0  0  0
 18 39  1  0  0  0  0
 18 40  1  0  0  0  0
 19 41  1  0  0  0  0
 19 42  1  0  0  0  0
M  CHG  1  15   1
M  END
> <s_m_source_file>
AV-unprocessed.smi

> <i_m_source_file_index>
1139

> <i_lp_mmshare_version>
43012

> <i_f3d_flags>
0

> <s_epik_input>
W0NIM11jMW5vYyhbQ0gzXSljMVtDSDJdQyg9TylbTkhdW0NIMl1bQ0BIXShbQ0gzXSlOMltDSDJdW0NIMl1bQ0gyXVtDSDJdMg==

> <s_epik_cmdline>
J2VwaWtfcHl0aG9uJywgJy1waCcsICc3LjAnLCAnLXRuJywgJzgnLCAnLW1hJywgJzIwMCcsICctbWV0YWxfYmluZGluZycsICctaW1hZScsICc8aW5maWxlLm1hZT4nLCAnLW9tYWUnLCAnPG91dGZpbGUubWFlPic=

> <r_epik_Ionization_Penalty>
0.0050436

> <r_epik_Ionization_Penalty_Charging>
0.0050435

> <r_epik_Ionization_Penalty_Neutral>
9.69799e-08

> <r_epik_State_Penalty>
0.00366867

> <r_epik_Charging_Adjusted_Penalty>
0.00871217

> <i_epik_Tot_Q>
1

> <i_epik_Tot_abs_Q>
1

> <r_epik_Metal_State_Penalty>
-0

> <b_epik_Metal_Only>
0

> <s_lp_Force_Field>
OPLS_2005

> <r_lp_Energy>
25.3713

> <b_lp_Chiralities_Consistent>
1

> <s_lp_Variant>
AV-unprocessed.smi:1139-1

> <Gold.Version>
5.8.1

> <Gold.Id.Protein>
6NUR|6NUR_protein|mol2

> <Gold.PLP.Fitness>
39.9776

> <Gold.PLP.PLP>
-29.1142

> <Gold.PLP.part.hbond>
-3.0000

> <Gold.PLP.part.metal>
0.0000

> <Gold.PLP.part.buried>
-3.8375

> <Gold.PLP.part.nonpolar>
-22.6958

> <Gold.PLP.part.repulsive>
0.0264

> <Gold.PLP.ligand.clash>
0.0000

> <Gold.PLP.ligand.torsion>
0.2320

> <Gold.PLP.Chemscore.Hbond>
3.7520

> <Gold.PLP.Chemscore.CHOScore>
0.0000

> <Gold.PLP.Chemscore.Metal>
0.0000

> <Gold.Chemscore.Hbonds>
donor molecule, donor type, donor heavy atom, donor atom, acceptor molecule, acceptor atom, score
      L1  H    15    43       P1  7948  2.00
      P1  H  6931  6943       L1     4  1.00
      P1  H  6934  6947       L1     4  0.71

> <Gold.PLP.Chemscore.Internal.Correction>
0.0714

> <Gold.Rescore>
     Score         DG    S(hbond)    S(metal)    S(lipo)     H(rot)  DE(clash)    DE(int)     intcor
     16.80     -16.97       2.51        0.00      64.22       1.72       0.04       0.13       ----

> <Gold.Chemscore.Fitness>
16.7997

> <Gold.Chemscore.DG>
-16.9685

> <Gold.Chemscore.ZeroCoef>
-5.4800

> <Gold.Chemscore.Hbond>
2.5081

> <Gold.Chemscore.Metal>
0.0000

> <Gold.Chemscore.Lipo>
64.2176

> <Gold.Chemscore.Internal_Hbond>
0.0000

> <Gold.Chemscore.DEClash>
0.0358

> <Gold.Chemscore.DEInternal>
0.1330

> <Gold.Chemscore.Rot>
1.7195

> <Gold.Chemscore.Internal.Correction>
   9.000000E+99

> <Gold.Chemscore.Hbonds>
donor molecule, donor type, donor heavy atom, donor atom, acceptor molecule, acceptor atom, score
      L1  H    15    43       P1  7948  0.70
      P1  H  6931  6943       L1     4  0.89
      P1  H  6934  6947       L1     4  0.54

> <Gold.Chemscore.Hbond.Weighted>
-8.3769

> <Gold.Chemscore.Metal.Weighted>
-0.0000

> <Gold.Chemscore.Lipo.Weighted>
-7.5135

> <Gold.Chemscore.Internal_Hbond.Weighted>
0.0000

> <Gold.Chemscore.DEClash.Weighted>
0.0358

> <Gold.Chemscore.DEInternal.Weighted>
0.1330

> <Gold.Chemscore.Rot.Weighted>
4.4018

> <Gold.Chemscore.Internal.Correction.Weighted>
   9.000000E+99

> <Gold.Protein.RotatedTorsions>
[ 6907 6896 6895 6894 ] final -177.42 input  -60.11 | X-H torsion
[ 7974 7965 7964 7962 ] final  147.57 input  175.53 | X-H torsion
[ 8008 7997 7996 7995 ] final  -91.25 input   59.86 | X-H torsion
[ 10167 10162 10161 10158 ] final  -45.20 input  -65.29 | X-H torsion
[ 10718 10713 10712 10709 ] final   88.01 input   66.30 | X-H torsion
[ 10763 10752 10751 10750 ] final  113.83 input  -60.55 | X-H torsion
[ 11005 11000 10999 10996 ] final  -21.48 input  -57.11 | X-H torsion

> <Gold.Protein.ActiveResidues>
 VAL166  LYS551  ARG553  GLY616  TRP617  ASP618  TYR619  PRO620  LYS621  CYS622 
 ASP623  PHE694  ASN695  SER759  ASP760  ASP761  ALA762  ILE779  LEU786  VAL792 
 PHE793  MET794  SER795  GLU796  ALA797  LYS798  CYS799  TRP800  GLU811  SER814 

> <Gold.Protein.RotatedAtoms>
  151.6208  133.3339  159.3087 H   0  0  0  0  0  0  0  0  0  0  0  0  # atno 6907 bound_to 6896
  150.8107  134.7264  159.6697 H   0  0  0  0  0  0  0  0  0  0  0  0  # atno 6908 bound_to 6896
  152.4204  134.5971  160.0041 H   0  0  0  0  0  0  0  0  0  0  0  0  # atno 6909 bound_to 6896
  144.8581  139.6045  143.5943 H   0  0  0  0  0  0  0  0  0  0  0  0  # atno 7974 bound_to 7965
  154.7085  140.0521  157.0527 H   0  0  0  0  0  0  0  0  0  0  0  0  # atno 8008 bound_to 7997
  155.0587  140.3187  155.4649 H   0  0  0  0  0  0  0  0  0  0  0  0  # atno 8009 bound_to 7997
  156.2782  140.2102  156.5714 H   0  0  0  0  0  0  0  0  0  0  0  0  # atno 8010 bound_to 7997
  140.6867  143.2891  151.3604 H   0  0  0  0  0  0  0  0  0  0  0  0  # atno 10167 bound_to 10162
  157.6945  131.0278  150.3209 H   0  0  0  0  0  0  0  0  0  0  0  0  # atno 10718 bound_to 10713
  153.4983  135.3643  155.2527 H   0  0  0  0  0  0  0  0  0  0  0  0  # atno 10763 bound_to 10752
  154.8749  135.3994  154.3508 H   0  0  0  0  0  0  0  0  0  0  0  0  # atno 10764 bound_to 10752
  153.4139  135.7078  153.6406 H   0  0  0  0  0  0  0  0  0  0  0  0  # atno 10765 bound_to 10752
  140.8565  133.7819  156.0025 H   0  0  0  0  0  0  0  0  0  0  0  0  # atno 11005 bound_to 11000
  146.2839  139.6952  142.9209 LP  0  0  0  0  0  0  0  0  0  0  0  0  # atno 17320 bound_to 7965
  145.4365  141.0419  143.2881 LP  0  0  0  0  0  0  0  0  0  0  0  0  # atno 17321 bound_to 7965
  139.6232  144.0865  152.2411 LP  0  0  0  0  0  0  0  0  0  0  0  0  # atno 17342 bound_to 10162
  140.0316  144.6076  150.7483 LP  0  0  0  0  0  0  0  0  0  0  0  0  # atno 17343 bound_to 10162
  156.3697  130.3861  149.7185 LP  0  0  0  0  0  0  0  0  0  0  0  0  # atno 17370 bound_to 10713
  156.4604  130.7949  151.2969 LP  0  0  0  0  0  0  0  0  0  0  0  0  # atno 17371 bound_to 10713
  140.8731  134.2702  157.5181 LP  0  0  0  0  0  0  0  0  0  0  0  0  # atno 17394 bound_to 11000
  139.8705  134.9577  156.4278 LP  0  0  0  0  0  0  0  0  0  0  0  0  # atno 17395 bound_to 11000

$$$$
