AV-unprocessed.smi:1334|AV-procd|sdf|5492|dock1
  -GOLD-   22720 5 73D 1   1.00000     0.00000
 Structure written by MMmdl.
 38 39  0  0  0  0  0  0  0  0  1 V2000
  147.7921  140.2060  153.3813 C   0  0  0  0  0  0  0  0  0  0  0  0
  148.1614  141.4495  154.2149 C   0  0  2  0  0  0  0  0  0  0  0  0
  149.5124  141.2898  154.9266 C   0  0  0  0  0  0  0  0  0  0  0  0
  150.2030  140.2888  154.7321 O   0  0  0  0  0  0  0  0  0  0  0  0
  149.8645  142.2793  155.7634 N   0  0  0  0  0  0  0  0  0  0  0  0
  151.0571  142.2952  156.6070 C   0  0  0  0  0  0  0  0  0  0  0  0
  151.0901  143.5287  157.5301 C   0  0  0  0  0  0  0  0  0  0  0  0
  151.7366  143.2852  158.8877 C   0  0  0  0  0  0  0  0  0  0  0  0
  152.5829  142.2572  159.0959 C   0  0  0  0  0  0  0  0  0  0  0  0
  153.2213  141.9303  160.4344 C   0  0  0  0  0  0  0  0  0  0  0  0
  152.5661  142.6880  161.6010 C   0  0  0  0  0  0  0  0  0  0  0  0
  152.2774  144.1465  161.2269 C   0  0  0  0  0  0  0  0  0  0  0  0
  151.3398  144.2379  160.0103 C   0  0  0  0  0  0  0  0  0  0  0  0
  147.1278  141.7971  155.1829 N   0  0  0  0  0  0  0  0  0  0  0  0
  145.8121  141.9444  155.0147 C   0  0  0  0  0  0  0  0  0  0  0  0
  145.1654  142.3103  156.1126 N   0  0  0  0  0  0  0  0  0  0  0  0
  146.2174  142.3949  156.9792 C   0  0  0  0  0  0  0  0  0  0  0  0
  147.4160  142.1090  156.4717 N   0  0  0  0  0  0  0  0  0  0  0  0
  148.5527  139.9999  152.6275 H   0  0  0  0  0  0  0  0  0  0  0  0
  146.8474  140.3568  152.8583 H   0  0  0  0  0  0  0  0  0  0  0  0
  147.6892  139.3118  153.9974 H   0  0  0  0  0  0  0  0  0  0  0  0
  148.2433  142.2886  153.5218 H   0  0  0  0  0  0  0  0  0  0  0  0
  149.2367  143.0648  155.8548 H   0  0  0  0  0  0  0  0  0  0  0  0
  151.1316  141.3881  157.2082 H   0  0  0  0  0  0  0  0  0  0  0  0
  151.9357  142.2969  155.9615 H   0  0  0  0  0  0  0  0  0  0  0  0
  151.6133  144.3466  157.0341 H   0  0  0  0  0  0  0  0  0  0  0  0
  150.0678  143.8763  157.6851 H   0  0  0  0  0  0  0  0  0  0  0  0
  152.8472  141.6047  158.2764 H   0  0  0  0  0  0  0  0  0  0  0  0
  153.1569  140.8564  160.6098 H   0  0  0  0  0  0  0  0  0  0  0  0
  154.2810  142.1749  160.3724 H   0  0  0  0  0  0  0  0  0  0  0  0
  151.6299  142.1984  161.8721 H   0  0  0  0  0  0  0  0  0  0  0  0
  153.2062  142.6401  162.4824 H   0  0  0  0  0  0  0  0  0  0  0  0
  151.8409  144.6764  162.0738 H   0  0  0  0  0  0  0  0  0  0  0  0
  153.2168  144.6514  160.9985 H   0  0  0  0  0  0  0  0  0  0  0  0
  151.3312  145.2657  159.6491 H   0  0  0  0  0  0  0  0  0  0  0  0
  150.3172  144.0019  160.3067 H   0  0  0  0  0  0  0  0  0  0  0  0
  145.3170  141.7839  154.0681 H   0  0  0  0  0  0  0  0  0  0  0  0
  146.0973  142.6841  158.0126 H   0  0  0  0  0  0  0  0  0  0  0  0
  1  2  1  0  0  0  0
  1 19  1  0  0  0  0
  1 20  1  0  0  0  0
  1 21  1  0  0  0  0
  2  3  1  0  0  0  0
  2 14  1  0  0  0  0
  2 22  1  0  0  0  0
  3  4  2  0  0  0  0
  3  5  1  0  0  0  0
  5  6  1  0  0  0  0
  5 23  1  0  0  0  0
  6  7  1  0  0  0  0
  6 24  1  0  0  0  0
  6 25  1  0  0  0  0
  7  8  1  0  0  0  0
  7 26  1  0  0  0  0
  7 27  1  0  0  0  0
  8 13  1  0  0  0  0
  8  9  2  0  0  0  0
  9 10  1  0  0  0  0
  9 28  1  0  0  0  0
 10 11  1  0  0  0  0
 10 29  1  0  0  0  0
 10 30  1  0  0  0  0
 11 12  1  0  0  0  0
 11 31  1  0  0  0  0
 11 32  1  0  0  0  0
 12 13  1  0  0  0  0
 12 33  1  0  0  0  0
 12 34  1  0  0  0  0
 13 35  1  0  0  0  0
 13 36  1  0  0  0  0
 14 18  1  0  0  0  0
 14 15  1  0  0  0  0
 15 16  2  0  0  0  0
 15 37  1  0  0  0  0
 16 17  1  0  0  0  0
 17 18  2  0  0  0  0
 17 38  1  0  0  0  0
M  END
> <s_m_source_file>
AV-unprocessed.smi

> <i_m_source_file_index>
1334

> <i_lp_mmshare_version>
43012

> <i_f3d_flags>
0

> <s_epik_input>
bjFbY0hdbltjSF1uMVtDQEhdKFtDSDNdKUMoPU8pW05IXVtDSDJdW0NIMl1DMj1bQ0hdW0NIMl1bQ0gyXVtDSDJdW0NIMl0y

> <s_epik_cmdline>
J2VwaWtfcHl0aG9uJywgJy1waCcsICc3LjAnLCAnLXRuJywgJzgnLCAnLW1hJywgJzIwMCcsICctbWV0YWxfYmluZGluZycsICctaW1hZScsICc8aW5maWxlLm1hZT4nLCAnLW9tYWUnLCAnPG91dGZpbGUubWFlPic=

> <r_lp_tautomer_probability>
1

> <r_epik_Ionization_Penalty>
1.26383e-05

> <r_epik_Ionization_Penalty_Charging>
0

> <r_epik_Ionization_Penalty_Neutral>
1.26383e-05

> <r_epik_State_Penalty>
-0

> <r_epik_Charging_Adjusted_Penalty>
0

> <i_epik_Tot_Q>
0

> <i_epik_Tot_abs_Q>
0

> <r_epik_Metal_State_Penalty>
-0

> <b_epik_Metal_Only>
0

> <s_lp_Force_Field>
OPLS_2005

> <r_lp_Energy>
12.0281

> <b_lp_Chiralities_Consistent>
1

> <s_lp_Variant>
AV-unprocessed.smi:1334-1

> <Gold.Version>
5.8.1

> <Gold.Id.Protein>
6NUR|6NUR_protein|mol2

> <Gold.PLP.Fitness>
46.3475

> <Gold.PLP.PLP>
-39.2633

> <Gold.PLP.part.hbond>
-2.0000

> <Gold.PLP.part.metal>
0.0000

> <Gold.PLP.part.buried>
-2.1489

> <Gold.PLP.part.nonpolar>
-36.1617

> <Gold.PLP.part.repulsive>
0.4705

> <Gold.PLP.ligand.clash>
0.0000

> <Gold.PLP.ligand.torsion>
0.8537

> <Gold.PLP.Chemscore.Hbond>
1.8960

> <Gold.PLP.Chemscore.CHOScore>
0.9930

> <Gold.PLP.Chemscore.Metal>
0.0000

> <Gold.Chemscore.Hbonds>
donor molecule, donor type, donor heavy atom, donor atom, acceptor molecule, acceptor atom, score
      L1  H     5    23       P1  8028  1.00
      P1  H  7989  7998       L1     4  1.00
      L1  C    15    37       P1 10175  0.71

> <Gold.PLP.Chemscore.Internal.Correction>
0.1245

> <Gold.Rescore>
     Score         DG    S(hbond)    S(metal)    S(lipo)     H(rot)  DE(clash)    DE(int)     intcor
     14.15     -16.76       1.69        0.00     100.81       2.40       0.35       2.26       ----

> <Gold.Chemscore.Fitness>
14.1499

> <Gold.Chemscore.DG>
-16.7591

> <Gold.Chemscore.ZeroCoef>
-5.4800

> <Gold.Chemscore.Hbond>
1.6860

> <Gold.Chemscore.Metal>
0.0000

> <Gold.Chemscore.Lipo>
100.8094

> <Gold.Chemscore.Internal_Hbond>
0.0000

> <Gold.Chemscore.DEClash>
0.3534

> <Gold.Chemscore.DEInternal>
2.2558

> <Gold.Chemscore.Rot>
2.4011

> <Gold.Chemscore.Internal.Correction>
   9.000000E+99

> <Gold.Chemscore.Hbonds>
donor molecule, donor type, donor heavy atom, donor atom, acceptor molecule, acceptor atom, score
      L1  H     5    23       P1  8028  0.95
      P1  H  7989  7998       L1     4  0.48

> <Gold.Chemscore.Hbond.Weighted>
-5.6313

> <Gold.Chemscore.Metal.Weighted>
-0.0000

> <Gold.Chemscore.Lipo.Weighted>
-11.7947

> <Gold.Chemscore.Internal_Hbond.Weighted>
0.0000

> <Gold.Chemscore.DEClash.Weighted>
0.3534

> <Gold.Chemscore.DEInternal.Weighted>
2.2558

> <Gold.Chemscore.Rot.Weighted>
6.1469

> <Gold.Chemscore.Internal.Correction.Weighted>
   9.000000E+99

> <Gold.Protein.RotatedTorsions>
[ 6907 6896 6895 6894 ] final  -73.79 input  -60.11 | X-H torsion
[ 7974 7965 7964 7962 ] final  -58.29 input  175.53 | X-H torsion
[ 8008 7997 7996 7995 ] final   34.88 input   59.86 | X-H torsion
[ 10167 10162 10161 10158 ] final  107.61 input  -65.29 | X-H torsion
[ 10718 10713 10712 10709 ] final  -19.35 input   66.30 | X-H torsion
[ 10763 10752 10751 10750 ] final  100.85 input  -60.55 | X-H torsion
[ 11005 11000 10999 10996 ] final  -71.76 input  -57.11 | X-H torsion

> <Gold.Protein.ActiveResidues>
 VAL166  LYS551  ARG553  GLY616  TRP617  ASP618  TYR619  PRO620  LYS621  CYS622 
 ASP623  PHE694  ASN695  SER759  ASP760  ASP761  ALA762  ILE779  LEU786  VAL792 
 PHE793  MET794  SER795  GLU796  ALA797  LYS798  CYS799  TRP800  GLU811  SER814 

> <Gold.Protein.RotatedAtoms>
  150.7117  134.4964  159.5539 H   0  0  0  0  0  0  0  0  0  0  0  0  # atno 6907 bound_to 6896
  152.2571  134.8070  160.0446 H   0  0  0  0  0  0  0  0  0  0  0  0  # atno 6908 bound_to 6896
  151.8797  133.3457  159.3799 H   0  0  0  0  0  0  0  0  0  0  0  0  # atno 6909 bound_to 6896
  145.8411  140.8416  143.0034 H   0  0  0  0  0  0  0  0  0  0  0  0  # atno 7974 bound_to 7965
  155.1620  140.3284  155.4409 H   0  0  0  0  0  0  0  0  0  0  0  0  # atno 8008 bound_to 7997
  156.2539  140.1958  156.6678 H   0  0  0  0  0  0  0  0  0  0  0  0  # atno 8009 bound_to 7997
  154.6398  140.0572  156.9818 H   0  0  0  0  0  0  0  0  0  0  0  0  # atno 8010 bound_to 7997
  139.6913  144.7107  151.1343 H   0  0  0  0  0  0  0  0  0  0  0  0  # atno 10167 bound_to 10162
  156.5469  130.4692  149.6471 H   0  0  0  0  0  0  0  0  0  0  0  0  # atno 10718 bound_to 10713
  153.3191  135.4065  155.1402 H   0  0  0  0  0  0  0  0  0  0  0  0  # atno 10763 bound_to 10752
  154.8596  135.3583  154.5620 H   0  0  0  0  0  0  0  0  0  0  0  0  # atno 10764 bound_to 10752
  153.6052  135.7069  153.5427 H   0  0  0  0  0  0  0  0  0  0  0  0  # atno 10765 bound_to 10752
  141.1597  133.6827  156.6955 H   0  0  0  0  0  0  0  0  0  0  0  0  # atno 11005 bound_to 11000
  144.6733  140.0813  143.7469 LP  0  0  0  0  0  0  0  0  0  0  0  0  # atno 17320 bound_to 7965
  145.9464  139.2704  143.1238 LP  0  0  0  0  0  0  0  0  0  0  0  0  # atno 17321 bound_to 7965
  140.7683  143.5555  150.9157 LP  0  0  0  0  0  0  0  0  0  0  0  0  # atno 17342 bound_to 10162
  139.9232  143.6581  152.3092 LP  0  0  0  0  0  0  0  0  0  0  0  0  # atno 17343 bound_to 10162
  156.2920  130.7129  151.1980 LP  0  0  0  0  0  0  0  0  0  0  0  0  # atno 17370 bound_to 10713
  157.7395  131.0529  150.5229 LP  0  0  0  0  0  0  0  0  0  0  0  0  # atno 17371 bound_to 10713
  140.2998  134.8173  157.4088 LP  0  0  0  0  0  0  0  0  0  0  0  0  # atno 17394 bound_to 11000
  140.1272  134.5142  155.8135 LP  0  0  0  0  0  0  0  0  0  0  0  0  # atno 17395 bound_to 11000

$$$$
