AV-unprocessed.smi:3242|AV-procd|sdf|12393|dock1
  -GOLD-   2272018263D 1   1.00000     0.00000
 Structure written by MMmdl.
 40 41  0  0  0  0  0  0  0  0  1 V2000
  145.8987  142.9226  153.9918 C   0  0  0  0  0  0  0  0  0  0  0  0
  147.0119  142.0035  154.0921 N   0  0  0  0  0  0  0  0  0  0  0  0
  148.0749  142.0322  154.9684 C   0  0  0  0  0  0  0  0  0  0  0  0
  148.8666  140.9536  154.6886 C   0  0  0  0  0  0  0  0  0  0  0  0
  150.1392  140.5148  155.3657 C   0  0  0  0  0  0  0  0  0  0  0  0
  149.9943  140.4226  156.8941 C   0  0  0  0  0  0  0  0  0  0  0  0
  150.7492  141.4804  157.5588 N   0  0  0  0  0  0  0  0  0  0  0  0
  151.7195  141.2954  158.4700 C   0  0  0  0  0  0  0  0  0  0  0  0
  152.0463  140.1720  158.8575 O   0  0  0  0  0  0  0  0  0  0  0  0
  152.3530  142.4320  158.8641 N   0  0  0  0  0  0  0  0  0  0  0  0
  152.1797  143.7443  158.2036 C   0  0  0  0  0  0  0  0  0  0  0  0
  152.2302  144.9666  159.1449 C   0  0  0  0  0  0  0  0  0  0  0  0
  151.4083  144.8169  160.4388 C   0  0  0  0  0  0  0  0  0  0  0  0
  152.1885  144.1367  161.5764 C   0  0  0  0  0  0  0  0  0  0  0  0
  152.5150  142.6545  161.3356 C   0  0  0  0  0  0  0  0  0  0  0  0
  153.2654  142.3953  160.0173 C   0  0  0  0  0  0  0  0  0  0  0  0
  148.1929  140.3230  153.6039 C   0  0  0  0  0  0  0  0  0  0  0  0
  147.0836  140.9517  153.2509 N   0  0  0  0  0  0  0  0  0  0  0  0
  146.0138  143.7303  154.7151 H   0  0  0  0  0  0  0  0  0  0  0  0
  144.9662  142.3953  154.1947 H   0  0  0  0  0  0  0  0  0  0  0  0
  145.8596  143.3483  152.9885 H   0  0  0  0  0  0  0  0  0  0  0  0
  148.1765  142.8044  155.7169 H   0  0  0  0  0  0  0  0  0  0  0  0
  150.4541  139.5428  154.9844 H   0  0  0  0  0  0  0  0  0  0  0  0
  150.9541  141.1988  155.1276 H   0  0  0  0  0  0  0  0  0  0  0  0
  148.9448  140.4973  157.1799 H   0  0  0  0  0  0  0  0  0  0  0  0
  150.3428  139.4430  157.2257 H   0  0  0  0  0  0  0  0  0  0  0  0
  150.5502  142.4277  157.2724 H   0  0  0  0  0  0  0  0  0  0  0  0
  152.9330  143.8476  157.4217 H   0  0  0  0  0  0  0  0  0  0  0  0
  151.2124  143.7978  157.7023 H   0  0  0  0  0  0  0  0  0  0  0  0
  153.2628  145.2201  159.3876 H   0  0  0  0  0  0  0  0  0  0  0  0
  151.8530  145.8262  158.5898 H   0  0  0  0  0  0  0  0  0  0  0  0
  151.1267  145.8133  160.7805 H   0  0  0  0  0  0  0  0  0  0  0  0
  150.4718  144.2927  160.2428 H   0  0  0  0  0  0  0  0  0  0  0  0
  153.1137  144.6855  161.7562 H   0  0  0  0  0  0  0  0  0  0  0  0
  151.6126  144.2192  162.4986 H   0  0  0  0  0  0  0  0  0  0  0  0
  153.1298  142.3028  162.1645 H   0  0  0  0  0  0  0  0  0  0  0  0
  151.6008  142.0605  161.3722 H   0  0  0  0  0  0  0  0  0  0  0  0
  153.7610  141.4244  160.0721 H   0  0  0  0  0  0  0  0  0  0  0  0
  154.0814  143.1072  159.8895 H   0  0  0  0  0  0  0  0  0  0  0  0
  148.4732  139.4273  153.0697 H   0  0  0  0  0  0  0  0  0  0  0  0
  1  2  1  0  0  0  0
  1 19  1  0  0  0  0
  1 20  1  0  0  0  0
  1 21  1  0  0  0  0
  2 18  1  0  0  0  0
  2  3  1  0  0  0  0
  3  4  2  0  0  0  0
  3 22  1  0  0  0  0
  4  5  1  0  0  0  0
  4 17  1  0  0  0  0
  5  6  1  0  0  0  0
  5 23  1  0  0  0  0
  5 24  1  0  0  0  0
  6  7  1  0  0  0  0
  6 25  1  0  0  0  0
  6 26  1  0  0  0  0
  7  8  1  0  0  0  0
  7 27  1  0  0  0  0
  8  9  2  0  0  0  0
  8 10  1  0  0  0  0
 10 16  1  0  0  0  0
 10 11  1  0  0  0  0
 11 12  1  0  0  0  0
 11 28  1  0  0  0  0
 11 29  1  0  0  0  0
 12 13  1  0  0  0  0
 12 30  1  0  0  0  0
 12 31  1  0  0  0  0
 13 14  1  0  0  0  0
 13 32  1  0  0  0  0
 13 33  1  0  0  0  0
 14 15  1  0  0  0  0
 14 34  1  0  0  0  0
 14 35  1  0  0  0  0
 15 16  1  0  0  0  0
 15 36  1  0  0  0  0
 15 37  1  0  0  0  0
 16 38  1  0  0  0  0
 16 39  1  0  0  0  0
 17 18  2  0  0  0  0
 17 40  1  0  0  0  0
M  END
> <s_m_source_file>
AV-unprocessed.smi

> <i_m_source_file_index>
3242

> <i_lp_mmshare_version>
43012

> <i_f3d_flags>
0

> <s_epik_input>
W0NIM11uMVtjSF1jKFtjSF1uMSlbQ0gyXVtDSDJdW05IXUMoPU8pTjJbQ0gyXVtDSDJdW0NIMl1bQ0gyXVtDSDJdW0NIMl0y

> <s_epik_cmdline>
J2VwaWtfcHl0aG9uJywgJy1waCcsICc3LjAnLCAnLXRuJywgJzgnLCAnLW1hJywgJzIwMCcsICctbWV0YWxfYmluZGluZycsICctaW1hZScsICc8aW5maWxlLm1hZT4nLCAnLW9tYWUnLCAnPG91dGZpbGUubWFlPic=

> <r_lp_tautomer_probability>
1

> <r_epik_Ionization_Penalty>
0.000572484

> <r_epik_Ionization_Penalty_Charging>
0

> <r_epik_Ionization_Penalty_Neutral>
0.000572484

> <r_epik_State_Penalty>
-0

> <r_epik_Charging_Adjusted_Penalty>
0

> <i_epik_Tot_Q>
0

> <i_epik_Tot_abs_Q>
0

> <r_epik_Metal_State_Penalty>
-0

> <b_epik_Metal_Only>
0

> <s_lp_Force_Field>
OPLS_2005

> <r_lp_Energy>
29.8159

> <b_lp_Chiralities_Consistent>
1

> <s_lp_Variant>
AV-unprocessed.smi:3242-1

> <Gold.Version>
5.8.1

> <Gold.Id.Protein>
6NUR|6NUR_protein|mol2

> <Gold.PLP.Fitness>
49.8372

> <Gold.PLP.PLP>
-45.9000

> <Gold.PLP.part.hbond>
0.0000

> <Gold.PLP.part.metal>
0.0000

> <Gold.PLP.part.buried>
-0.8872

> <Gold.PLP.part.nonpolar>
-45.3629

> <Gold.PLP.part.repulsive>
0.2233

> <Gold.PLP.ligand.clash>
0.0000

> <Gold.PLP.ligand.torsion>
0.4878

> <Gold.PLP.Chemscore.Hbond>
0.0000

> <Gold.PLP.Chemscore.CHOScore>
1.6203

> <Gold.PLP.Chemscore.Metal>
0.0000

> <Gold.Chemscore.Hbonds>
donor molecule, donor type, donor heavy atom, donor atom, acceptor molecule, acceptor atom, score
      L1  C     3    22       P1  8028  0.99
      L1  C    17    40       P1  7957  0.58

> <Gold.PLP.Chemscore.Internal.Correction>
0.0519

> <Gold.Rescore>
     Score         DG    S(hbond)    S(metal)    S(lipo)     H(rot)  DE(clash)    DE(int)     intcor
     14.12     -14.58       0.00        0.00     107.16       1.34       0.01       0.45       ----

> <Gold.Chemscore.Fitness>
14.1236

> <Gold.Chemscore.DG>
-14.5830

> <Gold.Chemscore.ZeroCoef>
-5.4800

> <Gold.Chemscore.Hbond>
0.0000

> <Gold.Chemscore.Metal>
0.0000

> <Gold.Chemscore.Lipo>
107.1556

> <Gold.Chemscore.Internal_Hbond>
0.0000

> <Gold.Chemscore.DEClash>
0.0089

> <Gold.Chemscore.DEInternal>
0.4506

> <Gold.Chemscore.Rot>
1.3415

> <Gold.Chemscore.Internal.Correction>
   9.000000E+99

> <Gold.Chemscore.Hbond.Weighted>
-0.0000

> <Gold.Chemscore.Metal.Weighted>
-0.0000

> <Gold.Chemscore.Lipo.Weighted>
-12.5372

> <Gold.Chemscore.Internal_Hbond.Weighted>
0.0000

> <Gold.Chemscore.DEClash.Weighted>
0.0089

> <Gold.Chemscore.DEInternal.Weighted>
0.4506

> <Gold.Chemscore.Rot.Weighted>
3.4342

> <Gold.Chemscore.Internal.Correction.Weighted>
   9.000000E+99

> <Gold.Protein.RotatedTorsions>
[ 6907 6896 6895 6894 ] final   64.08 input  -60.11 | X-H torsion
[ 7974 7965 7964 7962 ] final  102.83 input  175.53 | X-H torsion
[ 8008 7997 7996 7995 ] final    1.05 input   59.86 | X-H torsion
[ 10167 10162 10161 10158 ] final  -86.50 input  -65.29 | X-H torsion
[ 10718 10713 10712 10709 ] final   -1.59 input   66.30 | X-H torsion
[ 10763 10752 10751 10750 ] final   40.78 input  -60.55 | X-H torsion
[ 11005 11000 10999 10996 ] final  161.92 input  -57.11 | X-H torsion

> <Gold.Protein.ActiveResidues>
 VAL166  LYS551  ARG553  GLY616  TRP617  ASP618  TYR619  PRO620  LYS621  CYS622 
 ASP623  PHE694  ASN695  SER759  ASP760  ASP761  ALA762  ILE779  LEU786  VAL792 
 PHE793  MET794  SER795  GLU796  ALA797  LYS798  CYS799  TRP800  GLU811  SER814 

> <Gold.Protein.RotatedAtoms>
  152.4304  134.5789  159.9942 H   0  0  0  0  0  0  0  0  0  0  0  0  # atno 6907 bound_to 6896
  151.5914  133.3360  159.3036 H   0  0  0  0  0  0  0  0  0  0  0  0  # atno 6908 bound_to 6896
  150.8196  134.7433  159.6825 H   0  0  0  0  0  0  0  0  0  0  0  0  # atno 6909 bound_to 6896
  145.3539  139.2433  143.3543 H   0  0  0  0  0  0  0  0  0  0  0  0  # atno 7974 bound_to 7965
  154.6752  140.2621  155.6965 H   0  0  0  0  0  0  0  0  0  0  0  0  # atno 8008 bound_to 7997
  156.2675  140.2821  156.1199 H   0  0  0  0  0  0  0  0  0  0  0  0  # atno 8009 bound_to 7997
  155.1110  140.0375  157.2714 H   0  0  0  0  0  0  0  0  0  0  0  0  # atno 8010 bound_to 7997
  140.3935  143.2694  151.9234 H   0  0  0  0  0  0  0  0  0  0  0  0  # atno 10167 bound_to 10162
  156.8034  130.5400  149.5718 H   0  0  0  0  0  0  0  0  0  0  0  0  # atno 10718 bound_to 10713
  152.9926  135.6181  154.2681 H   0  0  0  0  0  0  0  0  0  0  0  0  # atno 10763 bound_to 10752
  154.2415  135.2788  155.2854 H   0  0  0  0  0  0  0  0  0  0  0  0  # atno 10764 bound_to 10752
  154.5365  135.5773  153.6861 H   0  0  0  0  0  0  0  0  0  0  0  0  # atno 10765 bound_to 10752
  140.2206  134.8199  157.3216 H   0  0  0  0  0  0  0  0  0  0  0  0  # atno 11005 bound_to 11000
  146.2956  140.4160  142.8723 LP  0  0  0  0  0  0  0  0  0  0  0  0  # atno 17320 bound_to 7965
  144.8697  140.7255  143.6055 LP  0  0  0  0  0  0  0  0  0  0  0  0  # atno 17321 bound_to 7965
  139.4788  144.5704  151.8097 LP  0  0  0  0  0  0  0  0  0  0  0  0  # atno 17342 bound_to 10162
  140.4815  144.1443  150.5933 LP  0  0  0  0  0  0  0  0  0  0  0  0  # atno 17343 bound_to 10162
  156.1087  130.6024  151.0013 LP  0  0  0  0  0  0  0  0  0  0  0  0  # atno 17370 bound_to 10713
  157.6542  131.0892  150.7984 LP  0  0  0  0  0  0  0  0  0  0  0  0  # atno 17371 bound_to 10713
  140.1854  134.4437  155.7747 LP  0  0  0  0  0  0  0  0  0  0  0  0  # atno 17394 bound_to 11000
  141.2223  133.7002  156.7938 LP  0  0  0  0  0  0  0  0  0  0  0  0  # atno 17395 bound_to 11000

$$$$
