#       Name:                AV-unprocessed.smi:777
#       Creating user name   scv26
#       Creation time:       Fri Mar 27 01:12:20 2020


#       File generated by GOLD software.
#

@<TRIPOS>MOLECULE
AV-unprocessed.smi:777
    44    45     1
SMALL
NO_CHARGES


@<TRIPOS>ATOM
      1 ****        -3.2519  -0.7999  -1.9913 C.3            1 S1                 0.0000
      2 ****        -2.4815  -0.6010  -0.6687 C.3            1 S1                 0.0000
      3 ****        -0.9700  -0.4281  -0.8832 C.2            1 S1                 0.0000
      4 ****        -0.4162  -0.9781  -1.8348 O.2            1 S1                 0.0000
      5 ****        -0.3485   0.3358   0.0357 N.am           1 S1                 0.0000
      6 ****         1.0651   0.6861   0.2443 C.3            1 S1                 0.0000
      7 ****         1.3862   0.1707   1.6712 C.2            1 S1                 0.0000
      8 ****         1.8906  -0.9688   1.7853 O.co2          1 S1                 0.0000
      9 ****         1.0755   0.9011   2.6391 O.co2          1 S1                -1.0000
     10 ****         2.0535   0.0879  -0.8079 C.3            1 S1                 0.0000
     11 ****         3.4979   0.6001  -0.6432 C.3            1 S1                 0.0000
     12 ****         3.5514   2.1335  -0.7053 C.3            1 S1                 0.0000
     13 ****         2.6074   2.7646   0.3283 C.3            1 S1                 0.0000
     14 ****         1.1678   2.2365   0.1681 C.3            1 S1                 0.0000
     15 ****        -2.7260  -1.6664   0.2986 N.pl3          1 S1                 0.0000
     16 ****        -2.7728  -1.5622   1.6747 C.2            1 S1                 0.0000
     17 ****        -2.9722  -2.8159   2.1771 C.2            1 S1                 0.0000
     18 ****        -3.0175  -3.6394   1.0186 C.2            1 S1                 0.0000
     19 ****        -2.8612  -2.9529  -0.1012 N.2            1 S1                 0.0000
     20 ****        -3.0969   0.0440  -2.6642 H              1 S1                 0.0000
     21 ****        -4.3238  -0.8778  -1.8082 H              1 S1                 0.0000
     22 ****        -2.9403  -1.7023  -2.5191 H              1 S1                 0.0000
     23 ****        -2.8563   0.3215  -0.2219 H              1 S1                 0.0000
     24 ****        -0.9548   0.7049   0.7535 H              1 S1                 0.0000
     25 ****         2.0492  -1.0028  -0.7818 H              1 S1                 0.0000
     26 ****         1.7285   0.3663  -1.8109 H              1 S1                 0.0000
     27 ****         3.9178   0.2540   0.3018 H              1 S1                 0.0000
     28 ****         4.1281   0.1787  -1.4268 H              1 S1                 0.0000
     29 ****         4.5721   2.4784  -0.5384 H              1 S1                 0.0000
     30 ****         3.2714   2.4670  -1.7053 H              1 S1                 0.0000
     31 ****         2.9742   2.5584   1.3343 H              1 S1                 0.0000
     32 ****         2.6156   3.8493   0.2193 H              1 S1                 0.0000
     33 ****         0.7843   2.5697  -0.7975 H              1 S1                 0.0000
     34 ****         0.5229   2.7099   0.9101 H              1 S1                 0.0000
     35 ****        -2.6569  -0.6130   2.1772 H              1 S1                 0.0000
     36 ****        -3.0609  -3.1016   3.2145 H              1 S1                 0.0000
     37 ****        -3.1522  -4.7093   0.9586 H              1 S1                 0.0000
     38 ****        -0.9500  -1.5377  -2.4687 LP             1 S1                 0.0000
     39 ****         0.5676  -0.8653  -1.9741 LP             1 S1                 0.0000
     40 ****         2.0690  -1.3480   2.6932 LP             1 S1                 0.0000
     41 ****         2.1153  -1.5002   0.9685 LP             1 S1                 0.0000
     42 ****         1.2274   0.5827   3.5748 LP             1 S1                 0.0000
     43 ****         0.6754   1.8031   2.4766 LP             1 S1                 0.0000
     44 ****        -2.8462  -3.3061  -1.0366 LP             1 S1                 0.0000
@<TRIPOS>BOND
    1    1    2 1     
    2    1   20 1     
    3    1   21 1     
    4    1   22 1     
    5    2    3 1     
    6    2   15 1     
    7    2   23 1     
    8    3    4 2     
    9    3    5 am    
   10    5    6 1     
   11    5   24 1     
   12    6   14 1     
   13    6    7 1     
   14    6   10 1     
   15    7    8 ar    
   16    7    9 ar    
   17   10   11 1     
   18   10   25 1     
   19   10   26 1     
   20   11   12 1     
   21   11   27 1     
   22   11   28 1     
   23   12   13 1     
   24   12   29 1     
   25   12   30 1     
   26   13   14 1     
   27   13   31 1     
   28   13   32 1     
   29   14   33 1     
   30   14   34 1     
   31   15   19 1     
   32   15   16 1     
   33   16   17 2     
   34   16   35 1     
   35   17   18 1     
   36   17   36 1     
   37   18   19 2     
   38   18   37 1     
   39    4   38 1     
   40    4   39 1     
   41    8   40 1     
   42    8   41 1     
   43    9   42 1     
   44    9   43 1     
   45   19   44 1     
@<TRIPOS>SUBSTRUCTURE
      1 S1             1
@<TRIPOS>SET
LONE_PAIRS      STATIC     ATOMS    <user>   **** ""
7 38 39 40 41 42 43 44
DONOR_HYDROGENS      STATIC     ATOMS    <user>   **** ""
1 24
ATOM$BLUE        STATIC     ATOMS    COLORGROUP SYSTEM
7 38 39 40 41 42 43 44
ATOM$RED        STATIC     ATOMS    COLORGROUP SYSTEM
1 24
