AV-unprocessed.smi:1388|AV-procd|sdf|5644|dock6
  -GOLD-   22720 5263D 1   1.00000     0.00000
 Structure written by MMmdl.
 45 46  0  0  0  0  0  0  0  0  3 V2000
  146.4019  135.3461  150.7391 C   0  0  0  0  0  0  0  0  0  0  0  0
  146.4662  136.7971  150.8699 N   0  5  0  0  0  0  0  0  0  0  0  0
  146.6068  137.4377  152.0639 C   0  0  0  0  0  0  0  0  0  0  0  0
  146.6785  136.9916  153.2132 O   0  0  0  0  0  0  0  0  0  0  0  0
  146.6767  138.9586  151.8718 C   0  0  0  0  0  0  0  0  0  0  0  0
  147.2550  139.6227  153.0687 N   0  3  2  0  0  0  0  0  0  0  0  0
  147.0243  141.0890  153.0709 C   0  0  0  0  0  0  0  0  0  0  0  0
  147.4923  141.7230  154.3917 C   0  0  0  0  0  0  0  0  0  0  0  0
  148.9711  141.4001  154.6730 C   0  0  1  0  0  0  0  0  0  0  0  0
  149.3768  141.9173  155.9765 N   0  0  0  0  0  0  0  0  0  0  0  0
  150.4835  141.5532  156.6409 C   0  0  0  0  0  0  0  0  0  0  0  0
  151.2937  140.7328  156.2086 O   0  0  0  0  0  0  0  0  0  0  0  0
  150.5818  142.2030  157.8141 N   0  0  0  0  0  0  0  0  0  0  0  0
  151.5850  142.0738  158.8160 C   0  0  0  0  0  0  0  0  0  0  0  0
  152.3171  140.9425  158.9758 N   0  0  0  0  0  0  0  0  0  0  0  0
  153.2461  140.8833  159.9514 C   0  0  0  0  0  0  0  0  0  0  0  0
  153.5045  141.9485  160.8308 C   0  0  0  0  0  0  0  0  0  0  0  0
  152.7561  143.1283  160.6786 C   0  0  0  0  0  0  0  0  0  0  0  0
  151.7815  143.1993  159.6604 C   0  0  0  0  0  0  0  0  0  0  0  0
  150.9714  144.4750  159.4941 C   0  0  0  0  0  0  0  0  0  0  0  0
  149.1840  139.8788  154.6261 C   0  0  0  0  0  0  0  0  0  0  0  0
  148.6871  139.2911  153.2956 C   0  0  0  0  0  0  0  0  0  0  0  0
  146.3323  135.0369  149.6964 H   0  0  0  0  0  0  0  0  0  0  0  0
  145.5329  134.9237  151.2444 H   0  0  0  0  0  0  0  0  0  0  0  0
  147.2808  134.8495  151.1510 H   0  0  0  0  0  0  0  0  0  0  0  0
  147.2572  139.2098  150.9825 H   0  0  0  0  0  0  0  0  0  0  0  0
  145.6615  139.3172  151.6933 H   0  0  0  0  0  0  0  0  0  0  0  0
  147.5482  141.5419  152.2277 H   0  0  0  0  0  0  0  0  0  0  0  0
  145.9620  141.2944  152.9330 H   0  0  0  0  0  0  0  0  0  0  0  0
  147.3428  142.8026  154.3518 H   0  0  0  0  0  0  0  0  0  0  0  0
  146.8699  141.3546  155.2087 H   0  0  0  0  0  0  0  0  0  0  0  0
  149.5898  141.8551  153.8967 H   0  0  0  0  0  0  0  0  0  0  0  0
  148.7678  142.5990  156.4049 H   0  0  0  0  0  0  0  0  0  0  0  0
  149.8498  142.8662  158.0206 H   0  0  0  0  0  0  0  0  0  0  0  0
  153.7984  139.9588  160.0336 H   0  0  0  0  0  0  0  0  0  0  0  0
  154.2567  141.8623  161.6011 H   0  0  0  0  0  0  0  0  0  0  0  0
  152.9299  143.9660  161.3380 H   0  0  0  0  0  0  0  0  0  0  0  0
  151.2847  145.2394  160.2057 H   0  0  0  0  0  0  0  0  0  0  0  0
  149.9115  144.2778  159.6577 H   0  0  0  0  0  0  0  0  0  0  0  0
  151.0983  144.8809  158.4900 H   0  0  0  0  0  0  0  0  0  0  0  0
  150.2407  139.6434  154.7601 H   0  0  0  0  0  0  0  0  0  0  0  0
  148.6528  139.4017  155.4513 H   0  0  0  0  0  0  0  0  0  0  0  0
  148.8280  138.2100  153.3122 H   0  0  0  0  0  0  0  0  0  0  0  0
  149.2862  139.6738  152.4679 H   0  0  0  0  0  0  0  0  0  0  0  0
  146.7373  139.2486  153.8523 H   0  0  0  0  0  0  0  0  0  0  0  0
  1  2  1  0  0  0  0
  1 23  1  0  0  0  0
  1 24  1  0  0  0  0
  1 25  1  0  0  0  0
  2  3  1  0  0  0  0
  3  4  2  0  0  0  0
  3  5  1  0  0  0  0
  5  6  1  0  0  0  0
  5 26  1  0  0  0  0
  5 27  1  0  0  0  0
  6 22  1  0  0  0  0
  6  7  1  0  0  0  0
  6 45  1  0  0  0  0
  7  8  1  0  0  0  0
  7 28  1  0  0  0  0
  7 29  1  0  0  0  0
  8  9  1  0  0  0  0
  8 30  1  0  0  0  0
  8 31  1  0  0  0  0
  9 10  1  0  0  0  0
  9 21  1  0  0  0  0
  9 32  1  0  0  0  0
 10 11  1  0  0  0  0
 10 33  1  0  0  0  0
 11 12  2  0  0  0  0
 11 13  1  0  0  0  0
 13 14  1  0  0  0  0
 13 34  1  0  0  0  0
 14 19  1  0  0  0  0
 14 15  2  0  0  0  0
 15 16  1  0  0  0  0
 16 17  2  0  0  0  0
 16 35  1  0  0  0  0
 17 18  1  0  0  0  0
 17 36  1  0  0  0  0
 18 19  2  0  0  0  0
 18 37  1  0  0  0  0
 19 20  1  0  0  0  0
 20 38  1  0  0  0  0
 20 39  1  0  0  0  0
 20 40  1  0  0  0  0
 21 22  1  0  0  0  0
 21 41  1  0  0  0  0
 21 42  1  0  0  0  0
 22 43  1  0  0  0  0
 22 44  1  0  0  0  0
M  CHG  1   2  -1
M  CHG  1   6   1
M  END
> <s_m_source_file>
AV-unprocessed.smi

> <i_m_source_file_index>
1388

> <i_lp_mmshare_version>
43012

> <i_f3d_flags>
0

> <s_epik_input>
W0NIM11bTkhdQyg9TylbQ0gyXU4xW0NIMl1bQ0gyXVtDSF0oW0NIMl1bQ0gyXTEpW05IXUMoPU8pW05IXWMybltjSF1bY0hdW2NIXWMyW0NIM10=

> <s_epik_cmdline>
J2VwaWtfcHl0aG9uJywgJy1waCcsICc3LjAnLCAnLXRuJywgJzgnLCAnLW1hJywgJzIwMCcsICctbWV0YWxfYmluZGluZycsICctaW1hZScsICc8aW5maWxlLm1hZT4nLCAnLW9tYWUnLCAnPG91dGZpbGUubWFlPic=

> <r_epik_Ionization_Penalty>
6.13951

> <r_epik_Ionization_Penalty_Charging>
6.13946

> <r_epik_Ionization_Penalty_Neutral>
4.54304e-05

> <r_epik_State_Penalty>
6.9595

> <r_epik_Charging_Adjusted_Penalty>
13.099

> <i_epik_Tot_Q>
0

> <i_epik_Tot_abs_Q>
2

> <r_epik_Metal_State_Penalty>
2.89141

> <b_epik_Metal_Only>
1

> <s_lp_Force_Field>
OPLS_2005

> <r_lp_Energy>
12.447

> <b_lp_Chiralities_Consistent>
1

> <s_lp_Variant>
AV-unprocessed.smi:1388-4

> <Gold.Version>
5.8.1

> <Gold.Id.Protein>
6NUR|6NUR_protein|mol2

> <Gold.PLP.Fitness>
44.2509

> <Gold.PLP.PLP>
-42.6038

> <Gold.PLP.part.hbond>
-1.6586

> <Gold.PLP.part.metal>
0.0000

> <Gold.PLP.part.buried>
-2.2526

> <Gold.PLP.part.nonpolar>
-39.8929

> <Gold.PLP.part.repulsive>
0.5871

> <Gold.PLP.ligand.clash>
0.0000

> <Gold.PLP.ligand.torsion>
0.6700

> <Gold.PLP.Chemscore.Hbond>
0.9760

> <Gold.PLP.Chemscore.CHOScore>
0.0000

> <Gold.PLP.Chemscore.Metal>
0.0000

> <Gold.Chemscore.Hbonds>
donor molecule, donor type, donor heavy atom, donor atom, acceptor molecule, acceptor atom, score
      L1  H    10    33       P1  8028  0.17
      P1  H  7954  7966       L1     2  0.37

> <Gold.PLP.Chemscore.Internal.Correction>
0.0592

> <Gold.Rescore>
     Score         DG    S(hbond)    S(metal)    S(lipo)     H(rot)  DE(clash)    DE(int)     intcor
     15.54     -19.64       1.82        0.00     104.63       1.63       0.37       3.73       ----

> <Gold.Chemscore.Fitness>
15.5374

> <Gold.Chemscore.DG>
-19.6421

> <Gold.Chemscore.ZeroCoef>
-5.4800

> <Gold.Chemscore.Hbond>
1.8245

> <Gold.Chemscore.Metal>
0.0000

> <Gold.Chemscore.Lipo>
104.6299

> <Gold.Chemscore.Internal_Hbond>
0.0000

> <Gold.Chemscore.DEClash>
0.3737

> <Gold.Chemscore.DEInternal>
3.7309

> <Gold.Chemscore.Rot>
1.6303

> <Gold.Chemscore.Internal.Correction>
   9.000000E+99

> <Gold.Chemscore.Hbonds>
donor molecule, donor type, donor heavy atom, donor atom, acceptor molecule, acceptor atom, score
      L1  H    10    33       P1  8028  0.16
      P1  H  7954  7966       L1     2  0.04

> <Gold.Chemscore.Hbond.Weighted>
-6.0939

> <Gold.Chemscore.Metal.Weighted>
-0.0000

> <Gold.Chemscore.Lipo.Weighted>
-12.2417

> <Gold.Chemscore.Internal_Hbond.Weighted>
0.0000

> <Gold.Chemscore.DEClash.Weighted>
0.3737

> <Gold.Chemscore.DEInternal.Weighted>
3.7309

> <Gold.Chemscore.Rot.Weighted>
4.1735

> <Gold.Chemscore.Internal.Correction.Weighted>
   9.000000E+99

> <Gold.Protein.RotatedTorsions>
[ 6907 6896 6895 6894 ] final   -5.10 input  -60.11 | X-H torsion
[ 7974 7965 7964 7962 ] final   82.43 input  175.53 | X-H torsion
[ 8008 7997 7996 7995 ] final  -54.80 input   59.86 | X-H torsion
[ 10167 10162 10161 10158 ] final  -19.86 input  -65.29 | X-H torsion
[ 10718 10713 10712 10709 ] final   47.76 input   66.30 | X-H torsion
[ 10763 10752 10751 10750 ] final   10.71 input  -60.55 | X-H torsion
[ 11005 11000 10999 10996 ] final   53.01 input  -57.11 | X-H torsion

> <Gold.Protein.ActiveResidues>
 VAL166  LYS551  ARG553  GLY616  TRP617  ASP618  TYR619  PRO620  LYS621  CYS622 
 ASP623  PHE694  ASN695  SER759  ASP760  ASP761  ALA762  ILE779  LEU786  VAL792 
 PHE793  MET794  SER795  GLU796  ALA797  LYS798  CYS799  TRP800  GLU811  SER814 

> <Gold.Protein.RotatedAtoms>
  151.4871  135.1055  159.9793 H   0  0  0  0  0  0  0  0  0  0  0  0  # atno 6907 bound_to 6896
  152.4756  133.8126  159.7022 H   0  0  0  0  0  0  0  0  0  0  0  0  # atno 6908 bound_to 6896
  150.8792  133.7334  159.2963 H   0  0  0  0  0  0  0  0  0  0  0  0  # atno 6909 bound_to 6896
  145.6251  139.2393  143.2116 H   0  0  0  0  0  0  0  0  0  0  0  0  # atno 7974 bound_to 7965
  154.4174  140.1168  156.5374 H   0  0  0  0  0  0  0  0  0  0  0  0  # atno 8008 bound_to 7997
  155.6543  140.3496  155.4740 H   0  0  0  0  0  0  0  0  0  0  0  0  # atno 8009 bound_to 7997
  155.9766  140.1152  157.0754 H   0  0  0  0  0  0  0  0  0  0  0  0  # atno 8010 bound_to 7997
  140.7272  143.4778  151.0159 H   0  0  0  0  0  0  0  0  0  0  0  0  # atno 10167 bound_to 10162
  157.4618  130.8201  149.7894 H   0  0  0  0  0  0  0  0  0  0  0  0  # atno 10718 bound_to 10713
  153.2002  135.6855  153.8240 H   0  0  0  0  0  0  0  0  0  0  0  0  # atno 10763 bound_to 10752
  153.7509  135.3224  155.3322 H   0  0  0  0  0  0  0  0  0  0  0  0  # atno 10764 bound_to 10752
  154.8167  135.4680  154.0765 H   0  0  0  0  0  0  0  0  0  0  0  0  # atno 10765 bound_to 10752
  140.0802  134.5349  155.8954 H   0  0  0  0  0  0  0  0  0  0  0  0  # atno 11005 bound_to 11000
  146.1400  140.7070  142.9371 LP  0  0  0  0  0  0  0  0  0  0  0  0  # atno 17320 bound_to 7965
  144.7215  140.4390  143.7004 LP  0  0  0  0  0  0  0  0  0  0  0  0  # atno 17321 bound_to 7965
  139.8474  143.7483  152.3179 LP  0  0  0  0  0  0  0  0  0  0  0  0  # atno 17342 bound_to 10162
  139.7653  144.7494  151.0303 LP  0  0  0  0  0  0  0  0  0  0  0  0  # atno 17343 bound_to 10162
  156.0032  130.3869  150.2527 LP  0  0  0  0  0  0  0  0  0  0  0  0  # atno 17370 bound_to 10713
  157.0705  131.0115  151.3191 LP  0  0  0  0  0  0  0  0  0  0  0  0  # atno 17371 bound_to 10713
  141.2044  133.6639  156.6119 LP  0  0  0  0  0  0  0  0  0  0  0  0  # atno 17394 bound_to 11000
  140.3498  134.7778  157.4459 LP  0  0  0  0  0  0  0  0  0  0  0  0  # atno 17395 bound_to 11000

$$$$
