AV-unprocessed.smi:3160|AV-procd|sdf|12054|dock4
  -GOLD-   2272017483D 1   1.00000     0.00000
 Structure written by MMmdl.
 40 41  0  0  0  0  0  0  0  0  2 V2000
  149.9326  136.1036  155.4550 C   0  0  0  0  0  0  0  0  0  0  0  0
  150.1769  137.5577  155.1711 C   0  0  0  0  0  0  0  0  0  0  0  0
  150.9864  138.1258  154.1471 C   0  0  0  0  0  0  0  0  0  0  0  0
  150.9909  139.4485  154.1701 N   0  0  0  0  0  0  0  0  0  0  0  0
  150.1845  139.7738  155.2030 N   0  0  0  0  0  0  0  0  0  0  0  0
  149.9581  141.1760  155.5294 C   0  0  1  0  0  0  0  0  0  0  0  0
  148.4774  141.5312  155.3016 C   0  0  0  0  0  0  0  0  0  0  0  0
  150.4422  141.5214  156.9613 C   0  0  1  0  0  0  0  0  0  0  0  0
  151.5704  140.6019  157.4640 C   0  0  0  0  0  0  0  0  0  0  0  0
  150.9066  142.9268  157.0156 N   0  3  0  0  0  0  0  0  0  0  0  0
  150.9483  143.5273  158.3664 C   0  0  0  0  0  0  0  0  0  0  0  0
  151.2588  145.0230  158.3253 C   0  0  0  0  0  0  0  0  0  0  0  0
  151.7523  145.3514  159.7384 C   0  0  0  0  0  0  0  0  0  0  0  0
  152.2923  144.0348  160.3213 C   0  0  0  0  0  0  0  0  0  0  0  0
  152.0664  142.9635  159.2476 C   0  0  0  0  0  0  0  0  0  0  0  0
  149.6805  138.6492  155.8252 C   0  0  0  0  0  0  0  0  0  0  0  0
  150.5372  135.4585  154.8171 H   0  0  0  0  0  0  0  0  0  0  0  0
  148.8898  135.8318  155.2903 H   0  0  0  0  0  0  0  0  0  0  0  0
  150.1728  135.8492  156.4874 H   0  0  0  0  0  0  0  0  0  0  0  0
  151.5691  137.6183  153.3924 H   0  0  0  0  0  0  0  0  0  0  0  0
  150.5463  141.7701  154.8268 H   0  0  0  0  0  0  0  0  0  0  0  0
  148.2988  142.5999  155.4193 H   0  0  0  0  0  0  0  0  0  0  0  0
  147.8275  141.0078  156.0036 H   0  0  0  0  0  0  0  0  0  0  0  0
  148.1618  141.2609  154.2931 H   0  0  0  0  0  0  0  0  0  0  0  0
  149.5981  141.3933  157.6409 H   0  0  0  0  0  0  0  0  0  0  0  0
  151.2414  139.5661  157.5510 H   0  0  0  0  0  0  0  0  0  0  0  0
  151.9160  140.9091  158.4515 H   0  0  0  0  0  0  0  0  0  0  0  0
  152.4281  140.6229  156.7909 H   0  0  0  0  0  0  0  0  0  0  0  0
  151.8281  142.9826  156.6060 H   0  0  0  0  0  0  0  0  0  0  0  0
  149.9845  143.3851  158.8587 H   0  0  0  0  0  0  0  0  0  0  0  0
  152.0581  145.2203  157.6089 H   0  0  0  0  0  0  0  0  0  0  0  0
  150.3967  145.6238  158.0338 H   0  0  0  0  0  0  0  0  0  0  0  0
  152.5104  146.1352  159.7249 H   0  0  0  0  0  0  0  0  0  0  0  0
  150.9232  145.7107  160.3497 H   0  0  0  0  0  0  0  0  0  0  0  0
  153.3469  144.1102  160.5891 H   0  0  0  0  0  0  0  0  0  0  0  0
  151.7434  143.7810  161.2292 H   0  0  0  0  0  0  0  0  0  0  0  0
  151.8178  141.9923  159.6771 H   0  0  0  0  0  0  0  0  0  0  0  0
  152.9788  142.8414  158.6615 H   0  0  0  0  0  0  0  0  0  0  0  0
  149.0175  138.7174  156.6753 H   0  0  0  0  0  0  0  0  0  0  0  0
  150.2751  143.4777  156.4516 H   0  0  0  0  0  0  0  0  0  0  0  0
  1  2  1  0  0  0  0
  1 17  1  0  0  0  0
  1 18  1  0  0  0  0
  1 19  1  0  0  0  0
  2 16  2  0  0  0  0
  2  3  1  0  0  0  0
  3  4  2  0  0  0  0
  3 20  1  0  0  0  0
  4  5  1  0  0  0  0
  5  6  1  0  0  0  0
  5 16  1  0  0  0  0
  6  7  1  0  0  0  0
  6  8  1  0  0  0  0
  6 21  1  0  0  0  0
  7 22  1  0  0  0  0
  7 23  1  0  0  0  0
  7 24  1  0  0  0  0
  8  9  1  0  0  0  0
  8 10  1  0  0  0  0
  8 25  1  0  0  0  0
  9 26  1  0  0  0  0
  9 27  1  0  0  0  0
  9 28  1  0  0  0  0
 10 11  1  0  0  0  0
 10 29  1  0  0  0  0
 10 40  1  0  0  0  0
 11 15  1  0  0  0  0
 11 12  1  0  0  0  0
 11 30  1  0  0  0  0
 12 13  1  0  0  0  0
 12 31  1  0  0  0  0
 12 32  1  0  0  0  0
 13 14  1  0  0  0  0
 13 33  1  0  0  0  0
 13 34  1  0  0  0  0
 14 15  1  0  0  0  0
 14 35  1  0  0  0  0
 14 36  1  0  0  0  0
 15 37  1  0  0  0  0
 15 38  1  0  0  0  0
 16 39  1  0  0  0  0
M  CHG  1  10   1
M  END
> <s_m_source_file>
AV-unprocessed.smi

> <i_m_source_file_index>
3160

> <i_lp_mmshare_version>
43012

> <i_f3d_flags>
0

> <s_epik_input>
W0NIM11jMVtjSF1ubihbY0hdMSlbQ0BIXShbQ0gzXSlbQ0BIXShbQ0gzXSlbTkhdW0NIXTJbQ0gyXVtDSDJdW0NIMl1bQ0gyXTI=

> <s_epik_cmdline>
J2VwaWtfcHl0aG9uJywgJy1waCcsICc3LjAnLCAnLXRuJywgJzgnLCAnLW1hJywgJzIwMCcsICctbWV0YWxfYmluZGluZycsICctaW1hZScsICc8aW5maWxlLm1hZT4nLCAnLW9tYWUnLCAnPG91dGZpbGUubWFlPic=

> <r_lp_tautomer_probability>
1

> <r_epik_Ionization_Penalty>
0.00117636

> <r_epik_Ionization_Penalty_Charging>
0.00115264

> <r_epik_Ionization_Penalty_Neutral>
2.37123e-05

> <r_epik_State_Penalty>
-0

> <r_epik_Charging_Adjusted_Penalty>
0.00115264

> <i_epik_Tot_Q>
1

> <i_epik_Tot_abs_Q>
1

> <r_epik_Metal_State_Penalty>
-0

> <b_epik_Metal_Only>
0

> <s_lp_Force_Field>
OPLS_2005

> <r_lp_Energy>
32.0781

> <b_lp_Chiralities_Consistent>
1

> <s_lp_Variant>
AV-unprocessed.smi:3160-4

> <Gold.Version>
5.8.1

> <Gold.Id.Protein>
6NUR|6NUR_protein|mol2

> <Gold.PLP.Fitness>
45.1439

> <Gold.PLP.PLP>
-35.0488

> <Gold.PLP.part.hbond>
-2.0000

> <Gold.PLP.part.metal>
0.0000

> <Gold.PLP.part.buried>
-4.0276

> <Gold.PLP.part.nonpolar>
-29.5575

> <Gold.PLP.part.repulsive>
0.1964

> <Gold.PLP.ligand.clash>
0.0000

> <Gold.PLP.ligand.torsion>
0.9867

> <Gold.PLP.Chemscore.Hbond>
3.0000

> <Gold.PLP.Chemscore.CHOScore>
1.0000

> <Gold.PLP.Chemscore.Metal>
0.0000

> <Gold.Chemscore.Hbonds>
donor molecule, donor type, donor heavy atom, donor atom, acceptor molecule, acceptor atom, score
      L1  H    10    40       P1  8028  2.00
      P1  H  7989  7998       L1     4  1.00
      L1  C     3    20       P1  7949  0.99

> <Gold.PLP.Chemscore.Internal.Correction>
0.0684

> <Gold.Rescore>
     Score         DG    S(hbond)    S(metal)    S(lipo)     H(rot)  DE(clash)    DE(int)     intcor
     19.03     -20.24       1.95        0.00     100.50       1.37       0.09       1.12       ----

> <Gold.Chemscore.Fitness>
19.0299

> <Gold.Chemscore.DG>
-20.2407

> <Gold.Chemscore.ZeroCoef>
-5.4800

> <Gold.Chemscore.Hbond>
1.9497

> <Gold.Chemscore.Metal>
0.0000

> <Gold.Chemscore.Lipo>
100.4971

> <Gold.Chemscore.Internal_Hbond>
0.0000

> <Gold.Chemscore.DEClash>
0.0901

> <Gold.Chemscore.DEInternal>
1.1207

> <Gold.Chemscore.Rot>
1.3709

> <Gold.Chemscore.Internal.Correction>
   9.000000E+99

> <Gold.Chemscore.Hbonds>
donor molecule, donor type, donor heavy atom, donor atom, acceptor molecule, acceptor atom, score
      L1  H    10    40       P1  8028  0.94
      P1  H  7989  7998       L1     4  0.74

> <Gold.Chemscore.Hbond.Weighted>
-6.5121

> <Gold.Chemscore.Metal.Weighted>
-0.0000

> <Gold.Chemscore.Lipo.Weighted>
-11.7582

> <Gold.Chemscore.Internal_Hbond.Weighted>
0.0000

> <Gold.Chemscore.DEClash.Weighted>
0.0901

> <Gold.Chemscore.DEInternal.Weighted>
1.1207

> <Gold.Chemscore.Rot.Weighted>
3.5095

> <Gold.Chemscore.Internal.Correction.Weighted>
   9.000000E+99

> <Gold.Protein.RotatedTorsions>
[ 6907 6896 6895 6894 ] final  156.58 input  -60.11 | X-H torsion
[ 7974 7965 7964 7962 ] final  162.36 input  175.53 | X-H torsion
[ 8008 7997 7996 7995 ] final    4.07 input   59.86 | X-H torsion
[ 10167 10162 10161 10158 ] final   32.90 input  -65.29 | X-H torsion
[ 10718 10713 10712 10709 ] final  -31.28 input   66.30 | X-H torsion
[ 10763 10752 10751 10750 ] final   60.43 input  -60.55 | X-H torsion
[ 11005 11000 10999 10996 ] final  -39.49 input  -57.11 | X-H torsion

> <Gold.Protein.ActiveResidues>
 VAL166  LYS551  ARG553  GLY616  TRP617  ASP618  TYR619  PRO620  LYS621  CYS622 
 ASP623  PHE694  ASN695  SER759  ASP760  ASP761  ALA762  ILE779  LEU786  VAL792 
 PHE793  MET794  SER795  GLU796  ALA797  LYS798  CYS799  TRP800  GLU811  SER814 

> <Gold.Protein.RotatedAtoms>
  152.0276  133.3924  159.4283 H   0  0  0  0  0  0  0  0  0  0  0  0  # atno 6907 bound_to 6896
  150.6885  134.3557  159.4937 H   0  0  0  0  0  0  0  0  0  0  0  0  # atno 6908 bound_to 6896
  152.1339  134.9114  160.0608 H   0  0  0  0  0  0  0  0  0  0  0  0  # atno 6909 bound_to 6896
  144.7640  139.8029  143.6322 H   0  0  0  0  0  0  0  0  0  0  0  0  # atno 7974 bound_to 7965
  154.7114  140.2693  155.6625 H   0  0  0  0  0  0  0  0  0  0  0  0  # atno 8008 bound_to 7997
  156.2796  140.2752  156.1681 H   0  0  0  0  0  0  0  0  0  0  0  0  # atno 8009 bound_to 7997
  155.0629  140.0371  157.2573 H   0  0  0  0  0  0  0  0  0  0  0  0  # atno 8010 bound_to 7997
  140.4456  144.1123  150.6182 H   0  0  0  0  0  0  0  0  0  0  0  0  # atno 10167 bound_to 10162
  156.3892  130.4370  149.7408 H   0  0  0  0  0  0  0  0  0  0  0  0  # atno 10718 bound_to 10713
  152.9921  135.5536  154.5873 H   0  0  0  0  0  0  0  0  0  0  0  0  # atno 10763 bound_to 10752
  154.5242  135.2809  155.1238 H   0  0  0  0  0  0  0  0  0  0  0  0  # atno 10764 bound_to 10752
  154.2580  135.6386  153.5317 H   0  0  0  0  0  0  0  0  0  0  0  0  # atno 10765 bound_to 10752
  141.0106  133.6910  156.2194 H   0  0  0  0  0  0  0  0  0  0  0  0  # atno 11005 bound_to 11000
  146.1731  139.4889  142.9915 LP  0  0  0  0  0  0  0  0  0  0  0  0  # atno 17320 bound_to 7965
  145.6528  141.0259  143.1751 LP  0  0  0  0  0  0  0  0  0  0  0  0  # atno 17321 bound_to 7965
  140.4267  143.2586  151.9647 LP  0  0  0  0  0  0  0  0  0  0  0  0  # atno 17342 bound_to 10162
  139.4792  144.5781  151.7977 LP  0  0  0  0  0  0  0  0  0  0  0  0  # atno 17343 bound_to 10162
  156.4468  130.7887  151.2909 LP  0  0  0  0  0  0  0  0  0  0  0  0  # atno 17370 bound_to 10713
  157.7498  131.0108  150.3319 LP  0  0  0  0  0  0  0  0  0  0  0  0  # atno 17371 bound_to 10713
  140.6740  134.4838  157.5588 LP  0  0  0  0  0  0  0  0  0  0  0  0  # atno 17394 bound_to 11000
  139.9088  134.8391  156.1606 LP  0  0  0  0  0  0  0  0  0  0  0  0  # atno 17395 bound_to 11000

$$$$
