AV-unprocessed.smi:1322|AV-procd|sdf|5463|dock4
  -GOLD-   22720 5 33D 1   1.00000     0.00000
 Structure written by MMmdl.
 32 33  0  0  0  0  0  0  0  0  1 V2000
  149.3222  141.7087  154.8537 C   0  0  0  0  0  0  0  0  0  0  0  0
  150.5220  141.7017  155.8199 C   0  0  2  0  0  0  0  0  0  0  0  0
  150.6132  140.4103  156.6583 C   0  0  0  0  0  0  0  0  0  0  0  0
  150.8589  139.2262  155.8547 N   0  0  0  0  0  0  0  0  0  0  0  0
  150.9689  137.9153  156.2689 C   0  0  0  0  0  0  0  0  0  0  0  0
  151.2097  137.1574  155.1589 C   0  0  0  0  0  0  0  0  0  0  0  0
  151.2345  138.1077  154.1000 C   0  0  0  0  0  0  0  0  0  0  0  0
  151.0268  139.3451  154.5200 N   0  0  0  0  0  0  0  0  0  0  0  0
  150.4558  142.8487  156.7216 N   0  0  0  0  0  0  0  0  0  0  0  0
  151.2055  143.0223  157.8209 C   0  0  0  0  0  0  0  0  0  0  0  0
  152.0657  142.2200  158.1862 O   0  0  0  0  0  0  0  0  0  0  0  0
  150.9276  144.2987  158.6261 C   0  0  0  0  0  0  0  0  0  0  0  0
  152.1587  145.1963  158.8396 C   0  0  0  0  0  0  0  0  0  0  0  0
  151.7218  145.3772  160.2964 C   0  0  0  0  0  0  0  0  0  0  0  0
  150.8820  144.1044  160.1529 C   0  0  0  0  0  0  0  0  0  0  0  0
  149.3873  140.8953  154.1309 H   0  0  0  0  0  0  0  0  0  0  0  0
  149.2762  142.6379  154.2852 H   0  0  0  0  0  0  0  0  0  0  0  0
  148.3802  141.6013  155.3923 H   0  0  0  0  0  0  0  0  0  0  0  0
  151.4364  141.7812  155.2287 H   0  0  0  0  0  0  0  0  0  0  0  0
  151.4128  140.4930  157.3962 H   0  0  0  0  0  0  0  0  0  0  0  0
  149.6892  140.2585  157.2183 H   0  0  0  0  0  0  0  0  0  0  0  0
  150.8660  137.6340  157.3066 H   0  0  0  0  0  0  0  0  0  0  0  0
  151.3485  136.0875  155.1106 H   0  0  0  0  0  0  0  0  0  0  0  0
  151.3975  137.9365  153.0461 H   0  0  0  0  0  0  0  0  0  0  0  0
  149.7753  143.5607  156.5000 H   0  0  0  0  0  0  0  0  0  0  0  0
  150.0677  144.8644  158.2623 H   0  0  0  0  0  0  0  0  0  0  0  0
  153.1138  144.6759  158.7473 H   0  0  0  0  0  0  0  0  0  0  0  0
  152.1500  146.1175  158.2564 H   0  0  0  0  0  0  0  0  0  0  0  0
  152.5296  145.3106  161.0257 H   0  0  0  0  0  0  0  0  0  0  0  0
  151.1124  146.2698  160.4464 H   0  0  0  0  0  0  0  0  0  0  0  0
  149.8845  144.1810  160.5864 H   0  0  0  0  0  0  0  0  0  0  0  0
  151.4030  143.2152  160.5123 H   0  0  0  0  0  0  0  0  0  0  0  0
  1  2  1  0  0  0  0
  1 16  1  0  0  0  0
  1 17  1  0  0  0  0
  1 18  1  0  0  0  0
  2  3  1  0  0  0  0
  2  9  1  0  0  0  0
  2 19  1  0  0  0  0
  3  4  1  0  0  0  0
  3 20  1  0  0  0  0
  3 21  1  0  0  0  0
  4  8  1  0  0  0  0
  4  5  1  0  0  0  0
  5  6  2  0  0  0  0
  5 22  1  0  0  0  0
  6  7  1  0  0  0  0
  6 23  1  0  0  0  0
  7  8  2  0  0  0  0
  7 24  1  0  0  0  0
  9 10  1  0  0  0  0
  9 25  1  0  0  0  0
 10 11  2  0  0  0  0
 10 12  1  0  0  0  0
 12 15  1  0  0  0  0
 12 13  1  0  0  0  0
 12 26  1  0  0  0  0
 13 14  1  0  0  0  0
 13 27  1  0  0  0  0
 13 28  1  0  0  0  0
 14 15  1  0  0  0  0
 14 29  1  0  0  0  0
 14 30  1  0  0  0  0
 15 31  1  0  0  0  0
 15 32  1  0  0  0  0
M  END
> <s_m_source_file>
AV-unprocessed.smi

> <i_m_source_file_index>
1322

> <i_lp_mmshare_version>
43012

> <i_f3d_flags>
0

> <s_epik_input>
W0NIMl0xW0NIMl1bQ0gyXVtDSF0xQyg9TylbTkhdW0NASF0oW0NIM10pW0NIMl1uMltjSF1bY0hdW2NIXW4y

> <s_epik_cmdline>
J2VwaWtfcHl0aG9uJywgJy1waCcsICc3LjAnLCAnLXRuJywgJzgnLCAnLW1hJywgJzIwMCcsICctbWV0YWxfYmluZGluZycsICctaW1hZScsICc8aW5maWxlLm1hZT4nLCAnLW9tYWUnLCAnPG91dGZpbGUubWFlPic=

> <r_lp_tautomer_probability>
1

> <r_epik_Ionization_Penalty>
0.000326653

> <r_epik_Ionization_Penalty_Charging>
0

> <r_epik_Ionization_Penalty_Neutral>
0.000326653

> <r_epik_State_Penalty>
-0

> <r_epik_Charging_Adjusted_Penalty>
0

> <i_epik_Tot_Q>
0

> <i_epik_Tot_abs_Q>
0

> <r_epik_Metal_State_Penalty>
-0

> <b_epik_Metal_Only>
0

> <s_lp_Force_Field>
OPLS_2005

> <r_lp_Energy>
10.8536

> <b_lp_Chiralities_Consistent>
1

> <s_lp_Variant>
AV-unprocessed.smi:1322-1

> <Gold.Version>
5.8.1

> <Gold.Id.Protein>
6NUR|6NUR_protein|mol2

> <Gold.PLP.Fitness>
41.7525

> <Gold.PLP.PLP>
-33.2085

> <Gold.PLP.part.hbond>
-2.0000

> <Gold.PLP.part.metal>
0.0000

> <Gold.PLP.part.buried>
-4.0183

> <Gold.PLP.part.nonpolar>
-26.9354

> <Gold.PLP.part.repulsive>
0.1756

> <Gold.PLP.ligand.clash>
0.0000

> <Gold.PLP.ligand.torsion>
0.4379

> <Gold.PLP.Chemscore.Hbond>
2.0000

> <Gold.PLP.Chemscore.CHOScore>
1.0000

> <Gold.PLP.Chemscore.Metal>
0.0000

> <Gold.Chemscore.Hbonds>
donor molecule, donor type, donor heavy atom, donor atom, acceptor molecule, acceptor atom, score
      L1  H     9    25       P1  8028  1.00
      P1  H  7989  7998       L1     8  1.00
      L1  C     7    24       P1  7949  1.00

> <Gold.PLP.Chemscore.Internal.Correction>
0.4199

> <Gold.Rescore>
     Score         DG    S(hbond)    S(metal)    S(lipo)     H(rot)  DE(clash)    DE(int)     intcor
     16.15     -18.30       1.97        0.00      87.20       1.55       0.55       1.59       ----

> <Gold.Chemscore.Fitness>
16.1532

> <Gold.Chemscore.DG>
-18.2979

> <Gold.Chemscore.ZeroCoef>
-5.4800

> <Gold.Chemscore.Hbond>
1.9689

> <Gold.Chemscore.Metal>
0.0000

> <Gold.Chemscore.Lipo>
87.1987

> <Gold.Chemscore.Internal_Hbond>
0.0000

> <Gold.Chemscore.DEClash>
0.5516

> <Gold.Chemscore.DEInternal>
1.5931

> <Gold.Chemscore.Rot>
1.5471

> <Gold.Chemscore.Internal.Correction>
   9.000000E+99

> <Gold.Chemscore.Hbonds>
donor molecule, donor type, donor heavy atom, donor atom, acceptor molecule, acceptor atom, score
      L1  H     9    25       P1  8028  1.00
      P1  H  7989  7998       L1     8  0.98

> <Gold.Chemscore.Hbond.Weighted>
-6.5762

> <Gold.Chemscore.Metal.Weighted>
-0.0000

> <Gold.Chemscore.Lipo.Weighted>
-10.2022

> <Gold.Chemscore.Internal_Hbond.Weighted>
0.0000

> <Gold.Chemscore.DEClash.Weighted>
0.5516

> <Gold.Chemscore.DEInternal.Weighted>
1.5931

> <Gold.Chemscore.Rot.Weighted>
3.9606

> <Gold.Chemscore.Internal.Correction.Weighted>
   9.000000E+99

> <Gold.Protein.RotatedTorsions>
[ 6907 6896 6895 6894 ] final   33.28 input  -60.11 | X-H torsion
[ 7974 7965 7964 7962 ] final -129.00 input  175.53 | X-H torsion
[ 8008 7997 7996 7995 ] final  -47.46 input   59.86 | X-H torsion
[ 10167 10162 10161 10158 ] final -147.03 input  -65.29 | X-H torsion
[ 10718 10713 10712 10709 ] final -112.61 input   66.30 | X-H torsion
[ 10763 10752 10751 10750 ] final  -92.27 input  -60.55 | X-H torsion
[ 11005 11000 10999 10996 ] final   35.26 input  -57.11 | X-H torsion

> <Gold.Protein.ActiveResidues>
 VAL166  LYS551  ARG553  GLY616  TRP617  ASP618  TYR619  PRO620  LYS621  CYS622 
 ASP623  PHE694  ASN695  SER759  ASP760  ASP761  ALA762  ILE779  LEU786  VAL792 
 PHE793  MET794  SER795  GLU796  ALA797  LYS798  CYS799  TRP800  GLU811  SER814 

> <Gold.Protein.RotatedAtoms>
  152.0862  134.9438  160.0572 H   0  0  0  0  0  0  0  0  0  0  0  0  # atno 6907 bound_to 6896
  152.0707  133.4100  159.4466 H   0  0  0  0  0  0  0  0  0  0  0  0  # atno 6908 bound_to 6896
  150.6836  134.3015  159.4752 H   0  0  0  0  0  0  0  0  0  0  0  0  # atno 6909 bound_to 6896
  144.9615  140.7452  143.4726 H   0  0  0  0  0  0  0  0  0  0  0  0  # atno 7974 bound_to 7965
  154.4017  140.1346  156.4178 H   0  0  0  0  0  0  0  0  0  0  0  0  # atno 8008 bound_to 7997
  155.7671  140.3485  155.5208 H   0  0  0  0  0  0  0  0  0  0  0  0  # atno 8009 bound_to 7997
  155.8802  140.0986  157.1480 H   0  0  0  0  0  0  0  0  0  0  0  0  # atno 8010 bound_to 7997
  139.7659  143.8309  152.2616 H   0  0  0  0  0  0  0  0  0  0  0  0  # atno 10167 bound_to 10162
  156.0716  130.5929  150.8531 H   0  0  0  0  0  0  0  0  0  0  0  0  # atno 10718 bound_to 10713
  154.6844  135.5237  153.8306 H   0  0  0  0  0  0  0  0  0  0  0  0  # atno 10763 bound_to 10752
  153.0587  135.6560  154.0524 H   0  0  0  0  0  0  0  0  0  0  0  0  # atno 10764 bound_to 10752
  154.0407  135.2977  155.3335 H   0  0  0  0  0  0  0  0  0  0  0  0  # atno 10765 bound_to 10752
  140.2444  134.3376  155.7913 H   0  0  0  0  0  0  0  0  0  0  0  0  # atno 11005 bound_to 11000
  145.2692  139.1961  143.4850 LP  0  0  0  0  0  0  0  0  0  0  0  0  # atno 17320 bound_to 7965
  146.3354  140.2636  142.8603 LP  0  0  0  0  0  0  0  0  0  0  0  0  # atno 17321 bound_to 7965
  139.8329  144.7246  150.9428 LP  0  0  0  0  0  0  0  0  0  0  0  0  # atno 17342 bound_to 10162
  140.7811  143.4054  151.1080 LP  0  0  0  0  0  0  0  0  0  0  0  0  # atno 17343 bound_to 10162
  157.5790  131.0946  150.9301 LP  0  0  0  0  0  0  0  0  0  0  0  0  # atno 17370 bound_to 10713
  156.9501  130.5416  149.5282 LP  0  0  0  0  0  0  0  0  0  0  0  0  # atno 17371 bound_to 10713
  141.2207  133.7317  156.8937 LP  0  0  0  0  0  0  0  0  0  0  0  0  # atno 17394 bound_to 11000
  140.1620  134.9159  157.2727 LP  0  0  0  0  0  0  0  0  0  0  0  0  # atno 17395 bound_to 11000

$$$$
