AV-unprocessed.smi:2848|AV-procd|sdf|10955|dock4
  -GOLD-   2272015413D 1   1.00000     0.00000
 Structure written by MMmdl.
 27 28  0  0  0  0  0  0  0  0  2 V2000
  150.3047  138.7285  154.3432 Cl  0  0  0  0  0  0  0  0  0  0  0  0
  149.1318  139.9979  154.2907 C   0  0  0  0  0  0  0  0  0  0  0  0
  149.3456  141.1644  155.0538 C   0  0  0  0  0  0  0  0  0  0  0  0
  148.4403  142.1652  155.0261 N   0  3  0  0  0  0  0  0  0  0  0  0
  147.3128  142.1076  154.2866 C   0  0  0  0  0  0  0  0  0  0  0  0
  147.0435  140.9679  153.5019 C   0  0  0  0  0  0  0  0  0  0  0  0
  147.9623  139.8885  153.4981 C   0  0  0  0  0  0  0  0  0  0  0  0
  147.7504  138.7241  152.7440 N   0  0  0  0  0  0  0  0  0  0  0  0
  146.4824  138.4751  152.0742 C   0  0  0  0  0  0  0  0  0  0  0  0
  145.8027  137.2090  152.5556 C   0  0  0  0  0  0  0  0  0  0  0  0
  144.5918  136.7891  152.1341 C   0  0  0  0  0  0  0  0  0  0  0  0
  144.0255  135.6015  152.5221 O   0  0  0  0  0  0  0  0  0  0  0  0
  144.9251  134.7044  153.1641 C   0  0  0  0  0  0  0  0  0  0  0  0
  145.8325  135.4624  154.1471 C   0  0  0  0  0  0  0  0  0  0  0  0
  146.5363  136.5094  153.4851 O   0  0  0  0  0  0  0  0  0  0  0  0
  150.2093  141.3249  155.6826 H   0  0  0  0  0  0  0  0  0  0  0  0
  146.6629  142.9688  154.3443 H   0  0  0  0  0  0  0  0  0  0  0  0
  146.1358  140.9407  152.9179 H   0  0  0  0  0  0  0  0  0  0  0  0
  148.5438  138.1521  152.4893 H   0  0  0  0  0  0  0  0  0  0  0  0
  145.8027  139.3083  152.2551 H   0  0  0  0  0  0  0  0  0  0  0  0
  146.6471  138.4104  150.9978 H   0  0  0  0  0  0  0  0  0  0  0  0
  143.9812  137.3140  151.4141 H   0  0  0  0  0  0  0  0  0  0  0  0
  144.3537  133.9368  153.6862 H   0  0  0  0  0  0  0  0  0  0  0  0
  145.5258  134.1977  152.4076 H   0  0  0  0  0  0  0  0  0  0  0  0
  145.2392  135.8904  154.9563 H   0  0  0  0  0  0  0  0  0  0  0  0
  146.5521  134.7826  154.6035 H   0  0  0  0  0  0  0  0  0  0  0  0
  148.6157  142.9992  155.5873 H   0  0  0  0  0  0  0  0  0  0  0  0
  1  2  1  0  0  0  0
  2  7  1  0  0  0  0
  2  3  2  0  0  0  0
  3  4  1  0  0  0  0
  3 16  1  0  0  0  0
  4  5  2  0  0  0  0
  4 27  1  0  0  0  0
  5  6  1  0  0  0  0
  5 17  1  0  0  0  0
  6  7  2  0  0  0  0
  6 18  1  0  0  0  0
  7  8  1  0  0  0  0
  8  9  1  0  0  0  0
  8 19  1  0  0  0  0
  9 10  1  0  0  0  0
  9 20  1  0  0  0  0
  9 21  1  0  0  0  0
 10 15  1  0  0  0  0
 10 11  2  0  0  0  0
 11 12  1  0  0  0  0
 11 22  1  0  0  0  0
 12 13  1  0  0  0  0
 13 14  1  0  0  0  0
 13 23  1  0  0  0  0
 13 24  1  0  0  0  0
 14 15  1  0  0  0  0
 14 25  1  0  0  0  0
 14 26  1  0  0  0  0
M  CHG  1   4   1
M  END
> <s_m_source_file>
AV-unprocessed.smi

> <i_m_source_file_index>
2848

> <i_lp_mmshare_version>
43012

> <i_f3d_flags>
0

> <s_epik_input>
Q2xjMVtjSF1uW2NIXVtjSF1jMVtOSF1bQ0gyXUMyPVtDSF1PW0NIMl1bQ0gyXU8y

> <s_epik_cmdline>
J2VwaWtfcHl0aG9uJywgJy1waCcsICc3LjAnLCAnLXRuJywgJzgnLCAnLW1hJywgJzIwMCcsICctbWV0YWxfYmluZGluZycsICctaW1hZScsICc8aW5maWxlLm1hZT4nLCAnLW9tYWUnLCAnPG91dGZpbGUubWFlPic=

> <r_lp_tautomer_probability>
1

> <r_epik_Ionization_Penalty>
0.0834524

> <r_epik_Ionization_Penalty_Charging>
0.0831652

> <r_epik_Ionization_Penalty_Neutral>
0.000287151

> <r_epik_State_Penalty>
0.0738416

> <r_epik_Charging_Adjusted_Penalty>
0.157007

> <i_epik_Tot_Q>
1

> <i_epik_Tot_abs_Q>
1

> <r_epik_Metal_State_Penalty>
2.9007

> <b_epik_Metal_Only>
0

> <s_lp_Force_Field>
OPLS_2005

> <r_lp_Energy>
8.04075

> <b_lp_Chiralities_Consistent>
1

> <s_lp_Variant>
AV-unprocessed.smi:2848-1

> <Gold.Version>
5.8.1

> <Gold.Id.Protein>
6NUR|6NUR_protein|mol2

> <Gold.PLP.Fitness>
37.6236

> <Gold.PLP.PLP>
-26.1344

> <Gold.PLP.part.hbond>
-3.0000

> <Gold.PLP.part.metal>
0.0000

> <Gold.PLP.part.buried>
-0.0861

> <Gold.PLP.part.nonpolar>
-23.6842

> <Gold.PLP.part.repulsive>
0.9585

> <Gold.PLP.ligand.clash>
0.0000

> <Gold.PLP.ligand.torsion>
0.0276

> <Gold.PLP.Chemscore.Hbond>
2.8480

> <Gold.PLP.Chemscore.CHOScore>
1.0000

> <Gold.PLP.Chemscore.Metal>
0.0000

> <Gold.Chemscore.Hbonds>
donor molecule, donor type, donor heavy atom, donor atom, acceptor molecule, acceptor atom, score
      L1  H     4    27       P1  8028  1.92
      L1  H     8    19       P1  7948  0.81
      L1  C    11    22       P1 10171  1.00

> <Gold.PLP.Chemscore.Internal.Correction>
0.0003

> <Gold.Rescore>
     Score         DG    S(hbond)    S(metal)    S(lipo)     H(rot)  DE(clash)    DE(int)     intcor
     15.17     -15.21       1.97        0.00      53.64       1.22       0.00       0.04       ----

> <Gold.Chemscore.Fitness>
15.1711

> <Gold.Chemscore.DG>
-15.2135

> <Gold.Chemscore.ZeroCoef>
-5.4800

> <Gold.Chemscore.Hbond>
1.9709

> <Gold.Chemscore.Metal>
0.0000

> <Gold.Chemscore.Lipo>
53.6352

> <Gold.Chemscore.Internal_Hbond>
0.0000

> <Gold.Chemscore.DEClash>
0.0004

> <Gold.Chemscore.DEInternal>
0.0419

> <Gold.Chemscore.Rot>
1.2206

> <Gold.Chemscore.Internal.Correction>
   9.000000E+99

> <Gold.Chemscore.Hbonds>
donor molecule, donor type, donor heavy atom, donor atom, acceptor molecule, acceptor atom, score
      L1  H     4    27       P1  8028  0.92
      L1  H     8    19       P1  7948  0.75

> <Gold.Chemscore.Hbond.Weighted>
-6.5829

> <Gold.Chemscore.Metal.Weighted>
-0.0000

> <Gold.Chemscore.Lipo.Weighted>
-6.2753

> <Gold.Chemscore.Internal_Hbond.Weighted>
0.0000

> <Gold.Chemscore.DEClash.Weighted>
0.0004

> <Gold.Chemscore.DEInternal.Weighted>
0.0419

> <Gold.Chemscore.Rot.Weighted>
3.1247

> <Gold.Chemscore.Internal.Correction.Weighted>
   9.000000E+99

> <Gold.Protein.RotatedTorsions>
[ 6907 6896 6895 6894 ] final -143.03 input  -60.11 | X-H torsion
[ 7974 7965 7964 7962 ] final  -71.12 input  175.53 | X-H torsion
[ 8008 7997 7996 7995 ] final -119.11 input   59.86 | X-H torsion
[ 10167 10162 10161 10158 ] final  111.24 input  -65.29 | X-H torsion
[ 10718 10713 10712 10709 ] final   25.12 input   66.30 | X-H torsion
[ 10763 10752 10751 10750 ] final   39.05 input  -60.55 | X-H torsion
[ 11005 11000 10999 10996 ] final  -34.07 input  -57.11 | X-H torsion

> <Gold.Protein.ActiveResidues>
 VAL166  LYS551  ARG553  GLY616  TRP617  ASP618  TYR619  PRO620  LYS621  CYS622 
 ASP623  PHE694  ASN695  SER759  ASP760  ASP761  ALA762  ILE779  LEU786  VAL792 
 PHE793  MET794  SER795  GLU796  ALA797  LYS798  CYS799  TRP800  GLU811  SER814 

> <Gold.Protein.RotatedAtoms>
  151.0950  133.5286  159.2612 H   0  0  0  0  0  0  0  0  0  0  0  0  # atno 6907 bound_to 6896
  151.2139  135.0491  159.8932 H   0  0  0  0  0  0  0  0  0  0  0  0  # atno 6908 bound_to 6896
  152.5438  134.0762  159.8269 H   0  0  0  0  0  0  0  0  0  0  0  0  # atno 6909 bound_to 6896
  145.6822  140.9183  143.0826 H   0  0  0  0  0  0  0  0  0  0  0  0  # atno 7974 bound_to 7965
  155.1105  140.0397  157.2722 H   0  0  0  0  0  0  0  0  0  0  0  0  # atno 8008 bound_to 7997
  154.6689  140.2608  155.7002 H   0  0  0  0  0  0  0  0  0  0  0  0  # atno 8009 bound_to 7997
  156.2650  140.2801  156.1191 H   0  0  0  0  0  0  0  0  0  0  0  0  # atno 8010 bound_to 7997
  139.6626  144.7128  151.1836 H   0  0  0  0  0  0  0  0  0  0  0  0  # atno 10167 bound_to 10162
  157.1891  130.6838  149.6143 H   0  0  0  0  0  0  0  0  0  0  0  0  # atno 10718 bound_to 10713
  152.9980  135.6232  154.2403 H   0  0  0  0  0  0  0  0  0  0  0  0  # atno 10763 bound_to 10752
  154.2143  135.2798  155.2949 H   0  0  0  0  0  0  0  0  0  0  0  0  # atno 10764 bound_to 10752
  154.5581  135.5713  153.7041 H   0  0  0  0  0  0  0  0  0  0  0  0  # atno 10765 bound_to 10752
  140.9686  133.7122  156.1487 H   0  0  0  0  0  0  0  0  0  0  0  0  # atno 11005 bound_to 11000
  144.7022  139.8712  143.7440 LP  0  0  0  0  0  0  0  0  0  0  0  0  # atno 17320 bound_to 7965
  146.0954  139.3946  143.0380 LP  0  0  0  0  0  0  0  0  0  0  0  0  # atno 17321 bound_to 7965
  140.7586  143.5969  150.8739 LP  0  0  0  0  0  0  0  0  0  0  0  0  # atno 17342 bound_to 10162
  139.9628  143.6144  152.2997 LP  0  0  0  0  0  0  0  0  0  0  0  0  # atno 17343 bound_to 10162
  155.9714  130.4621  150.6132 LP  0  0  0  0  0  0  0  0  0  0  0  0  # atno 17370 bound_to 10713
  157.3878  131.0791  151.1420 LP  0  0  0  0  0  0  0  0  0  0  0  0  # atno 17371 bound_to 10713
  140.7362  134.4200  157.5560 LP  0  0  0  0  0  0  0  0  0  0  0  0  # atno 17394 bound_to 11000
  139.8904  134.8806  156.2372 LP  0  0  0  0  0  0  0  0  0  0  0  0  # atno 17395 bound_to 11000

$$$$
