AV-unprocessed.smi:113|AV-procd|sdf|1093|dock5
  -GOLD-   2262018193D 1   1.00000     0.00000
 Structure written by MMmdl.
 52 55  0  0  0  0  0  0  0  0  1 V2000
  154.9251  140.3760  161.1997 C   0  0  0  0  0  0  0  0  0  0  0  0
  153.7673  140.9771  160.4303 C   0  0  0  0  0  0  0  0  0  0  0  0
  152.8188  140.1510  159.8023 C   0  0  0  0  0  0  0  0  0  0  0  0
  151.7490  140.7473  159.0965 C   0  0  0  0  0  0  0  0  0  0  0  0
  150.6898  139.8918  158.3920 C   0  0  0  0  0  0  0  0  0  0  0  0
  150.8326  139.7212  156.9526 N   0  0  0  0  0  0  0  0  0  0  0  0
  152.0828  139.2726  156.4617 C   0  0  0  0  0  0  0  0  0  0  0  0
  153.0304  139.0465  157.2176 O   0  0  0  0  0  0  0  0  0  0  0  0
  152.1489  139.0828  155.0110 C   0  0  0  0  0  0  0  0  0  0  0  0
  153.4586  138.5965  154.4105 C   0  0  0  0  0  0  0  0  0  0  0  0
  151.0573  139.3341  154.2491 C   0  0  0  0  0  0  0  0  0  0  0  0
  149.8472  139.7796  154.7520 N   0  0  0  0  0  0  0  0  0  0  0  0
  148.6783  139.9715  153.8068 C   0  0  2  0  0  0  0  0  0  0  0  0
  147.8947  141.2661  154.0497 C   0  0  0  0  0  0  0  0  0  0  0  0
  146.4887  140.8199  153.7061 C   0  0  2  0  0  0  0  0  0  0  0  0
  145.5287  141.6264  154.3572 O   0  0  0  0  0  0  0  0  0  0  0  0
  146.4681  139.3705  154.2029 C   0  0  1  0  0  0  0  0  0  0  0  0
  145.4519  138.4872  153.4630 C   0  0  0  0  0  0  0  0  0  0  0  0
  145.7116  138.5056  152.0756 O   0  0  0  0  0  0  0  0  0  0  0  0
  147.7931  138.8995  153.9512 O   0  0  0  0  0  0  0  0  0  0  0  0
  149.6969  139.9587  156.1457 C   0  0  0  0  0  0  0  0  0  0  0  0
  148.6162  140.2905  156.6365 O   0  0  0  0  0  0  0  0  0  0  0  0
  151.6854  142.1666  159.0606 C   0  0  0  0  0  0  0  0  0  0  0  0
  150.6448  142.8434  158.3796 C   0  0  0  0  0  0  0  0  0  0  0  0
  150.6023  144.2486  158.3523 C   0  0  0  0  0  0  0  0  0  0  0  0
  151.5983  144.9923  159.0063 C   0  0  0  0  0  0  0  0  0  0  0  0
  152.6337  144.3278  159.6876 C   0  0  0  0  0  0  0  0  0  0  0  0
  152.6967  142.9184  159.7285 C   0  0  0  0  0  0  0  0  0  0  0  0
  153.7088  142.3226  160.3964 N   0  0  0  0  0  0  0  0  0  0  0  0
  155.2023  139.4059  160.7859 H   0  0  0  0  0  0  0  0  0  0  0  0
  154.6490  140.2367  162.2451 H   0  0  0  0  0  0  0  0  0  0  0  0
  155.8027  141.0224  161.1588 H   0  0  0  0  0  0  0  0  0  0  0  0
  152.9239  139.0789  159.8713 H   0  0  0  0  0  0  0  0  0  0  0  0
  150.6543  138.8959  158.8362 H   0  0  0  0  0  0  0  0  0  0  0  0
  149.6949  140.3012  158.5720 H   0  0  0  0  0  0  0  0  0  0  0  0
  153.3950  138.4923  153.3270 H   0  0  0  0  0  0  0  0  0  0  0  0
  153.7294  137.6237  154.8230 H   0  0  0  0  0  0  0  0  0  0  0  0
  154.2635  139.2987  154.6309 H   0  0  0  0  0  0  0  0  0  0  0  0
  151.1420  139.1777  153.1833 H   0  0  0  0  0  0  0  0  0  0  0  0
  149.0876  139.9317  152.7969 H   0  0  0  0  0  0  0  0  0  0  0  0
  147.9655  141.5831  155.0897 H   0  0  0  0  0  0  0  0  0  0  0  0
  148.2644  142.0720  153.4153 H   0  0  0  0  0  0  0  0  0  0  0  0
  146.3415  140.8583  152.6257 H   0  0  0  0  0  0  0  0  0  0  0  0
  145.4053  142.4146  153.8502 H   0  0  0  0  0  0  0  0  0  0  0  0
  146.2843  139.3583  155.2785 H   0  0  0  0  0  0  0  0  0  0  0  0
  145.5414  137.4530  153.7969 H   0  0  0  0  0  0  0  0  0  0  0  0
  144.4285  138.8049  153.6636 H   0  0  0  0  0  0  0  0  0  0  0  0
  144.8884  138.4500  151.6148 H   0  0  0  0  0  0  0  0  0  0  0  0
  149.8633  142.3024  157.8688 H   0  0  0  0  0  0  0  0  0  0  0  0
  149.8045  144.7553  157.8294 H   0  0  0  0  0  0  0  0  0  0  0  0
  151.5685  146.0718  158.9868 H   0  0  0  0  0  0  0  0  0  0  0  0
  153.3933  144.9108  160.1877 H   0  0  0  0  0  0  0  0  0  0  0  0
  1  2  1  0  0  0  0
  1 30  1  0  0  0  0
  1 31  1  0  0  0  0
  1 32  1  0  0  0  0
  2 29  1  0  0  0  0
  2  3  2  0  0  0  0
  3  4  1  0  0  0  0
  3 33  1  0  0  0  0
  4  5  1  0  0  0  0
  4 23  2  0  0  0  0
  5  6  1  0  0  0  0
  5 34  1  0  0  0  0
  5 35  1  0  0  0  0
  6 21  1  0  0  0  0
  6  7  1  0  0  0  0
  7  8  2  0  0  0  0
  7  9  1  0  0  0  0
  9 10  1  0  0  0  0
  9 11  2  0  0  0  0
 10 36  1  0  0  0  0
 10 37  1  0  0  0  0
 10 38  1  0  0  0  0
 11 12  1  0  0  0  0
 11 39  1  0  0  0  0
 12 13  1  0  0  0  0
 12 21  1  0  0  0  0
 13 20  1  0  0  0  0
 13 14  1  0  0  0  0
 13 40  1  0  0  0  0
 14 15  1  0  0  0  0
 14 41  1  0  0  0  0
 14 42  1  0  0  0  0
 15 16  1  0  0  0  0
 15 17  1  0  0  0  0
 15 43  1  0  0  0  0
 16 44  1  0  0  0  0
 17 18  1  0  0  0  0
 17 20  1  0  0  0  0
 17 45  1  0  0  0  0
 18 19  1  0  0  0  0
 18 46  1  0  0  0  0
 18 47  1  0  0  0  0
 19 48  1  0  0  0  0
 21 22  2  0  0  0  0
 23 28  1  0  0  0  0
 23 24  1  0  0  0  0
 24 25  2  0  0  0  0
 24 49  1  0  0  0  0
 25 26  1  0  0  0  0
 25 50  1  0  0  0  0
 26 27  2  0  0  0  0
 26 51  1  0  0  0  0
 27 28  1  0  0  0  0
 27 52  1  0  0  0  0
 28 29  2  0  0  0  0
M  END
> <s_m_source_file>
AV-unprocessed.smi

> <i_m_source_file_index>
113

> <i_lp_mmshare_version>
43012

> <i_f3d_flags>
0

> <s_epik_input>
W2NIXTFbY0hdW2NIXVtjSF1jKGMxMiluYyhbQ0gzXSlbY0hdYzJbQ0gyXW4zYyg9TyljKFtDSDNdKVtjSF1uKGMzPU8pW0NAQEhdNFtDSDJdW0NAQEhdKFtPSF0pW0NASF0oTzQpW0NIMl1bT0hd

> <s_epik_cmdline>
J2VwaWtfcHl0aG9uJywgJy1waCcsICc3LjAnLCAnLXRuJywgJzgnLCAnLW1hJywgJzIwMCcsICctbWV0YWxfYmluZGluZycsICctaW1hZScsICc8aW5maWxlLm1hZT4nLCAnLW9tYWUnLCAnPG91dGZpbGUubWFlPic=

> <r_lp_tautomer_probability>
1

> <r_epik_Ionization_Penalty>
0.214728

> <r_epik_Ionization_Penalty_Charging>
3.04883e-08

> <r_epik_Ionization_Penalty_Neutral>
0.214728

> <r_epik_State_Penalty>
0.204913

> <r_epik_Charging_Adjusted_Penalty>
0.204913

> <i_epik_Tot_Q>
0

> <i_epik_Tot_abs_Q>
0

> <r_epik_Metal_State_Penalty>
0.000244761

> <b_epik_Metal_Only>
0

> <s_epik_Chemistry_Notes>
This compound contains an acetal/aminal-like group ( X-CH(R)-Y where X, Y are N, S, or O) that may be acid/base labile, releasing an aldehyde.

> <s_lp_Force_Field>
OPLS_2005

> <r_lp_Energy>
34.9534

> <b_lp_Chiralities_Consistent>
1

> <s_lp_Variant>
AV-unprocessed.smi:113-3

> <Gold.Version>
5.8.1

> <Gold.Id.Protein>
6NUR|6NUR_protein|mol2

> <Gold.PLP.Fitness>
54.8346

> <Gold.PLP.PLP>
-48.4542

> <Gold.PLP.part.hbond>
-4.0000

> <Gold.PLP.part.metal>
0.0000

> <Gold.PLP.part.buried>
2.5917

> <Gold.PLP.part.nonpolar>
-47.2280

> <Gold.PLP.part.repulsive>
0.1997

> <Gold.PLP.ligand.clash>
0.0000

> <Gold.PLP.ligand.torsion>
0.7229

> <Gold.PLP.Chemscore.Hbond>
2.0000

> <Gold.PLP.Chemscore.CHOScore>
0.5987

> <Gold.PLP.Chemscore.Metal>
0.0000

> <Gold.Chemscore.Hbonds>
donor molecule, donor type, donor heavy atom, donor atom, acceptor molecule, acceptor atom, score
      L1  H    19    48       P1 10171  0.87
      P1  H  7997  8008       L1     8  1.00
      L1  C    11    39       P1  7957  0.69

> <Gold.PLP.Chemscore.Internal.Correction>
0.0302

> <Gold.Rescore>
     Score         DG    S(hbond)    S(metal)    S(lipo)     H(rot)  DE(clash)    DE(int)     intcor
     13.36     -21.54       1.73        0.00     152.50       2.95       3.26       4.92       ----

> <Gold.Chemscore.Fitness>
13.3609

> <Gold.Chemscore.DG>
-21.5440

> <Gold.Chemscore.ZeroCoef>
-5.4800

> <Gold.Chemscore.Hbond>
1.7262

> <Gold.Chemscore.Metal>
0.0000

> <Gold.Chemscore.Lipo>
152.4993

> <Gold.Chemscore.Internal_Hbond>
0.0000

> <Gold.Chemscore.DEClash>
3.2625

> <Gold.Chemscore.DEInternal>
4.9205

> <Gold.Chemscore.Rot>
2.9469

> <Gold.Chemscore.Internal.Correction>
   9.000000E+99

> <Gold.Chemscore.Hbonds>
donor molecule, donor type, donor heavy atom, donor atom, acceptor molecule, acceptor atom, score
      L1  H    19    48       P1 10171  0.80
      P1  H  7997  8008       L1     8  0.65

> <Gold.Chemscore.Hbond.Weighted>
-5.7655

> <Gold.Chemscore.Metal.Weighted>
-0.0000

> <Gold.Chemscore.Lipo.Weighted>
-17.8424

> <Gold.Chemscore.Internal_Hbond.Weighted>
0.0000

> <Gold.Chemscore.DEClash.Weighted>
3.2625

> <Gold.Chemscore.DEInternal.Weighted>
4.9205

> <Gold.Chemscore.Rot.Weighted>
7.5439

> <Gold.Chemscore.Internal.Correction.Weighted>
   9.000000E+99

> <Gold.Protein.RotatedTorsions>
[ 6907 6896 6895 6894 ] final  -10.68 input  -60.11 | X-H torsion
[ 7974 7965 7964 7962 ] final -112.37 input  175.53 | X-H torsion
[ 8008 7997 7996 7995 ] final  -63.48 input   59.86 | X-H torsion
[ 10167 10162 10161 10158 ] final -124.57 input  -65.29 | X-H torsion
[ 10718 10713 10712 10709 ] final -164.24 input   66.30 | X-H torsion
[ 10763 10752 10751 10750 ] final   51.20 input  -60.55 | X-H torsion
[ 11005 11000 10999 10996 ] final  -63.60 input  -57.11 | X-H torsion

> <Gold.Protein.ActiveResidues>
 VAL166  LYS551  ARG553  GLY616  TRP617  ASP618  TYR619  PRO620  LYS621  CYS622 
 ASP623  PHE694  ASN695  SER759  ASP760  ASP761  ALA762  ILE779  LEU786  VAL792 
 PHE793  MET794  SER795  GLU796  ALA797  LYS798  CYS799  TRP800  GLU811  SER814 

> <Gold.Protein.RotatedAtoms>
  151.3981  135.0967  159.9547 H   0  0  0  0  0  0  0  0  0  0  0  0  # atno 6907 bound_to 6896
  152.5059  133.8915  159.7406 H   0  0  0  0  0  0  0  0  0  0  0  0  # atno 6908 bound_to 6896
  150.9383  133.6630  159.2824 H   0  0  0  0  0  0  0  0  0  0  0  0  # atno 6909 bound_to 6896
  145.1448  140.8797  143.3681 H   0  0  0  0  0  0  0  0  0  0  0  0  # atno 7974 bound_to 7965
  154.4557  140.0974  156.6749 H   0  0  0  0  0  0  0  0  0  0  0  0  # atno 8008 bound_to 7997
  155.5146  140.3477  155.4376 H   0  0  0  0  0  0  0  0  0  0  0  0  # atno 8009 bound_to 7997
  156.0772  140.1364  156.9746 H   0  0  0  0  0  0  0  0  0  0  0  0  # atno 8010 bound_to 7997
  139.9914  143.5637  152.2340 H   0  0  0  0  0  0  0  0  0  0  0  0  # atno 10167 bound_to 10162
  156.6362  130.8950  151.2987 H   0  0  0  0  0  0  0  0  0  0  0  0  # atno 10718 bound_to 10713
  152.9785  135.5853  154.4377 H   0  0  0  0  0  0  0  0  0  0  0  0  # atno 10763 bound_to 10752
  154.3982  135.2768  155.2114 H   0  0  0  0  0  0  0  0  0  0  0  0  # atno 10764 bound_to 10752
  154.3957  135.6115  153.5922 H   0  0  0  0  0  0  0  0  0  0  0  0  # atno 10765 bound_to 10752
  141.1398  133.6654  156.5705 H   0  0  0  0  0  0  0  0  0  0  0  0  # atno 11005 bound_to 11000
  145.0494  139.3194  143.5936 LP  0  0  0  0  0  0  0  0  0  0  0  0  # atno 17320 bound_to 7965
  146.3501  139.9896  142.8687 LP  0  0  0  0  0  0  0  0  0  0  0  0  # atno 17321 bound_to 7965
  139.6337  144.7647  151.2482 LP  0  0  0  0  0  0  0  0  0  0  0  0  # atno 17342 bound_to 10162
  140.7453  143.6435  150.8313 LP  0  0  0  0  0  0  0  0  0  0  0  0  # atno 17343 bound_to 10162
  157.7185  130.9527  150.1346 LP  0  0  0  0  0  0  0  0  0  0  0  0  # atno 17370 bound_to 10713
  156.2195  130.3673  149.8573 LP  0  0  0  0  0  0  0  0  0  0  0  0  # atno 17371 bound_to 10713
  140.3916  134.7435  157.4725 LP  0  0  0  0  0  0  0  0  0  0  0  0  # atno 17394 bound_to 11000
  140.0562  134.6061  155.8803 LP  0  0  0  0  0  0  0  0  0  0  0  0  # atno 17395 bound_to 11000

$$$$
