#       Name:                AV-unprocessed.smi:1758
#       Creating user name   scv26
#       Creation time:       Fri Mar 27 08:30:13 2020


#       File generated by GOLD software.
#

@<TRIPOS>MOLECULE
AV-unprocessed.smi:1758
    47    49     1
SMALL
NO_CHARGES


@<TRIPOS>ATOM
      1 ****        -6.2392   1.5746   3.3026 C.3            1 S1                 0.0000
      2 ****        -5.5911   0.2635   2.8410 C.3            1 S1                 0.0000
      3 ****        -4.1437   0.3440   2.8590 N.pl3          1 S1                 0.0000
      4 ****        -3.2843   0.5103   1.7909 C.2            1 S1                 0.0000
      5 ****        -2.0282   0.5309   2.3282 C.2            1 S1                 0.0000
      6 ****        -0.7760   0.6889   1.6831 N.am           1 S1                 0.0000
      7 ****        -0.5442   0.7683   0.3629 C.2            1 S1                 0.0000
      8 ****        -1.4039   0.6866  -0.5141 O.2            1 S1                 0.0000
      9 ****         0.7617   0.9327   0.1071 N.am           1 S1                 0.0000
     10 ****         1.3535   1.0464  -1.2249 C.3            1 S1                 0.0000
     11 ****         2.6271   1.9135  -1.2443 C.3            1 S1                 0.0000
     12 ****         3.5825   1.1764  -2.1885 C.3            1 S1                 0.0000
     13 ****         3.2444  -0.2329  -1.9595 N.4            1 S1                 1.0000
     14 ****         3.7983  -1.2516  -2.8740 C.3            1 S1                 0.0000
     15 ****         3.4550  -2.6478  -2.3115 C.3            1 S1                 0.0000
     16 ****         1.9455  -2.8065  -2.0190 C.3            1 S1                 0.0000
     17 ****         1.3998  -1.6395  -1.1676 C.3            1 S1                 0.0000
     18 ****         1.7778  -0.3081  -1.8413 C.3            1 S1                 0.0000
     19 ****        -2.2024   0.3724   3.7276 C.2            1 S1                 0.0000
     20 ****        -3.4837   0.2563   4.0404 N.2            1 S1                 0.0000
     21 ****        -7.3264   1.5011   3.2713 H              1 S1                 0.0000
     22 ****        -5.9432   2.4062   2.6625 H              1 S1                 0.0000
     23 ****        -5.9518   1.8201   4.3254 H              1 S1                 0.0000
     24 ****        -5.9048  -0.5622   3.4809 H              1 S1                 0.0000
     25 ****        -5.9148   0.0212   1.8282 H              1 S1                 0.0000
     26 ****        -3.6415   0.6018   0.7758 H              1 S1                 0.0000
     27 ****         0.0267   0.7440   2.2926 H              1 S1                 0.0000
     28 ****         1.3932   0.9878   0.8928 H              1 S1                 0.0000
     29 ****         0.6273   1.5119  -1.8947 H              1 S1                 0.0000
     30 ****         2.4334   2.9381  -1.5633 H              1 S1                 0.0000
     31 ****         3.0707   1.9581  -0.2483 H              1 S1                 0.0000
     32 ****         3.3778   1.4417  -3.2271 H              1 S1                 0.0000
     33 ****         4.6312   1.3856  -1.9761 H              1 S1                 0.0000
     34 ****         3.3869  -1.1222  -3.8762 H              1 S1                 0.0000
     35 ****         4.8795  -1.1314  -2.9488 H              1 S1                 0.0000
     36 ****         3.7853  -3.4220  -3.0046 H              1 S1                 0.0000
     37 ****         4.0134  -2.8070  -1.3880 H              1 S1                 0.0000
     38 ****         1.4007  -2.8477  -2.9631 H              1 S1                 0.0000
     39 ****         1.7587  -3.7561  -1.5165 H              1 S1                 0.0000
     40 ****         0.3171  -1.7281  -1.0739 H              1 S1                 0.0000
     41 ****         1.8134  -1.6870  -0.1594 H              1 S1                 0.0000
     42 ****         1.3695  -0.3216  -2.8544 H              1 S1                 0.0000
     43 ****        -1.4590   0.3379   4.5102 H              1 S1                 0.0000
     44 ****         3.6073  -0.4479  -1.0418 H              1 S1                 0.0000
     45 ****        -2.3623   0.5502  -0.2636 LP             1 S1                 0.0000
     46 ****        -1.1439   0.7566  -1.4772 LP             1 S1                 0.0000
     47 ****        -3.8790   0.1311   4.9504 LP             1 S1                 0.0000
@<TRIPOS>BOND
    1    1    2 1     
    2    1   21 1     
    3    1   22 1     
    4    1   23 1     
    5    2    3 1     
    6    2   24 1     
    7    2   25 1     
    8    3   20 1     
    9    3    4 1     
   10    4    5 2     
   11    4   26 1     
   12    5    6 1     
   13    5   19 1     
   14    6    7 am    
   15    6   27 1     
   16    7    8 2     
   17    7    9 am    
   18    9   10 1     
   19    9   28 1     
   20   10   18 1     
   21   10   11 1     
   22   10   29 1     
   23   11   12 1     
   24   11   30 1     
   25   11   31 1     
   26   12   13 1     
   27   12   32 1     
   28   12   33 1     
   29   13   18 1     
   30   13   14 1     
   31   13   44 1     
   32   14   15 1     
   33   14   34 1     
   34   14   35 1     
   35   15   16 1     
   36   15   36 1     
   37   15   37 1     
   38   16   17 1     
   39   16   38 1     
   40   16   39 1     
   41   17   18 1     
   42   17   40 1     
   43   17   41 1     
   44   18   42 1     
   45   19   20 2     
   46   19   43 1     
   47    8   45 1     
   48    8   46 1     
   49   20   47 1     
@<TRIPOS>SUBSTRUCTURE
      1 S1             1
@<TRIPOS>SET
LONE_PAIRS      STATIC     ATOMS    <user>   **** ""
3 45 46 47
DONOR_HYDROGENS      STATIC     ATOMS    <user>   **** ""
3 27 28 44
ATOM$BLUE        STATIC     ATOMS    COLORGROUP SYSTEM
3 45 46 47
ATOM$RED        STATIC     ATOMS    COLORGROUP SYSTEM
3 27 28 44
