#       Name:                AV-unprocessed.smi:34
#       Creating user name   scv26
#       Creation time:       Thu Mar 26 15:58:33 2020


#       File generated by GOLD software.
#

@<TRIPOS>MOLECULE
AV-unprocessed.smi:34
    66    70     1
SMALL
NO_CHARGES


@<TRIPOS>ATOM
      1 ****        -4.0902   1.2594   2.3559 O.2            1 S1                 0.0000
      2 ****        -4.4845   1.4170   1.1985 C.2            1 S1                 0.0000
      3 ****        -3.8874   2.1208   0.2035 N.pl3          1 S1                -1.0000
      4 ****        -2.7027   2.7113   0.4225 C.ar           1 S1                 0.0000
      5 ****        -2.6436   4.0218   0.7728 N.ar           1 S1                 0.0000
      6 ****        -1.4623   4.6114   0.9923 C.ar           1 S1                 0.0000
      7 ****        -0.2342   4.0881   0.9165 N.ar           1 S1                 0.0000
      8 ****        -0.2823   2.7737   0.5537 C.ar           1 S1                 0.0000
      9 ****        -1.4646   2.0248   0.2884 C.ar           1 S1                 0.0000
     10 ****        -1.1497   0.7189  -0.0572 N.2            1 S1                 0.0000
     11 ****         0.1800   0.7333   0.0173 C.2            1 S1                 0.0000
     12 ****         0.7698   1.8931   0.3783 N.pl3          1 S1                 0.0000
     13 ****         2.2262   2.2149   0.5426 C.3            1 S1                 0.0000
     14 ****         2.9770   1.1942  -0.0447 O.3            1 S1                 0.0000
     15 ****         3.4113   0.2976   0.9693 C.3            1 S1                 0.0000
     16 ****         4.5728  -0.5721   0.4762 C.3            1 S1                 0.0000
     17 ****         4.0620  -1.5419  -0.4234 O.3            1 S1                 0.0000
     18 ****         4.8963  -2.4021  -1.0368 C.2            1 S1                 0.0000
     19 ****         6.1154  -2.4172  -0.8553 O.2            1 S1                 0.0000
     20 ****         4.1884  -3.3364  -1.9592 C.ar           1 S1                 0.0000
     21 ****         4.9316  -4.3164  -2.6577 C.ar           1 S1                 0.0000
     22 ****         4.2910  -5.2119  -3.5360 C.ar           1 S1                 0.0000
     23 ****         2.8989  -5.1382  -3.7268 C.ar           1 S1                 0.0000
     24 ****         2.1482  -4.1678  -3.0380 C.ar           1 S1                 0.0000
     25 ****         2.7871  -3.2712  -2.1593 C.ar           1 S1                 0.0000
     26 ****         3.7637   1.2507   2.1097 C.3            1 S1                 0.0000
     27 ****         4.9416   1.8361   1.8828 F              1 S1                 0.0000
     28 ****         2.6565   2.2928   2.0297 C.3            1 S1                 0.0000
     29 ****         1.6357   1.9876   2.9639 O.3            1 S1                 0.0000
     30 ****        -5.8146   0.8359   0.8005 C.ar           1 S1                 0.0000
     31 ****        -6.8732   0.8052   1.7367 C.ar           1 S1                 0.0000
     32 ****        -8.1179   0.2426   1.3926 C.ar           1 S1                 0.0000
     33 ****        -8.3141  -0.3045   0.1108 C.ar           1 S1                 0.0000
     34 ****        -7.2633  -0.2920  -0.8254 C.ar           1 S1                 0.0000
     35 ****        -6.0184   0.2707  -0.4821 C.ar           1 S1                 0.0000
     36 ****        -1.5081   5.6538   1.2704 H              1 S1                 0.0000
     37 ****         0.7532  -0.1542  -0.2062 H              1 S1                 0.0000
     38 ****         2.3608   3.1489  -0.0043 H              1 S1                 0.0000
     39 ****         2.5795  -0.3357   1.2825 H              1 S1                 0.0000
     40 ****         5.3354   0.0399  -0.0075 H              1 S1                 0.0000
     41 ****         5.0411  -1.0814   1.3197 H              1 S1                 0.0000
     42 ****         6.0016  -4.3925  -2.5273 H              1 S1                 0.0000
     43 ****         4.8691  -5.9559  -4.0636 H              1 S1                 0.0000
     44 ****         2.4077  -5.8248  -4.4004 H              1 S1                 0.0000
     45 ****         1.0795  -4.1103  -3.1832 H              1 S1                 0.0000
     46 ****         2.1806  -2.5380  -1.6478 H              1 S1                 0.0000
     47 ****         3.8337   0.7544   3.0785 H              1 S1                 0.0000
     48 ****         3.0344   3.2927   2.2462 H              1 S1                 0.0000
     49 ****         0.9386   2.6183   2.8622 H              1 S1                 0.0000
     50 ****        -6.7378   1.2198   2.7252 H              1 S1                 0.0000
     51 ****        -8.9213   0.2299   2.1141 H              1 S1                 0.0000
     52 ****        -9.2680  -0.7368  -0.1526 H              1 S1                 0.0000
     53 ****        -7.4101  -0.7174  -1.8070 H              1 S1                 0.0000
     54 ****        -5.2209   0.2602  -1.2112 H              1 S1                 0.0000
     55 ****        -3.2322   1.6783   2.6532 LP             1 S1                 0.0000
     56 ****        -4.6283   0.7126   2.9974 LP             1 S1                 0.0000
     57 ****        -4.3291   2.1990  -0.6902 LP             1 S1                 0.0000
     58 ****        -3.4877   4.5495   0.8673 LP             1 S1                 0.0000
     59 ****         0.6086   4.5935   1.1014 LP             1 S1                 0.0000
     60 ****        -1.7605  -0.0352  -0.2988 LP             1 S1                 0.0000
     61 ****         3.7715   1.5865  -0.5083 LP             1 S1                 0.0000
     62 ****         2.4132   0.7024  -0.7082 LP             1 S1                 0.0000
     63 ****         6.5349  -1.7659  -0.2230 LP             1 S1                 0.0000
     64 ****         6.6850  -3.0808  -1.3403 LP             1 S1                 0.0000
     65 ****         2.0026   2.0369   3.8929 LP             1 S1                 0.0000
     66 ****         1.2855   1.0668   2.7923 LP             1 S1                 0.0000
@<TRIPOS>BOND
    1    1    2 2     
    2    2    3 1     
    3    2   30 1     
    4    3    4 1     
    5    4    9 ar    
    6    4    5 ar    
    7    5    6 ar    
    8    6    7 ar    
    9    6   36 1     
   10    7    8 ar    
   11    8   12 1     
   12    8    9 ar    
   13    9   10 1     
   14   10   11 2     
   15   11   12 1     
   16   11   37 1     
   17   12   13 1     
   18   13   28 1     
   19   13   14 1     
   20   13   38 1     
   21   14   15 1     
   22   15   16 1     
   23   15   26 1     
   24   15   39 1     
   25   16   17 1     
   26   16   40 1     
   27   16   41 1     
   28   17   18 1     
   29   18   19 2     
   30   18   20 1     
   31   20   25 ar    
   32   20   21 ar    
   33   21   22 ar    
   34   21   42 1     
   35   22   23 ar    
   36   22   43 1     
   37   23   24 ar    
   38   23   44 1     
   39   24   25 ar    
   40   24   45 1     
   41   25   46 1     
   42   26   27 1     
   43   26   28 1     
   44   26   47 1     
   45   28   29 1     
   46   28   48 1     
   47   29   49 1     
   48   30   35 ar    
   49   30   31 ar    
   50   31   32 ar    
   51   31   50 1     
   52   32   33 ar    
   53   32   51 1     
   54   33   34 ar    
   55   33   52 1     
   56   34   35 ar    
   57   34   53 1     
   58   35   54 1     
   59    1   55 1     
   60    1   56 1     
   61    3   57 1     
   62    5   58 1     
   63    7   59 1     
   64   10   60 1     
   65   14   61 1     
   66   14   62 1     
   67   19   63 1     
   68   19   64 1     
   69   29   65 1     
   70   29   66 1     
@<TRIPOS>SUBSTRUCTURE
      1 S1             1
@<TRIPOS>SET
LONE_PAIRS      STATIC     ATOMS    <user>   **** ""
12 55 56 57 58 59 60 61 62 63 64 65 66
DONOR_HYDROGENS      STATIC     ATOMS    <user>   **** ""
1 49
ATOM$BLUE        STATIC     ATOMS    COLORGROUP SYSTEM
12 55 56 57 58 59 60 61 62 63 64 65 66
ATOM$RED        STATIC     ATOMS    COLORGROUP SYSTEM
1 49
