AV-unprocessed.smi:3048|AV-procd|sdf|11625|dock5
  -GOLD-   2272017 13D 1   1.00000     0.00000
 Structure written by MMmdl.
 38 39  0  0  0  0  0  0  0  0  2 V2000
  145.7646  143.0780  153.8111 C   0  0  0  0  0  0  0  0  0  0  0  0
  146.8846  142.2271  154.3364 C   0  0  0  0  0  0  0  0  0  0  0  0
  147.5416  141.1455  153.6837 C   0  0  0  0  0  0  0  0  0  0  0  0
  148.4972  140.6043  154.4216 N   0  0  0  0  0  0  0  0  0  0  0  0
  148.4801  141.3147  155.5695 N   0  0  0  0  0  0  0  0  0  0  0  0
  149.4251  141.0017  156.6265 C   0  0  0  0  0  0  0  0  0  0  0  0
  150.7665  141.7253  156.4302 C   0  0  0  0  0  0  0  0  0  0  0  0
  150.7598  143.0590  157.0640 N   0  3  0  0  0  0  0  0  0  0  0  0
  150.3830  143.0518  158.4904 C   0  0  0  0  0  0  0  0  0  0  0  0
  151.6237  143.1785  159.3853 C   0  0  2  0  0  0  0  0  0  0  0  0
  152.3838  141.8437  159.5077 C   0  0  0  0  0  0  0  0  0  0  0  0
  153.5595  141.9795  160.4822 C   0  0  0  0  0  0  0  0  0  0  0  0
  153.0633  142.5443  161.8173 C   0  0  0  0  0  0  0  0  0  0  0  0
  152.2611  143.8345  161.5865 C   0  0  0  0  0  0  0  0  0  0  0  0
  151.1893  143.5835  160.6823 O   0  0  0  0  0  0  0  0  0  0  0  0
  147.5169  142.3008  155.5452 C   0  0  0  0  0  0  0  0  0  0  0  0
  145.4684  142.7834  152.8041 H   0  0  0  0  0  0  0  0  0  0  0  0
  146.0456  144.1303  153.7673 H   0  0  0  0  0  0  0  0  0  0  0  0
  144.8772  143.0069  154.4402 H   0  0  0  0  0  0  0  0  0  0  0  0
  147.3544  140.7419  152.6994 H   0  0  0  0  0  0  0  0  0  0  0  0
  148.9803  141.2974  157.5774 H   0  0  0  0  0  0  0  0  0  0  0  0
  149.5701  139.9209  156.6720 H   0  0  0  0  0  0  0  0  0  0  0  0
  151.5743  141.1240  156.8498 H   0  0  0  0  0  0  0  0  0  0  0  0
  150.9736  141.8404  155.3658 H   0  0  0  0  0  0  0  0  0  0  0  0
  151.6762  143.4720  156.9668 H   0  0  0  0  0  0  0  0  0  0  0  0
  149.6909  143.8706  158.6922 H   0  0  0  0  0  0  0  0  0  0  0  0
  149.8564  142.1218  158.7091 H   0  0  0  0  0  0  0  0  0  0  0  0
  152.2884  143.9385  158.9698 H   0  0  0  0  0  0  0  0  0  0  0  0
  151.7065  141.0651  159.8616 H   0  0  0  0  0  0  0  0  0  0  0  0
  152.7461  141.5222  158.5308 H   0  0  0  0  0  0  0  0  0  0  0  0
  154.0428  141.0140  160.6333 H   0  0  0  0  0  0  0  0  0  0  0  0
  154.3128  142.6451  160.0589 H   0  0  0  0  0  0  0  0  0  0  0  0
  152.4315  141.8078  162.3156 H   0  0  0  0  0  0  0  0  0  0  0  0
  153.9055  142.7362  162.4828 H   0  0  0  0  0  0  0  0  0  0  0  0
  151.8492  144.1931  162.5299 H   0  0  0  0  0  0  0  0  0  0  0  0
  152.9019  144.6273  161.1977 H   0  0  0  0  0  0  0  0  0  0  0  0
  147.3651  142.9700  156.3796 H   0  0  0  0  0  0  0  0  0  0  0  0
  150.0950  143.6366  156.5679 H   0  0  0  0  0  0  0  0  0  0  0  0
  1  2  1  0  0  0  0
  1 17  1  0  0  0  0
  1 18  1  0  0  0  0
  1 19  1  0  0  0  0
  2 16  2  0  0  0  0
  2  3  1  0  0  0  0
  3  4  2  0  0  0  0
  3 20  1  0  0  0  0
  4  5  1  0  0  0  0
  5  6  1  0  0  0  0
  5 16  1  0  0  0  0
  6  7  1  0  0  0  0
  6 21  1  0  0  0  0
  6 22  1  0  0  0  0
  7  8  1  0  0  0  0
  7 23  1  0  0  0  0
  7 24  1  0  0  0  0
  8  9  1  0  0  0  0
  8 25  1  0  0  0  0
  8 38  1  0  0  0  0
  9 10  1  0  0  0  0
  9 26  1  0  0  0  0
  9 27  1  0  0  0  0
 10 15  1  0  0  0  0
 10 11  1  0  0  0  0
 10 28  1  0  0  0  0
 11 12  1  0  0  0  0
 11 29  1  0  0  0  0
 11 30  1  0  0  0  0
 12 13  1  0  0  0  0
 12 31  1  0  0  0  0
 12 32  1  0  0  0  0
 13 14  1  0  0  0  0
 13 33  1  0  0  0  0
 13 34  1  0  0  0  0
 14 15  1  0  0  0  0
 14 35  1  0  0  0  0
 14 36  1  0  0  0  0
 16 37  1  0  0  0  0
M  CHG  1   8   1
M  END
> <s_m_source_file>
AV-unprocessed.smi

> <i_m_source_file_index>
3048

> <i_lp_mmshare_version>
43012

> <i_f3d_flags>
0

> <s_epik_input>
W0NIM11jMVtjSF1ubihbY0hdMSlbQ0gyXVtDSDJdW05IXVtDSDJdW0NAQEhdMltDSDJdW0NIMl1bQ0gyXVtDSDJdTzI=

> <s_epik_cmdline>
J2VwaWtfcHl0aG9uJywgJy1waCcsICc3LjAnLCAnLXRuJywgJzgnLCAnLW1hJywgJzIwMCcsICctbWV0YWxfYmluZGluZycsICctaW1hZScsICc8aW5maWxlLm1hZT4nLCAnLW9tYWUnLCAnPG91dGZpbGUubWFlPic=

> <r_lp_tautomer_probability>
1

> <r_epik_Ionization_Penalty>
0.0084937

> <r_epik_Ionization_Penalty_Charging>
0.00848754

> <r_epik_Ionization_Penalty_Neutral>
6.1613e-06

> <r_epik_State_Penalty>
0.00639836

> <r_epik_Charging_Adjusted_Penalty>
0.0148859

> <i_epik_Tot_Q>
1

> <i_epik_Tot_abs_Q>
1

> <r_epik_Metal_State_Penalty>
0.00642541

> <b_epik_Metal_Only>
0

> <s_lp_Force_Field>
OPLS_2005

> <r_lp_Energy>
10.6877

> <b_lp_Chiralities_Consistent>
1

> <s_lp_Variant>
AV-unprocessed.smi:3048-1

> <Gold.Version>
5.8.1

> <Gold.Id.Protein>
6NUR|6NUR_protein|mol2

> <Gold.PLP.Fitness>
46.2784

> <Gold.PLP.PLP>
-38.9190

> <Gold.PLP.part.hbond>
-2.0000

> <Gold.PLP.part.metal>
0.0000

> <Gold.PLP.part.buried>
-2.8809

> <Gold.PLP.part.nonpolar>
-33.6215

> <Gold.PLP.part.repulsive>
0.2582

> <Gold.PLP.ligand.clash>
0.0000

> <Gold.PLP.ligand.torsion>
0.9958

> <Gold.PLP.Chemscore.Hbond>
2.0000

> <Gold.PLP.Chemscore.CHOScore>
1.1098

> <Gold.PLP.Chemscore.Metal>
0.0000

> <Gold.Chemscore.Hbonds>
donor molecule, donor type, donor heavy atom, donor atom, acceptor molecule, acceptor atom, score
      L1  H     8    38       P1  8028  2.00
      L1  C     3    20       P1  7957  0.25
      L1  C    16    37       P1  8028  0.21

> <Gold.PLP.Chemscore.Internal.Correction>
0.0218

> <Gold.Rescore>
     Score         DG    S(hbond)    S(metal)    S(lipo)     H(rot)  DE(clash)    DE(int)     intcor
     15.04     -16.47       1.00        0.00     100.75       1.61       0.43       0.99       ----

> <Gold.Chemscore.Fitness>
15.0442

> <Gold.Chemscore.DG>
-16.4731

> <Gold.Chemscore.ZeroCoef>
-5.4800

> <Gold.Chemscore.Hbond>
0.9999

> <Gold.Chemscore.Metal>
0.0000

> <Gold.Chemscore.Lipo>
100.7470

> <Gold.Chemscore.Internal_Hbond>
0.0000

> <Gold.Chemscore.DEClash>
0.4342

> <Gold.Chemscore.DEInternal>
0.9946

> <Gold.Chemscore.Rot>
1.6149

> <Gold.Chemscore.Internal.Correction>
   9.000000E+99

> <Gold.Chemscore.Hbonds>
donor molecule, donor type, donor heavy atom, donor atom, acceptor molecule, acceptor atom, score
      L1  H     8    38       P1  8028  1.00

> <Gold.Chemscore.Hbond.Weighted>
-3.3398

> <Gold.Chemscore.Metal.Weighted>
-0.0000

> <Gold.Chemscore.Lipo.Weighted>
-11.7874

> <Gold.Chemscore.Internal_Hbond.Weighted>
0.0000

> <Gold.Chemscore.DEClash.Weighted>
0.4342

> <Gold.Chemscore.DEInternal.Weighted>
0.9946

> <Gold.Chemscore.Rot.Weighted>
4.1341

> <Gold.Chemscore.Internal.Correction.Weighted>
   9.000000E+99

> <Gold.Protein.RotatedTorsions>
[ 6907 6896 6895 6894 ] final   -4.63 input  -60.11 | X-H torsion
[ 7974 7965 7964 7962 ] final  173.62 input  175.53 | X-H torsion
[ 8008 7997 7996 7995 ] final   -0.94 input   59.86 | X-H torsion
[ 10167 10162 10161 10158 ] final -152.04 input  -65.29 | X-H torsion
[ 10718 10713 10712 10709 ] final   26.33 input   66.30 | X-H torsion
[ 10763 10752 10751 10750 ] final  -68.72 input  -60.55 | X-H torsion
[ 11005 11000 10999 10996 ] final  129.10 input  -57.11 | X-H torsion

> <Gold.Protein.ActiveResidues>
 VAL166  LYS551  ARG553  GLY616  TRP617  ASP618  TYR619  PRO620  LYS621  CYS622 
 ASP623  PHE694  ASN695  SER759  ASP760  ASP761  ALA762  ILE779  LEU786  VAL792 
 PHE793  MET794  SER795  GLU796  ALA797  LYS798  CYS799  TRP800  GLU811  SER814 

> <Gold.Protein.RotatedAtoms>
  151.4945  135.1059  159.9812 H   0  0  0  0  0  0  0  0  0  0  0  0  # atno 6907 bound_to 6896
  152.4727  133.8063  159.6990 H   0  0  0  0  0  0  0  0  0  0  0  0  # atno 6908 bound_to 6896
  150.8746  133.7395  159.2976 H   0  0  0  0  0  0  0  0  0  0  0  0  # atno 6909 bound_to 6896
  144.7239  139.9675  143.6436 H   0  0  0  0  0  0  0  0  0  0  0  0  # atno 7974 bound_to 7965
  154.6524  140.2572  155.7199 H   0  0  0  0  0  0  0  0  0  0  0  0  # atno 8008 bound_to 7997
  156.2581  140.2865  156.0884 H   0  0  0  0  0  0  0  0  0  0  0  0  # atno 8009 bound_to 7997
  155.1431  140.0380  157.2793 H   0  0  0  0  0  0  0  0  0  0  0  0  # atno 8010 bound_to 7997
  139.7216  143.8948  152.2505 H   0  0  0  0  0  0  0  0  0  0  0  0  # atno 10167 bound_to 10162
  157.2053  130.6909  149.6205 H   0  0  0  0  0  0  0  0  0  0  0  0  # atno 10718 bound_to 10713
  154.3931  135.6048  153.5854 H   0  0  0  0  0  0  0  0  0  0  0  0  # atno 10763 bound_to 10752
  152.9787  135.5888  154.4274 H   0  0  0  0  0  0  0  0  0  0  0  0  # atno 10764 bound_to 10752
  154.4061  135.2843  155.2044 H   0  0  0  0  0  0  0  0  0  0  0  0  # atno 10765 bound_to 10752
  139.9597  134.9605  156.9098 H   0  0  0  0  0  0  0  0  0  0  0  0  # atno 11005 bound_to 11000
  146.0589  139.3583  143.0594 LP  0  0  0  0  0  0  0  0  0  0  0  0  # atno 17320 bound_to 7965
  145.8119  140.9722  143.0944 LP  0  0  0  0  0  0  0  0  0  0  0  0  # atno 17321 bound_to 7965
  139.8846  144.6999  150.8839 LP  0  0  0  0  0  0  0  0  0  0  0  0  # atno 17342 bound_to 10162
  140.7755  143.3634  151.1785 LP  0  0  0  0  0  0  0  0  0  0  0  0  # atno 17343 bound_to 10162
  155.9696  130.4569  150.5942 LP  0  0  0  0  0  0  0  0  0  0  0  0  # atno 17370 bound_to 10713
  157.3726  131.0768  151.1545 LP  0  0  0  0  0  0  0  0  0  0  0  0  # atno 17371 bound_to 10713
  140.5529  134.0609  155.7375 LP  0  0  0  0  0  0  0  0  0  0  0  0  # atno 17394 bound_to 11000
  141.1272  133.9362  157.2610 LP  0  0  0  0  0  0  0  0  0  0  0  0  # atno 17395 bound_to 11000

$$$$
