AV-unprocessed.smi:1046|AV-procd|sdf|4555|dock8
  -GOLD-   22720 2593D 1   1.00000     0.00000
 Structure written by MMmdl.
 54 56  0  0  0  0  0  0  0  0  3 V2000
  153.0706  142.5426  160.3343 C   0  0  0  0  0  0  0  0  0  0  0  0
  152.1963  142.2245  159.1342 C   0  0  0  0  0  0  0  0  0  0  0  0
  151.6781  140.9178  158.9890 C   0  0  0  0  0  0  0  0  0  0  0  0
  150.8660  140.5793  157.8849 C   0  0  0  0  0  0  0  0  0  0  0  0
  150.2624  139.3804  157.5467 N   0  0  0  0  0  0  0  0  0  0  0  0
  149.6489  139.6989  156.4111 C   0  0  0  0  0  0  0  0  0  0  0  0
  149.7695  140.9701  155.9812 N   0  0  0  0  0  0  0  0  0  0  0  0
  149.1839  141.5503  154.7866 C   0  0  0  0  0  0  0  0  0  0  0  0
  147.7342  141.0815  154.5506 C   0  0  1  0  0  0  0  0  0  0  0  0
  146.8705  142.0373  155.1309 O   0  0  0  0  0  0  0  0  0  0  0  0
  147.3738  140.9280  153.0559 C   0  0  0  0  0  0  0  0  0  0  0  0
  146.6056  139.6881  152.7741 N   0  3  2  0  0  0  0  0  0  0  0  0
  146.8494  138.6018  153.7573 C   0  0  0  0  0  0  0  0  0  0  0  0
  145.9674  137.3763  153.4593 C   0  0  0  0  0  0  0  0  0  0  0  0
  146.1715  136.8899  152.0727 N   0  3  1  0  0  0  0  0  0  0  0  0
  145.4031  135.6498  151.7907 C   0  0  0  0  0  0  0  0  0  0  0  0
  145.8154  134.4767  152.6968 C   0  0  0  0  0  0  0  0  0  0  0  0
  147.2029  134.2412  152.5808 O   0  0  0  0  0  0  0  0  0  0  0  0
  145.9308  137.9757  151.0885 C   0  0  0  0  0  0  0  0  0  0  0  0
  146.8114  139.2021  151.3876 C   0  0  0  0  0  0  0  0  0  0  0  0
  150.5803  141.5929  156.9241 C   0  0  0  0  0  0  0  0  0  0  0  0
  151.0892  142.8968  157.0576 C   0  0  0  0  0  0  0  0  0  0  0  0
  151.9011  143.2175  158.1657 C   0  0  0  0  0  0  0  0  0  0  0  0
  152.4502  144.6270  158.2990 C   0  0  0  0  0  0  0  0  0  0  0  0
  153.2292  141.6615  160.9566 H   0  0  0  0  0  0  0  0  0  0  0  0
  152.6049  143.3100  160.9529 H   0  0  0  0  0  0  0  0  0  0  0  0
  154.0477  142.9025  160.0113 H   0  0  0  0  0  0  0  0  0  0  0  0
  151.9043  140.1612  159.7260 H   0  0  0  0  0  0  0  0  0  0  0  0
  149.0697  138.9682  155.8656 H   0  0  0  0  0  0  0  0  0  0  0  0
  149.2228  142.6363  154.8825 H   0  0  0  0  0  0  0  0  0  0  0  0
  149.8109  141.2892  153.9325 H   0  0  0  0  0  0  0  0  0  0  0  0
  147.5901  140.1382  155.0756 H   0  0  0  0  0  0  0  0  0  0  0  0
  147.0557  142.8828  154.7494 H   0  0  0  0  0  0  0  0  0  0  0  0
  146.7893  141.7988  152.7547 H   0  0  0  0  0  0  0  0  0  0  0  0
  148.2682  140.9333  152.4317 H   0  0  0  0  0  0  0  0  0  0  0  0
  147.9025  138.3172  153.7329 H   0  0  0  0  0  0  0  0  0  0  0  0
  146.6410  138.9476  154.7691 H   0  0  0  0  0  0  0  0  0  0  0  0
  146.2063  136.5818  154.1675 H   0  0  0  0  0  0  0  0  0  0  0  0
  144.9154  137.6267  153.6063 H   0  0  0  0  0  0  0  0  0  0  0  0
  144.3378  135.8356  151.9381 H   0  0  0  0  0  0  0  0  0  0  0  0
  145.5216  135.3778  150.7409 H   0  0  0  0  0  0  0  0  0  0  0  0
  145.5969  134.7210  153.7366 H   0  0  0  0  0  0  0  0  0  0  0  0
  145.2658  133.5643  152.4676 H   0  0  0  0  0  0  0  0  0  0  0  0
  147.6239  135.0433  152.3077 H   0  0  0  0  0  0  0  0  0  0  0  0
  146.1419  137.6270  150.0782 H   0  0  0  0  0  0  0  0  0  0  0  0
  144.8775  138.2606  151.1104 H   0  0  0  0  0  0  0  0  0  0  0  0
  146.5730  139.9963  150.6791 H   0  0  0  0  0  0  0  0  0  0  0  0
  147.8641  138.9526  151.2427 H   0  0  0  0  0  0  0  0  0  0  0  0
  150.8613  143.6432  156.3113 H   0  0  0  0  0  0  0  0  0  0  0  0
  152.0943  145.2707  157.4941 H   0  0  0  0  0  0  0  0  0  0  0  0
  153.5398  144.6166  158.2619 H   0  0  0  0  0  0  0  0  0  0  0  0
  152.1400  145.0718  159.2447 H   0  0  0  0  0  0  0  0  0  0  0  0
  145.6302  139.9433  152.8444 H   0  0  0  0  0  0  0  0  0  0  0  0
  147.1467  136.6338  152.0025 H   0  0  0  0  0  0  0  0  0  0  0  0
  1  2  1  0  0  0  0
  1 25  1  0  0  0  0
  1 26  1  0  0  0  0
  1 27  1  0  0  0  0
  2 23  1  0  0  0  0
  2  3  2  0  0  0  0
  3  4  1  0  0  0  0
  3 28  1  0  0  0  0
  4 21  2  0  0  0  0
  4  5  1  0  0  0  0
  5  6  2  0  0  0  0
  6  7  1  0  0  0  0
  6 29  1  0  0  0  0
  7  8  1  0  0  0  0
  7 21  1  0  0  0  0
  8  9  1  0  0  0  0
  8 30  1  0  0  0  0
  8 31  1  0  0  0  0
  9 10  1  0  0  0  0
  9 11  1  0  0  0  0
  9 32  1  0  0  0  0
 10 33  1  0  0  0  0
 11 12  1  0  0  0  0
 11 34  1  0  0  0  0
 11 35  1  0  0  0  0
 12 20  1  0  0  0  0
 12 13  1  0  0  0  0
 12 53  1  0  0  0  0
 13 14  1  0  0  0  0
 13 36  1  0  0  0  0
 13 37  1  0  0  0  0
 14 15  1  0  0  0  0
 14 38  1  0  0  0  0
 14 39  1  0  0  0  0
 15 16  1  0  0  0  0
 15 19  1  0  0  0  0
 15 54  1  0  0  0  0
 16 17  1  0  0  0  0
 16 40  1  0  0  0  0
 16 41  1  0  0  0  0
 17 18  1  0  0  0  0
 17 42  1  0  0  0  0
 17 43  1  0  0  0  0
 18 44  1  0  0  0  0
 19 20  1  0  0  0  0
 19 45  1  0  0  0  0
 19 46  1  0  0  0  0
 20 47  1  0  0  0  0
 20 48  1  0  0  0  0
 21 22  1  0  0  0  0
 22 23  2  0  0  0  0
 22 49  1  0  0  0  0
 23 24  1  0  0  0  0
 24 50  1  0  0  0  0
 24 51  1  0  0  0  0
 24 52  1  0  0  0  0
M  CHG  1  12   1
M  CHG  1  15   1
M  END
> <s_m_source_file>
AV-unprocessed.smi

> <i_m_source_file_index>
1046

> <i_lp_mmshare_version>
43012

> <i_f3d_flags>
0

> <s_epik_input>
W0NIM11jKFtjSF0xKWMoW0NIM10pW2NIXWMoYzEyKW4oW2NIXW4yKVtDSDJdW0NASF0oW09IXSlbQ0gyXU4zW0NIMl1bQ0gyXU4oW0NIMl1bQ0gyXTMpW0NIMl1bQ0gyXVtPSF0=

> <s_epik_cmdline>
J2VwaWtfcHl0aG9uJywgJy1waCcsICc3LjAnLCAnLXRuJywgJzgnLCAnLW1hJywgJzIwMCcsICctbWV0YWxfYmluZGluZycsICctaW1hZScsICc8aW5maWxlLm1hZT4nLCAnLW9tYWUnLCAnPG91dGZpbGUubWFlPic=

> <r_epik_Ionization_Penalty>
3.17398

> <r_epik_Ionization_Penalty_Charging>
3.09061

> <r_epik_Ionization_Penalty_Neutral>
0.0833726

> <r_epik_State_Penalty>
2.17606

> <r_epik_Charging_Adjusted_Penalty>
5.26667

> <i_epik_Tot_Q>
2

> <i_epik_Tot_abs_Q>
2

> <r_epik_Metal_State_Penalty>
2.08587

> <b_epik_Metal_Only>
0

> <s_lp_Force_Field>
OPLS_2005

> <r_lp_Energy>
27.7872

> <b_lp_Chiralities_Consistent>
1

> <s_lp_Variant>
AV-unprocessed.smi:1046-8

> <Gold.Version>
5.8.1

> <Gold.Id.Protein>
6NUR|6NUR_protein|mol2

> <Gold.PLP.Fitness>
56.1519

> <Gold.PLP.PLP>
-44.6897

> <Gold.PLP.part.hbond>
-3.0000

> <Gold.PLP.part.metal>
0.0000

> <Gold.PLP.part.buried>
1.9793

> <Gold.PLP.part.nonpolar>
-44.3657

> <Gold.PLP.part.repulsive>
0.0630

> <Gold.PLP.ligand.clash>
0.0074

> <Gold.PLP.ligand.torsion>
1.7506

> <Gold.PLP.Chemscore.Hbond>
4.9500

> <Gold.PLP.Chemscore.CHOScore>
0.0000

> <Gold.PLP.Chemscore.Metal>
0.0000

> <Gold.Chemscore.Hbonds>
donor molecule, donor type, donor heavy atom, donor atom, acceptor molecule, acceptor atom, score
      L1  H    12    53       P1 10175  1.89
      L1  H    15    54       P1  7948  2.00
      L1  H    18    44       P1  7948  1.00

> <Gold.PLP.Chemscore.Internal.Correction>
0.1207

> <Gold.Rescore>
     Score         DG    S(hbond)    S(metal)    S(lipo)     H(rot)  DE(clash)    DE(int)     intcor
     18.63     -22.44       2.91        0.00     133.64       3.28       2.03       1.78       ----

> <Gold.Chemscore.Fitness>
18.6315

> <Gold.Chemscore.DG>
-22.4436

> <Gold.Chemscore.ZeroCoef>
-5.4800

> <Gold.Chemscore.Hbond>
2.9136

> <Gold.Chemscore.Metal>
0.0000

> <Gold.Chemscore.Lipo>
133.6427

> <Gold.Chemscore.Internal_Hbond>
0.0000

> <Gold.Chemscore.DEClash>
2.0336

> <Gold.Chemscore.DEInternal>
1.7785

> <Gold.Chemscore.Rot>
3.2828

> <Gold.Chemscore.Internal.Correction>
   9.000000E+99

> <Gold.Chemscore.Hbonds>
donor molecule, donor type, donor heavy atom, donor atom, acceptor molecule, acceptor atom, score
      L1  H    12    53       P1 10175  0.89
      L1  H    15    54       P1  7948  1.00
      L1  H    18    44       P1  7948  0.95

> <Gold.Chemscore.Hbond.Weighted>
-9.7313

> <Gold.Chemscore.Metal.Weighted>
-0.0000

> <Gold.Chemscore.Lipo.Weighted>
-15.6362

> <Gold.Chemscore.Internal_Hbond.Weighted>
0.0000

> <Gold.Chemscore.DEClash.Weighted>
2.0336

> <Gold.Chemscore.DEInternal.Weighted>
1.7785

> <Gold.Chemscore.Rot.Weighted>
8.4039

> <Gold.Chemscore.Internal.Correction.Weighted>
   9.000000E+99

> <Gold.Protein.RotatedTorsions>
[ 6907 6896 6895 6894 ] final   20.08 input  -60.11 | X-H torsion
[ 7974 7965 7964 7962 ] final  164.67 input  175.53 | X-H torsion
[ 8008 7997 7996 7995 ] final -160.16 input   59.86 | X-H torsion
[ 10167 10162 10161 10158 ] final -150.78 input  -65.29 | X-H torsion
[ 10718 10713 10712 10709 ] final  169.58 input   66.30 | X-H torsion
[ 10763 10752 10751 10750 ] final  120.15 input  -60.55 | X-H torsion
[ 11005 11000 10999 10996 ] final   60.42 input  -57.11 | X-H torsion

> <Gold.Protein.ActiveResidues>
 VAL166  LYS551  ARG553  GLY616  TRP617  ASP618  TYR619  PRO620  LYS621  CYS622 
 ASP623  PHE694  ASN695  SER759  ASP760  ASP761  ALA762  ILE779  LEU786  VAL792 
 PHE793  MET794  SER795  GLU796  ALA797  LYS798  CYS799  TRP800  GLU811  SER814 

> <Gold.Protein.RotatedAtoms>
  151.8908  135.0417  160.0497 H   0  0  0  0  0  0  0  0  0  0  0  0  # atno 6907 bound_to 6896
  152.2437  133.5152  159.5293 H   0  0  0  0  0  0  0  0  0  0  0  0  # atno 6908 bound_to 6896
  150.7061  134.0970  159.3995 H   0  0  0  0  0  0  0  0  0  0  0  0  # atno 6909 bound_to 6896
  144.7535  139.8359  143.6358 H   0  0  0  0  0  0  0  0  0  0  0  0  # atno 7974 bound_to 7965
  155.7734  140.0855  157.2096 H   0  0  0  0  0  0  0  0  0  0  0  0  # atno 8008 bound_to 7997
  154.3995  140.1521  156.3025 H   0  0  0  0  0  0  0  0  0  0  0  0  # atno 8009 bound_to 7997
  155.8725  140.3425  155.5834 H   0  0  0  0  0  0  0  0  0  0  0  0  # atno 8010 bound_to 7997
  139.7325  143.8787  152.2539 H   0  0  0  0  0  0  0  0  0  0  0  0  # atno 10167 bound_to 10162
  157.0206  131.0230  151.2776 H   0  0  0  0  0  0  0  0  0  0  0  0  # atno 10718 bound_to 10713
  153.5940  135.3460  155.2921 H   0  0  0  0  0  0  0  0  0  0  0  0  # atno 10763 bound_to 10752
  154.8647  135.4211  154.2485 H   0  0  0  0  0  0  0  0  0  0  0  0  # atno 10764 bound_to 10752
  153.3298  135.7043  153.7028 H   0  0  0  0  0  0  0  0  0  0  0  0  # atno 10765 bound_to 10752
  140.0233  134.6121  155.9609 H   0  0  0  0  0  0  0  0  0  0  0  0  # atno 11005 bound_to 11000
  146.1516  139.4601  143.0045 LP  0  0  0  0  0  0  0  0  0  0  0  0  # atno 17320 bound_to 7965
  145.6860  141.0178  143.1581 LP  0  0  0  0  0  0  0  0  0  0  0  0  # atno 17321 bound_to 7965
  139.8714  144.7066  150.8983 LP  0  0  0  0  0  0  0  0  0  0  0  0  # atno 17342 bound_to 10162
  140.7773  143.3735  151.1605 LP  0  0  0  0  0  0  0  0  0  0  0  0  # atno 17343 bound_to 10162
  157.5253  130.8024  149.7855 LP  0  0  0  0  0  0  0  0  0  0  0  0  # atno 17370 bound_to 10713
  156.0104  130.3836  150.2285 LP  0  0  0  0  0  0  0  0  0  0  0  0  # atno 17371 bound_to 10713
  141.1787  133.6543  156.4932 LP  0  0  0  0  0  0  0  0  0  0  0  0  # atno 17394 bound_to 11000
  140.4350  134.7067  157.4962 LP  0  0  0  0  0  0  0  0  0  0  0  0  # atno 17395 bound_to 11000

$$$$
