AV-unprocessed.smi:543|AV-procd|sdf|2876|dock5
  -GOLD-   2262023373D 1   1.00000     0.00000
 Structure written by MMmdl.
 45 47  0  0  0  0  0  0  0  0  2 V2000
  151.2499  135.4471  154.9285 C   0  0  0  0  0  0  0  0  0  0  0  0
  152.1049  136.4082  154.3365 O   0  0  0  0  0  0  0  0  0  0  0  0
  151.4294  137.6131  154.0113 C   0  0  0  0  0  0  0  0  0  0  0  0
  152.4434  138.7623  153.9211 C   0  0  0  0  0  0  0  0  0  0  0  0
  153.2287  138.8888  155.1490 N   0  0  0  0  0  0  0  0  0  0  0  0
  152.8444  139.3727  156.3648 C   0  0  0  0  0  0  0  0  0  0  0  0
  151.5637  139.8882  156.6013 N   0  0  0  0  0  0  0  0  0  0  0  0
  150.4936  139.9785  155.6154 C   0  0  0  0  0  0  0  0  0  0  0  0
  151.1725  140.5866  157.8256 C   0  0  0  0  0  0  0  0  0  0  0  0
  151.8553  141.9250  158.0551 C   0  0  0  0  0  0  0  0  0  0  0  0
  151.0867  143.1063  158.1251 C   0  0  0  0  0  0  0  0  0  0  0  0
  151.7136  144.3470  158.3513 C   0  0  0  0  0  0  0  0  0  0  0  0
  153.1117  144.4126  158.5044 C   0  0  0  0  0  0  0  0  0  0  0  0
  153.8831  143.2366  158.4320 C   0  0  0  0  0  0  0  0  0  0  0  0
  153.2565  141.9952  158.2079 C   0  0  0  0  0  0  0  0  0  0  0  0
  153.7778  139.2723  157.3140 N   0  0  0  0  0  0  0  0  0  0  0  0
  154.8499  138.7018  156.6499 C   0  0  0  0  0  0  0  0  0  0  0  0
  154.5445  138.4547  155.3489 C   0  0  0  0  0  0  0  0  0  0  0  0
  155.4775  137.8113  154.3959 C   0  0  0  0  0  0  0  0  0  0  0  0
  155.1474  137.5915  153.2323 O   0  0  0  0  0  0  0  0  0  0  0  0
  156.6839  137.5125  154.9739 N   0  5  0  0  0  0  0  0  0  0  0  0
  157.0347  137.7492  156.2858 C   0  0  0  0  0  0  0  0  0  0  0  0
  158.1423  137.4417  156.7283 O   0  0  0  0  0  0  0  0  0  0  0  0
  156.1362  138.3406  157.1344 N   0  0  0  0  0  0  0  0  0  0  0  0
  156.4764  138.5976  158.5368 C   0  0  0  0  0  0  0  0  0  0  0  0
  151.8180  134.5462  155.1602 H   0  0  0  0  0  0  0  0  0  0  0  0
  150.4408  135.1700  154.2513 H   0  0  0  0  0  0  0  0  0  0  0  0
  150.8176  135.8215  155.8574 H   0  0  0  0  0  0  0  0  0  0  0  0
  150.9041  137.5028  153.0614 H   0  0  0  0  0  0  0  0  0  0  0  0
  150.6811  137.8373  154.7726 H   0  0  0  0  0  0  0  0  0  0  0  0
  153.1157  138.6167  153.0772 H   0  0  0  0  0  0  0  0  0  0  0  0
  151.9225  139.6877  153.6998 H   0  0  0  0  0  0  0  0  0  0  0  0
  150.8672  139.7448  154.6181 H   0  0  0  0  0  0  0  0  0  0  0  0
  150.0731  140.9838  155.5746 H   0  0  0  0  0  0  0  0  0  0  0  0
  149.6907  139.2817  155.8581 H   0  0  0  0  0  0  0  0  0  0  0  0
  150.0932  140.7422  157.8660 H   0  0  0  0  0  0  0  0  0  0  0  0
  151.4025  139.9265  158.6628 H   0  0  0  0  0  0  0  0  0  0  0  0
  150.0132  143.0636  158.0140 H   0  0  0  0  0  0  0  0  0  0  0  0
  151.1214  145.2484  158.4089 H   0  0  0  0  0  0  0  0  0  0  0  0
  153.5921  145.3641  158.6784 H   0  0  0  0  0  0  0  0  0  0  0  0
  154.9556  143.2864  158.5500 H   0  0  0  0  0  0  0  0  0  0  0  0
  153.8546  141.0976  158.1581 H   0  0  0  0  0  0  0  0  0  0  0  0
  156.6444  137.6579  159.0644 H   0  0  0  0  0  0  0  0  0  0  0  0
  155.6917  139.1357  159.0686 H   0  0  0  0  0  0  0  0  0  0  0  0
  157.3848  139.1974  158.6094 H   0  0  0  0  0  0  0  0  0  0  0  0
  1  2  1  0  0  0  0
  1 26  1  0  0  0  0
  1 27  1  0  0  0  0
  1 28  1  0  0  0  0
  2  3  1  0  0  0  0
  3  4  1  0  0  0  0
  3 29  1  0  0  0  0
  3 30  1  0  0  0  0
  4  5  1  0  0  0  0
  4 31  1  0  0  0  0
  4 32  1  0  0  0  0
  5 18  1  0  0  0  0
  5  6  1  0  0  0  0
  6  7  1  0  0  0  0
  6 16  2  0  0  0  0
  7  8  1  0  0  0  0
  7  9  1  0  0  0  0
  8 33  1  0  0  0  0
  8 34  1  0  0  0  0
  8 35  1  0  0  0  0
  9 10  1  0  0  0  0
  9 36  1  0  0  0  0
  9 37  1  0  0  0  0
 10 15  1  0  0  0  0
 10 11  2  0  0  0  0
 11 12  1  0  0  0  0
 11 38  1  0  0  0  0
 12 13  2  0  0  0  0
 12 39  1  0  0  0  0
 13 14  1  0  0  0  0
 13 40  1  0  0  0  0
 14 15  2  0  0  0  0
 14 41  1  0  0  0  0
 15 42  1  0  0  0  0
 16 17  1  0  0  0  0
 17 24  1  0  0  0  0
 17 18  2  0  0  0  0
 18 19  1  0  0  0  0
 19 20  2  0  0  0  0
 19 21  1  0  0  0  0
 21 22  1  0  0  0  0
 22 23  2  0  0  0  0
 22 24  1  0  0  0  0
 24 25  1  0  0  0  0
 25 43  1  0  0  0  0
 25 44  1  0  0  0  0
 25 45  1  0  0  0  0
M  CHG  1  21  -1
M  END
> <s_m_source_file>
AV-unprocessed.smi

> <i_m_source_file_index>
543

> <i_lp_mmshare_version>
43012

> <i_f3d_flags>
0

> <s_epik_input>
W0NIM11uMWMoPU8pW25IXWMoPU8pYyhjMTIpbihbQ0gyXVtDSDJdT1tDSDNdKWMobjIpTihbQ0gzXSlbQ0gyXWMzW2NIXVtjSF1bY0hdW2NIXVtjSF0z

> <s_epik_cmdline>
J2VwaWtfcHl0aG9uJywgJy1waCcsICc3LjAnLCAnLXRuJywgJzgnLCAnLW1hJywgJzIwMCcsICctbWV0YWxfYmluZGluZycsICctaW1hZScsICc8aW5maWxlLm1hZT4nLCAnLW9tYWUnLCAnPG91dGZpbGUubWFlPic=

> <r_lp_tautomer_probability>
1

> <r_epik_Ionization_Penalty>
6.27073

> <r_epik_Ionization_Penalty_Charging>
0.0750099

> <r_epik_Ionization_Penalty_Neutral>
6.19572

> <r_epik_State_Penalty>
6.19553

> <r_epik_Charging_Adjusted_Penalty>
6.27054

> <i_epik_Tot_Q>
-1

> <i_epik_Tot_abs_Q>
1

> <r_epik_Metal_State_Penalty>
2.13591

> <b_epik_Metal_Only>
1

> <s_lp_Force_Field>
OPLS_2005

> <r_lp_Energy>
36.8514

> <b_lp_Chiralities_Consistent>
1

> <s_lp_Variant>
AV-unprocessed.smi:543-2

> <Gold.Version>
5.8.1

> <Gold.Id.Protein>
6NUR|6NUR_protein|mol2

> <Gold.PLP.Fitness>
45.2336

> <Gold.PLP.PLP>
-40.8644

> <Gold.PLP.part.hbond>
-1.7455

> <Gold.PLP.part.metal>
0.0000

> <Gold.PLP.part.buried>
-5.1491

> <Gold.PLP.part.nonpolar>
-34.3232

> <Gold.PLP.part.repulsive>
0.1002

> <Gold.PLP.ligand.clash>
4.7127

> <Gold.PLP.ligand.torsion>
0.4508

> <Gold.PLP.Chemscore.Hbond>
1.7200

> <Gold.PLP.Chemscore.CHOScore>
0.0000

> <Gold.PLP.Chemscore.Metal>
0.0000

> <Gold.Chemscore.Hbonds>
donor molecule, donor type, donor heavy atom, donor atom, acceptor molecule, acceptor atom, score
      P1  H 10752 10765       L1    20  0.46

> <Gold.PLP.Chemscore.Internal.Correction>
4.8235

> <Gold.Rescore>
     Score         DG    S(hbond)    S(metal)    S(lipo)     H(rot)  DE(clash)    DE(int)     intcor
     15.56     -18.37       1.51        0.00     106.84       1.82       0.26       2.55       ----

> <Gold.Chemscore.Fitness>
15.5626

> <Gold.Chemscore.DG>
-18.3715

> <Gold.Chemscore.ZeroCoef>
-5.4800

> <Gold.Chemscore.Hbond>
1.5127

> <Gold.Chemscore.Metal>
0.0000

> <Gold.Chemscore.Lipo>
106.8394

> <Gold.Chemscore.Internal_Hbond>
0.0000

> <Gold.Chemscore.DEClash>
0.2581

> <Gold.Chemscore.DEInternal>
2.5508

> <Gold.Chemscore.Rot>
1.8207

> <Gold.Chemscore.Internal.Correction>
   9.000000E+99

> <Gold.Chemscore.Hbonds>
donor molecule, donor type, donor heavy atom, donor atom, acceptor molecule, acceptor atom, score
      P1  H 10752 10765       L1    20  0.06

> <Gold.Chemscore.Hbond.Weighted>
-5.0523

> <Gold.Chemscore.Metal.Weighted>
-0.0000

> <Gold.Chemscore.Lipo.Weighted>
-12.5002

> <Gold.Chemscore.Internal_Hbond.Weighted>
0.0000

> <Gold.Chemscore.DEClash.Weighted>
0.2581

> <Gold.Chemscore.DEInternal.Weighted>
2.5508

> <Gold.Chemscore.Rot.Weighted>
4.6610

> <Gold.Chemscore.Internal.Correction.Weighted>
   9.000000E+99

> <Gold.Protein.RotatedTorsions>
[ 6907 6896 6895 6894 ] final   53.27 input  -60.11 | X-H torsion
[ 7974 7965 7964 7962 ] final -104.58 input  175.53 | X-H torsion
[ 8008 7997 7996 7995 ] final  -56.25 input   59.86 | X-H torsion
[ 10167 10162 10161 10158 ] final   90.37 input  -65.29 | X-H torsion
[ 10718 10713 10712 10709 ] final   57.06 input   66.30 | X-H torsion
[ 10763 10752 10751 10750 ] final   47.80 input  -60.55 | X-H torsion
[ 11005 11000 10999 10996 ] final  166.42 input  -57.11 | X-H torsion

> <Gold.Protein.ActiveResidues>
 VAL166  LYS551  ARG553  GLY616  TRP617  ASP618  TYR619  PRO620  LYS621  CYS622 
 ASP623  PHE694  ASN695  SER759  ASP760  ASP761  ALA762  ILE779  LEU786  VAL792 
 PHE793  MET794  SER795  GLU796  ALA797  LYS798  CYS799  TRP800  GLU811  SER814 

> <Gold.Protein.RotatedAtoms>
  152.3319  134.7248  160.0286 H   0  0  0  0  0  0  0  0  0  0  0  0  # atno 6907 bound_to 6896
  151.7661  133.3332  159.3439 H   0  0  0  0  0  0  0  0  0  0  0  0  # atno 6908 bound_to 6896
  150.7428  134.5993  159.6072 H   0  0  0  0  0  0  0  0  0  0  0  0  # atno 6909 bound_to 6896
  145.2413  140.9206  143.3148 H   0  0  0  0  0  0  0  0  0  0  0  0  # atno 7974 bound_to 7965
  154.4223  140.1134  156.5607 H   0  0  0  0  0  0  0  0  0  0  0  0  # atno 8008 bound_to 7997
  155.6314  140.3495  155.4665 H   0  0  0  0  0  0  0  0  0  0  0  0  # atno 8009 bound_to 7997
  155.9945  140.1186  157.0597 H   0  0  0  0  0  0  0  0  0  0  0  0  # atno 8010 bound_to 7997
  139.8480  144.6608  150.9204 H   0  0  0  0  0  0  0  0  0  0  0  0  # atno 10167 bound_to 10162
  157.5483  130.8747  149.8924 H   0  0  0  0  0  0  0  0  0  0  0  0  # atno 10718 bound_to 10713
  152.9797  135.5965  154.3821 H   0  0  0  0  0  0  0  0  0  0  0  0  # atno 10763 bound_to 10752
  154.3485  135.2767  155.2387 H   0  0  0  0  0  0  0  0  0  0  0  0  # atno 10764 bound_to 10752
  154.4437  135.6007  153.6201 H   0  0  0  0  0  0  0  0  0  0  0  0  # atno 10765 bound_to 10752
  140.2662  134.7863  157.3635 H   0  0  0  0  0  0  0  0  0  0  0  0  # atno 11005 bound_to 11000
  144.9586  139.4004  143.6367 LP  0  0  0  0  0  0  0  0  0  0  0  0  # atno 17320 bound_to 7965
  146.3327  139.8629  142.8853 LP  0  0  0  0  0  0  0  0  0  0  0  0  # atno 17321 bound_to 7965
  140.7791  143.3853  151.1405 LP  0  0  0  0  0  0  0  0  0  0  0  0  # atno 17342 bound_to 10162
  139.7493  143.8803  152.3072 LP  0  0  0  0  0  0  0  0  0  0  0  0  # atno 17343 bound_to 10162
  156.0554  130.3709  150.1103 LP  0  0  0  0  0  0  0  0  0  0  0  0  # atno 17370 bound_to 10713
  156.9278  130.9704  151.3538 LP  0  0  0  0  0  0  0  0  0  0  0  0  # atno 17371 bound_to 10713
  140.1417  134.4964  155.8027 LP  0  0  0  0  0  0  0  0  0  0  0  0  # atno 17394 bound_to 11000
  141.2184  133.6828  156.7221 LP  0  0  0  0  0  0  0  0  0  0  0  0  # atno 17395 bound_to 11000

$$$$
