AV-unprocessed.smi:3266|AV-procd|sdf|12500|dock6
  -GOLD-   2272018403D 1   1.00000     0.00000
 Structure written by MMmdl.
 38 39  0  0  0  0  0  0  0  0  1 V2000
  152.7773  139.1950  156.8475 O   0  0  0  0  0  0  0  0  0  0  0  0
  151.8378  139.9392  157.1290 C   0  0  0  0  0  0  0  0  0  0  0  0
  150.7311  140.2009  156.1058 C   0  0  0  0  0  0  0  0  0  0  0  0
  150.5252  141.7038  155.8452 C   0  0  0  0  0  0  0  0  0  0  0  0
  149.2288  141.9996  155.0775 C   0  0  2  0  0  0  0  0  0  0  0  0
  147.9687  141.4947  155.7779 C   0  0  0  0  0  0  0  0  0  0  0  0
  147.0110  141.3601  154.6164 C   0  0  0  0  0  0  0  0  0  0  0  0
  147.9292  140.8403  153.5134 C   0  0  0  0  0  0  0  0  0  0  0  0
  149.2285  141.3468  153.8102 O   0  0  0  0  0  0  0  0  0  0  0  0
  151.7055  140.5450  158.3198 N   0  0  0  0  0  0  0  0  0  0  0  0
  152.5974  140.3720  159.4642 C   0  0  0  0  0  0  0  0  0  0  0  0
  153.5814  141.5483  159.6195 C   0  0  0  0  0  0  0  0  0  0  0  0
  152.9013  142.8997  159.7604 C   0  0  0  0  0  0  0  0  0  0  0  0
  152.7886  143.7701  158.6544 C   0  0  0  0  0  0  0  0  0  0  0  0
  152.1171  144.9951  158.8307 C   0  0  0  0  0  0  0  0  0  0  0  0
  151.5913  145.3035  160.0999 C   0  0  0  0  0  0  0  0  0  0  0  0
  151.7616  144.3692  161.1411 C   0  0  0  0  0  0  0  0  0  0  0  0
  152.4030  143.1914  160.9828 N   0  0  0  0  0  0  0  0  0  0  0  0
  150.9709  139.6955  155.1690 H   0  0  0  0  0  0  0  0  0  0  0  0
  149.8077  139.7534  156.4749 H   0  0  0  0  0  0  0  0  0  0  0  0
  150.5188  142.2503  156.7897 H   0  0  0  0  0  0  0  0  0  0  0  0
  151.3706  142.0894  155.2731 H   0  0  0  0  0  0  0  0  0  0  0  0
  149.1306  143.0724  154.9030 H   0  0  0  0  0  0  0  0  0  0  0  0
  148.1432  140.5179  156.2317 H   0  0  0  0  0  0  0  0  0  0  0  0
  147.6114  142.1735  156.5529 H   0  0  0  0  0  0  0  0  0  0  0  0
  146.1728  140.6943  154.8237 H   0  0  0  0  0  0  0  0  0  0  0  0
  146.6128  142.3389  154.3451 H   0  0  0  0  0  0  0  0  0  0  0  0
  147.9713  139.7507  153.5337 H   0  0  0  0  0  0  0  0  0  0  0  0
  147.5991  141.1475  152.5208 H   0  0  0  0  0  0  0  0  0  0  0  0
  150.9042  141.1442  158.4562 H   0  0  0  0  0  0  0  0  0  0  0  0
  152.0257  140.2369  160.3840 H   0  0  0  0  0  0  0  0  0  0  0  0
  153.1571  139.4481  159.3184 H   0  0  0  0  0  0  0  0  0  0  0  0
  154.2137  141.3814  160.4926 H   0  0  0  0  0  0  0  0  0  0  0  0
  154.2554  141.5769  158.7624 H   0  0  0  0  0  0  0  0  0  0  0  0
  153.1942  143.5004  157.6905 H   0  0  0  0  0  0  0  0  0  0  0  0
  152.0044  145.6840  158.0068 H   0  0  0  0  0  0  0  0  0  0  0  0
  151.0694  146.2332  160.2716 H   0  0  0  0  0  0  0  0  0  0  0  0
  151.3713  144.5729  162.1273 H   0  0  0  0  0  0  0  0  0  0  0  0
  1  2  2  0  0  0  0
  2  3  1  0  0  0  0
  2 10  1  0  0  0  0
  3  4  1  0  0  0  0
  3 19  1  0  0  0  0
  3 20  1  0  0  0  0
  4  5  1  0  0  0  0
  4 21  1  0  0  0  0
  4 22  1  0  0  0  0
  5  9  1  0  0  0  0
  5  6  1  0  0  0  0
  5 23  1  0  0  0  0
  6  7  1  0  0  0  0
  6 24  1  0  0  0  0
  6 25  1  0  0  0  0
  7  8  1  0  0  0  0
  7 26  1  0  0  0  0
  7 27  1  0  0  0  0
  8  9  1  0  0  0  0
  8 28  1  0  0  0  0
  8 29  1  0  0  0  0
 10 11  1  0  0  0  0
 10 30  1  0  0  0  0
 11 12  1  0  0  0  0
 11 31  1  0  0  0  0
 11 32  1  0  0  0  0
 12 13  1  0  0  0  0
 12 33  1  0  0  0  0
 12 34  1  0  0  0  0
 13 18  1  0  0  0  0
 13 14  2  0  0  0  0
 14 15  1  0  0  0  0
 14 35  1  0  0  0  0
 15 16  2  0  0  0  0
 15 36  1  0  0  0  0
 16 17  1  0  0  0  0
 16 37  1  0  0  0  0
 17 18  2  0  0  0  0
 17 38  1  0  0  0  0
M  END
> <s_m_source_file>
AV-unprocessed.smi

> <i_m_source_file_index>
3266

> <i_lp_mmshare_version>
43012

> <i_f3d_flags>
0

> <s_epik_input>
TzFbQ0gyXVtDSDJdW0NIMl1bQ0BIXTFbQ0gyXVtDSDJdQyg9TylbTkhdW0NIMl1bQ0gyXWMyW2NIXVtjSF1bY0hdW2NIXW4y

> <s_epik_cmdline>
J2VwaWtfcHl0aG9uJywgJy1waCcsICc3LjAnLCAnLXRuJywgJzgnLCAnLW1hJywgJzIwMCcsICctbWV0YWxfYmluZGluZycsICctaW1hZScsICc8aW5maWxlLm1hZT4nLCAnLW9tYWUnLCAnPG91dGZpbGUubWFlPic=

> <r_epik_Ionization_Penalty>
0.0267142

> <r_epik_Ionization_Penalty_Charging>
0

> <r_epik_Ionization_Penalty_Neutral>
0.0267142

> <r_epik_State_Penalty>
0.0218233

> <r_epik_Charging_Adjusted_Penalty>
0.0218233

> <i_epik_Tot_Q>
0

> <i_epik_Tot_abs_Q>
0

> <r_epik_Metal_State_Penalty>
0.0208786

> <b_epik_Metal_Only>
0

> <s_lp_Force_Field>
OPLS_2005

> <r_lp_Energy>
16.3587

> <b_lp_Chiralities_Consistent>
1

> <s_lp_Variant>
AV-unprocessed.smi:3266-1

> <Gold.Version>
5.8.1

> <Gold.Id.Protein>
6NUR|6NUR_protein|mol2

> <Gold.PLP.Fitness>
47.1087

> <Gold.PLP.PLP>
-42.4749

> <Gold.PLP.part.hbond>
-3.0000

> <Gold.PLP.part.metal>
0.0000

> <Gold.PLP.part.buried>
-2.5233

> <Gold.PLP.part.nonpolar>
-38.8256

> <Gold.PLP.part.repulsive>
1.4311

> <Gold.PLP.ligand.clash>
0.0000

> <Gold.PLP.ligand.torsion>
0.4699

> <Gold.PLP.Chemscore.Hbond>
1.8320

> <Gold.PLP.Chemscore.CHOScore>
0.0000

> <Gold.PLP.Chemscore.Metal>
0.0000

> <Gold.Chemscore.Hbonds>
donor molecule, donor type, donor heavy atom, donor atom, acceptor molecule, acceptor atom, score
      P1  H  7997  8009       L1     1  1.00
      P1  H  8011  8017       L1     9  0.82

> <Gold.PLP.Chemscore.Internal.Correction>
0.0775

> <Gold.Rescore>
     Score         DG    S(hbond)    S(metal)    S(lipo)     H(rot)  DE(clash)    DE(int)     intcor
     19.07     -20.80       1.62        0.00     122.11       1.71       1.45       0.28       ----

> <Gold.Chemscore.Fitness>
19.0733

> <Gold.Chemscore.DG>
-20.8025

> <Gold.Chemscore.ZeroCoef>
-5.4800

> <Gold.Chemscore.Hbond>
1.6227

> <Gold.Chemscore.Metal>
0.0000

> <Gold.Chemscore.Lipo>
122.1125

> <Gold.Chemscore.Internal_Hbond>
0.0000

> <Gold.Chemscore.DEClash>
1.4480

> <Gold.Chemscore.DEInternal>
0.2812

> <Gold.Chemscore.Rot>
1.7127

> <Gold.Chemscore.Internal.Correction>
   9.000000E+99

> <Gold.Chemscore.Hbonds>
donor molecule, donor type, donor heavy atom, donor atom, acceptor molecule, acceptor atom, score
      P1  H  7989  7998       L1     9  0.01
      P1  H  7997  8009       L1     1  0.88
      P1  H  8011  8017       L1     9  0.48

> <Gold.Chemscore.Hbond.Weighted>
-5.4199

> <Gold.Chemscore.Metal.Weighted>
-0.0000

> <Gold.Chemscore.Lipo.Weighted>
-14.2872

> <Gold.Chemscore.Internal_Hbond.Weighted>
0.0000

> <Gold.Chemscore.DEClash.Weighted>
1.4480

> <Gold.Chemscore.DEInternal.Weighted>
0.2812

> <Gold.Chemscore.Rot.Weighted>
4.3846

> <Gold.Chemscore.Internal.Correction.Weighted>
   9.000000E+99

> <Gold.Protein.RotatedTorsions>
[ 6907 6896 6895 6894 ] final  106.67 input  -60.11 | X-H torsion
[ 7974 7965 7964 7962 ] final  160.44 input  175.53 | X-H torsion
[ 8008 7997 7996 7995 ] final -166.61 input   59.86 | X-H torsion
[ 10167 10162 10161 10158 ] final -135.95 input  -65.29 | X-H torsion
[ 10718 10713 10712 10709 ] final  -25.22 input   66.30 | X-H torsion
[ 10763 10752 10751 10750 ] final  139.07 input  -60.55 | X-H torsion
[ 11005 11000 10999 10996 ] final   23.99 input  -57.11 | X-H torsion

> <Gold.Protein.ActiveResidues>
 VAL166  LYS551  ARG553  GLY616  TRP617  ASP618  TYR619  PRO620  LYS621  CYS622 
 ASP623  PHE694  ASN695  SER759  ASP760  ASP761  ALA762  ILE779  LEU786  VAL792 
 PHE793  MET794  SER795  GLU796  ALA797  LYS798  CYS799  TRP800  GLU811  SER814 

> <Gold.Protein.RotatedAtoms>
  152.5185  133.9347  159.7597 H   0  0  0  0  0  0  0  0  0  0  0  0  # atno 6907 bound_to 6896
  150.9690  133.6356  159.2748 H   0  0  0  0  0  0  0  0  0  0  0  0  # atno 6908 bound_to 6896
  151.3574  135.0902  159.9476 H   0  0  0  0  0  0  0  0  0  0  0  0  # atno 6909 bound_to 6896
  144.7736  139.7758  143.6287 H   0  0  0  0  0  0  0  0  0  0  0  0  # atno 7974 bound_to 7965
  155.8663  140.0986  157.1580 H   0  0  0  0  0  0  0  0  0  0  0  0  # atno 8008 bound_to 7997
  154.3994  140.1355  156.4085 H   0  0  0  0  0  0  0  0  0  0  0  0  # atno 8009 bound_to 7997
  155.7801  140.3458  155.5295 H   0  0  0  0  0  0  0  0  0  0  0  0  # atno 8010 bound_to 7997
  139.8727  143.6937  152.2638 H   0  0  0  0  0  0  0  0  0  0  0  0  # atno 10167 bound_to 10162
  156.4673  130.4517  149.6891 H   0  0  0  0  0  0  0  0  0  0  0  0  # atno 10718 bound_to 10713
  153.9000  135.3023  155.3448 H   0  0  0  0  0  0  0  0  0  0  0  0  # atno 10763 bound_to 10752
  154.7675  135.4903  153.9585 H   0  0  0  0  0  0  0  0  0  0  0  0  # atno 10764 bound_to 10752
  153.1250  135.6791  153.9372 H   0  0  0  0  0  0  0  0  0  0  0  0  # atno 10765 bound_to 10752
  140.3636  134.2099  155.7670 H   0  0  0  0  0  0  0  0  0  0  0  0  # atno 11005 bound_to 11000
  146.1901  139.5137  142.9810 LP  0  0  0  0  0  0  0  0  0  0  0  0  # atno 17320 bound_to 7965
  145.6250  141.0315  143.1894 LP  0  0  0  0  0  0  0  0  0  0  0  0  # atno 17321 bound_to 7965
  139.7269  144.7591  151.0864 LP  0  0  0  0  0  0  0  0  0  0  0  0  # atno 17342 bound_to 10162
  140.7758  143.5137  150.9621 LP  0  0  0  0  0  0  0  0  0  0  0  0  # atno 17343 bound_to 10162
  156.3654  130.7503  151.2480 LP  0  0  0  0  0  0  0  0  0  0  0  0  # atno 17370 bound_to 10713
  157.7494  131.0338  150.4289 LP  0  0  0  0  0  0  0  0  0  0  0  0  # atno 17371 bound_to 10713
  141.1976  133.8054  157.0618 LP  0  0  0  0  0  0  0  0  0  0  0  0  # atno 17394 bound_to 11000
  140.0607  134.9756  157.1300 LP  0  0  0  0  0  0  0  0  0  0  0  0  # atno 17395 bound_to 11000

$$$$
