#       Name:                AV-unprocessed.smi:253
#       Creating user name   scv26
#       Creation time:       Thu Mar 26 21:07:27 2020


#       File generated by GOLD software.
#

@<TRIPOS>MOLECULE
AV-unprocessed.smi:253
    61    63     1
SMALL
NO_CHARGES


@<TRIPOS>ATOM
      1 ****        -4.2258   4.6493   3.7125 C.3            1 S1                 0.0000
      2 ****        -3.7811   4.3195   2.2820 C.3            1 S1                 0.0000
      3 ****        -3.0108   3.0832   2.2343 N.am           1 S1                 0.0000
      4 ****        -3.5300   1.8441   2.1967 C.2            1 S1                 0.0000
      5 ****        -4.7415   1.6290   2.2008 O.2            1 S1                 0.0000
      6 ****        -2.5616   0.6521   2.1522 C.3            1 S1                 0.0000
      7 ****        -1.1417   1.0306   2.1950 N.pl3          1 S1                 0.0000
      8 ****        -0.4193   0.8657   3.4571 C.3            1 S1                 0.0000
      9 ****         0.8237   1.7637   3.5730 C.3            1 S1                 0.0000
     10 ****        -0.4811   0.9030   1.0161 C.ar           1 S1                 0.0000
     11 ****        -0.8551   1.7294   0.0058 N.ar           1 S1                 0.0000
     12 ****        -0.2486   1.6605  -1.1822 C.ar           1 S1                 0.0000
     13 ****         0.7341   0.8465  -1.5705 N.ar           1 S1                 0.0000
     14 ****         1.1032   0.0016  -0.5657 C.ar           1 S1                 0.0000
     15 ****         0.5536  -0.0404   0.7477 C.ar           1 S1                 0.0000
     16 ****         1.1764  -1.0433   1.4826 N.2            1 S1                 0.0000
     17 ****         2.0476  -1.5551   0.6571 C.2            1 S1                 0.0000
     18 ****         2.0669  -0.9911  -0.5977 N.pl3          1 S1                 0.0000
     19 ****         2.9267  -1.3679  -1.7095 C.3            1 S1                 0.0000
     20 ****         2.3848  -2.5516  -2.5487 C.3            1 S1                 0.0000
     21 ****         2.3551  -3.6938  -1.7098 O.3            1 S1                 0.0000
     22 ****         0.9571  -2.3007  -3.0820 C.3            1 S1                 0.0000
     23 ****         0.5117  -3.3860  -4.0782 C.3            1 S1                 0.0000
     24 ****         1.4530  -3.4933  -5.1392 O.3            1 S1                 0.0000
     25 ****         2.7410  -3.8988  -4.6927 C.3            1 S1                 0.0000
     26 ****         3.3236  -2.8428  -3.7366 C.3            1 S1                 0.0000
     27 ****        -4.7680   5.5945   3.7409 H              1 S1                 0.0000
     28 ****        -3.3690   4.7372   4.3810 H              1 S1                 0.0000
     29 ****        -4.8849   3.8775   4.1108 H              1 S1                 0.0000
     30 ****        -4.6457   4.2543   1.6198 H              1 S1                 0.0000
     31 ****        -3.1551   5.1241   1.8962 H              1 S1                 0.0000
     32 ****        -2.0046   3.1717   2.2226 H              1 S1                 0.0000
     33 ****        -2.7882  -0.0015   2.9957 H              1 S1                 0.0000
     34 ****        -2.7813   0.0642   1.2587 H              1 S1                 0.0000
     35 ****        -1.0972   1.1189   4.2732 H              1 S1                 0.0000
     36 ****        -0.1548  -0.1809   3.6055 H              1 S1                 0.0000
     37 ****         1.2821   1.6576   4.5562 H              1 S1                 0.0000
     38 ****         0.5599   2.8136   3.4432 H              1 S1                 0.0000
     39 ****         1.5839   1.5157   2.8328 H              1 S1                 0.0000
     40 ****        -0.6016   2.3570  -1.9284 H              1 S1                 0.0000
     41 ****         2.6994  -2.3691   0.9395 H              1 S1                 0.0000
     42 ****         3.0616  -0.4910  -2.3441 H              1 S1                 0.0000
     43 ****         3.9141  -1.6060  -1.3113 H              1 S1                 0.0000
     44 ****         2.0254  -4.4247  -2.2100 H              1 S1                 0.0000
     45 ****         0.2392  -2.2398  -2.2631 H              1 S1                 0.0000
     46 ****         0.9275  -1.3346  -3.5874 H              1 S1                 0.0000
     47 ****         0.3938  -4.3507  -3.5827 H              1 S1                 0.0000
     48 ****        -0.4608  -3.1279  -4.4977 H              1 S1                 0.0000
     49 ****         2.6813  -4.8762  -4.2118 H              1 S1                 0.0000
     50 ****         3.3915  -4.0142  -5.5599 H              1 S1                 0.0000
     51 ****         3.4869  -1.9231  -4.3000 H              1 S1                 0.0000
     52 ****         4.3048  -3.1604  -3.3813 H              1 S1                 0.0000
     53 ****        -5.3850   2.3938   2.2332 LP             1 S1                 0.0000
     54 ****        -5.0826   0.6894   2.1718 LP             1 S1                 0.0000
     55 ****        -1.5886   2.3932   0.1520 LP             1 S1                 0.0000
     56 ****         1.1470   0.8547  -2.4812 LP             1 S1                 0.0000
     57 ****         0.9971  -1.3114   2.4292 LP             1 S1                 0.0000
     58 ****         1.7558  -3.5225  -0.9278 LP             1 S1                 0.0000
     59 ****         3.2784  -3.8971  -1.3839 LP             1 S1                 0.0000
     60 ****         1.5351  -2.6020  -5.5851 LP             1 S1                 0.0000
     61 ****         1.1166  -4.1660  -5.7982 LP             1 S1                 0.0000
@<TRIPOS>BOND
    1    1    2 1     
    2    1   27 1     
    3    1   28 1     
    4    1   29 1     
    5    2    3 1     
    6    2   30 1     
    7    2   31 1     
    8    3    4 am    
    9    3   32 1     
   10    4    5 2     
   11    4    6 1     
   12    6    7 1     
   13    6   33 1     
   14    6   34 1     
   15    7    8 1     
   16    7   10 1     
   17    8    9 1     
   18    8   35 1     
   19    8   36 1     
   20    9   37 1     
   21    9   38 1     
   22    9   39 1     
   23   10   15 ar    
   24   10   11 ar    
   25   11   12 ar    
   26   12   13 ar    
   27   12   40 1     
   28   13   14 ar    
   29   14   18 1     
   30   14   15 ar    
   31   15   16 1     
   32   16   17 2     
   33   17   18 1     
   34   17   41 1     
   35   18   19 1     
   36   19   20 1     
   37   19   42 1     
   38   19   43 1     
   39   20   26 1     
   40   20   21 1     
   41   20   22 1     
   42   21   44 1     
   43   22   23 1     
   44   22   45 1     
   45   22   46 1     
   46   23   24 1     
   47   23   47 1     
   48   23   48 1     
   49   24   25 1     
   50   25   26 1     
   51   25   49 1     
   52   25   50 1     
   53   26   51 1     
   54   26   52 1     
   55    5   53 1     
   56    5   54 1     
   57   11   55 1     
   58   13   56 1     
   59   16   57 1     
   60   21   58 1     
   61   21   59 1     
   62   24   60 1     
   63   24   61 1     
@<TRIPOS>SUBSTRUCTURE
      1 S1             1
@<TRIPOS>SET
LONE_PAIRS      STATIC     ATOMS    <user>   **** ""
9 53 54 55 56 57 58 59 60 61
DONOR_HYDROGENS      STATIC     ATOMS    <user>   **** ""
2 32 44
ATOM$BLUE        STATIC     ATOMS    COLORGROUP SYSTEM
9 53 54 55 56 57 58 59 60 61
ATOM$RED        STATIC     ATOMS    COLORGROUP SYSTEM
2 32 44
