AV-unprocessed.smi:822|AV-procd|sdf|3843|dock8
  -GOLD-   22720 1293D 1   1.00000     0.00000
 Structure written by MMmdl.
 38 39  0  0  0  0  0  0  0  0  1 V2000
  146.5959  137.0074  153.5069 O   0  0  0  0  0  0  0  0  0  0  0  0
  146.1691  137.6778  152.5666 C   0  0  0  0  0  0  0  0  0  0  0  0
  146.5716  139.1496  152.4229 C   0  0  0  0  0  0  0  0  0  0  0  0
  147.4376  139.6768  153.5893 C   0  0  0  0  0  0  0  0  0  0  0  0
  147.6176  141.2056  153.4838 C   0  0  0  0  0  0  0  0  0  0  0  0
  148.4706  141.7625  154.6349 C   0  0  0  0  0  0  0  0  0  0  0  0
  149.8377  141.0658  154.7005 C   0  0  0  0  0  0  0  0  0  0  0  0
  149.6745  139.5431  154.8148 C   0  0  0  0  0  0  0  0  0  0  0  0
  148.8188  138.9849  153.6660 C   0  0  0  0  0  0  0  0  0  0  0  0
  145.3425  137.1896  151.6292 N   0  0  0  0  0  0  0  0  0  0  0  0
  144.8429  135.8207  151.5851 C   0  0  0  0  0  0  0  0  0  0  0  0
  145.7439  134.9201  150.7252 C   0  0  0  0  0  0  0  0  0  0  0  0
  145.2188  133.5728  150.6381 N   0  0  0  0  0  0  0  0  0  0  0  0
  143.8860  133.1987  150.5305 C   0  0  0  0  0  0  0  0  0  0  0  0
  143.8676  131.8234  150.4739 C   0  0  0  0  0  0  0  0  0  0  0  0
  145.1697  131.3336  150.5431 N   0  0  0  0  0  0  0  0  0  0  0  0
  145.9147  132.4276  150.6387 C   0  0  0  0  0  0  0  0  0  0  0  0
  147.0945  139.3015  151.4775 H   0  0  0  0  0  0  0  0  0  0  0  0
  145.6513  139.7314  152.3582 H   0  0  0  0  0  0  0  0  0  0  0  0
  146.9100  139.4769  154.5236 H   0  0  0  0  0  0  0  0  0  0  0  0
  148.0871  141.4561  152.5315 H   0  0  0  0  0  0  0  0  0  0  0  0
  146.6441  141.6970  153.4844 H   0  0  0  0  0  0  0  0  0  0  0  0
  148.6074  142.8370  154.5090 H   0  0  0  0  0  0  0  0  0  0  0  0
  147.9442  141.6262  155.5805 H   0  0  0  0  0  0  0  0  0  0  0  0
  150.4144  141.3063  153.8064 H   0  0  0  0  0  0  0  0  0  0  0  0
  150.4089  141.4444  155.5487 H   0  0  0  0  0  0  0  0  0  0  0  0
  150.6540  139.0637  154.8147 H   0  0  0  0  0  0  0  0  0  0  0  0
  149.2096  139.2954  155.7698 H   0  0  0  0  0  0  0  0  0  0  0  0
  148.7025  137.9097  153.8040 H   0  0  0  0  0  0  0  0  0  0  0  0
  149.3492  139.1182  152.7222 H   0  0  0  0  0  0  0  0  0  0  0  0
  145.0418  137.8096  150.8910 H   0  0  0  0  0  0  0  0  0  0  0  0
  144.8054  135.4422  152.6070 H   0  0  0  0  0  0  0  0  0  0  0  0
  143.8172  135.8069  151.2119 H   0  0  0  0  0  0  0  0  0  0  0  0
  145.8404  135.3205  149.7148 H   0  0  0  0  0  0  0  0  0  0  0  0
  146.7494  134.8728  151.1455 H   0  0  0  0  0  0  0  0  0  0  0  0
  143.0838  133.9214  150.5031 H   0  0  0  0  0  0  0  0  0  0  0  0
  143.0242  131.1538  150.3886 H   0  0  0  0  0  0  0  0  0  0  0  0
  146.9923  132.3945  150.7089 H   0  0  0  0  0  0  0  0  0  0  0  0
  1  2  2  0  0  0  0
  2  3  1  0  0  0  0
  2 10  1  0  0  0  0
  3  4  1  0  0  0  0
  3 18  1  0  0  0  0
  3 19  1  0  0  0  0
  4  9  1  0  0  0  0
  4  5  1  0  0  0  0
  4 20  1  0  0  0  0
  5  6  1  0  0  0  0
  5 21  1  0  0  0  0
  5 22  1  0  0  0  0
  6  7  1  0  0  0  0
  6 23  1  0  0  0  0
  6 24  1  0  0  0  0
  7  8  1  0  0  0  0
  7 25  1  0  0  0  0
  7 26  1  0  0  0  0
  8  9  1  0  0  0  0
  8 27  1  0  0  0  0
  8 28  1  0  0  0  0
  9 29  1  0  0  0  0
  9 30  1  0  0  0  0
 10 11  1  0  0  0  0
 10 31  1  0  0  0  0
 11 12  1  0  0  0  0
 11 32  1  0  0  0  0
 11 33  1  0  0  0  0
 12 13  1  0  0  0  0
 12 34  1  0  0  0  0
 12 35  1  0  0  0  0
 13 17  1  0  0  0  0
 13 14  1  0  0  0  0
 14 15  2  0  0  0  0
 14 36  1  0  0  0  0
 15 16  1  0  0  0  0
 15 37  1  0  0  0  0
 16 17  2  0  0  0  0
 17 38  1  0  0  0  0
M  END
> <s_m_source_file>
AV-unprocessed.smi

> <i_m_source_file_index>
822

> <i_lp_mmshare_version>
43012

> <i_f3d_flags>
0

> <s_epik_input>
W0NIMl0xW0NIMl1bQ0gyXVtDSDJdW0NIMl1bQ0hdMVtDSDJdQyg9TylbTkhdW0NIMl1bQ0gyXW4yW2NIXVtjSF1uW2NIXTI=

> <s_epik_cmdline>
J2VwaWtfcHl0aG9uJywgJy1waCcsICc3LjAnLCAnLXRuJywgJzgnLCAnLW1hJywgJzIwMCcsICctbWV0YWxfYmluZGluZycsICctaW1hZScsICc8aW5maWxlLm1hZT4nLCAnLW9tYWUnLCAnPG91dGZpbGUubWFlPic=

> <r_lp_tautomer_probability>
1

> <r_epik_Ionization_Penalty>
0.600603

> <r_epik_Ionization_Penalty_Charging>
0.600603

> <r_epik_Ionization_Penalty_Neutral>
2.18922e-08

> <r_epik_State_Penalty>
0.614954

> <r_epik_Charging_Adjusted_Penalty>
1.21556

> <i_epik_Tot_Q>
0

> <i_epik_Tot_abs_Q>
0

> <r_epik_Metal_State_Penalty>
0.301281

> <b_epik_Metal_Only>
0

> <s_lp_Force_Field>
OPLS_2005

> <r_lp_Energy>
10.0857

> <b_lp_Chiralities_Consistent>
1

> <s_lp_Variant>
AV-unprocessed.smi:822-2

> <Gold.Version>
5.8.1

> <Gold.Id.Protein>
6NUR|6NUR_protein|mol2

> <Gold.PLP.Fitness>
44.0715

> <Gold.PLP.PLP>
-33.1821

> <Gold.PLP.part.hbond>
-1.0000

> <Gold.PLP.part.metal>
0.0000

> <Gold.PLP.part.buried>
-0.5318

> <Gold.PLP.part.nonpolar>
-31.8873

> <Gold.PLP.part.repulsive>
0.4787

> <Gold.PLP.ligand.clash>
0.0000

> <Gold.PLP.ligand.torsion>
0.5404

> <Gold.PLP.Chemscore.Hbond>
0.9920

> <Gold.PLP.Chemscore.CHOScore>
2.9927

> <Gold.PLP.Chemscore.Metal>
0.0000

> <Gold.Chemscore.Hbonds>
donor molecule, donor type, donor heavy atom, donor atom, acceptor molecule, acceptor atom, score
      L1  H    10    31       P1 10171  1.00
      L1  C    14    36       P1 10186  1.00
      L1  C    15    37       P1 10952  1.00
      L1  C    17    38       P1 10747  0.97

> <Gold.PLP.Chemscore.Internal.Correction>
0.0162

> <Gold.Rescore>
     Score         DG    S(hbond)    S(metal)    S(lipo)     H(rot)  DE(clash)    DE(int)     intcor
     11.13     -12.67       0.96        0.00      77.11       1.97       0.20       1.35       ----

> <Gold.Chemscore.Fitness>
11.1264

> <Gold.Chemscore.DG>
-12.6739

> <Gold.Chemscore.ZeroCoef>
-5.4800

> <Gold.Chemscore.Hbond>
0.9620

> <Gold.Chemscore.Metal>
0.0000

> <Gold.Chemscore.Lipo>
77.1101

> <Gold.Chemscore.Internal_Hbond>
0.0000

> <Gold.Chemscore.DEClash>
0.1988

> <Gold.Chemscore.DEInternal>
1.3487

> <Gold.Chemscore.Rot>
1.9692

> <Gold.Chemscore.Internal.Correction>
   9.000000E+99

> <Gold.Chemscore.Hbonds>
donor molecule, donor type, donor heavy atom, donor atom, acceptor molecule, acceptor atom, score
      L1  H    10    31       P1 10171  0.99

> <Gold.Chemscore.Hbond.Weighted>
-3.2131

> <Gold.Chemscore.Metal.Weighted>
-0.0000

> <Gold.Chemscore.Lipo.Weighted>
-9.0219

> <Gold.Chemscore.Internal_Hbond.Weighted>
0.0000

> <Gold.Chemscore.DEClash.Weighted>
0.1988

> <Gold.Chemscore.DEInternal.Weighted>
1.3487

> <Gold.Chemscore.Rot.Weighted>
5.0410

> <Gold.Chemscore.Internal.Correction.Weighted>
   9.000000E+99

> <Gold.Protein.RotatedTorsions>
[ 6907 6896 6895 6894 ] final -116.73 input  -60.11 | X-H torsion
[ 7974 7965 7964 7962 ] final   -2.96 input  175.53 | X-H torsion
[ 8008 7997 7996 7995 ] final  113.65 input   59.86 | X-H torsion
[ 10167 10162 10161 10158 ] final  -88.50 input  -65.29 | X-H torsion
[ 10718 10713 10712 10709 ] final  152.63 input   66.30 | X-H torsion
[ 10763 10752 10751 10750 ] final  -44.07 input  -60.55 | X-H torsion
[ 11005 11000 10999 10996 ] final -122.58 input  -57.11 | X-H torsion

> <Gold.Protein.ActiveResidues>
 VAL166  LYS551  ARG553  GLY616  TRP617  ASP618  TYR619  PRO620  LYS621  CYS622 
 ASP623  PHE694  ASN695  SER759  ASP760  ASP761  ALA762  ILE779  LEU786  VAL792 
 PHE793  MET794  SER795  GLU796  ALA797  LYS798  CYS799  TRP800  GLU811  SER814 

> <Gold.Protein.RotatedAtoms>
  150.8079  133.8476  159.3196 H   0  0  0  0  0  0  0  0  0  0  0  0  # atno 6907 bound_to 6896
  151.6270  135.1025  160.0123 H   0  0  0  0  0  0  0  0  0  0  0  0  # atno 6908 bound_to 6896
  152.4170  133.7015  159.6483 H   0  0  0  0  0  0  0  0  0  0  0  0  # atno 6909 bound_to 6896
  146.2397  140.1650  142.8332 H   0  0  0  0  0  0  0  0  0  0  0  0  # atno 7974 bound_to 7965
  156.2271  140.2975  156.0095 H   0  0  0  0  0  0  0  0  0  0  0  0  # atno 8008 bound_to 7997
  155.2325  140.0419  157.2981 H   0  0  0  0  0  0  0  0  0  0  0  0  # atno 8009 bound_to 7997
  154.5934  140.2407  155.7897 H   0  0  0  0  0  0  0  0  0  0  0  0  # atno 8010 bound_to 7997
  140.3740  143.2780  151.9465 H   0  0  0  0  0  0  0  0  0  0  0  0  # atno 10167 bound_to 10162
  157.2553  131.0787  151.1702 H   0  0  0  0  0  0  0  0  0  0  0  0  # atno 10718 bound_to 10713
  154.0060  135.6687  153.4762 H   0  0  0  0  0  0  0  0  0  0  0  0  # atno 10763 bound_to 10752
  153.0641  135.5011  154.8157 H   0  0  0  0  0  0  0  0  0  0  0  0  # atno 10764 bound_to 10752
  154.7024  135.3081  154.9284 H   0  0  0  0  0  0  0  0  0  0  0  0  # atno 10765 bound_to 10752
  140.9985  134.0437  157.3568 H   0  0  0  0  0  0  0  0  0  0  0  0  # atno 11005 bound_to 11000
  145.0058  140.8671  143.5254 LP  0  0  0  0  0  0  0  0  0  0  0  0  # atno 17320 bound_to 7965
  145.1676  139.2422  143.5359 LP  0  0  0  0  0  0  0  0  0  0  0  0  # atno 17321 bound_to 7965
  139.4801  144.5880  151.7820 LP  0  0  0  0  0  0  0  0  0  0  0  0  # atno 17342 bound_to 10162
  140.5004  144.1177  150.5970 LP  0  0  0  0  0  0  0  0  0  0  0  0  # atno 17343 bound_to 10162
  157.3234  130.6948  149.6282 LP  0  0  0  0  0  0  0  0  0  0  0  0  # atno 17370 bound_to 10713
  155.9665  130.4329  150.4982 LP  0  0  0  0  0  0  0  0  0  0  0  0  # atno 17371 bound_to 10713
  139.9026  135.0170  156.7342 LP  0  0  0  0  0  0  0  0  0  0  0  0  # atno 17394 bound_to 11000
  140.6928  133.9375  155.7976 LP  0  0  0  0  0  0  0  0  0  0  0  0  # atno 17395 bound_to 11000

$$$$
