AV-unprocessed.smi:3220|AV-procd|sdf|12298|dock1
  -GOLD-   2272018143D 1   1.00000     0.00000
 Structure written by MMmdl.
 33 34  0  0  0  0  0  0  0  0  1 V2000
  149.9267  140.2898  157.8993 C   0  0  0  0  0  0  0  0  0  0  0  0
  151.4257  140.5913  157.7682 C   0  0  1  0  0  0  0  0  0  0  0  0
  151.8353  140.7610  156.2889 C   0  0  0  0  0  0  0  0  0  0  0  0
  151.5018  139.6055  155.4747 N   0  0  0  0  0  0  0  0  0  0  0  0
  151.9425  138.3054  155.6087 C   0  0  0  0  0  0  0  0  0  0  0  0
  151.3475  137.5714  154.6231 C   0  0  0  0  0  0  0  0  0  0  0  0
  150.5538  138.5241  153.9250 C   0  0  0  0  0  0  0  0  0  0  0  0
  150.6516  139.7414  154.4341 N   0  0  0  0  0  0  0  0  0  0  0  0
  151.7336  141.7976  158.5358 N   0  0  0  0  0  0  0  0  0  0  0  0
  152.7463  141.9390  159.4058 C   0  0  0  0  0  0  0  0  0  0  0  0
  153.5356  141.0336  159.6786 O   0  0  0  0  0  0  0  0  0  0  0  0
  152.8874  143.3212  160.0611 C   0  0  2  0  0  0  0  0  0  0  0  0
  151.6800  143.7100  160.9374 C   0  0  0  0  0  0  0  0  0  0  0  0
  151.1604  144.9939  160.3134 C   0  0  0  0  0  0  0  0  0  0  0  0
  151.6721  144.9089  158.8829 C   0  0  0  0  0  0  0  0  0  0  0  0
  152.9528  144.3156  159.0397 O   0  0  0  0  0  0  0  0  0  0  0  0
  149.6610  139.3811  157.3584 H   0  0  0  0  0  0  0  0  0  0  0  0
  149.3199  141.1035  157.4998 H   0  0  0  0  0  0  0  0  0  0  0  0
  149.6451  140.1441  158.9427 H   0  0  0  0  0  0  0  0  0  0  0  0
  151.9619  139.7379  158.1877 H   0  0  0  0  0  0  0  0  0  0  0  0
  151.3347  141.6297  155.8586 H   0  0  0  0  0  0  0  0  0  0  0  0
  152.9067  140.9498  156.2070 H   0  0  0  0  0  0  0  0  0  0  0  0
  152.6287  138.0131  156.3901 H   0  0  0  0  0  0  0  0  0  0  0  0
  151.4604  136.5149  154.4307 H   0  0  0  0  0  0  0  0  0  0  0  0
  149.9147  138.3686  153.0682 H   0  0  0  0  0  0  0  0  0  0  0  0
  151.1331  142.5951  158.3842 H   0  0  0  0  0  0  0  0  0  0  0  0
  153.8102  143.3660  160.6418 H   0  0  0  0  0  0  0  0  0  0  0  0
  150.9013  142.9453  160.9285 H   0  0  0  0  0  0  0  0  0  0  0  0
  151.9666  143.8635  161.9782 H   0  0  0  0  0  0  0  0  0  0  0  0
  150.0760  145.0902  160.3725 H   0  0  0  0  0  0  0  0  0  0  0  0
  151.6063  145.8553  160.8124 H   0  0  0  0  0  0  0  0  0  0  0  0
  151.0337  144.2652  158.2759 H   0  0  0  0  0  0  0  0  0  0  0  0
  151.7364  145.8837  158.3990 H   0  0  0  0  0  0  0  0  0  0  0  0
  1  2  1  0  0  0  0
  1 17  1  0  0  0  0
  1 18  1  0  0  0  0
  1 19  1  0  0  0  0
  2  3  1  0  0  0  0
  2  9  1  0  0  0  0
  2 20  1  0  0  0  0
  3  4  1  0  0  0  0
  3 21  1  0  0  0  0
  3 22  1  0  0  0  0
  4  8  1  0  0  0  0
  4  5  1  0  0  0  0
  5  6  2  0  0  0  0
  5 23  1  0  0  0  0
  6  7  1  0  0  0  0
  6 24  1  0  0  0  0
  7  8  2  0  0  0  0
  7 25  1  0  0  0  0
  9 10  1  0  0  0  0
  9 26  1  0  0  0  0
 10 11  2  0  0  0  0
 10 12  1  0  0  0  0
 12 16  1  0  0  0  0
 12 13  1  0  0  0  0
 12 27  1  0  0  0  0
 13 14  1  0  0  0  0
 13 28  1  0  0  0  0
 13 29  1  0  0  0  0
 14 15  1  0  0  0  0
 14 30  1  0  0  0  0
 14 31  1  0  0  0  0
 15 16  1  0  0  0  0
 15 32  1  0  0  0  0
 15 33  1  0  0  0  0
M  END
> <s_m_source_file>
AV-unprocessed.smi

> <i_m_source_file_index>
3220

> <i_lp_mmshare_version>
43012

> <i_f3d_flags>
0

> <s_epik_input>
bjFbY0hdW2NIXVtjSF1uMVtDSDJdW0NAQEhdKFtDSDNdKVtOSF1DKD1PKVtDQEBIXTJbQ0gyXVtDSDJdW0NIMl1PMg==

> <s_epik_cmdline>
J2VwaWtfcHl0aG9uJywgJy1waCcsICc3LjAnLCAnLXRuJywgJzgnLCAnLW1hJywgJzIwMCcsICctbWV0YWxfYmluZGluZycsICctaW1hZScsICc8aW5maWxlLm1hZT4nLCAnLW9tYWUnLCAnPG91dGZpbGUubWFlPic=

> <r_lp_tautomer_probability>
1

> <r_epik_Ionization_Penalty>
0.00033363

> <r_epik_Ionization_Penalty_Charging>
0

> <r_epik_Ionization_Penalty_Neutral>
0.00033363

> <r_epik_State_Penalty>
-0

> <r_epik_Charging_Adjusted_Penalty>
0

> <i_epik_Tot_Q>
0

> <i_epik_Tot_abs_Q>
0

> <r_epik_Metal_State_Penalty>
-0

> <b_epik_Metal_Only>
0

> <s_lp_Force_Field>
OPLS_2005

> <r_lp_Energy>
18.0853

> <b_lp_Chiralities_Consistent>
1

> <s_lp_Variant>
AV-unprocessed.smi:3220-2

> <Gold.Version>
5.8.1

> <Gold.Id.Protein>
6NUR|6NUR_protein|mol2

> <Gold.PLP.Fitness>
43.2744

> <Gold.PLP.PLP>
-34.9365

> <Gold.PLP.part.hbond>
-1.0000

> <Gold.PLP.part.metal>
0.0000

> <Gold.PLP.part.buried>
-5.0981

> <Gold.PLP.part.nonpolar>
-29.3686

> <Gold.PLP.part.repulsive>
0.2068

> <Gold.PLP.ligand.clash>
0.0000

> <Gold.PLP.ligand.torsion>
0.2039

> <Gold.PLP.Chemscore.Hbond>
1.0000

> <Gold.PLP.Chemscore.CHOScore>
1.9079

> <Gold.PLP.Chemscore.Metal>
0.0000

> <Gold.Chemscore.Hbonds>
donor molecule, donor type, donor heavy atom, donor atom, acceptor molecule, acceptor atom, score
      P1  H  7989  7998       L1     8  0.90
      L1  C     7    25       P1  7948  0.86
      L1  C     7    25       P1  7957  0.89

> <Gold.PLP.Chemscore.Internal.Correction>
0.0220

> <Gold.Rescore>
     Score         DG    S(hbond)    S(metal)    S(lipo)     H(rot)  DE(clash)    DE(int)     intcor
     13.83     -14.37       0.99        0.00      83.14       1.62       0.02       0.51       ----

> <Gold.Chemscore.Fitness>
13.8336

> <Gold.Chemscore.DG>
-14.3702

> <Gold.Chemscore.ZeroCoef>
-5.4800

> <Gold.Chemscore.Hbond>
0.9925

> <Gold.Chemscore.Metal>
0.0000

> <Gold.Chemscore.Lipo>
83.1391

> <Gold.Chemscore.Internal_Hbond>
0.0000

> <Gold.Chemscore.DEClash>
0.0237

> <Gold.Chemscore.DEInternal>
0.5129

> <Gold.Chemscore.Rot>
1.6219

> <Gold.Chemscore.Internal.Correction>
   9.000000E+99

> <Gold.Chemscore.Hbonds>
donor molecule, donor type, donor heavy atom, donor atom, acceptor molecule, acceptor atom, score
      P1  H  7989  7998       L1     8  0.16

> <Gold.Chemscore.Hbond.Weighted>
-3.3149

> <Gold.Chemscore.Metal.Weighted>
-0.0000

> <Gold.Chemscore.Lipo.Weighted>
-9.7273

> <Gold.Chemscore.Internal_Hbond.Weighted>
0.0000

> <Gold.Chemscore.DEClash.Weighted>
0.0237

> <Gold.Chemscore.DEInternal.Weighted>
0.5129

> <Gold.Chemscore.Rot.Weighted>
4.1520

> <Gold.Chemscore.Internal.Correction.Weighted>
   9.000000E+99

> <Gold.Protein.RotatedTorsions>
[ 6907 6896 6895 6894 ] final  -28.99 input  -60.11 | X-H torsion
[ 7974 7965 7964 7962 ] final -121.19 input  175.53 | X-H torsion
[ 8008 7997 7996 7995 ] final  -51.64 input   59.86 | X-H torsion
[ 10167 10162 10161 10158 ] final   13.65 input  -65.29 | X-H torsion
[ 10718 10713 10712 10709 ] final -107.65 input   66.30 | X-H torsion
[ 10763 10752 10751 10750 ] final -109.17 input  -60.55 | X-H torsion
[ 11005 11000 10999 10996 ] final  111.46 input  -57.11 | X-H torsion

> <Gold.Protein.ActiveResidues>
 VAL166  LYS551  ARG553  GLY616  TRP617  ASP618  TYR619  PRO620  LYS621  CYS622 
 ASP623  PHE694  ASN695  SER759  ASP760  ASP761  ALA762  ILE779  LEU786  VAL792 
 PHE793  MET794  SER795  GLU796  ALA797  LYS798  CYS799  TRP800  GLU811  SER814 

> <Gold.Protein.RotatedAtoms>
  151.1254  135.0102  159.8557 H   0  0  0  0  0  0  0  0  0  0  0  0  # atno 6907 bound_to 6896
  152.5449  134.1673  159.8592 H   0  0  0  0  0  0  0  0  0  0  0  0  # atno 6908 bound_to 6896
  151.1735  133.4724  159.2627 H   0  0  0  0  0  0  0  0  0  0  0  0  # atno 6909 bound_to 6896
  145.0431  140.8160  143.4254 H   0  0  0  0  0  0  0  0  0  0  0  0  # atno 7974 bound_to 7965
  154.4087  140.1243  156.4862 H   0  0  0  0  0  0  0  0  0  0  0  0  # atno 8008 bound_to 7997
  155.7036  140.3494  155.4924 H   0  0  0  0  0  0  0  0  0  0  0  0  # atno 8009 bound_to 7997
  155.9363  140.1079  157.1082 H   0  0  0  0  0  0  0  0  0  0  0  0  # atno 8010 bound_to 7997
  140.5988  143.8647  150.6944 H   0  0  0  0  0  0  0  0  0  0  0  0  # atno 10167 bound_to 10162
  156.0447  130.5673  150.7851 H   0  0  0  0  0  0  0  0  0  0  0  0  # atno 10718 bound_to 10713
  154.8178  135.4611  154.0691 H   0  0  0  0  0  0  0  0  0  0  0  0  # atno 10763 bound_to 10752
  153.2070  135.6877  153.8167 H   0  0  0  0  0  0  0  0  0  0  0  0  # atno 10764 bound_to 10752
  153.7631  135.3281  155.3317 H   0  0  0  0  0  0  0  0  0  0  0  0  # atno 10765 bound_to 10752
  139.8904  134.9508  156.6435 H   0  0  0  0  0  0  0  0  0  0  0  0  # atno 11005 bound_to 11000
  145.1623  139.2451  143.5385 LP  0  0  0  0  0  0  0  0  0  0  0  0  # atno 17320 bound_to 7965
  146.3511  140.1353  142.8596 LP  0  0  0  0  0  0  0  0  0  0  0  0  # atno 17321 bound_to 7965
  140.2188  143.3825  152.1660 LP  0  0  0  0  0  0  0  0  0  0  0  0  # atno 17342 bound_to 10162
  139.5276  144.7122  151.5171 LP  0  0  0  0  0  0  0  0  0  0  0  0  # atno 17343 bound_to 10162
  157.5308  131.0936  150.9958 LP  0  0  0  0  0  0  0  0  0  0  0  0  # atno 17370 bound_to 10713
  157.0264  130.5694  149.5337 LP  0  0  0  0  0  0  0  0  0  0  0  0  # atno 17371 bound_to 10713
  140.7575  133.8845  155.8393 LP  0  0  0  0  0  0  0  0  0  0  0  0  # atno 17394 bound_to 11000
  140.9949  134.1228  157.4373 LP  0  0  0  0  0  0  0  0  0  0  0  0  # atno 17395 bound_to 11000

$$$$
