AV-unprocessed.smi:3136|AV-procd|sdf|11948|dock1
  -GOLD-   2272017343D 1   1.00000     0.00000
 Structure written by MMmdl.
 40 40  0  0  0  0  0  0  0  0  2 V2000
  146.5939  139.0665  150.8024 C   0  0  0  0  0  0  0  0  0  0  0  0
  146.8743  138.7443  152.2763 C   0  0  0  0  0  0  0  0  0  0  0  0
  147.4396  139.8907  152.9789 N   0  0  0  0  0  0  0  0  0  0  0  0
  146.9908  140.3808  154.1446 C   0  0  0  0  0  0  0  0  0  0  0  0
  146.0341  139.9018  154.7540 O   0  0  0  0  0  0  0  0  0  0  0  0
  147.7434  141.5983  154.6923 C   0  0  0  0  0  0  0  0  0  0  0  0
  149.2674  141.3972  154.7691 C   0  0  0  0  0  0  0  0  0  0  0  0
  149.7896  141.8254  156.0841 N   0  3  0  0  0  0  0  0  0  0  0  0
  151.1881  141.4301  156.3723 C   0  0  2  0  0  0  0  0  0  0  0  0
  151.5195  140.0949  155.6721 C   0  0  0  0  0  0  0  0  0  0  0  0
  151.4113  141.3753  157.9079 C   0  0  2  0  0  0  0  0  0  0  0  0
  150.2776  140.6349  158.6441 C   0  0  0  0  0  0  0  0  0  0  0  0
  151.5978  142.6997  158.4879 N   0  0  0  0  0  0  0  0  0  0  0  0
  151.4093  143.9290  157.8900 C   0  0  0  0  0  0  0  0  0  0  0  0
  151.7076  144.8850  158.8180 C   0  0  0  0  0  0  0  0  0  0  0  0
  152.0786  144.1357  159.9689 C   0  0  0  0  0  0  0  0  0  0  0  0
  152.0134  142.8295  159.7684 N   0  0  0  0  0  0  0  0  0  0  0  0
  146.2132  138.1885  150.2804 H   0  0  0  0  0  0  0  0  0  0  0  0
  147.5005  139.3898  150.2896 H   0  0  0  0  0  0  0  0  0  0  0  0
  145.8503  139.8578  150.7025 H   0  0  0  0  0  0  0  0  0  0  0  0
  145.9628  138.4066  152.7720 H   0  0  0  0  0  0  0  0  0  0  0  0
  147.5860  137.9212  152.3429 H   0  0  0  0  0  0  0  0  0  0  0  0
  148.2302  140.3441  152.5441 H   0  0  0  0  0  0  0  0  0  0  0  0
  147.5173  142.4571  154.0587 H   0  0  0  0  0  0  0  0  0  0  0  0
  147.3508  141.8259  155.6844 H   0  0  0  0  0  0  0  0  0  0  0  0
  149.5116  140.3483  154.6006 H   0  0  0  0  0  0  0  0  0  0  0  0
  149.7610  141.9752  153.9863 H   0  0  0  0  0  0  0  0  0  0  0  0
  149.7510  142.8346  156.1035 H   0  0  0  0  0  0  0  0  0  0  0  0
  151.8478  142.1991  155.9670 H   0  0  0  0  0  0  0  0  0  0  0  0
  152.5624  139.8109  155.8127 H   0  0  0  0  0  0  0  0  0  0  0  0
  151.3592  140.1500  154.5960 H   0  0  0  0  0  0  0  0  0  0  0  0
  150.9010  139.2838  156.0580 H   0  0  0  0  0  0  0  0  0  0  0  0
  152.3356  140.8246  158.0917 H   0  0  0  0  0  0  0  0  0  0  0  0
  150.2009  139.5957  158.3241 H   0  0  0  0  0  0  0  0  0  0  0  0
  149.3104  141.1070  158.4681 H   0  0  0  0  0  0  0  0  0  0  0  0
  150.4507  140.6281  159.7208 H   0  0  0  0  0  0  0  0  0  0  0  0
  151.0810  144.0221  156.8651 H   0  0  0  0  0  0  0  0  0  0  0  0
  151.6687  145.9571  158.6937 H   0  0  0  0  0  0  0  0  0  0  0  0
  152.3911  144.4995  160.9366 H   0  0  0  0  0  0  0  0  0  0  0  0
  149.1917  141.4687  156.8159 H   0  0  0  0  0  0  0  0  0  0  0  0
  1  2  1  0  0  0  0
  1 18  1  0  0  0  0
  1 19  1  0  0  0  0
  1 20  1  0  0  0  0
  2  3  1  0  0  0  0
  2 21  1  0  0  0  0
  2 22  1  0  0  0  0
  3  4  1  0  0  0  0
  3 23  1  0  0  0  0
  4  5  2  0  0  0  0
  4  6  1  0  0  0  0
  6  7  1  0  0  0  0
  6 24  1  0  0  0  0
  6 25  1  0  0  0  0
  7  8  1  0  0  0  0
  7 26  1  0  0  0  0
  7 27  1  0  0  0  0
  8  9  1  0  0  0  0
  8 28  1  0  0  0  0
  8 40  1  0  0  0  0
  9 10  1  0  0  0  0
  9 11  1  0  0  0  0
  9 29  1  0  0  0  0
 10 30  1  0  0  0  0
 10 31  1  0  0  0  0
 10 32  1  0  0  0  0
 11 12  1  0  0  0  0
 11 13  1  0  0  0  0
 11 33  1  0  0  0  0
 12 34  1  0  0  0  0
 12 35  1  0  0  0  0
 12 36  1  0  0  0  0
 13 17  1  0  0  0  0
 13 14  1  0  0  0  0
 14 15  2  0  0  0  0
 14 37  1  0  0  0  0
 15 16  1  0  0  0  0
 15 38  1  0  0  0  0
 16 17  2  0  0  0  0
 16 39  1  0  0  0  0
M  CHG  1   8   1
M  END
> <s_m_source_file>
AV-unprocessed.smi

> <i_m_source_file_index>
3136

> <i_lp_mmshare_version>
43012

> <i_f3d_flags>
0

> <s_epik_input>
W0NIM11bQ0gyXVtOSF1DKD1PKVtDSDJdW0NIMl1bTkhdW0NASF0oW0NIM10pW0NASF0oW0NIM10pbjFbY0hdW2NIXVtjSF1uMQ==

> <s_epik_cmdline>
J2VwaWtfcHl0aG9uJywgJy1waCcsICc3LjAnLCAnLXRuJywgJzgnLCAnLW1hJywgJzIwMCcsICctbWV0YWxfYmluZGluZycsICctaW1hZScsICc8aW5maWxlLm1hZT4nLCAnLW9tYWUnLCAnPG91dGZpbGUubWFlPic=

> <r_lp_tautomer_probability>
1

> <r_epik_Ionization_Penalty>
0.00463447

> <r_epik_Ionization_Penalty_Charging>
0.00462393

> <r_epik_Ionization_Penalty_Neutral>
1.05394e-05

> <r_epik_State_Penalty>
-0

> <r_epik_Charging_Adjusted_Penalty>
0.00462393

> <i_epik_Tot_Q>
1

> <i_epik_Tot_abs_Q>
1

> <r_epik_Metal_State_Penalty>
-0

> <b_epik_Metal_Only>
0

> <s_lp_Force_Field>
OPLS_2005

> <r_lp_Energy>
10.4266

> <b_lp_Chiralities_Consistent>
1

> <s_lp_Variant>
AV-unprocessed.smi:3136-1

> <Gold.Version>
5.8.1

> <Gold.Id.Protein>
6NUR|6NUR_protein|mol2

> <Gold.PLP.Fitness>
47.2751

> <Gold.PLP.PLP>
-37.6855

> <Gold.PLP.part.hbond>
-2.0000

> <Gold.PLP.part.metal>
0.0000

> <Gold.PLP.part.buried>
-0.2631

> <Gold.PLP.part.nonpolar>
-35.3146

> <Gold.PLP.part.repulsive>
0.2450

> <Gold.PLP.ligand.clash>
0.0000

> <Gold.PLP.ligand.torsion>
1.2164

> <Gold.PLP.Chemscore.Hbond>
2.8960

> <Gold.PLP.Chemscore.CHOScore>
0.9898

> <Gold.PLP.Chemscore.Metal>
0.0000

> <Gold.Chemscore.Hbonds>
donor molecule, donor type, donor heavy atom, donor atom, acceptor molecule, acceptor atom, score
      L1  H     3    23       P1  7957  0.82
      L1  H     8    28       P1  8028  1.56
      L1  C    14    37       P1  8028  0.89

> <Gold.PLP.Chemscore.Internal.Correction>
0.3650

> <Gold.Rescore>
     Score         DG    S(hbond)    S(metal)    S(lipo)     H(rot)  DE(clash)    DE(int)     intcor
     14.45     -17.23       1.79        0.00     100.04       2.32       1.55       1.23       ----

> <Gold.Chemscore.Fitness>
14.4471

> <Gold.Chemscore.DG>
-17.2282

> <Gold.Chemscore.ZeroCoef>
-5.4800

> <Gold.Chemscore.Hbond>
1.7879

> <Gold.Chemscore.Metal>
0.0000

> <Gold.Chemscore.Lipo>
100.0443

> <Gold.Chemscore.Internal_Hbond>
0.0000

> <Gold.Chemscore.DEClash>
1.5480

> <Gold.Chemscore.DEInternal>
1.2331

> <Gold.Chemscore.Rot>
2.3159

> <Gold.Chemscore.Internal.Correction>
   9.000000E+99

> <Gold.Chemscore.Hbonds>
donor molecule, donor type, donor heavy atom, donor atom, acceptor molecule, acceptor atom, score
      L1  H     3    23       P1  7957  0.80
      L1  H     8    28       P1  8028  0.75

> <Gold.Chemscore.Hbond.Weighted>
-5.9716

> <Gold.Chemscore.Metal.Weighted>
-0.0000

> <Gold.Chemscore.Lipo.Weighted>
-11.7052

> <Gold.Chemscore.Internal_Hbond.Weighted>
0.0000

> <Gold.Chemscore.DEClash.Weighted>
1.5480

> <Gold.Chemscore.DEInternal.Weighted>
1.2331

> <Gold.Chemscore.Rot.Weighted>
5.9286

> <Gold.Chemscore.Internal.Correction.Weighted>
   9.000000E+99

> <Gold.Protein.RotatedTorsions>
[ 6907 6896 6895 6894 ] final  -82.09 input  -60.11 | X-H torsion
[ 7974 7965 7964 7962 ] final  -49.70 input  175.53 | X-H torsion
[ 8008 7997 7996 7995 ] final   78.24 input   59.86 | X-H torsion
[ 10167 10162 10161 10158 ] final  139.49 input  -65.29 | X-H torsion
[ 10718 10713 10712 10709 ] final -125.72 input   66.30 | X-H torsion
[ 10763 10752 10751 10750 ] final   19.50 input  -60.55 | X-H torsion
[ 11005 11000 10999 10996 ] final    6.06 input  -57.11 | X-H torsion

> <Gold.Protein.ActiveResidues>
 VAL166  LYS551  ARG553  GLY616  TRP617  ASP618  TYR619  PRO620  LYS621  CYS622 
 ASP623  PHE694  ASN695  SER759  ASP760  ASP761  ALA762  ILE779  LEU786  VAL792 
 PHE793  MET794  SER795  GLU796  ALA797  LYS798  CYS799  TRP800  GLU811  SER814 

> <Gold.Protein.RotatedAtoms>
  150.6902  134.3717  159.4994 H   0  0  0  0  0  0  0  0  0  0  0  0  # atno 6907 bound_to 6896
  152.1532  134.8969  160.0556 H   0  0  0  0  0  0  0  0  0  0  0  0  # atno 6908 bound_to 6896
  152.0058  133.3808  159.4237 H   0  0  0  0  0  0  0  0  0  0  0  0  # atno 6909 bound_to 6896
  145.9378  140.7690  142.9567 H   0  0  0  0  0  0  0  0  0  0  0  0  # atno 7974 bound_to 7965
  155.8530  140.3457  155.5706 H   0  0  0  0  0  0  0  0  0  0  0  0  # atno 8008 bound_to 7997
  155.8017  140.0886  157.1973 H   0  0  0  0  0  0  0  0  0  0  0  0  # atno 8009 bound_to 7997
  154.4008  140.1464  156.3270 H   0  0  0  0  0  0  0  0  0  0  0  0  # atno 8010 bound_to 7997
  139.5077  144.6291  151.5861 H   0  0  0  0  0  0  0  0  0  0  0  0  # atno 10167 bound_to 10162
  156.1701  130.6661  151.0168 H   0  0  0  0  0  0  0  0  0  0  0  0  # atno 10718 bound_to 10713
  153.1157  135.6707  153.9423 H   0  0  0  0  0  0  0  0  0  0  0  0  # atno 10763 bound_to 10752
  153.8953  135.3042  155.3449 H   0  0  0  0  0  0  0  0  0  0  0  0  # atno 10764 bound_to 10752
  154.7573  135.5005  153.9477 H   0  0  0  0  0  0  0  0  0  0  0  0  # atno 10765 bound_to 10752
  140.5637  134.0168  155.7981 H   0  0  0  0  0  0  0  0  0  0  0  0  # atno 11005 bound_to 11000
  144.6774  140.2231  143.7364 LP  0  0  0  0  0  0  0  0  0  0  0  0  # atno 17320 bound_to 7965
  145.8341  139.2099  143.1866 LP  0  0  0  0  0  0  0  0  0  0  0  0  # atno 17321 bound_to 7965
  140.6018  143.9595  150.6391 LP  0  0  0  0  0  0  0  0  0  0  0  0  # atno 17342 bound_to 10162
  140.2809  143.3390  152.1151 LP  0  0  0  0  0  0  0  0  0  0  0  0  # atno 17343 bound_to 10162
  157.6796  131.0841  150.7404 LP  0  0  0  0  0  0  0  0  0  0  0  0  # atno 17370 bound_to 10713
  156.7464  130.4755  149.5466 LP  0  0  0  0  0  0  0  0  0  0  0  0  # atno 17371 bound_to 10713
  141.1099  133.9634  157.2930 LP  0  0  0  0  0  0  0  0  0  0  0  0  # atno 17394 bound_to 11000
  139.9395  135.0193  156.8663 LP  0  0  0  0  0  0  0  0  0  0  0  0  # atno 17395 bound_to 11000

$$$$
