AV-unprocessed.smi:851|AV-procd|sdf|3950|dock4
  -GOLD-   22720 1423D 1   1.00000     0.00000
 Structure written by MMmdl.
 34 35  0  0  0  0  0  0  0  0  1 V2000
  151.7141  138.4635  155.0483 C   0  0  0  0  0  0  0  0  0  0  0  0
  150.3896  138.2465  154.5754 O   0  0  0  0  0  0  0  0  0  0  0  0
  149.5677  139.3415  154.3858 C   0  0  0  0  0  0  0  0  0  0  0  0
  150.0347  140.5681  154.7290 N   0  0  0  0  0  0  0  0  0  0  0  0
  149.2296  141.6353  154.5474 C   0  0  0  0  0  0  0  0  0  0  0  0
  147.9265  141.5375  154.0257 C   0  0  0  0  0  0  0  0  0  0  0  0
  147.4403  140.2663  153.6686 C   0  0  0  0  0  0  0  0  0  0  0  0
  148.2791  139.1387  153.8400 C   0  0  0  0  0  0  0  0  0  0  0  0
  147.8901  137.8068  153.5324 N   0  0  0  0  0  0  0  0  0  0  0  0
  146.7457  137.3604  152.9802 C   0  0  0  0  0  0  0  0  0  0  0  0
  145.7933  138.0709  152.6667 O   0  0  0  0  0  0  0  0  0  0  0  0
  146.7244  136.0325  152.7647 N   0  0  0  0  0  0  0  0  0  0  0  0
  145.6467  135.2284  152.1849 C   0  0  1  0  0  0  0  0  0  0  0  0
  145.2633  135.7451  150.7858 C   0  0  0  0  0  0  0  0  0  0  0  0
  144.3975  134.6870  150.0901 C   0  0  0  0  0  0  0  0  0  0  0  0
  144.9508  133.0658  150.7438 S   0  0  0  0  0  0  0  0  0  0  0  0
  143.8063  132.3922  151.3758 O   0  0  0  0  0  0  0  0  0  0  0  0
  145.7720  132.3791  149.7354 O   0  0  0  0  0  0  0  0  0  0  0  0
  146.0450  133.7499  152.0431 C   0  0  0  0  0  0  0  0  0  0  0  0
  152.2248  137.5049  155.1395 H   0  0  0  0  0  0  0  0  0  0  0  0
  151.7141  138.9332  156.0329 H   0  0  0  0  0  0  0  0  0  0  0  0
  152.2897  139.0799  154.3562 H   0  0  0  0  0  0  0  0  0  0  0  0
  149.6342  142.5953  154.8321 H   0  0  0  0  0  0  0  0  0  0  0  0
  147.3120  142.4174  153.9064 H   0  0  0  0  0  0  0  0  0  0  0  0
  146.4349  140.1826  153.2867 H   0  0  0  0  0  0  0  0  0  0  0  0
  148.6087  137.1111  153.6705 H   0  0  0  0  0  0  0  0  0  0  0  0
  147.5617  135.5261  153.0151 H   0  0  0  0  0  0  0  0  0  0  0  0
  144.7552  135.2952  152.8114 H   0  0  0  0  0  0  0  0  0  0  0  0
  144.7547  136.7085  150.8339 H   0  0  0  0  0  0  0  0  0  0  0  0
  146.1700  135.8936  150.1973 H   0  0  0  0  0  0  0  0  0  0  0  0
  143.3469  134.8138  150.3525 H   0  0  0  0  0  0  0  0  0  0  0  0
  144.4902  134.7088  149.0041 H   0  0  0  0  0  0  0  0  0  0  0  0
  147.0744  133.6506  151.6967 H   0  0  0  0  0  0  0  0  0  0  0  0
  145.9320  133.1796  152.9654 H   0  0  0  0  0  0  0  0  0  0  0  0
  1  2  1  0  0  0  0
  1 20  1  0  0  0  0
  1 21  1  0  0  0  0
  1 22  1  0  0  0  0
  2  3  1  0  0  0  0
  3  8  1  0  0  0  0
  3  4  2  0  0  0  0
  4  5  1  0  0  0  0
  5  6  2  0  0  0  0
  5 23  1  0  0  0  0
  6  7  1  0  0  0  0
  6 24  1  0  0  0  0
  7  8  2  0  0  0  0
  7 25  1  0  0  0  0
  8  9  1  0  0  0  0
  9 10  1  0  0  0  0
  9 26  1  0  0  0  0
 10 11  2  0  0  0  0
 10 12  1  0  0  0  0
 12 13  1  0  0  0  0
 12 27  1  0  0  0  0
 13 19  1  0  0  0  0
 13 14  1  0  0  0  0
 13 28  1  0  0  0  0
 14 15  1  0  0  0  0
 14 29  1  0  0  0  0
 14 30  1  0  0  0  0
 15 16  1  0  0  0  0
 15 31  1  0  0  0  0
 15 32  1  0  0  0  0
 16 17  2  0  0  0  0
 16 18  2  0  0  0  0
 16 19  1  0  0  0  0
 19 33  1  0  0  0  0
 19 34  1  0  0  0  0
M  END
> <s_m_source_file>
AV-unprocessed.smi

> <i_m_source_file_index>
851

> <i_lp_mmshare_version>
43012

> <i_f3d_flags>
0

> <s_epik_input>
W0NIM11PYzFuW2NIXVtjSF1bY0hdYzFbTkhdQyg9TylbTkhdW0NAQEhdKFtDSDJdMilbQ0gyXVtDSDJdUzIoPU8pPU8=

> <s_epik_cmdline>
J2VwaWtfcHl0aG9uJywgJy1waCcsICc3LjAnLCAnLXRuJywgJzgnLCAnLW1hJywgJzIwMCcsICctbWV0YWxfYmluZGluZycsICctaW1hZScsICc8aW5maWxlLm1hZT4nLCAnLW9tYWUnLCAnPG91dGZpbGUubWFlPic=

> <r_lp_tautomer_probability>
1

> <r_epik_Ionization_Penalty>
7.64927e-05

> <r_epik_Ionization_Penalty_Charging>
0

> <r_epik_Ionization_Penalty_Neutral>
7.64927e-05

> <r_epik_State_Penalty>
-0

> <r_epik_Charging_Adjusted_Penalty>
0

> <i_epik_Tot_Q>
0

> <i_epik_Tot_abs_Q>
0

> <r_epik_Metal_State_Penalty>
-0

> <b_epik_Metal_Only>
0

> <s_lp_Force_Field>
OPLS_2005

> <r_lp_Energy>
17.9576

> <b_lp_Chiralities_Consistent>
1

> <s_lp_Variant>
AV-unprocessed.smi:851-2

> <Gold.Version>
5.8.1

> <Gold.Id.Protein>
6NUR|6NUR_protein|mol2

> <Gold.PLP.Fitness>
35.9465

> <Gold.PLP.PLP>
-29.1564

> <Gold.PLP.part.hbond>
-2.0407

> <Gold.PLP.part.metal>
0.0000

> <Gold.PLP.part.buried>
0.0858

> <Gold.PLP.part.nonpolar>
-27.2255

> <Gold.PLP.part.repulsive>
0.9904

> <Gold.PLP.ligand.clash>
0.0000

> <Gold.PLP.ligand.torsion>
0.0256

> <Gold.PLP.Chemscore.Hbond>
1.2800

> <Gold.PLP.Chemscore.CHOScore>
1.0000

> <Gold.PLP.Chemscore.Metal>
0.0000

> <Gold.Chemscore.Hbonds>
donor molecule, donor type, donor heavy atom, donor atom, acceptor molecule, acceptor atom, score
      L1  H     9    26       P1  7948  0.16
      L1  H    12    27       P1  7948  0.11
      P1  H  7989  7998       L1     4  0.87
      L1  C     5    23       P1  8028  1.00

> <Gold.PLP.Chemscore.Internal.Correction>
0.0013

> <Gold.Rescore>
     Score         DG    S(hbond)    S(metal)    S(lipo)     H(rot)  DE(clash)    DE(int)     intcor
      8.38     -11.41       0.80        0.00      56.43       1.31       1.79       1.24       ----

> <Gold.Chemscore.Fitness>
8.3829

> <Gold.Chemscore.DG>
-11.4138

> <Gold.Chemscore.ZeroCoef>
-5.4800

> <Gold.Chemscore.Hbond>
0.8046

> <Gold.Chemscore.Metal>
0.0000

> <Gold.Chemscore.Lipo>
56.4292

> <Gold.Chemscore.Internal_Hbond>
0.0000

> <Gold.Chemscore.DEClash>
1.7882

> <Gold.Chemscore.DEInternal>
1.2427

> <Gold.Chemscore.Rot>
1.3109

> <Gold.Chemscore.Internal.Correction>
   9.000000E+99

> <Gold.Chemscore.Hbonds>
donor molecule, donor type, donor heavy atom, donor atom, acceptor molecule, acceptor atom, score
      L1  H     9    26       P1  7948  0.16
      L1  H    12    27       P1  7948  0.13
      P1  H  7989  7998       L1     4  0.20

> <Gold.Chemscore.Hbond.Weighted>
-2.6875

> <Gold.Chemscore.Metal.Weighted>
-0.0000

> <Gold.Chemscore.Lipo.Weighted>
-6.6022

> <Gold.Chemscore.Internal_Hbond.Weighted>
0.0000

> <Gold.Chemscore.DEClash.Weighted>
1.7882

> <Gold.Chemscore.DEInternal.Weighted>
1.2427

> <Gold.Chemscore.Rot.Weighted>
3.3559

> <Gold.Chemscore.Internal.Correction.Weighted>
   9.000000E+99

> <Gold.Protein.RotatedTorsions>
[ 6907 6896 6895 6894 ] final  -85.73 input  -60.11 | X-H torsion
[ 7974 7965 7964 7962 ] final  168.75 input  175.53 | X-H torsion
[ 8008 7997 7996 7995 ] final   92.52 input   59.86 | X-H torsion
[ 10167 10162 10161 10158 ] final   60.89 input  -65.29 | X-H torsion
[ 10718 10713 10712 10709 ] final  -45.28 input   66.30 | X-H torsion
[ 10763 10752 10751 10750 ] final -175.32 input  -60.55 | X-H torsion
[ 11005 11000 10999 10996 ] final   46.23 input  -57.11 | X-H torsion

> <Gold.Protein.ActiveResidues>
 VAL166  LYS551  ARG553  GLY616  TRP617  ASP618  TYR619  PRO620  LYS621  CYS622 
 ASP623  PHE694  ASN695  SER759  ASP760  ASP761  ALA762  ILE779  LEU786  VAL792 
 PHE793  MET794  SER795  GLU796  ALA797  LYS798  CYS799  TRP800  GLU811  SER814 

> <Gold.Protein.RotatedAtoms>
  150.6869  134.3159  159.4765 H   0  0  0  0  0  0  0  0  0  0  0  0  # atno 6907 bound_to 6896
  152.1040  134.9319  160.0578 H   0  0  0  0  0  0  0  0  0  0  0  0  # atno 6908 bound_to 6896
  152.0587  133.4017  159.4445 H   0  0  0  0  0  0  0  0  0  0  0  0  # atno 6909 bound_to 6896
  144.7378  139.8953  143.6406 H   0  0  0  0  0  0  0  0  0  0  0  0  # atno 7974 bound_to 7965
  156.0363  140.3324  155.7194 H   0  0  0  0  0  0  0  0  0  0  0  0  # atno 8008 bound_to 7997
  155.5811  140.0637  157.2800 H   0  0  0  0  0  0  0  0  0  0  0  0  # atno 8009 bound_to 7997
  154.4374  140.1844  156.0965 H   0  0  0  0  0  0  0  0  0  0  0  0  # atno 8010 bound_to 7997
  140.1607  144.4373  150.6711 H   0  0  0  0  0  0  0  0  0  0  0  0  # atno 10167 bound_to 10162
  156.2300  130.4172  149.8887 H   0  0  0  0  0  0  0  0  0  0  0  0  # atno 10718 bound_to 10713
  154.5858  135.2840  155.0686 H   0  0  0  0  0  0  0  0  0  0  0  0  # atno 10763 bound_to 10752
  154.2006  135.6425  153.5089 H   0  0  0  0  0  0  0  0  0  0  0  0  # atno 10764 bound_to 10752
  153.0104  135.5468  154.6527 H   0  0  0  0  0  0  0  0  0  0  0  0  # atno 10765 bound_to 10752
  140.1388  134.4610  155.8465 H   0  0  0  0  0  0  0  0  0  0  0  0  # atno 11005 bound_to 11000
  146.1111  139.4117  143.0287 LP  0  0  0  0  0  0  0  0  0  0  0  0  # atno 17320 bound_to 7965
  145.7441  140.9997  143.1285 LP  0  0  0  0  0  0  0  0  0  0  0  0  # atno 17321 bound_to 7965
  140.6645  143.2263  151.5777 LP  0  0  0  0  0  0  0  0  0  0  0  0  # atno 17342 bound_to 10162
  139.5382  144.2720  152.1297 LP  0  0  0  0  0  0  0  0  0  0  0  0  # atno 17343 bound_to 10162
  156.6504  130.8741  151.3530 LP  0  0  0  0  0  0  0  0  0  0  0  0  # atno 17370 bound_to 10713
  157.7128  130.9461  150.1150 LP  0  0  0  0  0  0  0  0  0  0  0  0  # atno 17371 bound_to 10713
  141.2182  133.6825  156.7208 LP  0  0  0  0  0  0  0  0  0  0  0  0  # atno 17394 bound_to 11000
  140.2748  134.8363  157.3880 LP  0  0  0  0  0  0  0  0  0  0  0  0  # atno 17395 bound_to 11000

$$$$
