AV-unprocessed.smi:37|AV-procd|sdf|332|dock6
  -GOLD-   2262016163D 1   1.00000     0.00000
 Structure written by MMmdl.
 43 44  0  0  0  0  0  0  0  0  2 V2000
  146.1047  142.1111  154.8909 C   0  0  0  0  0  0  0  0  0  0  0  0
  147.3755  142.0368  154.0317 C   0  0  0  0  0  0  0  0  0  0  0  0
  148.5352  141.3076  154.7134 C   0  0  0  0  0  0  0  0  0  0  0  0
  149.6459  141.1963  154.1912 O   0  0  0  0  0  0  0  0  0  0  0  0
  148.1844  140.8264  155.9141 O   0  0  0  0  0  0  0  0  0  0  0  0
  149.1574  140.7018  156.9387 C   0  0  0  0  0  0  0  0  0  0  0  0
  149.6677  139.2561  156.9711 C   0  0  1  0  0  0  0  0  0  0  0  0
  151.0894  139.2090  156.8474 O   0  0  0  0  0  0  0  0  0  0  0  0
  151.6260  138.2299  157.6941 C   0  0  1  0  0  0  0  0  0  0  0  0
  152.4347  138.8928  158.7923 N   0  0  0  0  0  0  0  0  0  0  0  0
  152.5511  140.2709  158.8773 C   0  0  0  0  0  0  0  0  0  0  0  0
  153.2710  140.8540  159.8575 C   0  0  0  0  0  0  0  0  0  0  0  0
  153.3641  142.1938  159.9129 F   0  0  0  0  0  0  0  0  0  0  0  0
  153.9457  140.0227  160.8524 C   0  0  0  0  0  0  0  0  0  0  0  0
  154.6040  140.5598  161.7420 O   0  0  0  0  0  0  0  0  0  0  0  0
  153.8121  138.6690  160.7476 N   0  5  0  0  0  0  0  0  0  0  0  0
  153.0818  138.0744  159.7593 C   0  0  0  0  0  0  0  0  0  0  0  0
  152.9478  136.8543  159.6640 O   0  0  0  0  0  0  0  0  0  0  0  0
  150.4469  137.4604  158.2981 C   0  0  2  0  0  0  0  0  0  0  0  0
  149.9940  135.9239  157.1068 Br  0  0  0  0  0  0  0  0  0  0  0  0
  149.3519  138.5134  158.2687 C   0  0  2  0  0  0  0  0  0  0  0  0
  148.0473  137.9500  158.2496 O   0  0  0  0  0  0  0  0  0  0  0  0
  147.6004  137.2399  159.2993 C   0  0  0  0  0  0  0  0  0  0  0  0
  148.1701  137.1150  160.3834 O   0  0  0  0  0  0  0  0  0  0  0  0
  146.2563  136.5704  159.0247 C   0  0  0  0  0  0  0  0  0  0  0  0
  145.1698  137.0303  160.0060 C   0  0  0  0  0  0  0  0  0  0  0  0
  145.3113  142.6337  154.3564 H   0  0  0  0  0  0  0  0  0  0  0  0
  146.2847  142.6494  155.8222 H   0  0  0  0  0  0  0  0  0  0  0  0
  145.7336  141.1164  155.1403 H   0  0  0  0  0  0  0  0  0  0  0  0
  147.1530  141.5296  153.0925 H   0  0  0  0  0  0  0  0  0  0  0  0
  147.7040  143.0443  153.7749 H   0  0  0  0  0  0  0  0  0  0  0  0
  149.9821  141.3845  156.7301 H   0  0  0  0  0  0  0  0  0  0  0  0
  148.7351  140.9805  157.9050 H   0  0  0  0  0  0  0  0  0  0  0  0
  149.2645  138.7037  156.1205 H   0  0  0  0  0  0  0  0  0  0  0  0
  152.3365  137.6076  157.1476 H   0  0  0  0  0  0  0  0  0  0  0  0
  152.0630  140.9060  158.1555 H   0  0  0  0  0  0  0  0  0  0  0  0
  150.6604  137.0705  159.2939 H   0  0  0  0  0  0  0  0  0  0  0  0
  149.4788  139.2006  159.1072 H   0  0  0  0  0  0  0  0  0  0  0  0
  145.9524  136.7960  158.0022 H   0  0  0  0  0  0  0  0  0  0  0  0
  146.3827  135.4893  159.0860 H   0  0  0  0  0  0  0  0  0  0  0  0
  144.2130  136.5682  159.7629 H   0  0  0  0  0  0  0  0  0  0  0  0
  145.0337  138.1116  159.9696 H   0  0  0  0  0  0  0  0  0  0  0  0
  145.4160  136.7565  161.0325 H   0  0  0  0  0  0  0  0  0  0  0  0
  1  2  1  0  0  0  0
  1 27  1  0  0  0  0
  1 28  1  0  0  0  0
  1 29  1  0  0  0  0
  2  3  1  0  0  0  0
  2 30  1  0  0  0  0
  2 31  1  0  0  0  0
  3  4  2  0  0  0  0
  3  5  1  0  0  0  0
  5  6  1  0  0  0  0
  6  7  1  0  0  0  0
  6 32  1  0  0  0  0
  6 33  1  0  0  0  0
  7 21  1  0  0  0  0
  7  8  1  0  0  0  0
  7 34  1  0  0  0  0
  8  9  1  0  0  0  0
  9 10  1  0  0  0  0
  9 19  1  0  0  0  0
  9 35  1  0  0  0  0
 10 17  1  0  0  0  0
 10 11  1  0  0  0  0
 11 12  2  0  0  0  0
 11 36  1  0  0  0  0
 12 13  1  0  0  0  0
 12 14  1  0  0  0  0
 14 15  2  0  0  0  0
 14 16  1  0  0  0  0
 16 17  1  0  0  0  0
 17 18  2  0  0  0  0
 19 20  1  0  0  0  0
 19 21  1  0  0  0  0
 19 37  1  0  0  0  0
 21 22  1  0  0  0  0
 21 38  1  0  0  0  0
 22 23  1  0  0  0  0
 23 24  2  0  0  0  0
 23 25  1  0  0  0  0
 25 26  1  0  0  0  0
 25 39  1  0  0  0  0
 25 40  1  0  0  0  0
 26 41  1  0  0  0  0
 26 42  1  0  0  0  0
 26 43  1  0  0  0  0
M  CHG  1  16  -1
M  END
> <s_m_source_file>
AV-unprocessed.smi

> <i_m_source_file_index>
37

> <i_lp_mmshare_version>
43012

> <i_f3d_flags>
0

> <s_epik_input>
W0NIM11bQ0gyXUMoPU8pT1tDSDJdW0NAQEhdMU9bQ0BASF0objJbY0hdYyhGKWMoPU8pW25IXWMyPU8pW0NAQEhdKEJyKVtDQEhdMU9DKD1PKVtDSDJdW0NIM10=

> <s_epik_cmdline>
J2VwaWtfcHl0aG9uJywgJy1waCcsICc3LjAnLCAnLXRuJywgJzgnLCAnLW1hJywgJzIwMCcsICctbWV0YWxfYmluZGluZycsICctaW1hZScsICc8aW5maWxlLm1hZT4nLCAnLW9tYWUnLCAnPG91dGZpbGUubWFlPic=

> <r_epik_Ionization_Penalty>
1.08158

> <r_epik_Ionization_Penalty_Charging>
9.05154e-09

> <r_epik_Ionization_Penalty_Neutral>
1.08158

> <r_epik_State_Penalty>
1.13706

> <r_epik_Charging_Adjusted_Penalty>
1.13706

> <i_epik_Tot_Q>
-1

> <i_epik_Tot_abs_Q>
1

> <r_epik_Metal_State_Penalty>
0.00343535

> <b_epik_Metal_Only>
0

> <s_epik_Chemistry_Notes>
This compound has an ester and may undergo hydrolysis at high or low pH. This compound contains an acetal/aminal-like group ( X-CH(R)-Y where X, Y are N, S, or O) that may be acid/base labile, releasing an aldehyde.

> <s_lp_Force_Field>
OPLS_2005

> <r_lp_Energy>
34.595

> <b_lp_Chiralities_Consistent>
1

> <s_lp_Variant>
AV-unprocessed.smi:37-30

> <Gold.Version>
5.8.1

> <Gold.Id.Protein>
6NUR|6NUR_protein|mol2

> <Gold.PLP.Fitness>
39.8112

> <Gold.PLP.PLP>
-34.1837

> <Gold.PLP.part.hbond>
-5.0246

> <Gold.PLP.part.metal>
0.0000

> <Gold.PLP.part.buried>
-5.6997

> <Gold.PLP.part.nonpolar>
-23.3802

> <Gold.PLP.part.repulsive>
0.2672

> <Gold.PLP.ligand.clash>
0.0000

> <Gold.PLP.ligand.torsion>
1.4520

> <Gold.PLP.Chemscore.Hbond>
2.7861

> <Gold.PLP.Chemscore.CHOScore>
0.0000

> <Gold.PLP.Chemscore.Metal>
0.0000

> <Gold.Chemscore.Hbonds>
donor molecule, donor type, donor heavy atom, donor atom, acceptor molecule, acceptor atom, score
      P1  H  6896  6907       L1    18  0.94
      P1  H  6931  6943       L1    24  0.66
      P1  H  6934  6947       L1    24  0.12
      P1  H  7989  7998       L1     4  0.34
      P1  H  8011  8017       L1     4  0.38

> <Gold.PLP.Chemscore.Internal.Correction>
0.1733

> <Gold.Rescore>
     Score         DG    S(hbond)    S(metal)    S(lipo)     H(rot)  DE(clash)    DE(int)     intcor
      8.50     -11.24       2.67        0.00      44.36       3.27       0.08       2.66       ----

> <Gold.Chemscore.Fitness>
8.5043

> <Gold.Chemscore.DG>
-11.2386

> <Gold.Chemscore.ZeroCoef>
-5.4800

> <Gold.Chemscore.Hbond>
2.6743

> <Gold.Chemscore.Metal>
0.0000

> <Gold.Chemscore.Lipo>
44.3574

> <Gold.Chemscore.Internal_Hbond>
0.0000

> <Gold.Chemscore.DEClash>
0.0756

> <Gold.Chemscore.DEInternal>
2.6587

> <Gold.Chemscore.Rot>
3.2669

> <Gold.Chemscore.Internal.Correction>
   9.000000E+99

> <Gold.Chemscore.Hbonds>
donor molecule, donor type, donor heavy atom, donor atom, acceptor molecule, acceptor atom, score
      P1  H  6896  6907       L1    18  0.90
      P1  H  6931  6943       L1    24  0.63
      P1  H  7989  7998       L1     4  0.32
      P1  H  8011  8017       L1     4  0.32

> <Gold.Chemscore.Hbond.Weighted>
-8.9322

> <Gold.Chemscore.Metal.Weighted>
-0.0000

> <Gold.Chemscore.Lipo.Weighted>
-5.1898

> <Gold.Chemscore.Internal_Hbond.Weighted>
0.0000

> <Gold.Chemscore.DEClash.Weighted>
0.0756

> <Gold.Chemscore.DEInternal.Weighted>
2.6587

> <Gold.Chemscore.Rot.Weighted>
8.3634

> <Gold.Chemscore.Internal.Correction.Weighted>
   9.000000E+99

> <Gold.Protein.RotatedTorsions>
[ 6907 6896 6895 6894 ] final   28.09 input  -60.11 | X-H torsion
[ 7974 7965 7964 7962 ] final  -20.66 input  175.53 | X-H torsion
[ 8008 7997 7996 7995 ] final  -11.27 input   59.86 | X-H torsion
[ 10167 10162 10161 10158 ] final  -47.81 input  -65.29 | X-H torsion
[ 10718 10713 10712 10709 ] final   23.33 input   66.30 | X-H torsion
[ 10763 10752 10751 10750 ] final -145.00 input  -60.55 | X-H torsion
[ 11005 11000 10999 10996 ] final  155.87 input  -57.11 | X-H torsion

> <Gold.Protein.ActiveResidues>
 VAL166  LYS551  ARG553  GLY616  TRP617  ASP618  TYR619  PRO620  LYS621  CYS622 
 ASP623  PHE694  ASN695  SER759  ASP760  ASP761  ALA762  ILE779  LEU786  VAL792 
 PHE793  MET794  SER795  GLU796  ALA797  LYS798  CYS799  TRP800  GLU811  SER814 

> <Gold.Protein.RotatedAtoms>
  152.0118  134.9872  160.0568 H   0  0  0  0  0  0  0  0  0  0  0  0  # atno 6907 bound_to 6896
  152.1421  133.4465  159.4780 H   0  0  0  0  0  0  0  0  0  0  0  0  # atno 6908 bound_to 6896
  150.6866  134.2211  159.4440 H   0  0  0  0  0  0  0  0  0  0  0  0  # atno 6909 bound_to 6896
  146.1776  140.4233  142.8507 H   0  0  0  0  0  0  0  0  0  0  0  0  # atno 7974 bound_to 7965
  154.5480  140.2307  155.8532 H   0  0  0  0  0  0  0  0  0  0  0  0  # atno 8008 bound_to 7997
  156.1920  140.3074  155.9313 H   0  0  0  0  0  0  0  0  0  0  0  0  # atno 8009 bound_to 7997
  155.3127  140.0436  157.3026 H   0  0  0  0  0  0  0  0  0  0  0  0  # atno 8010 bound_to 7997
  140.6758  143.2767  151.3981 H   0  0  0  0  0  0  0  0  0  0  0  0  # atno 10167 bound_to 10162
  157.1646  130.6732  149.6056 H   0  0  0  0  0  0  0  0  0  0  0  0  # atno 10718 bound_to 10713
  154.8403  135.3425  154.6434 H   0  0  0  0  0  0  0  0  0  0  0  0  # atno 10763 bound_to 10752
  153.7046  135.6967  153.5058 H   0  0  0  0  0  0  0  0  0  0  0  0  # atno 10764 bound_to 10752
  153.2497  135.4357  155.0739 H   0  0  0  0  0  0  0  0  0  0  0  0  # atno 10765 bound_to 10752
  140.1622  134.8601  157.2588 H   0  0  0  0  0  0  0  0  0  0  0  0  # atno 11005 bound_to 11000
  144.8261  140.6631  143.6321 LP  0  0  0  0  0  0  0  0  0  0  0  0  # atno 17320 bound_to 7965
  145.4168  139.1570  143.4096 LP  0  0  0  0  0  0  0  0  0  0  0  0  # atno 17321 bound_to 7965
  139.6050  144.1215  152.2240 LP  0  0  0  0  0  0  0  0  0  0  0  0  # atno 17342 bound_to 10162
  140.0611  144.5855  150.7262 LP  0  0  0  0  0  0  0  0  0  0  0  0  # atno 17343 bound_to 10162
  155.9748  130.4700  150.6414 LP  0  0  0  0  0  0  0  0  0  0  0  0  # atno 17370 bound_to 10713
  157.4101  131.0822  151.1229 LP  0  0  0  0  0  0  0  0  0  0  0  0  # atno 17371 bound_to 10713
  140.2476  134.3721  155.7455 LP  0  0  0  0  0  0  0  0  0  0  0  0  # atno 17394 bound_to 11000
  141.2210  133.7299  156.8886 LP  0  0  0  0  0  0  0  0  0  0  0  0  # atno 17395 bound_to 11000

$$$$
