AV-unprocessed.smi:826|AV-procd|sdf|3855|dock8
  -GOLD-   22720 1303D 1   1.00000     0.00000
 Structure written by MMmdl.
 38 39  0  0  0  0  0  0  0  0  2 V2000
  143.9423  143.2475  162.9331 C   0  0  0  0  0  0  0  0  0  0  0  0
  144.7805  142.9186  161.7458 C   0  0  0  0  0  0  0  0  0  0  0  0
  145.6165  141.8779  161.7140 N   0  0  0  0  0  0  0  0  0  0  0  0
  146.2803  141.7774  160.4997 N   0  0  0  0  0  0  0  0  0  0  0  0
  145.9293  142.7337  159.6280 C   0  0  0  0  0  0  0  0  0  0  0  0
  146.4549  142.8121  158.3945 N   0  5  0  0  0  0  0  0  0  0  0  0
  147.1946  141.7882  157.9105 C   0  0  0  0  0  0  0  0  0  0  0  0
  147.0863  140.5992  158.2206 O   0  0  0  0  0  0  0  0  0  0  0  0
  148.1128  142.1622  157.0063 N   0  0  0  0  0  0  0  0  0  0  0  0
  149.0394  141.2723  156.3078 C   0  0  1  0  0  0  0  0  0  0  0  0
  148.8078  141.4351  154.7958 C   0  0  0  0  0  0  0  0  0  0  0  0
  150.4928  141.6633  156.6178 C   0  0  0  0  0  0  0  0  0  0  0  0
  151.4303  141.0982  156.0521 O   0  0  0  0  0  0  0  0  0  0  0  0
  150.6615  142.6232  157.5395 N   0  0  0  0  0  0  0  0  0  0  0  0
  151.9509  143.1326  157.9967 C   0  0  0  0  0  0  0  0  0  0  0  0
  152.2428  142.7093  159.4519 C   0  0  0  0  0  0  0  0  0  0  0  0
  152.6039  143.9911  160.2060 C   0  0  0  0  0  0  0  0  0  0  0  0
  151.8661  145.0958  159.4559 C   0  0  0  0  0  0  0  0  0  0  0  0
  151.9551  144.6715  157.9902 C   0  0  0  0  0  0  0  0  0  0  0  0
  144.7423  143.8688  160.2707 S   0  0  0  0  0  0  0  0  0  0  0  0
  142.9519  142.8060  162.8216 H   0  0  0  0  0  0  0  0  0  0  0  0
  143.8362  144.3280  163.0299 H   0  0  0  0  0  0  0  0  0  0  0  0
  144.4001  142.8594  163.8437 H   0  0  0  0  0  0  0  0  0  0  0  0
  148.1752  143.1459  156.7890 H   0  0  0  0  0  0  0  0  0  0  0  0
  148.8517  140.2350  156.5928 H   0  0  0  0  0  0  0  0  0  0  0  0
  149.4765  140.7928  154.2216 H   0  0  0  0  0  0  0  0  0  0  0  0
  148.9669  142.4628  154.4657 H   0  0  0  0  0  0  0  0  0  0  0  0
  147.7871  141.1601  154.5289 H   0  0  0  0  0  0  0  0  0  0  0  0
  149.8356  143.0353  157.9481 H   0  0  0  0  0  0  0  0  0  0  0  0
  152.7398  142.7761  157.3316 H   0  0  0  0  0  0  0  0  0  0  0  0
  151.3574  142.2641  159.9090 H   0  0  0  0  0  0  0  0  0  0  0  0
  153.0398  141.9674  159.5099 H   0  0  0  0  0  0  0  0  0  0  0  0
  152.3341  143.9470  161.2614 H   0  0  0  0  0  0  0  0  0  0  0  0
  153.6793  144.1630  160.1443 H   0  0  0  0  0  0  0  0  0  0  0  0
  150.8216  145.1203  159.7693 H   0  0  0  0  0  0  0  0  0  0  0  0
  152.2927  146.0834  159.6337 H   0  0  0  0  0  0  0  0  0  0  0  0
  152.8995  145.0247  157.5737 H   0  0  0  0  0  0  0  0  0  0  0  0
  151.1579  145.1058  157.3852 H   0  0  0  0  0  0  0  0  0  0  0  0
  1  2  1  0  0  0  0
  1 21  1  0  0  0  0
  1 22  1  0  0  0  0
  1 23  1  0  0  0  0
  2 20  1  0  0  0  0
  2  3  2  0  0  0  0
  3  4  1  0  0  0  0
  4  5  2  0  0  0  0
  5  6  1  0  0  0  0
  5 20  1  0  0  0  0
  6  7  1  0  0  0  0
  7  8  2  0  0  0  0
  7  9  1  0  0  0  0
  9 10  1  0  0  0  0
  9 24  1  0  0  0  0
 10 11  1  0  0  0  0
 10 12  1  0  0  0  0
 10 25  1  0  0  0  0
 11 26  1  0  0  0  0
 11 27  1  0  0  0  0
 11 28  1  0  0  0  0
 12 13  2  0  0  0  0
 12 14  1  0  0  0  0
 14 15  1  0  0  0  0
 14 29  1  0  0  0  0
 15 19  1  0  0  0  0
 15 16  1  0  0  0  0
 15 30  1  0  0  0  0
 16 17  1  0  0  0  0
 16 31  1  0  0  0  0
 16 32  1  0  0  0  0
 17 18  1  0  0  0  0
 17 33  1  0  0  0  0
 17 34  1  0  0  0  0
 18 19  1  0  0  0  0
 18 35  1  0  0  0  0
 18 36  1  0  0  0  0
 19 37  1  0  0  0  0
 19 38  1  0  0  0  0
M  CHG  1   6  -1
M  END
> <s_m_source_file>
AV-unprocessed.smi

> <i_m_source_file_index>
826

> <i_lp_mmshare_version>
43012

> <i_f3d_flags>
0

> <s_epik_input>
W0NIM11jMW5uYyhzMSlbTkhdQyg9TylbTkhdW0NASF0oW0NIM10pQyg9TylbTkhdW0NIXTJbQ0gyXVtDSDJdW0NIMl1bQ0gyXTI=

> <s_epik_cmdline>
J2VwaWtfcHl0aG9uJywgJy1waCcsICc3LjAnLCAnLXRuJywgJzgnLCAnLW1hJywgJzIwMCcsICctbWV0YWxfYmluZGluZycsICctaW1hZScsICc8aW5maWxlLm1hZT4nLCAnLW9tYWUnLCAnPG91dGZpbGUubWFlPic=

> <r_lp_tautomer_probability>
1

> <r_epik_Ionization_Penalty>
3.15008

> <r_epik_Ionization_Penalty_Charging>
3.01509

> <r_epik_Ionization_Penalty_Neutral>
0.134987

> <r_epik_State_Penalty>
3.01143

> <r_epik_Charging_Adjusted_Penalty>
6.02652

> <i_epik_Tot_Q>
-1

> <i_epik_Tot_abs_Q>
1

> <r_epik_Metal_State_Penalty>
0.454645

> <b_epik_Metal_Only>
1

> <s_lp_Force_Field>
OPLS_2005

> <r_lp_Energy>
16.5176

> <b_lp_Chiralities_Consistent>
1

> <s_lp_Variant>
AV-unprocessed.smi:826-4

> <Gold.Version>
5.8.1

> <Gold.Id.Protein>
6NUR|6NUR_protein|mol2

> <Gold.PLP.Fitness>
46.3784

> <Gold.PLP.PLP>
-41.1064

> <Gold.PLP.part.hbond>
-4.5030

> <Gold.PLP.part.metal>
0.0000

> <Gold.PLP.part.buried>
-6.3177

> <Gold.PLP.part.nonpolar>
-30.1305

> <Gold.PLP.part.repulsive>
0.2046

> <Gold.PLP.ligand.clash>
0.0000

> <Gold.PLP.ligand.torsion>
0.3466

> <Gold.PLP.Chemscore.Hbond>
1.9750

> <Gold.PLP.Chemscore.CHOScore>
0.0000

> <Gold.PLP.Chemscore.Metal>
0.0000

> <Gold.Chemscore.Hbonds>
donor molecule, donor type, donor heavy atom, donor atom, acceptor molecule, acceptor atom, score
      L1  H     9    24       P1  8028  0.96

> <Gold.PLP.Chemscore.Internal.Correction>
0.0401

> <Gold.Rescore>
     Score         DG    S(hbond)    S(metal)    S(lipo)     H(rot)  DE(clash)    DE(int)     intcor
     13.69     -15.69       1.34        0.00      84.48       1.62       0.01       1.99       ----

> <Gold.Chemscore.Fitness>
13.6852

> <Gold.Chemscore.DG>
-15.6871

> <Gold.Chemscore.ZeroCoef>
-5.4800

> <Gold.Chemscore.Hbond>
1.3385

> <Gold.Chemscore.Metal>
0.0000

> <Gold.Chemscore.Lipo>
84.4790

> <Gold.Chemscore.Internal_Hbond>
0.0000

> <Gold.Chemscore.DEClash>
0.0126

> <Gold.Chemscore.DEInternal>
1.9892

> <Gold.Chemscore.Rot>
1.6201

> <Gold.Chemscore.Internal.Correction>
   9.000000E+99

> <Gold.Chemscore.Hbonds>
donor molecule, donor type, donor heavy atom, donor atom, acceptor molecule, acceptor atom, score
      L1  H     9    24       P1  8028  0.23
      P1  H  6934  6946       L1     4  0.01

> <Gold.Chemscore.Hbond.Weighted>
-4.4705

> <Gold.Chemscore.Metal.Weighted>
-0.0000

> <Gold.Chemscore.Lipo.Weighted>
-9.8840

> <Gold.Chemscore.Internal_Hbond.Weighted>
0.0000

> <Gold.Chemscore.DEClash.Weighted>
0.0126

> <Gold.Chemscore.DEInternal.Weighted>
1.9892

> <Gold.Chemscore.Rot.Weighted>
4.1475

> <Gold.Chemscore.Internal.Correction.Weighted>
   9.000000E+99

> <Gold.Protein.RotatedTorsions>
[ 6907 6896 6895 6894 ] final  -11.04 input  -60.11 | X-H torsion
[ 7974 7965 7964 7962 ] final  142.04 input  175.53 | X-H torsion
[ 8008 7997 7996 7995 ] final  146.01 input   59.86 | X-H torsion
[ 10167 10162 10161 10158 ] final  -17.57 input  -65.29 | X-H torsion
[ 10718 10713 10712 10709 ] final  159.50 input   66.30 | X-H torsion
[ 10763 10752 10751 10750 ] final  -54.62 input  -60.55 | X-H torsion
[ 11005 11000 10999 10996 ] final  -65.59 input  -57.11 | X-H torsion

> <Gold.Protein.ActiveResidues>
 VAL166  LYS551  ARG553  GLY616  TRP617  ASP618  TYR619  PRO620  LYS621  CYS622 
 ASP623  PHE694  ASN695  SER759  ASP760  ASP761  ALA762  ILE779  LEU786  VAL792 
 PHE793  MET794  SER795  GLU796  ALA797  LYS798  CYS799  TRP800  GLU811  SER814 

> <Gold.Protein.RotatedAtoms>
  151.3925  135.0958  159.9530 H   0  0  0  0  0  0  0  0  0  0  0  0  # atno 6907 bound_to 6896
  152.5075  133.8966  159.7431 H   0  0  0  0  0  0  0  0  0  0  0  0  # atno 6908 bound_to 6896
  150.9423  133.6587  159.2817 H   0  0  0  0  0  0  0  0  0  0  0  0  # atno 6909 bound_to 6896
  144.9043  139.5380  143.5739 H   0  0  0  0  0  0  0  0  0  0  0  0  # atno 7974 bound_to 7965
  156.2867  140.2194  156.5308 H   0  0  0  0  0  0  0  0  0  0  0  0  # atno 8008 bound_to 7997
  154.7450  140.0485  157.0866 H   0  0  0  0  0  0  0  0  0  0  0  0  # atno 8009 bound_to 7997
  155.0182  140.3121  155.4807 H   0  0  0  0  0  0  0  0  0  0  0  0  # atno 8010 bound_to 7997
  140.7249  143.5002  150.9879 H   0  0  0  0  0  0  0  0  0  0  0  0  # atno 10167 bound_to 10162
  157.1634  131.0592  151.2220 H   0  0  0  0  0  0  0  0  0  0  0  0  # atno 10718 bound_to 10713
  154.1778  135.6448  153.5026 H   0  0  0  0  0  0  0  0  0  0  0  0  # atno 10763 bound_to 10752
  153.0067  135.5399  154.6546 H   0  0  0  0  0  0  0  0  0  0  0  0  # atno 10764 bound_to 10752
  154.5902  135.2933  155.0616 H   0  0  0  0  0  0  0  0  0  0  0  0  # atno 10765 bound_to 10752
  141.1458  133.6684  156.6009 H   0  0  0  0  0  0  0  0  0  0  0  0  # atno 11005 bound_to 11000
  146.3125  139.7798  142.9009 LP  0  0  0  0  0  0  0  0  0  0  0  0  # atno 17320 bound_to 7965
  145.3562  141.0317  143.3310 LP  0  0  0  0  0  0  0  0  0  0  0  0  # atno 17321 bound_to 7965
  139.8711  143.7191  152.3166 LP  0  0  0  0  0  0  0  0  0  0  0  0  # atno 17342 bound_to 10162
  139.7440  144.7552  151.0608 LP  0  0  0  0  0  0  0  0  0  0  0  0  # atno 17343 bound_to 10162
  157.4111  130.7386  149.6840 LP  0  0  0  0  0  0  0  0  0  0  0  0  # atno 17370 bound_to 10713
  155.9750  130.4095  150.3881 LP  0  0  0  0  0  0  0  0  0  0  0  0  # atno 17371 bound_to 10713
  140.3689  134.7623  157.4585 LP  0  0  0  0  0  0  0  0  0  0  0  0  # atno 17394 bound_to 11000
  140.0726  134.5841  155.8625 LP  0  0  0  0  0  0  0  0  0  0  0  0  # atno 17395 bound_to 11000

$$$$
