#       Name:                AV-unprocessed.smi:1931
#       Creating user name   scv26
#       Creation time:       Fri Mar 27 09:55:31 2020


#       File generated by GOLD software.
#

@<TRIPOS>MOLECULE
AV-unprocessed.smi:1931
    58    59     1
SMALL
NO_CHARGES


@<TRIPOS>ATOM
      1 ****        -5.2741   5.0174   2.9925 C.3            1 S1                 0.0000
      2 ****        -3.8653   5.1593   3.0420 O.3            1 S1                 0.0000
      3 ****        -3.3264   5.6543   1.8276 C.3            1 S1                 0.0000
      4 ****        -1.8061   5.7796   1.9665 C.3            1 S1                 0.0000
      5 ****        -1.2246   4.4883   1.8973 O.3            1 S1                 0.0000
      6 ****         0.1874   4.5171   2.0398 C.3            1 S1                 0.0000
      7 ****         0.7360   3.0964   1.9109 C.2            1 S1                 0.0000
      8 ****         1.5613   2.6923   2.7289 O.2            1 S1                 0.0000
      9 ****         0.2579   2.3745   0.8801 N.am           1 S1                 0.0000
     10 ****         0.5864   1.0476   0.4909 C.ar           1 S1                 0.0000
     11 ****         1.7775   0.3780   0.8553 C.ar           1 S1                 0.0000
     12 ****         1.9965  -0.9302   0.3828 C.ar           1 S1                 0.0000
     13 ****         1.0272  -1.5389  -0.4489 C.ar           1 S1                 0.0000
     14 ****         1.2320  -2.8479  -0.9364 N.3            1 S1                 0.0000
     15 ****         2.4963  -3.0676  -1.6334 C.3            1 S1                 0.0000
     16 ****         2.7436  -4.5741  -1.8394 C.3            1 S1                 0.0000
     17 ****         3.9999  -4.8411  -2.6753 C.3            1 S1                 0.0000
     18 ****         1.6267  -5.1451  -2.5157 O.3            1 S1                 0.0000
     19 ****         0.4183  -5.0217  -1.7707 C.3            1 S1                 0.0000
     20 ****        -0.6944  -5.7456  -2.5358 C.3            1 S1                 0.0000
     21 ****         0.1020  -3.5284  -1.5654 C.3            1 S1                 0.0000
     22 ****        -0.1116  -0.8919  -0.7992 N.ar           1 S1                 0.0000
     23 ****        -0.3166   0.3624  -0.3460 C.ar           1 S1                 0.0000
     24 ****        -5.6380   4.6387   3.9476 H              1 S1                 0.0000
     25 ****        -5.5723   4.3126   2.2152 H              1 S1                 0.0000
     26 ****        -5.7608   5.9749   2.8028 H              1 S1                 0.0000
     27 ****        -3.5820   5.0033   0.9899 H              1 S1                 0.0000
     28 ****        -3.7537   6.6369   1.6217 H              1 S1                 0.0000
     29 ****        -1.4160   6.3895   1.1503 H              1 S1                 0.0000
     30 ****        -1.5473   6.2790   2.9015 H              1 S1                 0.0000
     31 ****         0.6390   5.1425   1.2683 H              1 S1                 0.0000
     32 ****         0.4607   4.9331   3.0110 H              1 S1                 0.0000
     33 ****        -0.4749   2.8146   0.3422 H              1 S1                 0.0000
     34 ****         2.5312   0.8398   1.4735 H              1 S1                 0.0000
     35 ****         2.8972  -1.4518   0.6702 H              1 S1                 0.0000
     36 ****         2.4559  -2.5582  -2.5973 H              1 S1                 0.0000
     37 ****         3.3358  -2.6413  -1.0858 H              1 S1                 0.0000
     38 ****         2.8627  -5.0622  -0.8704 H              1 S1                 0.0000
     39 ****         4.8878  -4.4372  -2.1885 H              1 S1                 0.0000
     40 ****         3.9219  -4.3845  -3.6624 H              1 S1                 0.0000
     41 ****         4.1552  -5.9111  -2.8146 H              1 S1                 0.0000
     42 ****         0.5444  -5.5072  -0.8013 H              1 S1                 0.0000
     43 ****        -1.6429  -5.6830  -2.0016 H              1 S1                 0.0000
     44 ****        -0.4545  -6.8012  -2.6650 H              1 S1                 0.0000
     45 ****        -0.8382  -5.3126  -3.5262 H              1 S1                 0.0000
     46 ****        -0.7883  -3.4292  -0.9430 H              1 S1                 0.0000
     47 ****        -0.1148  -3.0545  -2.5238 H              1 S1                 0.0000
     48 ****        -1.2363   0.8328  -0.6619 H              1 S1                 0.0000
     49 ****        -3.4595   4.2654   3.2321 LP             1 S1                 0.0000
     50 ****        -3.6327   5.7945   3.7785 LP             1 S1                 0.0000
     51 ****        -1.4489   4.0832   1.0110 LP             1 S1                 0.0000
     52 ****        -1.6089   3.9245   2.6283 LP             1 S1                 0.0000
     53 ****         1.8667   3.2917   3.4688 LP             1 S1                 0.0000
     54 ****         1.9267   1.7645   2.6538 LP             1 S1                 0.0000
     55 ****         1.3134  -3.3303  -0.0643 LP             1 S1                 0.0000
     56 ****         1.8088  -6.1156  -2.6735 LP             1 S1                 0.0000
     57 ****         1.5113  -4.6806  -3.3937 LP             1 S1                 0.0000
     58 ****        -0.7892  -1.3373  -1.3844 LP             1 S1                 0.0000
@<TRIPOS>BOND
    1    1    2 1     
    2    1   24 1     
    3    1   25 1     
    4    1   26 1     
    5    2    3 1     
    6    3    4 1     
    7    3   27 1     
    8    3   28 1     
    9    4    5 1     
   10    4   29 1     
   11    4   30 1     
   12    5    6 1     
   13    6    7 1     
   14    6   31 1     
   15    6   32 1     
   16    7    8 2     
   17    7    9 am    
   18    9   10 1     
   19    9   33 1     
   20   10   23 ar    
   21   10   11 ar    
   22   11   12 ar    
   23   11   34 1     
   24   12   13 ar    
   25   12   35 1     
   26   13   14 1     
   27   13   22 ar    
   28   14   21 1     
   29   14   15 1     
   30   15   16 1     
   31   15   36 1     
   32   15   37 1     
   33   16   17 1     
   34   16   18 1     
   35   16   38 1     
   36   17   39 1     
   37   17   40 1     
   38   17   41 1     
   39   18   19 1     
   40   19   20 1     
   41   19   21 1     
   42   19   42 1     
   43   20   43 1     
   44   20   44 1     
   45   20   45 1     
   46   21   46 1     
   47   21   47 1     
   48   22   23 ar    
   49   23   48 1     
   50    2   49 1     
   51    2   50 1     
   52    5   51 1     
   53    5   52 1     
   54    8   53 1     
   55    8   54 1     
   56   14   55 1     
   57   18   56 1     
   58   18   57 1     
   59   22   58 1     
@<TRIPOS>SUBSTRUCTURE
      1 S1             1
@<TRIPOS>SET
LONE_PAIRS      STATIC     ATOMS    <user>   **** ""
10 49 50 51 52 53 54 55 56 57 58
DONOR_HYDROGENS      STATIC     ATOMS    <user>   **** ""
1 33
ATOM$BLUE        STATIC     ATOMS    COLORGROUP SYSTEM
10 49 50 51 52 53 54 55 56 57 58
ATOM$RED        STATIC     ATOMS    COLORGROUP SYSTEM
1 33
