AV-unprocessed.smi:3056|AV-procd|sdf|11652|dock6
  -GOLD-   2272017 53D 1   1.00000     0.00000
 Structure written by MMmdl.
 48 49  0  0  0  0  0  0  0  0  2 V2000
  150.6263  145.3724  160.3704 C   0  0  0  0  0  0  0  0  0  0  0  0
  151.2919  144.1520  159.8026 C   0  0  0  0  0  0  0  0  0  0  0  0
  151.0709  143.5456  158.5338 C   0  0  0  0  0  0  0  0  0  0  0  0
  151.8200  142.4726  158.3396 N   0  0  0  0  0  0  0  0  0  0  0  0
  152.5471  142.3552  159.4713 N   0  0  0  0  0  0  0  0  0  0  0  0
  153.4901  141.2530  159.6147 C   0  0  1  0  0  0  0  0  0  0  0  0
  154.1251  141.2915  161.0167 C   0  0  0  0  0  0  0  0  0  0  0  0
  152.8325  139.8875  159.2803 C   0  0  1  0  0  0  0  0  0  0  0  0
  152.3917  139.7717  157.8097 C   0  0  0  0  0  0  0  0  0  0  0  0
  153.7600  138.7748  159.5845 N   0  3  0  0  0  0  0  0  0  0  0  0
  153.2505  137.7826  160.5566 C   0  0  0  0  0  0  0  0  0  0  0  0
  154.0816  136.4909  160.5689 C   0  0  0  0  0  0  0  0  0  0  0  0
  154.1950  135.8491  159.5230 O   0  0  0  0  0  0  0  0  0  0  0  0
  154.6627  136.0951  161.7268 N   0  0  0  0  0  0  0  0  0  0  0  0
  154.5451  136.7653  163.0259 C   0  0  0  0  0  0  0  0  0  0  0  0
  153.8452  135.8073  164.0059 C   0  0  0  0  0  0  0  0  0  0  0  0
  154.5800  134.5892  164.0948 O   0  0  0  0  0  0  0  0  0  0  0  0
  154.7249  133.9225  162.8421 C   0  0  2  0  0  0  0  0  0  0  0  0
  155.5024  132.6229  163.0771 C   0  0  0  0  0  0  0  0  0  0  0  0
  155.4440  134.8612  161.8525 C   0  0  0  0  0  0  0  0  0  0  0  0
  152.2458  143.3572  160.3721 C   0  0  0  0  0  0  0  0  0  0  0  0
  150.2112  146.0084  159.5882 H   0  0  0  0  0  0  0  0  0  0  0  0
  151.3239  145.9838  160.9431 H   0  0  0  0  0  0  0  0  0  0  0  0
  149.8064  145.1081  161.0383 H   0  0  0  0  0  0  0  0  0  0  0  0
  150.3897  143.8511  157.7533 H   0  0  0  0  0  0  0  0  0  0  0  0
  154.2924  141.4206  158.8931 H   0  0  0  0  0  0  0  0  0  0  0  0
  154.9418  140.5754  161.1055 H   0  0  0  0  0  0  0  0  0  0  0  0
  153.3954  141.0634  161.7943 H   0  0  0  0  0  0  0  0  0  0  0  0
  154.5397  142.2773  161.2302 H   0  0  0  0  0  0  0  0  0  0  0  0
  151.9331  139.7788  159.8893 H   0  0  0  0  0  0  0  0  0  0  0  0
  151.6185  140.4978  157.5581 H   0  0  0  0  0  0  0  0  0  0  0  0
  151.9790  138.7839  157.6020 H   0  0  0  0  0  0  0  0  0  0  0  0
  153.2309  139.9301  157.1314 H   0  0  0  0  0  0  0  0  0  0  0  0
  153.9587  138.2853  158.7235 H   0  0  0  0  0  0  0  0  0  0  0  0
  153.2587  138.2252  161.5530 H   0  0  0  0  0  0  0  0  0  0  0  0
  152.2176  137.5400  160.3024 H   0  0  0  0  0  0  0  0  0  0  0  0
  155.5427  137.0108  163.3928 H   0  0  0  0  0  0  0  0  0  0  0  0
  154.0011  137.7076  162.9911 H   0  0  0  0  0  0  0  0  0  0  0  0
  153.7876  136.2566  164.9974 H   0  0  0  0  0  0  0  0  0  0  0  0
  152.8219  135.6040  163.6867 H   0  0  0  0  0  0  0  0  0  0  0  0
  153.7346  133.6715  162.4576 H   0  0  0  0  0  0  0  0  0  0  0  0
  155.6239  132.0646  162.1486 H   0  0  0  0  0  0  0  0  0  0  0  0
  154.9800  131.9792  163.7852 H   0  0  0  0  0  0  0  0  0  0  0  0
  156.4956  132.8238  163.4794 H   0  0  0  0  0  0  0  0  0  0  0  0
  155.5872  134.3518  160.8984 H   0  0  0  0  0  0  0  0  0  0  0  0
  156.4433  135.1043  162.2171 H   0  0  0  0  0  0  0  0  0  0  0  0
  152.7282  143.4205  161.3364 H   0  0  0  0  0  0  0  0  0  0  0  0
  154.6258  139.1597  159.9343 H   0  0  0  0  0  0  0  0  0  0  0  0
  1  2  1  0  0  0  0
  1 22  1  0  0  0  0
  1 23  1  0  0  0  0
  1 24  1  0  0  0  0
  2 21  2  0  0  0  0
  2  3  1  0  0  0  0
  3  4  2  0  0  0  0
  3 25  1  0  0  0  0
  4  5  1  0  0  0  0
  5  6  1  0  0  0  0
  5 21  1  0  0  0  0
  6  7  1  0  0  0  0
  6  8  1  0  0  0  0
  6 26  1  0  0  0  0
  7 27  1  0  0  0  0
  7 28  1  0  0  0  0
  7 29  1  0  0  0  0
  8  9  1  0  0  0  0
  8 10  1  0  0  0  0
  8 30  1  0  0  0  0
  9 31  1  0  0  0  0
  9 32  1  0  0  0  0
  9 33  1  0  0  0  0
 10 11  1  0  0  0  0
 10 34  1  0  0  0  0
 10 48  1  0  0  0  0
 11 12  1  0  0  0  0
 11 35  1  0  0  0  0
 11 36  1  0  0  0  0
 12 13  2  0  0  0  0
 12 14  1  0  0  0  0
 14 20  1  0  0  0  0
 14 15  1  0  0  0  0
 15 16  1  0  0  0  0
 15 37  1  0  0  0  0
 15 38  1  0  0  0  0
 16 17  1  0  0  0  0
 16 39  1  0  0  0  0
 16 40  1  0  0  0  0
 17 18  1  0  0  0  0
 18 19  1  0  0  0  0
 18 20  1  0  0  0  0
 18 41  1  0  0  0  0
 19 42  1  0  0  0  0
 19 43  1  0  0  0  0
 19 44  1  0  0  0  0
 20 45  1  0  0  0  0
 20 46  1  0  0  0  0
 21 47  1  0  0  0  0
M  CHG  1  10   1
M  END
> <s_m_source_file>
AV-unprocessed.smi

> <i_m_source_file_index>
3056

> <i_lp_mmshare_version>
43012

> <i_f3d_flags>
0

> <s_epik_input>
W0NIM11jMVtjSF1ubihbY0hdMSlbQ0BIXShbQ0gzXSlbQ0BIXShbQ0gzXSlbTkhdW0NIMl1DKD1PKU4yW0NIMl1bQ0gyXU9bQ0BASF0oW0NIM10pW0NIMl0y

> <s_epik_cmdline>
J2VwaWtfcHl0aG9uJywgJy1waCcsICc3LjAnLCAnLXRuJywgJzgnLCAnLW1hJywgJzIwMCcsICctbWV0YWxfYmluZGluZycsICctaW1hZScsICc8aW5maWxlLm1hZT4nLCAnLW9tYWUnLCAnPG91dGZpbGUubWFlPic=

> <r_lp_tautomer_probability>
1

> <r_epik_Ionization_Penalty>
0.233715

> <r_epik_Ionization_Penalty_Charging>
0.233698

> <r_epik_Ionization_Penalty_Neutral>
1.68157e-05

> <r_epik_State_Penalty>
0.225221

> <r_epik_Charging_Adjusted_Penalty>
0.458919

> <i_epik_Tot_Q>
1

> <i_epik_Tot_abs_Q>
1

> <r_epik_Metal_State_Penalty>
0.225535

> <b_epik_Metal_Only>
0

> <s_lp_Force_Field>
OPLS_2005

> <r_lp_Energy>
28.8948

> <b_lp_Chiralities_Consistent>
1

> <s_lp_Variant>
AV-unprocessed.smi:3056-8

> <Gold.Version>
5.8.1

> <Gold.Id.Protein>
6NUR|6NUR_protein|mol2

> <Gold.PLP.Fitness>
47.7967

> <Gold.PLP.PLP>
-43.6518

> <Gold.PLP.part.hbond>
-1.0000

> <Gold.PLP.part.metal>
0.0000

> <Gold.PLP.part.buried>
-2.6976

> <Gold.PLP.part.nonpolar>
-38.8995

> <Gold.PLP.part.repulsive>
0.1807

> <Gold.PLP.ligand.clash>
0.0000

> <Gold.PLP.ligand.torsion>
0.9531

> <Gold.PLP.Chemscore.Hbond>
1.0000

> <Gold.PLP.Chemscore.CHOScore>
0.9832

> <Gold.PLP.Chemscore.Metal>
0.0000

> <Gold.Chemscore.Hbonds>
donor molecule, donor type, donor heavy atom, donor atom, acceptor molecule, acceptor atom, score
      P1  H  6896  6908       L1    13  0.11
      L1  C     3    25       P1  8028  0.58

> <Gold.PLP.Chemscore.Internal.Correction>
0.1016

> <Gold.Rescore>
     Score         DG    S(hbond)    S(metal)    S(lipo)     H(rot)  DE(clash)    DE(int)     intcor
     15.69     -18.16       0.99        0.00     117.99       1.74       0.08       2.39       ----

> <Gold.Chemscore.Fitness>
15.6875

> <Gold.Chemscore.DG>
-18.1584

> <Gold.Chemscore.ZeroCoef>
-5.4800

> <Gold.Chemscore.Hbond>
0.9930

> <Gold.Chemscore.Metal>
0.0000

> <Gold.Chemscore.Lipo>
117.9872

> <Gold.Chemscore.Internal_Hbond>
0.0000

> <Gold.Chemscore.DEClash>
0.0799

> <Gold.Chemscore.DEInternal>
2.3910

> <Gold.Chemscore.Rot>
1.7354

> <Gold.Chemscore.Internal.Correction>
   9.000000E+99

> <Gold.Chemscore.Hbond.Weighted>
-3.3165

> <Gold.Chemscore.Metal.Weighted>
-0.0000

> <Gold.Chemscore.Lipo.Weighted>
-13.8045

> <Gold.Chemscore.Internal_Hbond.Weighted>
0.0000

> <Gold.Chemscore.DEClash.Weighted>
0.0799

> <Gold.Chemscore.DEInternal.Weighted>
2.3910

> <Gold.Chemscore.Rot.Weighted>
4.4426

> <Gold.Chemscore.Internal.Correction.Weighted>
   9.000000E+99

> <Gold.Protein.RotatedTorsions>
[ 6907 6896 6895 6894 ] final  -84.09 input  -60.11 | X-H torsion
[ 7974 7965 7964 7962 ] final   -1.49 input  175.53 | X-H torsion
[ 8008 7997 7996 7995 ] final -113.49 input   59.86 | X-H torsion
[ 10167 10162 10161 10158 ] final -100.09 input  -65.29 | X-H torsion
[ 10718 10713 10712 10709 ] final   83.61 input   66.30 | X-H torsion
[ 10763 10752 10751 10750 ] final   24.18 input  -60.55 | X-H torsion
[ 11005 11000 10999 10996 ] final  162.39 input  -57.11 | X-H torsion

> <Gold.Protein.ActiveResidues>
 VAL166  LYS551  ARG553  GLY616  TRP617  ASP618  TYR619  PRO620  LYS621  CYS622 
 ASP623  PHE694  ASN695  SER759  ASP760  ASP761  ALA762  ILE779  LEU786  VAL792 
 PHE793  MET794  SER795  GLU796  ALA797  LYS798  CYS799  TRP800  GLU811  SER814 

> <Gold.Protein.RotatedAtoms>
  150.6879  134.3412  159.4868 H   0  0  0  0  0  0  0  0  0  0  0  0  # atno 6907 bound_to 6896
  152.1265  134.9164  160.0570 H   0  0  0  0  0  0  0  0  0  0  0  0  # atno 6908 bound_to 6896
  152.0351  133.3919  159.4350 H   0  0  0  0  0  0  0  0  0  0  0  0  # atno 6909 bound_to 6896
  146.2416  140.1429  142.8335 H   0  0  0  0  0  0  0  0  0  0  0  0  # atno 7974 bound_to 7965
  155.0215  140.0393  157.2439 H   0  0  0  0  0  0  0  0  0  0  0  0  # atno 8008 bound_to 7997
  154.7374  140.2742  155.6379 H   0  0  0  0  0  0  0  0  0  0  0  0  # atno 8009 bound_to 7997
  156.2856  140.2672  156.2091 H   0  0  0  0  0  0  0  0  0  0  0  0  # atno 8010 bound_to 7997
  140.2556  143.3442  152.0674 H   0  0  0  0  0  0  0  0  0  0  0  0  # atno 10167 bound_to 10162
  157.6882  131.0098  150.2549 H   0  0  0  0  0  0  0  0  0  0  0  0  # atno 10718 bound_to 10713
  153.0783  135.6611  154.0099 H   0  0  0  0  0  0  0  0  0  0  0  0  # atno 10763 bound_to 10752
  153.9727  135.2963  155.3427 H   0  0  0  0  0  0  0  0  0  0  0  0  # atno 10764 bound_to 10752
  154.7176  135.5178  153.8833 H   0  0  0  0  0  0  0  0  0  0  0  0  # atno 10765 bound_to 10752
  140.2253  134.8165  157.3262 H   0  0  0  0  0  0  0  0  0  0  0  0  # atno 11005 bound_to 11000
  145.0232  140.8810  143.5154 LP  0  0  0  0  0  0  0  0  0  0  0  0  # atno 17320 bound_to 7965
  145.1481  139.2531  143.5455 LP  0  0  0  0  0  0  0  0  0  0  0  0  # atno 17321 bound_to 7965
  139.5032  144.6751  151.6147 LP  0  0  0  0  0  0  0  0  0  0  0  0  # atno 17342 bound_to 10162
  140.6006  143.9616  150.6384 LP  0  0  0  0  0  0  0  0  0  0  0  0  # atno 17343 bound_to 10162
  156.3139  130.3776  149.7636 LP  0  0  0  0  0  0  0  0  0  0  0  0  # atno 17370 bound_to 10713
  156.5228  130.8222  151.3209 LP  0  0  0  0  0  0  0  0  0  0  0  0  # atno 17371 bound_to 10713
  140.1807  134.4494  155.7774 LP  0  0  0  0  0  0  0  0  0  0  0  0  # atno 17394 bound_to 11000
  141.2221  133.6982  156.7863 LP  0  0  0  0  0  0  0  0  0  0  0  0  # atno 17395 bound_to 11000

$$$$
