AV-unprocessed.smi:1535|AV-procd|sdf|6178|dock9
  -GOLD-   22720 6333D 1   1.00000     0.00000
 Structure written by MMmdl.
 47 48  0  0  0  0  0  0  0  0  2 V2000
  153.1972  142.8224  161.7010 C   0  0  0  0  0  0  0  0  0  0  0  0
  152.5751  142.5550  160.3416 C   0  0  0  0  0  0  0  0  0  0  0  0
  152.7022  141.2695  159.7695 C   0  0  0  0  0  0  0  0  0  0  0  0
  152.1374  140.9789  158.5086 C   0  0  0  0  0  0  0  0  0  0  0  0
  152.1422  139.8078  157.7712 N   0  0  0  0  0  0  0  0  0  0  0  0
  151.4546  140.1672  156.6920 C   0  0  0  0  0  0  0  0  0  0  0  0
  151.0151  141.4396  156.6355 N   0  0  0  0  0  0  0  0  0  0  0  0
  150.2569  142.0539  155.5596 C   0  0  0  0  0  0  0  0  0  0  0  0
  149.3316  141.0558  154.8350 C   0  0  2  0  0  0  0  0  0  0  0  0
  149.0579  141.5680  153.5472 O   0  0  0  0  0  0  0  0  0  0  0  0
  147.9906  140.8052  155.5614 C   0  0  0  0  0  0  0  0  0  0  0  0
  147.2188  142.0603  155.7359 N   0  3  2  0  0  0  0  0  0  0  0  0
  146.6017  142.1570  157.0779 C   0  0  0  0  0  0  0  0  0  0  0  0
  146.2406  142.3038  154.6432 C   0  0  0  0  0  0  0  0  0  0  0  0
  145.2223  143.3941  155.0195 C   0  0  2  0  0  0  0  0  0  0  0  0
  143.9663  142.7932  155.6629 C   0  0  0  0  0  0  0  0  0  0  0  0
  144.8666  144.2124  153.8486 C   0  0  0  0  0  0  0  0  0  0  0  0
  144.5840  144.8519  152.9274 N   0  0  0  0  0  0  0  0  0  0  0  0
  151.4351  142.0175  157.8296 C   0  0  0  0  0  0  0  0  0  0  0  0
  151.2975  143.2992  158.3918 C   0  0  0  0  0  0  0  0  0  0  0  0
  151.8717  143.5738  159.6505 C   0  0  0  0  0  0  0  0  0  0  0  0
  151.7205  144.9621  160.2466 C   0  0  0  0  0  0  0  0  0  0  0  0
  153.6714  141.9276  162.1055 H   0  0  0  0  0  0  0  0  0  0  0  0
  152.4371  143.1476  162.4115 H   0  0  0  0  0  0  0  0  0  0  0  0
  153.9582  143.5998  161.6274 H   0  0  0  0  0  0  0  0  0  0  0  0
  153.2360  140.4922  160.2969 H   0  0  0  0  0  0  0  0  0  0  0  0
  151.2674  139.4665  155.8912 H   0  0  0  0  0  0  0  0  0  0  0  0
  149.6715  142.8751  155.9764 H   0  0  0  0  0  0  0  0  0  0  0  0
  150.9625  142.4982  154.8562 H   0  0  0  0  0  0  0  0  0  0  0  0
  149.8696  140.1183  154.7022 H   0  0  0  0  0  0  0  0  0  0  0  0
  148.1255  141.5244  153.3955 H   0  0  0  0  0  0  0  0  0  0  0  0
  147.3668  140.0908  155.0227 H   0  0  0  0  0  0  0  0  0  0  0  0
  148.2004  140.3503  156.5312 H   0  0  0  0  0  0  0  0  0  0  0  0
  145.8795  141.3546  157.2345 H   0  0  0  0  0  0  0  0  0  0  0  0
  146.0876  143.1094  157.2058 H   0  0  0  0  0  0  0  0  0  0  0  0
  147.3621  142.0890  157.8566 H   0  0  0  0  0  0  0  0  0  0  0  0
  146.7541  142.6167  153.7334 H   0  0  0  0  0  0  0  0  0  0  0  0
  145.7342  141.3714  154.3889 H   0  0  0  0  0  0  0  0  0  0  0  0
  145.6742  144.0755  155.7403 H   0  0  0  0  0  0  0  0  0  0  0  0
  143.2639  143.5757  155.9515 H   0  0  0  0  0  0  0  0  0  0  0  0
  144.2158  142.2260  156.5601 H   0  0  0  0  0  0  0  0  0  0  0  0
  143.4517  142.1222  154.9743 H   0  0  0  0  0  0  0  0  0  0  0  0
  150.7532  144.0662  157.8615 H   0  0  0  0  0  0  0  0  0  0  0  0
  151.2075  145.6366  159.5605 H   0  0  0  0  0  0  0  0  0  0  0  0
  152.6966  145.3931  160.4691 H   0  0  0  0  0  0  0  0  0  0  0  0
  151.1419  144.9190  161.1697 H   0  0  0  0  0  0  0  0  0  0  0  0
  147.9043  142.8010  155.6855 H   0  0  0  0  0  0  0  0  0  0  0  0
  1  2  1  0  0  0  0
  1 23  1  0  0  0  0
  1 24  1  0  0  0  0
  1 25  1  0  0  0  0
  2 21  1  0  0  0  0
  2  3  2  0  0  0  0
  3  4  1  0  0  0  0
  3 26  1  0  0  0  0
  4 19  2  0  0  0  0
  4  5  1  0  0  0  0
  5  6  2  0  0  0  0
  6  7  1  0  0  0  0
  6 27  1  0  0  0  0
  7  8  1  0  0  0  0
  7 19  1  0  0  0  0
  8  9  1  0  0  0  0
  8 28  1  0  0  0  0
  8 29  1  0  0  0  0
  9 10  1  0  0  0  0
  9 11  1  0  0  0  0
  9 30  1  0  0  0  0
 10 31  1  0  0  0  0
 11 12  1  0  0  0  0
 11 32  1  0  0  0  0
 11 33  1  0  0  0  0
 12 13  1  0  0  0  0
 12 14  1  0  0  0  0
 12 47  1  0  0  0  0
 13 34  1  0  0  0  0
 13 35  1  0  0  0  0
 13 36  1  0  0  0  0
 14 15  1  0  0  0  0
 14 37  1  0  0  0  0
 14 38  1  0  0  0  0
 15 16  1  0  0  0  0
 15 17  1  0  0  0  0
 15 39  1  0  0  0  0
 16 40  1  0  0  0  0
 16 41  1  0  0  0  0
 16 42  1  0  0  0  0
 17 18  3  0  0  0  0
 19 20  1  0  0  0  0
 20 21  2  0  0  0  0
 20 43  1  0  0  0  0
 21 22  1  0  0  0  0
 22 44  1  0  0  0  0
 22 45  1  0  0  0  0
 22 46  1  0  0  0  0
M  CHG  1  12   1
M  END
> <s_m_source_file>
AV-unprocessed.smi

> <i_m_source_file_index>
1535

> <i_lp_mmshare_version>
43012

> <i_f3d_flags>
0

> <s_epik_input>
W0NIM11jKFtjSF0xKWMoW0NIM10pW2NIXWMoYzEyKW4oW2NIXW4yKVtDSDJdW0NASF0oW09IXSlbQ0gyXU4oW0NIM10pW0NIMl1bQ0BIXShbQ0gzXSlDI04=

> <s_epik_cmdline>
J2VwaWtfcHl0aG9uJywgJy1waCcsICc3LjAnLCAnLXRuJywgJzgnLCAnLW1hJywgJzIwMCcsICctbWV0YWxfYmluZGluZycsICctaW1hZScsICc8aW5maWxlLm1hZT4nLCAnLW9tYWUnLCAnPG91dGZpbGUubWFlPic=

> <r_epik_Ionization_Penalty>
2.21058

> <r_epik_Ionization_Penalty_Charging>
2.12381

> <r_epik_Ionization_Penalty_Neutral>
0.0867699

> <r_epik_State_Penalty>
2.36208

> <r_epik_Charging_Adjusted_Penalty>
4.48589

> <i_epik_Tot_Q>
1

> <i_epik_Tot_abs_Q>
1

> <r_epik_Metal_State_Penalty>
2.2818

> <b_epik_Metal_Only>
0

> <s_lp_Force_Field>
OPLS_2005

> <r_lp_Energy>
15.029

> <b_lp_Chiralities_Consistent>
1

> <s_lp_Variant>
AV-unprocessed.smi:1535-9

> <Gold.Version>
5.8.1

> <Gold.Id.Protein>
6NUR|6NUR_protein|mol2

> <Gold.PLP.Fitness>
57.1924

> <Gold.PLP.PLP>
-51.8016

> <Gold.PLP.part.hbond>
-4.5616

> <Gold.PLP.part.metal>
0.0000

> <Gold.PLP.part.buried>
-6.9103

> <Gold.PLP.part.nonpolar>
-40.3825

> <Gold.PLP.part.repulsive>
0.2602

> <Gold.PLP.ligand.clash>
0.0000

> <Gold.PLP.ligand.torsion>
1.7460

> <Gold.PLP.Chemscore.Hbond>
2.9120

> <Gold.PLP.Chemscore.CHOScore>
0.0000

> <Gold.PLP.Chemscore.Metal>
0.0000

> <Gold.Chemscore.Hbonds>
donor molecule, donor type, donor heavy atom, donor atom, acceptor molecule, acceptor atom, score
      L1  H    12    47       P1  8028  1.50
      P1  H  8011  8017       L1    10  0.78

> <Gold.PLP.Chemscore.Internal.Correction>
0.1468

> <Gold.Rescore>
     Score         DG    S(hbond)    S(metal)    S(lipo)     H(rot)  DE(clash)    DE(int)     intcor
     13.58     -16.42       1.20        0.00     116.34       2.60       0.83       2.01       ----

> <Gold.Chemscore.Fitness>
13.5841

> <Gold.Chemscore.DG>
-16.4231

> <Gold.Chemscore.ZeroCoef>
-5.4800

> <Gold.Chemscore.Hbond>
1.1962

> <Gold.Chemscore.Metal>
0.0000

> <Gold.Chemscore.Lipo>
116.3414

> <Gold.Chemscore.Internal_Hbond>
0.0000

> <Gold.Chemscore.DEClash>
0.8329

> <Gold.Chemscore.DEInternal>
2.0061

> <Gold.Chemscore.Rot>
2.6031

> <Gold.Chemscore.Internal.Correction>
   9.000000E+99

> <Gold.Chemscore.Hbonds>
donor molecule, donor type, donor heavy atom, donor atom, acceptor molecule, acceptor atom, score
      L1  H    12    47       P1  8028  0.54
      P1  H  8011  8017       L1    10  0.58

> <Gold.Chemscore.Hbond.Weighted>
-3.9951

> <Gold.Chemscore.Metal.Weighted>
-0.0000

> <Gold.Chemscore.Lipo.Weighted>
-13.6119

> <Gold.Chemscore.Internal_Hbond.Weighted>
0.0000

> <Gold.Chemscore.DEClash.Weighted>
0.8329

> <Gold.Chemscore.DEInternal.Weighted>
2.0061

> <Gold.Chemscore.Rot.Weighted>
6.6640

> <Gold.Chemscore.Internal.Correction.Weighted>
   9.000000E+99

> <Gold.Protein.RotatedTorsions>
[ 6907 6896 6895 6894 ] final  126.64 input  -60.11 | X-H torsion
[ 7974 7965 7964 7962 ] final  -11.83 input  175.53 | X-H torsion
[ 8008 7997 7996 7995 ] final  153.26 input   59.86 | X-H torsion
[ 10167 10162 10161 10158 ] final  167.03 input  -65.29 | X-H torsion
[ 10718 10713 10712 10709 ] final  177.68 input   66.30 | X-H torsion
[ 10763 10752 10751 10750 ] final    8.15 input  -60.55 | X-H torsion
[ 11005 11000 10999 10996 ] final   -3.14 input  -57.11 | X-H torsion

> <Gold.Protein.ActiveResidues>
 VAL166  LYS551  ARG553  GLY616  TRP617  ASP618  TYR619  PRO620  LYS621  CYS622 
 ASP623  PHE694  ASN695  SER759  ASP760  ASP761  ALA762  ILE779  LEU786  VAL792 
 PHE793  MET794  SER795  GLU796  ALA797  LYS798  CYS799  TRP800  GLU811  SER814 

> <Gold.Protein.RotatedAtoms>
  152.3885  133.6644  159.6217 H   0  0  0  0  0  0  0  0  0  0  0  0  # atno 6907 bound_to 6896
  150.7798  133.8995  159.3346 H   0  0  0  0  0  0  0  0  0  0  0  0  # atno 6908 bound_to 6896
  151.6787  135.0966  160.0263 H   0  0  0  0  0  0  0  0  0  0  0  0  # atno 6909 bound_to 6896
  146.2173  140.2969  142.8372 H   0  0  0  0  0  0  0  0  0  0  0  0  # atno 7974 bound_to 7965
  156.2590  140.1998  156.6462 H   0  0  0  0  0  0  0  0  0  0  0  0  # atno 8008 bound_to 7997
  154.6571  140.0565  157.0046 H   0  0  0  0  0  0  0  0  0  0  0  0  # atno 8009 bound_to 7997
  155.1331  140.3235  155.4472 H   0  0  0  0  0  0  0  0  0  0  0  0  # atno 8010 bound_to 7997
  139.4937  144.3965  151.9459 H   0  0  0  0  0  0  0  0  0  0  0  0  # atno 10167 bound_to 10162
  156.9017  130.9881  151.3034 H   0  0  0  0  0  0  0  0  0  0  0  0  # atno 10718 bound_to 10713
  153.2283  135.6889  153.7919 H   0  0  0  0  0  0  0  0  0  0  0  0  # atno 10763 bound_to 10752
  153.7093  135.3285  155.3243 H   0  0  0  0  0  0  0  0  0  0  0  0  # atno 10764 bound_to 10752
  154.8302  135.4586  154.1158 H   0  0  0  0  0  0  0  0  0  0  0  0  # atno 10765 bound_to 10752
  140.6661  133.9278  155.8465 H   0  0  0  0  0  0  0  0  0  0  0  0  # atno 11005 bound_to 11000
  144.9086  140.7730  143.5822 LP  0  0  0  0  0  0  0  0  0  0  0  0  # atno 17320 bound_to 7965
  145.2898  139.1887  143.4746 LP  0  0  0  0  0  0  0  0  0  0  0  0  # atno 17321 bound_to 7965
  140.3403  144.3211  150.5968 LP  0  0  0  0  0  0  0  0  0  0  0  0  # atno 17342 bound_to 10162
  140.5571  143.2197  151.7828 LP  0  0  0  0  0  0  0  0  0  0  0  0  # atno 17343 bound_to 10162
  157.6022  130.8521  149.8819 LP  0  0  0  0  0  0  0  0  0  0  0  0  # atno 17370 bound_to 10713
  156.0579  130.3705  150.1050 LP  0  0  0  0  0  0  0  0  0  0  0  0  # atno 17371 bound_to 10713
  141.0428  134.0596  157.3881 LP  0  0  0  0  0  0  0  0  0  0  0  0  # atno 17394 bound_to 11000
  139.8997  135.0159  156.7207 LP  0  0  0  0  0  0  0  0  0  0  0  0  # atno 17395 bound_to 11000

$$$$
