AV-unprocessed.smi:1922|AV-procd|sdf|7787|dock6
  -GOLD-   22720 9533D 1   1.00000     0.00000
 Structure written by MMmdl.
 34 35  0  0  0  0  0  0  0  0  2 V2000
  148.0866  141.8211  156.8073 O   0  0  0  0  0  0  0  0  0  0  0  0
  149.1526  141.7091  156.1997 C   0  0  0  0  0  0  0  0  0  0  0  0
  149.2077  141.0770  154.8001 C   0  0  0  0  0  0  0  0  0  0  0  0
  149.9918  139.8349  154.7327 N   0  0  0  0  0  0  0  0  0  0  0  0
  151.4346  140.0418  154.8226 N   0  5  0  0  0  0  0  0  0  0  0  0
  152.2618  138.9635  154.7893 C   0  0  0  0  0  0  0  0  0  0  0  0
  153.4837  139.0577  154.8793 O   0  0  0  0  0  0  0  0  0  0  0  0
  151.6645  137.6475  154.6343 C   0  0  0  0  0  0  0  0  0  0  0  0
  150.3306  137.4884  154.5269 C   0  0  0  0  0  0  0  0  0  0  0  0
  149.4058  138.6148  154.5647 C   0  0  0  0  0  0  0  0  0  0  0  0
  148.1868  138.4775  154.4559 O   0  0  0  0  0  0  0  0  0  0  0  0
  150.3303  142.1127  156.7005 N   0  0  0  0  0  0  0  0  0  0  0  0
  150.5284  142.7578  157.9942 C   0  0  0  0  0  0  0  0  0  0  0  0
  151.9243  142.4573  158.5716 C   0  0  0  0  0  0  0  0  0  0  0  0
  152.1516  140.9762  158.8804 C   0  0  0  0  0  0  0  0  0  0  0  0
  153.3482  140.9518  159.8371 C   0  0  0  0  0  0  0  0  0  0  0  0
  153.3807  142.3283  160.5192 C   0  0  0  0  0  0  0  0  0  0  0  0
  152.2311  143.1390  159.9096 C   0  0  0  0  0  0  0  0  0  0  0  0
  148.1912  140.8778  154.4556 H   0  0  0  0  0  0  0  0  0  0  0  0
  149.6095  141.8223  154.1114 H   0  0  0  0  0  0  0  0  0  0  0  0
  152.3047  136.7784  154.6017 H   0  0  0  0  0  0  0  0  0  0  0  0
  149.9310  136.4923  154.4107 H   0  0  0  0  0  0  0  0  0  0  0  0
  151.1527  141.9739  156.1316 H   0  0  0  0  0  0  0  0  0  0  0  0
  150.3634  143.8344  157.9251 H   0  0  0  0  0  0  0  0  0  0  0  0
  149.7646  142.3767  158.6722 H   0  0  0  0  0  0  0  0  0  0  0  0
  152.6802  142.7695  157.8487 H   0  0  0  0  0  0  0  0  0  0  0  0
  151.2759  140.5638  159.3841 H   0  0  0  0  0  0  0  0  0  0  0  0
  152.3249  140.3834  157.9818 H   0  0  0  0  0  0  0  0  0  0  0  0
  153.2668  140.1383  160.5586 H   0  0  0  0  0  0  0  0  0  0  0  0
  154.2710  140.7984  159.2764 H   0  0  0  0  0  0  0  0  0  0  0  0
  153.2755  142.2484  161.6016 H   0  0  0  0  0  0  0  0  0  0  0  0
  154.3352  142.8171  160.3204 H   0  0  0  0  0  0  0  0  0  0  0  0
  152.4822  144.1941  159.7953 H   0  0  0  0  0  0  0  0  0  0  0  0
  151.3599  143.0786  160.5635 H   0  0  0  0  0  0  0  0  0  0  0  0
  1  2  2  0  0  0  0
  2  3  1  0  0  0  0
  2 12  1  0  0  0  0
  3 19  1  0  0  0  0
  3 20  1  0  0  0  0
  3  4  1  0  0  0  0
  4  5  1  0  0  0  0
  4 10  1  0  0  0  0
  5  6  1  0  0  0  0
  6  7  2  0  0  0  0
  6  8  1  0  0  0  0
  8 21  1  0  0  0  0
  8  9  2  0  0  0  0
  9 22  1  0  0  0  0
  9 10  1  0  0  0  0
 10 11  2  0  0  0  0
 12 13  1  0  0  0  0
 12 23  1  0  0  0  0
 13 14  1  0  0  0  0
 13 24  1  0  0  0  0
 13 25  1  0  0  0  0
 14 18  1  0  0  0  0
 14 15  1  0  0  0  0
 14 26  1  0  0  0  0
 15 16  1  0  0  0  0
 15 27  1  0  0  0  0
 15 28  1  0  0  0  0
 16 17  1  0  0  0  0
 16 29  1  0  0  0  0
 16 30  1  0  0  0  0
 17 18  1  0  0  0  0
 17 31  1  0  0  0  0
 17 32  1  0  0  0  0
 18 33  1  0  0  0  0
 18 34  1  0  0  0  0
M  CHG  1   5  -1
M  END
> <s_m_source_file>
AV-unprocessed.smi

> <i_m_source_file_index>
1922

> <i_lp_mmshare_version>
43012

> <i_f3d_flags>
0

> <s_epik_input>
W0NIMl0xW0NIMl1bQ0gyXVtDSDJdW0NIXTFbQ0gyXVtOSF1DKD1PKVtDSDJdbjJbbkhdYyg9TylbY0hdW2NIXWMyPU8=

> <s_epik_cmdline>
J2VwaWtfcHl0aG9uJywgJy1waCcsICc3LjAnLCAnLXRuJywgJzgnLCAnLW1hJywgJzIwMCcsICctbWV0YWxfYmluZGluZycsICctaW1hZScsICc8aW5maWxlLm1hZT4nLCAnLW9tYWUnLCAnPG91dGZpbGUubWFlPic=

> <r_lp_tautomer_probability>
1

> <r_epik_Ionization_Penalty>
0.0984168

> <r_epik_Ionization_Penalty_Charging>
0.0984168

> <r_epik_Ionization_Penalty_Neutral>
1.97085e-08

> <r_epik_State_Penalty>
0.0346886

> <r_epik_Charging_Adjusted_Penalty>
0.133105

> <i_epik_Tot_Q>
-1

> <i_epik_Tot_abs_Q>
1

> <r_epik_Metal_State_Penalty>
0.0346886

> <b_epik_Metal_Only>
0

> <s_lp_Force_Field>
OPLS_2005

> <r_lp_Energy>
36.8816

> <b_lp_Chiralities_Consistent>
1

> <s_lp_Variant>
AV-unprocessed.smi:1922-1

> <Gold.Version>
5.8.1

> <Gold.Id.Protein>
6NUR|6NUR_protein|mol2

> <Gold.PLP.Fitness>
41.6368

> <Gold.PLP.PLP>
-36.2976

> <Gold.PLP.part.hbond>
-2.5226

> <Gold.PLP.part.metal>
0.0000

> <Gold.PLP.part.buried>
-2.9078

> <Gold.PLP.part.nonpolar>
-31.7295

> <Gold.PLP.part.repulsive>
0.3980

> <Gold.PLP.ligand.clash>
0.0000

> <Gold.PLP.ligand.torsion>
0.3355

> <Gold.PLP.Chemscore.Hbond>
2.0000

> <Gold.PLP.Chemscore.CHOScore>
0.0000

> <Gold.PLP.Chemscore.Metal>
0.0000

> <Gold.Chemscore.Hbonds>
donor molecule, donor type, donor heavy atom, donor atom, acceptor molecule, acceptor atom, score
      P1  H  7989  7998       L1     5  0.95
      P1  H  7997  8009       L1     7  1.00

> <Gold.PLP.Chemscore.Internal.Correction>
0.0102

> <Gold.Rescore>
     Score         DG    S(hbond)    S(metal)    S(lipo)     H(rot)  DE(clash)    DE(int)     intcor
     14.82     -15.32       1.63        0.00      80.10       1.94       0.04       0.45       ----

> <Gold.Chemscore.Fitness>
14.8248

> <Gold.Chemscore.DG>
-15.3168

> <Gold.Chemscore.ZeroCoef>
-5.4800

> <Gold.Chemscore.Hbond>
1.6264

> <Gold.Chemscore.Metal>
0.0000

> <Gold.Chemscore.Lipo>
80.0967

> <Gold.Chemscore.Internal_Hbond>
0.0000

> <Gold.Chemscore.DEClash>
0.0408

> <Gold.Chemscore.DEInternal>
0.4511

> <Gold.Chemscore.Rot>
1.9401

> <Gold.Chemscore.Internal.Correction>
   9.000000E+99

> <Gold.Chemscore.Hbonds>
donor molecule, donor type, donor heavy atom, donor atom, acceptor molecule, acceptor atom, score
      P1  H  7989  7998       L1     5  0.14
      P1  H  7997  8009       L1     7  0.99

> <Gold.Chemscore.Hbond.Weighted>
-5.4321

> <Gold.Chemscore.Metal.Weighted>
-0.0000

> <Gold.Chemscore.Lipo.Weighted>
-9.3713

> <Gold.Chemscore.Internal_Hbond.Weighted>
0.0000

> <Gold.Chemscore.DEClash.Weighted>
0.0408

> <Gold.Chemscore.DEInternal.Weighted>
0.4511

> <Gold.Chemscore.Rot.Weighted>
4.9666

> <Gold.Chemscore.Internal.Correction.Weighted>
   9.000000E+99

> <Gold.Protein.RotatedTorsions>
[ 6907 6896 6895 6894 ] final   23.88 input  -60.11 | X-H torsion
[ 7974 7965 7964 7962 ] final -135.65 input  175.53 | X-H torsion
[ 8008 7997 7996 7995 ] final -127.17 input   59.86 | X-H torsion
[ 10167 10162 10161 10158 ] final -101.09 input  -65.29 | X-H torsion
[ 10718 10713 10712 10709 ] final  -22.97 input   66.30 | X-H torsion
[ 10763 10752 10751 10750 ] final  179.21 input  -60.55 | X-H torsion
[ 11005 11000 10999 10996 ] final  136.32 input  -57.11 | X-H torsion

> <Gold.Protein.ActiveResidues>
 VAL166  LYS551  ARG553  GLY616  TRP617  ASP618  TYR619  PRO620  LYS621  CYS622 
 ASP623  PHE694  ASN695  SER759  ASP760  ASP761  ALA762  ILE779  LEU786  VAL792 
 PHE793  MET794  SER795  GLU796  ALA797  LYS798  CYS799  TRP800  GLU811  SER814 

> <Gold.Protein.RotatedAtoms>
  151.9491  135.0177  160.0540 H   0  0  0  0  0  0  0  0  0  0  0  0  # atno 6907 bound_to 6896
  152.1969  133.4808  159.5046 H   0  0  0  0  0  0  0  0  0  0  0  0  # atno 6908 bound_to 6896
  150.6946  134.1558  159.4200 H   0  0  0  0  0  0  0  0  0  0  0  0  # atno 6909 bound_to 6896
  144.8995  140.6752  143.5094 H   0  0  0  0  0  0  0  0  0  0  0  0  # atno 7974 bound_to 7965
  155.2418  140.0429  157.2976 H   0  0  0  0  0  0  0  0  0  0  0  0  # atno 8008 bound_to 7997
  154.5823  140.2404  155.8006 H   0  0  0  0  0  0  0  0  0  0  0  0  # atno 8009 bound_to 7997
  156.2202  140.2972  155.9942 H   0  0  0  0  0  0  0  0  0  0  0  0  # atno 8010 bound_to 7997
  140.2450  143.3512  152.0767 H   0  0  0  0  0  0  0  0  0  0  0  0  # atno 10167 bound_to 10162
  156.4973  130.4580  149.6721 H   0  0  0  0  0  0  0  0  0  0  0  0  # atno 10718 bound_to 10713
  154.5176  135.2792  155.1289 H   0  0  0  0  0  0  0  0  0  0  0  0  # atno 10763 bound_to 10752
  154.2860  135.6276  153.5369 H   0  0  0  0  0  0  0  0  0  0  0  0  # atno 10764 bound_to 10752
  152.9930  135.5662  154.5657 H   0  0  0  0  0  0  0  0  0  0  0  0  # atno 10765 bound_to 10752
  140.0038  134.9467  157.0131 H   0  0  0  0  0  0  0  0  0  0  0  0  # atno 11005 bound_to 11000
  145.3641  139.1674  143.4367 LP  0  0  0  0  0  0  0  0  0  0  0  0  # atno 17320 bound_to 7965
  146.3100  140.3706  142.8674 LP  0  0  0  0  0  0  0  0  0  0  0  0  # atno 17321 bound_to 7965
  139.5065  144.6814  151.5999 LP  0  0  0  0  0  0  0  0  0  0  0  0  # atno 17342 bound_to 10162
  140.6084  143.9481  150.6435 LP  0  0  0  0  0  0  0  0  0  0  0  0  # atno 17343 bound_to 10162
  156.3367  130.7360  151.2299 LP  0  0  0  0  0  0  0  0  0  0  0  0  # atno 17370 bound_to 10713
  157.7467  131.0415  150.4648 LP  0  0  0  0  0  0  0  0  0  0  0  0  # atno 17371 bound_to 10713
  140.4678  134.1417  155.7199 LP  0  0  0  0  0  0  0  0  0  0  0  0  # atno 17394 bound_to 11000
  141.1662  133.8698  157.1708 LP  0  0  0  0  0  0  0  0  0  0  0  0  # atno 17395 bound_to 11000

$$$$
