AV-unprocessed.smi:1749|AV-procd|sdf|7045|dock1
  -GOLD-   22720 8263D 1   1.00000     0.00000
 Structure written by MMmdl.
 32 33  0  0  0  0  0  0  0  0  1 V2000
  153.6079  140.9491  160.0326 C   0  0  0  0  0  0  0  0  0  0  0  0
  152.5114  142.0218  159.9646 C   0  0  1  0  0  0  0  0  0  0  0  0
  153.1010  143.4386  160.1028 C   0  0  0  0  0  0  0  0  0  0  0  0
  152.0061  144.5144  160.0316 C   0  0  0  0  0  0  0  0  0  0  0  0
  151.1871  144.3906  158.7375 C   0  0  0  0  0  0  0  0  0  0  0  0
  150.5884  142.9804  158.5861 C   0  0  1  0  0  0  0  0  0  0  0  0
  149.8954  142.8765  157.3055 N   0  0  0  0  0  0  0  0  0  0  0  0
  149.4653  141.7458  156.7210 C   0  0  0  0  0  0  0  0  0  0  0  0
  149.6000  140.6358  157.2331 O   0  0  0  0  0  0  0  0  0  0  0  0
  148.8623  141.8837  155.5204 N   0  0  0  0  0  0  0  0  0  0  0  0
  148.2928  140.9299  154.6262 C   0  0  0  0  0  0  0  0  0  0  0  0
  147.3299  141.2019  153.7297 N   0  0  0  0  0  0  0  0  0  0  0  0
  146.9740  140.0838  152.9878 N   0  0  0  0  0  0  0  0  0  0  0  0
  147.6830  139.0110  153.3487 C   0  0  0  0  0  0  0  0  0  0  0  0
  148.8541  139.2630  154.6310 S   0  0  0  0  0  0  0  0  0  0  0  0
  151.6879  141.9040  158.6673 C   0  0  0  0  0  0  0  0  0  0  0  0
  154.3220  141.0601  159.2162 H   0  0  0  0  0  0  0  0  0  0  0  0
  153.1821  139.9474  159.9684 H   0  0  0  0  0  0  0  0  0  0  0  0
  154.1612  141.0121  160.9700 H   0  0  0  0  0  0  0  0  0  0  0  0
  151.8371  141.8551  160.8059 H   0  0  0  0  0  0  0  0  0  0  0  0
  153.6400  143.5285  161.0466 H   0  0  0  0  0  0  0  0  0  0  0  0
  153.8324  143.6131  159.3124 H   0  0  0  0  0  0  0  0  0  0  0  0
  151.3447  144.4209  160.8939 H   0  0  0  0  0  0  0  0  0  0  0  0
  152.4553  145.5059  160.0927 H   0  0  0  0  0  0  0  0  0  0  0  0
  150.3921  145.1375  158.7324 H   0  0  0  0  0  0  0  0  0  0  0  0
  151.8279  144.6149  157.8835 H   0  0  0  0  0  0  0  0  0  0  0  0
  149.8913  142.8187  159.4102 H   0  0  0  0  0  0  0  0  0  0  0  0
  149.7380  143.7428  156.8101 H   0  0  0  0  0  0  0  0  0  0  0  0
  148.7779  142.8408  155.2100 H   0  0  0  0  0  0  0  0  0  0  0  0
  147.5154  138.0644  152.8563 H   0  0  0  0  0  0  0  0  0  0  0  0
  152.3515  141.9915  157.8054 H   0  0  0  0  0  0  0  0  0  0  0  0
  151.2352  140.9132  158.6068 H   0  0  0  0  0  0  0  0  0  0  0  0
  1  2  1  0  0  0  0
  1 17  1  0  0  0  0
  1 18  1  0  0  0  0
  1 19  1  0  0  0  0
  2 16  1  0  0  0  0
  2  3  1  0  0  0  0
  2 20  1  0  0  0  0
  3  4  1  0  0  0  0
  3 21  1  0  0  0  0
  3 22  1  0  0  0  0
  4  5  1  0  0  0  0
  4 23  1  0  0  0  0
  4 24  1  0  0  0  0
  5  6  1  0  0  0  0
  5 25  1  0  0  0  0
  5 26  1  0  0  0  0
  6  7  1  0  0  0  0
  6 16  1  0  0  0  0
  6 27  1  0  0  0  0
  7  8  1  0  0  0  0
  7 28  1  0  0  0  0
  8  9  2  0  0  0  0
  8 10  1  0  0  0  0
 10 11  1  0  0  0  0
 10 29  1  0  0  0  0
 11 15  1  0  0  0  0
 11 12  2  0  0  0  0
 12 13  1  0  0  0  0
 13 14  2  0  0  0  0
 14 15  1  0  0  0  0
 14 30  1  0  0  0  0
 16 31  1  0  0  0  0
 16 32  1  0  0  0  0
M  END
> <s_m_source_file>
AV-unprocessed.smi

> <i_m_source_file_index>
1749

> <i_lp_mmshare_version>
43012

> <i_f3d_flags>
0

> <s_epik_input>
W0NIM11bQ0BASF0xW0NIMl1bQ0gyXVtDSDJdW0NASF0oW0NIMl0xKVtOSF1DKD1PKVtOSF1jMm5uW2NIXXMy

> <s_epik_cmdline>
J2VwaWtfcHl0aG9uJywgJy1waCcsICc3LjAnLCAnLXRuJywgJzgnLCAnLW1hJywgJzIwMCcsICctbWV0YWxfYmluZGluZycsICctaW1hZScsICc8aW5maWxlLm1hZT4nLCAnLW9tYWUnLCAnPG91dGZpbGUubWFlPic=

> <r_lp_tautomer_probability>
1

> <r_epik_Ionization_Penalty>
0.000318591

> <r_epik_Ionization_Penalty_Charging>
0

> <r_epik_Ionization_Penalty_Neutral>
0.000318591

> <r_epik_State_Penalty>
-0

> <r_epik_Charging_Adjusted_Penalty>
0

> <i_epik_Tot_Q>
0

> <i_epik_Tot_abs_Q>
0

> <r_epik_Metal_State_Penalty>
0.169791

> <b_epik_Metal_Only>
0

> <s_lp_Force_Field>
OPLS_2005

> <r_lp_Energy>
11.6735

> <b_lp_Chiralities_Consistent>
1

> <s_lp_Variant>
AV-unprocessed.smi:1749-2

> <Gold.Version>
5.8.1

> <Gold.Id.Protein>
6NUR|6NUR_protein|mol2

> <Gold.PLP.Fitness>
38.7037

> <Gold.PLP.PLP>
-30.3886

> <Gold.PLP.part.hbond>
-2.0000

> <Gold.PLP.part.metal>
0.0000

> <Gold.PLP.part.buried>
-4.4165

> <Gold.PLP.part.nonpolar>
-25.5114

> <Gold.PLP.part.repulsive>
0.5646

> <Gold.PLP.ligand.clash>
0.0000

> <Gold.PLP.ligand.torsion>
0.3076

> <Gold.PLP.Chemscore.Hbond>
1.9760

> <Gold.PLP.Chemscore.CHOScore>
1.0000

> <Gold.PLP.Chemscore.Metal>
0.0000

> <Gold.Chemscore.Hbonds>
donor molecule, donor type, donor heavy atom, donor atom, acceptor molecule, acceptor atom, score
      L1  H     7    28       P1  8028  1.00
      L1  H    10    29       P1  8028  0.98
      L1  C    14    30       P1  7948  1.00

> <Gold.PLP.Chemscore.Internal.Correction>
0.0022

> <Gold.Rescore>
     Score         DG    S(hbond)    S(metal)    S(lipo)     H(rot)  DE(clash)    DE(int)     intcor
     17.13     -18.79       1.88        0.00      82.05       1.00       0.04       1.63       ----

> <Gold.Chemscore.Fitness>
17.1260

> <Gold.Chemscore.DG>
-18.7907

> <Gold.Chemscore.ZeroCoef>
-5.4800

> <Gold.Chemscore.Hbond>
1.8774

> <Gold.Chemscore.Metal>
0.0000

> <Gold.Chemscore.Lipo>
82.0518

> <Gold.Chemscore.Internal_Hbond>
0.0000

> <Gold.Chemscore.DEClash>
0.0376

> <Gold.Chemscore.DEInternal>
1.6271

> <Gold.Chemscore.Rot>
1.0000

> <Gold.Chemscore.Internal.Correction>
   9.000000E+99

> <Gold.Chemscore.Hbonds>
donor molecule, donor type, donor heavy atom, donor atom, acceptor molecule, acceptor atom, score
      L1  H     7    28       P1  8028  0.95
      L1  H    10    29       P1  8028  0.93

> <Gold.Chemscore.Hbond.Weighted>
-6.2707

> <Gold.Chemscore.Metal.Weighted>
-0.0000

> <Gold.Chemscore.Lipo.Weighted>
-9.6001

> <Gold.Chemscore.Internal_Hbond.Weighted>
0.0000

> <Gold.Chemscore.DEClash.Weighted>
0.0376

> <Gold.Chemscore.DEInternal.Weighted>
1.6271

> <Gold.Chemscore.Rot.Weighted>
2.5600

> <Gold.Chemscore.Internal.Correction.Weighted>
   9.000000E+99

> <Gold.Protein.RotatedTorsions>
[ 6907 6896 6895 6894 ] final  107.74 input  -60.11 | X-H torsion
[ 7974 7965 7964 7962 ] final -150.96 input  175.53 | X-H torsion
[ 8008 7997 7996 7995 ] final  -82.45 input   59.86 | X-H torsion
[ 10167 10162 10161 10158 ] final  150.67 input  -65.29 | X-H torsion
[ 10718 10713 10712 10709 ] final -170.80 input   66.30 | X-H torsion
[ 10763 10752 10751 10750 ] final   83.18 input  -60.55 | X-H torsion
[ 11005 11000 10999 10996 ] final  -96.11 input  -57.11 | X-H torsion

> <Gold.Protein.ActiveResidues>
 VAL166  LYS551  ARG553  GLY616  TRP617  ASP618  TYR619  PRO620  LYS621  CYS622 
 ASP623  PHE694  ASN695  SER759  ASP760  ASP761  ALA762  ILE779  LEU786  VAL792 
 PHE793  MET794  SER795  GLU796  ALA797  LYS798  CYS799  TRP800  GLU811  SER814 

> <Gold.Protein.RotatedAtoms>
  152.5142  133.9190  159.7524 H   0  0  0  0  0  0  0  0  0  0  0  0  # atno 6907 bound_to 6896
  150.9566  133.6482  159.2769 H   0  0  0  0  0  0  0  0  0  0  0  0  # atno 6908 bound_to 6896
  151.3742  135.0933  159.9528 H   0  0  0  0  0  0  0  0  0  0  0  0  # atno 6909 bound_to 6896
  144.7877  140.4862  143.5794 H   0  0  0  0  0  0  0  0  0  0  0  0  # atno 7974 bound_to 7965
  154.6087  140.0633  156.9465 H   0  0  0  0  0  0  0  0  0  0  0  0  # atno 8008 bound_to 7997
  155.2009  140.3315  155.4325 H   0  0  0  0  0  0  0  0  0  0  0  0  # atno 8009 bound_to 7997
  156.2363  140.1864  156.7092 H   0  0  0  0  0  0  0  0  0  0  0  0  # atno 8010 bound_to 7997
  139.4848  144.5504  151.7411 H   0  0  0  0  0  0  0  0  0  0  0  0  # atno 10167 bound_to 10162
  156.7315  130.9308  151.3104 H   0  0  0  0  0  0  0  0  0  0  0  0  # atno 10718 bound_to 10713
  153.1268  135.4701  154.9285 H   0  0  0  0  0  0  0  0  0  0  0  0  # atno 10763 bound_to 10752
  154.7627  135.3136  154.8348 H   0  0  0  0  0  0  0  0  0  0  0  0  # atno 10764 bound_to 10752
  153.8900  135.6885  153.4815 H   0  0  0  0  0  0  0  0  0  0  0  0  # atno 10765 bound_to 10752
  141.1421  133.8074  157.0526 H   0  0  0  0  0  0  0  0  0  0  0  0  # atno 11005 bound_to 11000
  145.5876  139.1493  143.3200 LP  0  0  0  0  0  0  0  0  0  0  0  0  # atno 17320 bound_to 7965
  146.2117  140.6004  142.9057 LP  0  0  0  0  0  0  0  0  0  0  0  0  # atno 17321 bound_to 7965
  140.5057  144.1102  150.5982 LP  0  0  0  0  0  0  0  0  0  0  0  0  # atno 17342 bound_to 10162
  140.4010  143.2703  151.9947 LP  0  0  0  0  0  0  0  0  0  0  0  0  # atno 17343 bound_to 10162
  157.6857  130.9183  150.0380 LP  0  0  0  0  0  0  0  0  0  0  0  0  # atno 17370 bound_to 10713
  156.1526  130.3642  149.9416 LP  0  0  0  0  0  0  0  0  0  0  0  0  # atno 17371 bound_to 10713
  140.0622  134.9748  157.1324 LP  0  0  0  0  0  0  0  0  0  0  0  0  # atno 17394 bound_to 11000
  140.3832  134.2264  155.7170 LP  0  0  0  0  0  0  0  0  0  0  0  0  # atno 17395 bound_to 11000

$$$$
