AV-unprocessed.smi:1999|AV-procd|sdf|8097|dock5
  -GOLD-   2272010313D 1   1.00000     0.00000
 Structure written by MMmdl.
 37 38  0  0  0  0  0  0  0  0  2 V2000
  146.7469  133.9765  162.4679 C   0  0  0  0  0  0  0  0  0  0  0  0
  147.3197  135.0129  161.5630 C   0  0  0  0  0  0  0  0  0  0  0  0
  147.5344  136.2723  161.9508 N   0  0  0  0  0  0  0  0  0  0  0  0
  148.0692  137.0485  160.9328 N   0  0  0  0  0  0  0  0  0  0  0  0
  148.2433  136.3699  159.7898 C   0  0  0  0  0  0  0  0  0  0  0  0
  148.7523  136.9390  158.6847 N   0  5  0  0  0  0  0  0  0  0  0  0
  149.9800  137.5056  158.7207 C   0  0  0  0  0  0  0  0  0  0  0  0
  150.9894  137.0276  159.2436 O   0  0  0  0  0  0  0  0  0  0  0  0
  150.0412  138.6995  158.1134 N   0  0  0  0  0  0  0  0  0  0  0  0
  151.2216  139.5557  158.0062 C   0  0  1  0  0  0  0  0  0  0  0  0
  152.1669  139.0163  156.9216 C   0  0  0  0  0  0  0  0  0  0  0  0
  150.7931  141.0060  157.7011 C   0  0  0  0  0  0  0  0  0  0  0  0
  151.7468  142.0471  158.0901 N   0  0  0  0  0  0  0  0  0  0  0  0
  151.2353  143.3975  157.8667 C   0  0  0  0  0  0  0  0  0  0  0  0
  152.2446  144.4728  158.3058 C   0  0  0  0  0  0  0  0  0  0  0  0
  152.5925  144.2767  159.6727 O   0  0  0  0  0  0  0  0  0  0  0  0
  153.1421  142.9864  159.9178 C   0  0  0  0  0  0  0  0  0  0  0  0
  152.1319  141.9083  159.4899 C   0  0  0  0  0  0  0  0  0  0  0  0
  147.7631  134.6764  159.8980 S   0  0  0  0  0  0  0  0  0  0  0  0
  145.6589  134.0430  162.4677 H   0  0  0  0  0  0  0  0  0  0  0  0
  147.1084  134.1206  163.4864 H   0  0  0  0  0  0  0  0  0  0  0  0
  147.0379  132.9808  162.1332 H   0  0  0  0  0  0  0  0  0  0  0  0
  149.1885  139.0520  157.7042 H   0  0  0  0  0  0  0  0  0  0  0  0
  151.7656  139.5434  158.9512 H   0  0  0  0  0  0  0  0  0  0  0  0
  153.0568  139.6397  156.8332 H   0  0  0  0  0  0  0  0  0  0  0  0
  151.6792  138.9903  155.9466 H   0  0  0  0  0  0  0  0  0  0  0  0
  152.4984  138.0038  157.1546 H   0  0  0  0  0  0  0  0  0  0  0  0
  150.5702  141.0977  156.6370 H   0  0  0  0  0  0  0  0  0  0  0  0
  149.8495  141.1883  158.2176 H   0  0  0  0  0  0  0  0  0  0  0  0
  151.0101  143.5475  156.8114 H   0  0  0  0  0  0  0  0  0  0  0  0
  150.2998  143.5348  158.4110 H   0  0  0  0  0  0  0  0  0  0  0  0
  153.1420  144.4341  157.6863 H   0  0  0  0  0  0  0  0  0  0  0  0
  151.8151  145.4674  158.1862 H   0  0  0  0  0  0  0  0  0  0  0  0
  154.0819  142.8731  159.3751 H   0  0  0  0  0  0  0  0  0  0  0  0
  153.3713  142.8919  160.9792 H   0  0  0  0  0  0  0  0  0  0  0  0
  151.2471  141.9721  160.1254 H   0  0  0  0  0  0  0  0  0  0  0  0
  152.5664  140.9223  159.6582 H   0  0  0  0  0  0  0  0  0  0  0  0
  1  2  1  0  0  0  0
  1 20  1  0  0  0  0
  1 21  1  0  0  0  0
  1 22  1  0  0  0  0
  2 19  1  0  0  0  0
  2  3  2  0  0  0  0
  3  4  1  0  0  0  0
  4  5  2  0  0  0  0
  5  6  1  0  0  0  0
  5 19  1  0  0  0  0
  6  7  1  0  0  0  0
  7  8  2  0  0  0  0
  7  9  1  0  0  0  0
  9 10  1  0  0  0  0
  9 23  1  0  0  0  0
 10 11  1  0  0  0  0
 10 12  1  0  0  0  0
 10 24  1  0  0  0  0
 11 25  1  0  0  0  0
 11 26  1  0  0  0  0
 11 27  1  0  0  0  0
 12 13  1  0  0  0  0
 12 28  1  0  0  0  0
 12 29  1  0  0  0  0
 13 18  1  0  0  0  0
 13 14  1  0  0  0  0
 14 15  1  0  0  0  0
 14 30  1  0  0  0  0
 14 31  1  0  0  0  0
 15 16  1  0  0  0  0
 15 32  1  0  0  0  0
 15 33  1  0  0  0  0
 16 17  1  0  0  0  0
 17 18  1  0  0  0  0
 17 34  1  0  0  0  0
 17 35  1  0  0  0  0
 18 36  1  0  0  0  0
 18 37  1  0  0  0  0
M  CHG  1   6  -1
M  END
> <s_m_source_file>
AV-unprocessed.smi

> <i_m_source_file_index>
1999

> <i_lp_mmshare_version>
43012

> <i_f3d_flags>
0

> <s_epik_input>
W0NIM11jMW5uYyhzMSlbTkhdQyg9TylbTkhdW0NASF0oW0NIM10pW0NIMl1OMltDSDJdW0NIMl1PW0NIMl1bQ0gyXTI=

> <s_epik_cmdline>
J2VwaWtfcHl0aG9uJywgJy1waCcsICc3LjAnLCAnLXRuJywgJzgnLCAnLW1hJywgJzIwMCcsICctbWV0YWxfYmluZGluZycsICctaW1hZScsICc8aW5maWxlLm1hZT4nLCAnLW9tYWUnLCAnPG91dGZpbGUubWFlPic=

> <r_lp_tautomer_probability>
1

> <r_epik_Ionization_Penalty>
3.74165

> <r_epik_Ionization_Penalty_Charging>
3.28066

> <r_epik_Ionization_Penalty_Neutral>
0.460988

> <r_epik_State_Penalty>
3.48767

> <r_epik_Charging_Adjusted_Penalty>
6.76834

> <i_epik_Tot_Q>
-1

> <i_epik_Tot_abs_Q>
1

> <r_epik_Metal_State_Penalty>
0.700129

> <b_epik_Metal_Only>
1

> <s_lp_Force_Field>
OPLS_2005

> <r_lp_Energy>
23.1918

> <b_lp_Chiralities_Consistent>
1

> <s_lp_Variant>
AV-unprocessed.smi:1999-6

> <Gold.Version>
5.8.1

> <Gold.Id.Protein>
6NUR|6NUR_protein|mol2

> <Gold.PLP.Fitness>
41.7880

> <Gold.PLP.PLP>
-36.6297

> <Gold.PLP.part.hbond>
-3.0000

> <Gold.PLP.part.metal>
0.0000

> <Gold.PLP.part.buried>
-4.9203

> <Gold.PLP.part.nonpolar>
-28.5359

> <Gold.PLP.part.repulsive>
0.1460

> <Gold.PLP.ligand.clash>
0.0000

> <Gold.PLP.ligand.torsion>
1.4292

> <Gold.PLP.Chemscore.Hbond>
2.6417

> <Gold.PLP.Chemscore.CHOScore>
0.0000

> <Gold.PLP.Chemscore.Metal>
0.0000

> <Gold.Chemscore.Hbonds>
donor molecule, donor type, donor heavy atom, donor atom, acceptor molecule, acceptor atom, score
      P1  H  6896  6908       L1     8  1.00
      P1  H  6931  6943       L1     4  0.99
      P1  H  6934  6947       L1     4  0.50

> <Gold.PLP.Chemscore.Internal.Correction>
0.0917

> <Gold.Rescore>
     Score         DG    S(hbond)    S(metal)    S(lipo)     H(rot)  DE(clash)    DE(int)     intcor
     18.35     -19.57       2.59        0.00      80.56       1.56       0.01       1.21       ----

> <Gold.Chemscore.Fitness>
18.3490

> <Gold.Chemscore.DG>
-19.5728

> <Gold.Chemscore.ZeroCoef>
-5.4800

> <Gold.Chemscore.Hbond>
2.5895

> <Gold.Chemscore.Metal>
0.0000

> <Gold.Chemscore.Lipo>
80.5635

> <Gold.Chemscore.Internal_Hbond>
0.0000

> <Gold.Chemscore.DEClash>
0.0139

> <Gold.Chemscore.DEInternal>
1.2098

> <Gold.Chemscore.Rot>
1.5556

> <Gold.Chemscore.Internal.Correction>
   9.000000E+99

> <Gold.Chemscore.Hbonds>
donor molecule, donor type, donor heavy atom, donor atom, acceptor molecule, acceptor atom, score
      P1  H  6896  6908       L1     8  0.94
      P1  H  6931  6943       L1     4  0.28
      P1  H  6934  6947       L1     4  0.39

> <Gold.Chemscore.Hbond.Weighted>
-8.6491

> <Gold.Chemscore.Metal.Weighted>
-0.0000

> <Gold.Chemscore.Lipo.Weighted>
-9.4259

> <Gold.Chemscore.Internal_Hbond.Weighted>
0.0000

> <Gold.Chemscore.DEClash.Weighted>
0.0139

> <Gold.Chemscore.DEInternal.Weighted>
1.2098

> <Gold.Chemscore.Rot.Weighted>
3.9823

> <Gold.Chemscore.Internal.Correction.Weighted>
   9.000000E+99

> <Gold.Protein.RotatedTorsions>
[ 6907 6896 6895 6894 ] final -136.74 input  -60.11 | X-H torsion
[ 7974 7965 7964 7962 ] final -172.53 input  175.53 | X-H torsion
[ 8008 7997 7996 7995 ] final  -38.71 input   59.86 | X-H torsion
[ 10167 10162 10161 10158 ] final   49.25 input  -65.29 | X-H torsion
[ 10718 10713 10712 10709 ] final   26.35 input   66.30 | X-H torsion
[ 10763 10752 10751 10750 ] final  -98.98 input  -60.55 | X-H torsion
[ 11005 11000 10999 10996 ] final  -73.38 input  -57.11 | X-H torsion

> <Gold.Protein.ActiveResidues>
 VAL166  LYS551  ARG553  GLY616  TRP617  ASP618  TYR619  PRO620  LYS621  CYS622 
 ASP623  PHE694  ASN695  SER759  ASP760  ASP761  ALA762  ILE779  LEU786  VAL792 
 PHE793  MET794  SER795  GLU796  ALA797  LYS798  CYS799  TRP800  GLU811  SER814 

> <Gold.Protein.RotatedAtoms>
  151.0138  133.5940  159.2679 H   0  0  0  0  0  0  0  0  0  0  0  0  # atno 6907 bound_to 6896
  151.3082  135.0786  159.9272 H   0  0  0  0  0  0  0  0  0  0  0  0  # atno 6908 bound_to 6896
  152.5306  133.9807  159.7859 H   0  0  0  0  0  0  0  0  0  0  0  0  # atno 6909 bound_to 6896
  144.7145  140.1759  143.6363 H   0  0  0  0  0  0  0  0  0  0  0  0  # atno 7974 bound_to 7965
  154.4033  140.1571  156.2744 H   0  0  0  0  0  0  0  0  0  0  0  0  # atno 8008 bound_to 7997
  155.8925  140.3438  155.5944 H   0  0  0  0  0  0  0  0  0  0  0  0  # atno 8009 bound_to 7997
  155.7542  140.0809  157.2177 H   0  0  0  0  0  0  0  0  0  0  0  0  # atno 8010 bound_to 7997
  140.2849  144.3114  150.6255 H   0  0  0  0  0  0  0  0  0  0  0  0  # atno 10167 bound_to 10162
  157.2056  130.6910  149.6206 H   0  0  0  0  0  0  0  0  0  0  0  0  # atno 10718 bound_to 10713
  154.7460  135.4989  153.9204 H   0  0  0  0  0  0  0  0  0  0  0  0  # atno 10763 bound_to 10752
  153.1092  135.6705  153.9539 H   0  0  0  0  0  0  0  0  0  0  0  0  # atno 10764 bound_to 10752
  153.9303  135.3078  155.3425 H   0  0  0  0  0  0  0  0  0  0  0  0  # atno 10765 bound_to 10752
  141.1622  133.6876  156.7203 H   0  0  0  0  0  0  0  0  0  0  0  0  # atno 11005 bound_to 11000
  145.8901  139.2371  143.1554 LP  0  0  0  0  0  0  0  0  0  0  0  0  # atno 17320 bound_to 7965
  145.9912  140.8601  143.0065 LP  0  0  0  0  0  0  0  0  0  0  0  0  # atno 17321 bound_to 7965
  140.5781  143.2175  151.7478 LP  0  0  0  0  0  0  0  0  0  0  0  0  # atno 17342 bound_to 10162
  139.4953  144.4120  152.0070 LP  0  0  0  0  0  0  0  0  0  0  0  0  # atno 17343 bound_to 10162
  155.9696  130.4568  150.5939 LP  0  0  0  0  0  0  0  0  0  0  0  0  # atno 17370 bound_to 10713
  157.3724  131.0767  151.1547 LP  0  0  0  0  0  0  0  0  0  0  0  0  # atno 17371 bound_to 10713
  140.2821  134.8309  157.3942 LP  0  0  0  0  0  0  0  0  0  0  0  0  # atno 17394 bound_to 11000
  140.1424  134.4955  155.8021 LP  0  0  0  0  0  0  0  0  0  0  0  0  # atno 17395 bound_to 11000

$$$$
