AV-unprocessed.smi:447|AV-procd|sdf|2602|dock9
  -GOLD-   2262023 03D 1   1.00000     0.00000
 Structure written by MMmdl.
 46 48  0  0  0  0  0  0  0  0  2 V2000
  151.0220  134.1044  153.9298 C   0  0  0  0  0  0  0  0  0  0  0  0
  151.0320  135.4150  154.7082 C   0  0  0  0  0  0  0  0  0  0  0  0
  150.4799  135.4854  155.8042 O   0  0  0  0  0  0  0  0  0  0  0  0
  151.6607  136.4481  154.1271 N   0  0  0  0  0  0  0  0  0  0  0  0
  151.8478  137.7727  154.7176 C   0  0  1  0  0  0  0  0  0  0  0  0
  153.1325  138.3960  154.1537 C   0  0  0  0  0  0  0  0  0  0  0  0
  150.6807  138.6963  154.5028 C   0  0  0  0  0  0  0  0  0  0  0  0
  149.6139  138.4710  153.6818 N   0  3  0  0  0  0  0  0  0  0  0  0
  148.7438  139.5596  153.7208 C   0  0  0  0  0  0  0  0  0  0  0  0
  147.5364  139.7853  153.0674 C   0  0  0  0  0  0  0  0  0  0  0  0
  146.8999  141.0178  153.3223 C   0  0  0  0  0  0  0  0  0  0  0  0
  147.4666  141.9701  154.1941 C   0  0  0  0  0  0  0  0  0  0  0  0
  148.6920  141.7295  154.8497 C   0  0  0  0  0  0  0  0  0  0  0  0
  149.3112  140.5054  154.5976 C   0  0  0  0  0  0  0  0  0  0  0  0
  150.5000  139.9303  155.0610 N   0  0  0  0  0  0  0  0  0  0  0  0
  151.3412  140.6930  155.9983 C   0  0  0  0  0  0  0  0  0  0  0  0
  150.9759  140.4594  157.4791 C   0  0  2  0  0  0  0  0  0  0  0  0
  149.5709  140.5365  157.5955 O   0  0  0  0  0  0  0  0  0  0  0  0
  151.6775  141.4246  158.4229 C   0  0  0  0  0  0  0  0  0  0  0  0
  151.4448  142.8125  158.3137 C   0  0  0  0  0  0  0  0  0  0  0  0
  152.1047  143.7126  159.1725 C   0  0  0  0  0  0  0  0  0  0  0  0
  152.9928  143.2295  160.1526 C   0  0  0  0  0  0  0  0  0  0  0  0
  153.2221  141.8455  160.2722 C   0  0  0  0  0  0  0  0  0  0  0  0
  152.5695  140.9459  159.4075 C   0  0  0  0  0  0  0  0  0  0  0  0
  150.6466  134.2612  152.9183 H   0  0  0  0  0  0  0  0  0  0  0  0
  150.3844  133.3675  154.4196 H   0  0  0  0  0  0  0  0  0  0  0  0
  152.0302  133.6945  153.8664 H   0  0  0  0  0  0  0  0  0  0  0  0
  152.0801  136.2935  153.2217 H   0  0  0  0  0  0  0  0  0  0  0  0
  151.9795  137.6353  155.7912 H   0  0  0  0  0  0  0  0  0  0  0  0
  153.3439  139.3594  154.6178 H   0  0  0  0  0  0  0  0  0  0  0  0
  153.0563  138.5574  153.0779 H   0  0  0  0  0  0  0  0  0  0  0  0
  153.9937  137.7518  154.3338 H   0  0  0  0  0  0  0  0  0  0  0  0
  147.1026  139.0587  152.3961 H   0  0  0  0  0  0  0  0  0  0  0  0
  145.9598  141.2384  152.8375 H   0  0  0  0  0  0  0  0  0  0  0  0
  146.9513  142.9046  154.3634 H   0  0  0  0  0  0  0  0  0  0  0  0
  149.1187  142.4664  155.5139 H   0  0  0  0  0  0  0  0  0  0  0  0
  152.3833  140.4307  155.8162 H   0  0  0  0  0  0  0  0  0  0  0  0
  151.2457  141.7489  155.7409 H   0  0  0  0  0  0  0  0  0  0  0  0
  151.2464  139.4428  157.7637 H   0  0  0  0  0  0  0  0  0  0  0  0
  149.3613  141.1022  158.3231 H   0  0  0  0  0  0  0  0  0  0  0  0
  150.7619  143.1933  157.5685 H   0  0  0  0  0  0  0  0  0  0  0  0
  151.9248  144.7736  159.0840 H   0  0  0  0  0  0  0  0  0  0  0  0
  153.4936  143.9198  160.8151 H   0  0  0  0  0  0  0  0  0  0  0  0
  153.9007  141.4737  161.0255 H   0  0  0  0  0  0  0  0  0  0  0  0
  152.7539  139.8859  159.5040 H   0  0  0  0  0  0  0  0  0  0  0  0
  149.4925  137.6258  153.1390 H   0  0  0  0  0  0  0  0  0  0  0  0
  1  2  1  0  0  0  0
  1 25  1  0  0  0  0
  1 26  1  0  0  0  0
  1 27  1  0  0  0  0
  2  3  2  0  0  0  0
  2  4  1  0  0  0  0
  4  5  1  0  0  0  0
  4 28  1  0  0  0  0
  5  6  1  0  0  0  0
  5  7  1  0  0  0  0
  5 29  1  0  0  0  0
  6 30  1  0  0  0  0
  6 31  1  0  0  0  0
  6 32  1  0  0  0  0
  7 15  1  0  0  0  0
  7  8  2  0  0  0  0
  8  9  1  0  0  0  0
  8 46  1  0  0  0  0
  9 14  2  0  0  0  0
  9 10  1  0  0  0  0
 10 11  2  0  0  0  0
 10 33  1  0  0  0  0
 11 12  1  0  0  0  0
 11 34  1  0  0  0  0
 12 13  2  0  0  0  0
 12 35  1  0  0  0  0
 13 14  1  0  0  0  0
 13 36  1  0  0  0  0
 14 15  1  0  0  0  0
 15 16  1  0  0  0  0
 16 17  1  0  0  0  0
 16 37  1  0  0  0  0
 16 38  1  0  0  0  0
 17 18  1  0  0  0  0
 17 19  1  0  0  0  0
 17 39  1  0  0  0  0
 18 40  1  0  0  0  0
 19 24  1  0  0  0  0
 19 20  2  0  0  0  0
 20 21  1  0  0  0  0
 20 41  1  0  0  0  0
 21 22  2  0  0  0  0
 21 42  1  0  0  0  0
 22 23  1  0  0  0  0
 22 43  1  0  0  0  0
 23 24  2  0  0  0  0
 23 44  1  0  0  0  0
 24 45  1  0  0  0  0
M  CHG  1   8   1
M  END
> <s_m_source_file>
AV-unprocessed.smi

> <i_m_source_file_index>
447

> <i_lp_mmshare_version>
43012

> <i_f3d_flags>
0

> <s_epik_input>
W0NIM11DKD1PKVtOSF1bQ0BIXShbQ0gzXSljKG4xKW4oYyhjMTIpW2NIXVtjSF1bY0hdW2NIXTIpW0NIMl1bQ0BIXShbT0hdKWMzW2NIXVtjSF1bY0hdW2NIXVtjSF0z

> <s_epik_cmdline>
J2VwaWtfcHl0aG9uJywgJy1waCcsICc3LjAnLCAnLXRuJywgJzgnLCAnLW1hJywgJzIwMCcsICctbWV0YWxfYmluZGluZycsICctaW1hZScsICc8aW5maWxlLm1hZT4nLCAnLW9tYWUnLCAnPG91dGZpbGUubWFlPic=

> <r_epik_Ionization_Penalty>
0.950381

> <r_epik_Ionization_Penalty_Charging>
0.950379

> <r_epik_Ionization_Penalty_Neutral>
1.42115e-06

> <r_epik_State_Penalty>
0.994584

> <r_epik_Charging_Adjusted_Penalty>
1.94496

> <i_epik_Tot_Q>
1

> <i_epik_Tot_abs_Q>
1

> <r_epik_Metal_State_Penalty>
1.10485

> <b_epik_Metal_Only>
0

> <s_lp_Force_Field>
OPLS_2005

> <r_lp_Energy>
11.3805

> <b_lp_Chiralities_Consistent>
1

> <s_lp_Variant>
AV-unprocessed.smi:447-6

> <Gold.Version>
5.8.1

> <Gold.Id.Protein>
6NUR|6NUR_protein|mol2

> <Gold.PLP.Fitness>
57.9867

> <Gold.PLP.PLP>
-50.8063

> <Gold.PLP.part.hbond>
-3.7169

> <Gold.PLP.part.metal>
0.0000

> <Gold.PLP.part.buried>
-0.0954

> <Gold.PLP.part.nonpolar>
-48.0254

> <Gold.PLP.part.repulsive>
0.1693

> <Gold.PLP.ligand.clash>
0.0000

> <Gold.PLP.ligand.torsion>
0.9273

> <Gold.PLP.Chemscore.Hbond>
3.0000

> <Gold.PLP.Chemscore.CHOScore>
0.0000

> <Gold.PLP.Chemscore.Metal>
0.0000

> <Gold.Chemscore.Hbonds>
donor molecule, donor type, donor heavy atom, donor atom, acceptor molecule, acceptor atom, score
      L1  H     4    28       P1  7949  0.58
      L1  H     8    46       P1  7948  2.00

> <Gold.PLP.Chemscore.Internal.Correction>
0.0350

> <Gold.Rescore>
     Score         DG    S(hbond)    S(metal)    S(lipo)     H(rot)  DE(clash)    DE(int)     intcor
     16.40     -18.37       1.02        0.00     133.90       2.41       1.05       0.92       ----

> <Gold.Chemscore.Fitness>
16.4023

> <Gold.Chemscore.DG>
-18.3703

> <Gold.Chemscore.ZeroCoef>
-5.4800

> <Gold.Chemscore.Hbond>
1.0169

> <Gold.Chemscore.Metal>
0.0000

> <Gold.Chemscore.Lipo>
133.9024

> <Gold.Chemscore.Internal_Hbond>
0.0000

> <Gold.Chemscore.DEClash>
1.0525

> <Gold.Chemscore.DEInternal>
0.9154

> <Gold.Chemscore.Rot>
2.4112

> <Gold.Chemscore.Internal.Correction>
   9.000000E+99

> <Gold.Chemscore.Hbonds>
donor molecule, donor type, donor heavy atom, donor atom, acceptor molecule, acceptor atom, score
      L1  H     4    28       P1  7949  0.57
      L1  H     8    46       P1  7948  0.88

> <Gold.Chemscore.Hbond.Weighted>
-3.3963

> <Gold.Chemscore.Metal.Weighted>
-0.0000

> <Gold.Chemscore.Lipo.Weighted>
-15.6666

> <Gold.Chemscore.Internal_Hbond.Weighted>
0.0000

> <Gold.Chemscore.DEClash.Weighted>
1.0525

> <Gold.Chemscore.DEInternal.Weighted>
0.9154

> <Gold.Chemscore.Rot.Weighted>
6.1727

> <Gold.Chemscore.Internal.Correction.Weighted>
   9.000000E+99

> <Gold.Protein.RotatedTorsions>
[ 6907 6896 6895 6894 ] final -137.60 input  -60.11 | X-H torsion
[ 7974 7965 7964 7962 ] final  -36.94 input  175.53 | X-H torsion
[ 8008 7997 7996 7995 ] final   36.11 input   59.86 | X-H torsion
[ 10167 10162 10161 10158 ] final  -29.64 input  -65.29 | X-H torsion
[ 10718 10713 10712 10709 ] final  157.81 input   66.30 | X-H torsion
[ 10763 10752 10751 10750 ] final  -97.07 input  -60.55 | X-H torsion
[ 11005 11000 10999 10996 ] final  139.97 input  -57.11 | X-H torsion

> <Gold.Protein.ActiveResidues>
 VAL166  LYS551  ARG553  GLY616  TRP617  ASP618  TYR619  PRO620  LYS621  CYS622 
 ASP623  PHE694  ASN695  SER759  ASP760  ASP761  ALA762  ILE779  LEU786  VAL792 
 PHE793  MET794  SER795  GLU796  ALA797  LYS798  CYS799  TRP800  GLU811  SER814 

> <Gold.Protein.RotatedAtoms>
  151.0245  133.5846  159.2667 H   0  0  0  0  0  0  0  0  0  0  0  0  # atno 6907 bound_to 6896
  151.2950  135.0752  159.9228 H   0  0  0  0  0  0  0  0  0  0  0  0  # atno 6908 bound_to 6896
  152.5331  133.9937  159.7917 H   0  0  0  0  0  0  0  0  0  0  0  0  # atno 6909 bound_to 6896
  146.0618  140.6338  142.8993 H   0  0  0  0  0  0  0  0  0  0  0  0  # atno 7974 bound_to 7965
  155.1820  140.3300  155.4373 H   0  0  0  0  0  0  0  0  0  0  0  0  # atno 8008 bound_to 7997
  156.2473  140.1925  156.6868 H   0  0  0  0  0  0  0  0  0  0  0  0  # atno 8009 bound_to 7997
  154.6265  140.0588  156.9665 H   0  0  0  0  0  0  0  0  0  0  0  0  # atno 8010 bound_to 7997
  140.7258  143.3912  151.1426 H   0  0  0  0  0  0  0  0  0  0  0  0  # atno 10167 bound_to 10162
  157.1864  131.0644  151.2103 H   0  0  0  0  0  0  0  0  0  0  0  0  # atno 10718 bound_to 10713
  154.7295  135.5060  153.8941 H   0  0  0  0  0  0  0  0  0  0  0  0  # atno 10763 bound_to 10752
  153.0937  135.6666  153.9813 H   0  0  0  0  0  0  0  0  0  0  0  0  # atno 10764 bound_to 10752
  153.9618  135.3047  155.3412 H   0  0  0  0  0  0  0  0  0  0  0  0  # atno 10765 bound_to 10752
  140.0293  134.9359  157.0631 H   0  0  0  0  0  0  0  0  0  0  0  0  # atno 11005 bound_to 11000
  144.7179  140.4274  143.7030 LP  0  0  0  0  0  0  0  0  0  0  0  0  # atno 17320 bound_to 7965
  145.6547  139.1571  143.2842 LP  0  0  0  0  0  0  0  0  0  0  0  0  # atno 17321 bound_to 7965
  139.7518  143.8768  152.3078 LP  0  0  0  0  0  0  0  0  0  0  0  0  # atno 17342 bound_to 10162
  139.8624  144.7110  150.9084 LP  0  0  0  0  0  0  0  0  0  0  0  0  # atno 17343 bound_to 10162
  157.3903  130.7278  149.6693 LP  0  0  0  0  0  0  0  0  0  0  0  0  # atno 17370 bound_to 10713
  155.9717  130.4148  150.4151 LP  0  0  0  0  0  0  0  0  0  0  0  0  # atno 17371 bound_to 10713
  140.4252  134.1838  155.7166 LP  0  0  0  0  0  0  0  0  0  0  0  0  # atno 17394 bound_to 11000
  141.1821  133.8390  157.1219 LP  0  0  0  0  0  0  0  0  0  0  0  0  # atno 17395 bound_to 11000

$$$$
