AV-unprocessed.smi:681|AV-procd|sdf|3325|dock2
  -GOLD-   22720 0293D 1   1.00000     0.00000
 Structure written by MMmdl.
 41 42  0  0  0  0  0  0  0  0  1 V2000
  148.7073  141.9910  153.7215 C   0  0  0  0  0  0  0  0  0  0  0  0
  149.2680  140.6388  154.0007 C   0  0  0  0  0  0  0  0  0  0  0  0
  148.4868  139.5364  154.1923 N   0  0  0  0  0  0  0  0  0  0  0  0
  149.4232  138.6177  154.4039 C   0  0  0  0  0  0  0  0  0  0  0  0
  149.1421  137.1772  154.6822 C   0  0  0  0  0  0  0  0  0  0  0  0
  150.6661  139.1183  154.3460 N   0  0  0  0  0  0  0  0  0  0  0  0
  151.9620  138.4832  154.5259 C   0  0  0  0  0  0  0  0  0  0  0  0
  152.6281  138.9462  155.8221 C   0  0  0  0  0  0  0  0  0  0  0  0
  153.7984  138.6441  156.0542 O   0  0  0  0  0  0  0  0  0  0  0  0
  151.8708  139.6742  156.6573 N   0  0  0  0  0  0  0  0  0  0  0  0
  152.3073  140.1913  157.9481 C   0  0  0  0  0  0  0  0  0  0  0  0
  151.9537  141.6805  158.1023 C   0  0  0  0  0  0  0  0  0  0  0  0
  152.1937  142.1992  159.5104 C   0  0  0  0  0  0  0  0  0  0  0  0
  151.8561  143.4515  159.8756 C   0  0  0  0  0  0  0  0  0  0  0  0
  152.0563  144.0171  161.2708 C   0  0  0  0  0  0  0  0  0  0  0  0
  152.3609  142.9233  162.3079 C   0  0  0  0  0  0  0  0  0  0  0  0
  153.3683  141.9053  161.7596 C   0  0  0  0  0  0  0  0  0  0  0  0
  152.8370  141.2209  160.4874 C   0  0  0  0  0  0  0  0  0  0  0  0
  150.5820  140.4441  154.0806 N   0  0  0  0  0  0  0  0  0  0  0  0
  147.6215  141.9481  153.6303 H   0  0  0  0  0  0  0  0  0  0  0  0
  149.1157  142.3854  152.7908 H   0  0  0  0  0  0  0  0  0  0  0  0
  148.9583  142.6768  154.5309 H   0  0  0  0  0  0  0  0  0  0  0  0
  148.0727  136.9765  154.6096 H   0  0  0  0  0  0  0  0  0  0  0  0
  149.4760  136.9172  155.6866 H   0  0  0  0  0  0  0  0  0  0  0  0
  149.6612  136.5448  153.9620 H   0  0  0  0  0  0  0  0  0  0  0  0
  151.8311  137.4006  154.5385 H   0  0  0  0  0  0  0  0  0  0  0  0
  152.6023  138.7146  153.6730 H   0  0  0  0  0  0  0  0  0  0  0  0
  150.9176  139.8687  156.3855 H   0  0  0  0  0  0  0  0  0  0  0  0
  151.8652  139.6069  158.7572 H   0  0  0  0  0  0  0  0  0  0  0  0
  153.3859  140.0483  158.0151 H   0  0  0  0  0  0  0  0  0  0  0  0
  152.5390  142.2796  157.4037 H   0  0  0  0  0  0  0  0  0  0  0  0
  150.9072  141.8378  157.8368 H   0  0  0  0  0  0  0  0  0  0  0  0
  151.4201  144.1236  159.1509 H   0  0  0  0  0  0  0  0  0  0  0  0
  152.8758  144.7351  161.2286 H   0  0  0  0  0  0  0  0  0  0  0  0
  151.1641  144.5699  161.5662 H   0  0  0  0  0  0  0  0  0  0  0  0
  152.7362  143.3747  163.2268 H   0  0  0  0  0  0  0  0  0  0  0  0
  151.4380  142.4054  162.5726 H   0  0  0  0  0  0  0  0  0  0  0  0
  154.3057  142.4157  161.5343 H   0  0  0  0  0  0  0  0  0  0  0  0
  153.6000  141.1551  162.5163 H   0  0  0  0  0  0  0  0  0  0  0  0
  152.0930  140.4715  160.7587 H   0  0  0  0  0  0  0  0  0  0  0  0
  153.6520  140.6923  159.9919 H   0  0  0  0  0  0  0  0  0  0  0  0
  1  2  1  0  0  0  0
  1 20  1  0  0  0  0
  1 21  1  0  0  0  0
  1 22  1  0  0  0  0
  2 19  2  0  0  0  0
  2  3  1  0  0  0  0
  3  4  2  0  0  0  0
  4  5  1  0  0  0  0
  4  6  1  0  0  0  0
  5 23  1  0  0  0  0
  5 24  1  0  0  0  0
  5 25  1  0  0  0  0
  6  7  1  0  0  0  0
  6 19  1  0  0  0  0
  7  8  1  0  0  0  0
  7 26  1  0  0  0  0
  7 27  1  0  0  0  0
  8  9  2  0  0  0  0
  8 10  1  0  0  0  0
 10 11  1  0  0  0  0
 10 28  1  0  0  0  0
 11 12  1  0  0  0  0
 11 29  1  0  0  0  0
 11 30  1  0  0  0  0
 12 13  1  0  0  0  0
 12 31  1  0  0  0  0
 12 32  1  0  0  0  0
 13 18  1  0  0  0  0
 13 14  2  0  0  0  0
 14 15  1  0  0  0  0
 14 33  1  0  0  0  0
 15 16  1  0  0  0  0
 15 34  1  0  0  0  0
 15 35  1  0  0  0  0
 16 17  1  0  0  0  0
 16 36  1  0  0  0  0
 16 37  1  0  0  0  0
 17 18  1  0  0  0  0
 17 38  1  0  0  0  0
 17 39  1  0  0  0  0
 18 40  1  0  0  0  0
 18 41  1  0  0  0  0
M  END
> <s_m_source_file>
AV-unprocessed.smi

> <i_m_source_file_index>
681

> <i_lp_mmshare_version>
43012

> <i_f3d_flags>
0

> <s_epik_input>
W0NIM11jMW5jKFtDSDNdKW4objEpW0NIMl1DKD1PKVtOSF1bQ0gyXVtDSDJdQzI9W0NIXVtDSDJdW0NIMl1bQ0gyXVtDSDJdMg==

> <s_epik_cmdline>
J2VwaWtfcHl0aG9uJywgJy1waCcsICc3LjAnLCAnLXRuJywgJzgnLCAnLW1hJywgJzIwMCcsICctbWV0YWxfYmluZGluZycsICctaW1hZScsICc8aW5maWxlLm1hZT4nLCAnLW9tYWUnLCAnPG91dGZpbGUubWFlPic=

> <r_lp_tautomer_probability>
1

> <r_epik_Ionization_Penalty>
0.000426663

> <r_epik_Ionization_Penalty_Charging>
0

> <r_epik_Ionization_Penalty_Neutral>
0.000426663

> <r_epik_State_Penalty>
0.000262586

> <r_epik_Charging_Adjusted_Penalty>
0.000262586

> <i_epik_Tot_Q>
0

> <i_epik_Tot_abs_Q>
0

> <r_epik_Metal_State_Penalty>
-0

> <b_epik_Metal_Only>
0

> <s_lp_Force_Field>
OPLS_2005

> <r_lp_Energy>
6.45034

> <b_lp_Chiralities_Consistent>
1

> <s_lp_Variant>
AV-unprocessed.smi:681-1

> <Gold.Version>
5.8.1

> <Gold.Id.Protein>
6NUR|6NUR_protein|mol2

> <Gold.PLP.Fitness>
49.2942

> <Gold.PLP.PLP>
-44.6334

> <Gold.PLP.part.hbond>
-1.5939

> <Gold.PLP.part.metal>
0.0000

> <Gold.PLP.part.buried>
-4.9320

> <Gold.PLP.part.nonpolar>
-38.4007

> <Gold.PLP.part.repulsive>
0.3340

> <Gold.PLP.ligand.clash>
0.0000

> <Gold.PLP.ligand.torsion>
0.2728

> <Gold.PLP.Chemscore.Hbond>
1.7280

> <Gold.PLP.Chemscore.CHOScore>
0.0000

> <Gold.PLP.Chemscore.Metal>
0.0000

> <Gold.Chemscore.Hbonds>
donor molecule, donor type, donor heavy atom, donor atom, acceptor molecule, acceptor atom, score
      P1  H  7989  7998       L1    19  0.33
      P1  H  7997  8008       L1     9  0.59

> <Gold.PLP.Chemscore.Internal.Correction>
0.0224

> <Gold.Rescore>
     Score         DG    S(hbond)    S(metal)    S(lipo)     H(rot)  DE(clash)    DE(int)     intcor
     16.14     -16.80       1.35        0.00      99.30       1.87       0.22       0.44       ----

> <Gold.Chemscore.Fitness>
16.1366

> <Gold.Chemscore.DG>
-16.7957

> <Gold.Chemscore.ZeroCoef>
-5.4800

> <Gold.Chemscore.Hbond>
1.3466

> <Gold.Chemscore.Metal>
0.0000

> <Gold.Chemscore.Lipo>
99.3001

> <Gold.Chemscore.Internal_Hbond>
0.0000

> <Gold.Chemscore.DEClash>
0.2204

> <Gold.Chemscore.DEInternal>
0.4388

> <Gold.Chemscore.Rot>
1.8750

> <Gold.Chemscore.Internal.Correction>
   9.000000E+99

> <Gold.Chemscore.Hbonds>
donor molecule, donor type, donor heavy atom, donor atom, acceptor molecule, acceptor atom, score
      P1  H  7989  7998       L1    19  0.25
      P1  H  7997  8008       L1     9  0.11

> <Gold.Chemscore.Hbond.Weighted>
-4.4975

> <Gold.Chemscore.Metal.Weighted>
-0.0000

> <Gold.Chemscore.Lipo.Weighted>
-11.6181

> <Gold.Chemscore.Internal_Hbond.Weighted>
0.0000

> <Gold.Chemscore.DEClash.Weighted>
0.2204

> <Gold.Chemscore.DEInternal.Weighted>
0.4388

> <Gold.Chemscore.Rot.Weighted>
4.7999

> <Gold.Chemscore.Internal.Correction.Weighted>
   9.000000E+99

> <Gold.Protein.RotatedTorsions>
[ 6907 6896 6895 6894 ] final  125.89 input  -60.11 | X-H torsion
[ 7974 7965 7964 7962 ] final   95.86 input  175.53 | X-H torsion
[ 8008 7997 7996 7995 ] final  -31.42 input   59.86 | X-H torsion
[ 10167 10162 10161 10158 ] final  -56.73 input  -65.29 | X-H torsion
[ 10718 10713 10712 10709 ] final  166.01 input   66.30 | X-H torsion
[ 10763 10752 10751 10750 ] final  -44.95 input  -60.55 | X-H torsion
[ 11005 11000 10999 10996 ] final  110.88 input  -57.11 | X-H torsion

> <Gold.Protein.ActiveResidues>
 VAL166  LYS551  ARG553  GLY616  TRP617  ASP618  TYR619  PRO620  LYS621  CYS622 
 ASP623  PHE694  ASN695  SER759  ASP760  ASP761  ALA762  ILE779  LEU786  VAL792 
 PHE793  MET794  SER795  GLU796  ALA797  LYS798  CYS799  TRP800  GLU811  SER814 

> <Gold.Protein.RotatedAtoms>
  152.3952  133.6737  159.6270 H   0  0  0  0  0  0  0  0  0  0  0  0  # atno 6907 bound_to 6896
  150.7853  133.8886  159.3315 H   0  0  0  0  0  0  0  0  0  0  0  0  # atno 6908 bound_to 6896
  151.6664  135.0984  160.0241 H   0  0  0  0  0  0  0  0  0  0  0  0  # atno 6909 bound_to 6896
  145.4465  139.2297  143.3063 H   0  0  0  0  0  0  0  0  0  0  0  0  # atno 7974 bound_to 7965
  154.4214  140.1765  156.1563 H   0  0  0  0  0  0  0  0  0  0  0  0  # atno 8008 bound_to 7997
  155.9874  140.3372  155.6696 H   0  0  0  0  0  0  0  0  0  0  0  0  # atno 8009 bound_to 7997
  155.6419  140.0681  157.2606 H   0  0  0  0  0  0  0  0  0  0  0  0  # atno 8010 bound_to 7997
  140.6300  143.2455  151.5266 H   0  0  0  0  0  0  0  0  0  0  0  0  # atno 10167 bound_to 10162
  157.0720  131.0369  151.2608 H   0  0  0  0  0  0  0  0  0  0  0  0  # atno 10718 bound_to 10713
  154.0205  135.6670  153.4772 H   0  0  0  0  0  0  0  0  0  0  0  0  # atno 10763 bound_to 10752
  153.0582  135.5043  154.8028 H   0  0  0  0  0  0  0  0  0  0  0  0  # atno 10764 bound_to 10752
  154.6940  135.3066  154.9402 H   0  0  0  0  0  0  0  0  0  0  0  0  # atno 10765 bound_to 10752
  139.8891  134.9495  156.6346 H   0  0  0  0  0  0  0  0  0  0  0  0  # atno 11005 bound_to 11000
  146.2527  140.5220  142.8886 LP  0  0  0  0  0  0  0  0  0  0  0  0  # atno 17320 bound_to 7965
  144.8088  140.6348  143.6429 LP  0  0  0  0  0  0  0  0  0  0  0  0  # atno 17321 bound_to 7965
  139.5515  144.2383  152.1539 LP  0  0  0  0  0  0  0  0  0  0  0  0  # atno 17342 bound_to 10162
  140.1624  144.5013  150.6625 LP  0  0  0  0  0  0  0  0  0  0  0  0  # atno 17343 bound_to 10162
  157.4870  130.7799  149.7470 LP  0  0  0  0  0  0  0  0  0  0  0  0  # atno 17370 bound_to 10713
  155.9947  130.3916  150.2846 LP  0  0  0  0  0  0  0  0  0  0  0  0  # atno 17371 bound_to 10713
  140.7640  133.8794  155.8440 LP  0  0  0  0  0  0  0  0  0  0  0  0  # atno 17394 bound_to 11000
  140.9898  134.1294  157.4418 LP  0  0  0  0  0  0  0  0  0  0  0  0  # atno 17395 bound_to 11000

$$$$
