AV-unprocessed.smi:62|AV-procd|sdf|603|dock2
  -GOLD-   2262016493D 1   1.00000     0.00000
 Structure written by MMmdl.
 31 32  0  0  0  0  0  0  0  0  3 V2000
  147.6237  140.6148  153.8703 C   0  0  0  0  0  0  0  0  0  0  0  0
  148.7986  140.5873  154.7146 N   0  0  0  0  0  0  0  0  0  0  0  0
  149.3923  141.6229  155.3990 C   0  0  0  0  0  0  0  0  0  0  0  0
  150.4774  141.1220  156.0640 C   0  0  0  0  0  0  0  0  0  0  0  0
  151.4232  141.9063  156.9429 C   0  0  0  0  0  0  0  0  0  0  0  0
  150.8254  143.1924  157.3721 N   0  3  1  0  0  0  0  0  0  0  0  0
  149.6788  143.0795  158.3006 C   0  0  0  0  0  0  0  0  0  0  0  0
  149.6717  144.3878  159.0850 C   0  0  0  0  0  0  0  0  0  0  0  0
  151.1607  144.6716  159.2551 C   0  0  2  0  0  0  0  0  0  0  0  0
  151.4178  146.0432  159.4705 O   0  0  0  0  0  0  0  0  0  0  0  0
  151.7896  144.1561  157.9532 C   0  0  0  0  0  0  0  0  0  0  0  0
  150.4616  139.7302  155.7088 C   0  0  0  0  0  0  0  0  0  0  0  0
  151.5002  138.7587  156.2044 C   0  0  0  0  0  0  0  0  0  0  0  0
  151.5183  137.5863  155.7684 O   0  0  0  0  0  0  0  0  0  0  0  0
  152.3179  139.1625  157.0594 O   0  5  0  0  0  0  0  0  0  0  0  0
  149.4525  139.4264  154.9038 N   0  0  0  0  0  0  0  0  0  0  0  0
  147.2297  141.6297  153.8096 H   0  0  0  0  0  0  0  0  0  0  0  0
  146.8561  139.9605  154.2849 H   0  0  0  0  0  0  0  0  0  0  0  0
  147.8817  140.2738  152.8671 H   0  0  0  0  0  0  0  0  0  0  0  0
  148.9966  142.6271  155.3588 H   0  0  0  0  0  0  0  0  0  0  0  0
  151.6977  141.3340  157.8303 H   0  0  0  0  0  0  0  0  0  0  0  0
  152.3596  142.1058  156.4208 H   0  0  0  0  0  0  0  0  0  0  0  0
  148.7441  142.9072  157.7659 H   0  0  0  0  0  0  0  0  0  0  0  0
  149.8362  142.2440  158.9849 H   0  0  0  0  0  0  0  0  0  0  0  0
  149.1984  145.1696  158.4885 H   0  0  0  0  0  0  0  0  0  0  0  0
  149.1391  144.3144  160.0337 H   0  0  0  0  0  0  0  0  0  0  0  0
  151.5446  144.0953  160.0981 H   0  0  0  0  0  0  0  0  0  0  0  0
  151.5803  146.1801  160.3916 H   0  0  0  0  0  0  0  0  0  0  0  0
  152.7687  143.7122  158.1400 H   0  0  0  0  0  0  0  0  0  0  0  0
  151.9268  144.9616  157.2303 H   0  0  0  0  0  0  0  0  0  0  0  0
  150.4727  143.6351  156.5341 H   0  0  0  0  0  0  0  0  0  0  0  0
  1  2  1  0  0  0  0
  1 17  1  0  0  0  0
  1 18  1  0  0  0  0
  1 19  1  0  0  0  0
  2 16  1  0  0  0  0
  2  3  1  0  0  0  0
  3  4  2  0  0  0  0
  3 20  1  0  0  0  0
  4  5  1  0  0  0  0
  4 12  1  0  0  0  0
  5  6  1  0  0  0  0
  5 21  1  0  0  0  0
  5 22  1  0  0  0  0
  6 11  1  0  0  0  0
  6  7  1  0  0  0  0
  6 31  1  0  0  0  0
  7  8  1  0  0  0  0
  7 23  1  0  0  0  0
  7 24  1  0  0  0  0
  8  9  1  0  0  0  0
  8 25  1  0  0  0  0
  8 26  1  0  0  0  0
  9 10  1  0  0  0  0
  9 11  1  0  0  0  0
  9 27  1  0  0  0  0
 10 28  1  0  0  0  0
 11 29  1  0  0  0  0
 11 30  1  0  0  0  0
 12 13  1  0  0  0  0
 12 16  2  0  0  0  0
 13 14  2  0  0  0  0
 13 15  1  0  0  0  0
M  CHG  1   6   1
M  CHG  1  15  -1
M  END
> <s_m_source_file>
AV-unprocessed.smi

> <i_m_source_file_index>
62

> <i_lp_mmshare_version>
43012

> <i_f3d_flags>
0

> <s_epik_input>
W0NIM11uMVtjSF1jKGMobjEpQyg9TylbT0hdKVtDSDJdTjJbQ0gyXVtDSDJdW0NAQEhdKFtPSF0pW0NIMl0y

> <s_epik_cmdline>
J2VwaWtfcHl0aG9uJywgJy1waCcsICc3LjAnLCAnLXRuJywgJzgnLCAnLW1hJywgJzIwMCcsICctbWV0YWxfYmluZGluZycsICctaW1hZScsICc8aW5maWxlLm1hZT4nLCAnLW9tYWUnLCAnPG91dGZpbGUubWFlPic=

> <r_epik_Ionization_Penalty>
0.0522993

> <r_epik_Ionization_Penalty_Charging>
0.0522915

> <r_epik_Ionization_Penalty_Neutral>
7.84975e-06

> <r_epik_State_Penalty>
0.0448084

> <r_epik_Charging_Adjusted_Penalty>
0.0970998

> <i_epik_Tot_Q>
0

> <i_epik_Tot_abs_Q>
2

> <r_epik_Metal_State_Penalty>
0.0448097

> <b_epik_Metal_Only>
0

> <s_lp_Force_Field>
OPLS_2005

> <r_lp_Energy>
17.4079

> <b_lp_Chiralities_Consistent>
1

> <s_lp_Variant>
AV-unprocessed.smi:62-3

> <Gold.Version>
5.8.1

> <Gold.Id.Protein>
6NUR|6NUR_protein|mol2

> <Gold.PLP.Fitness>
46.3677

> <Gold.PLP.PLP>
-32.0742

> <Gold.PLP.part.hbond>
-3.7869

> <Gold.PLP.part.metal>
0.0000

> <Gold.PLP.part.buried>
-3.6971

> <Gold.PLP.part.nonpolar>
-24.8004

> <Gold.PLP.part.repulsive>
0.1817

> <Gold.PLP.ligand.clash>
0.0000

> <Gold.PLP.ligand.torsion>
0.3360

> <Gold.PLP.Chemscore.Hbond>
3.9825

> <Gold.PLP.Chemscore.CHOScore>
1.0000

> <Gold.PLP.Chemscore.Metal>
0.0000

> <Gold.Chemscore.Hbonds>
donor molecule, donor type, donor heavy atom, donor atom, acceptor molecule, acceptor atom, score
      L1  H     6    31       P1  8028  1.54
      P1  H  7997  8010       L1    15  0.68
      L1  C     3    20       P1  8028  1.00

> <Gold.PLP.Chemscore.Internal.Correction>
0.0179

> <Gold.Rescore>
     Score         DG    S(hbond)    S(metal)    S(lipo)     H(rot)  DE(clash)    DE(int)     intcor
     13.16     -16.36       1.97        0.00      76.35       1.81       1.66       1.53       ----

> <Gold.Chemscore.Fitness>
13.1624

> <Gold.Chemscore.DG>
-16.3572

> <Gold.Chemscore.ZeroCoef>
-5.4800

> <Gold.Chemscore.Hbond>
1.9689

> <Gold.Chemscore.Metal>
0.0000

> <Gold.Chemscore.Lipo>
76.3466

> <Gold.Chemscore.Internal_Hbond>
0.0000

> <Gold.Chemscore.DEClash>
1.6643

> <Gold.Chemscore.DEInternal>
1.5305

> <Gold.Chemscore.Rot>
1.8091

> <Gold.Chemscore.Internal.Correction>
   9.000000E+99

> <Gold.Chemscore.Hbonds>
donor molecule, donor type, donor heavy atom, donor atom, acceptor molecule, acceptor atom, score
      L1  H     6    31       P1  8028  0.72
      P1  H  7997  8010       L1    15  0.35

> <Gold.Chemscore.Hbond.Weighted>
-6.5760

> <Gold.Chemscore.Metal.Weighted>
-0.0000

> <Gold.Chemscore.Lipo.Weighted>
-8.9326

> <Gold.Chemscore.Internal_Hbond.Weighted>
0.0000

> <Gold.Chemscore.DEClash.Weighted>
1.6643

> <Gold.Chemscore.DEInternal.Weighted>
1.5305

> <Gold.Chemscore.Rot.Weighted>
4.6314

> <Gold.Chemscore.Internal.Correction.Weighted>
   9.000000E+99

> <Gold.Protein.RotatedTorsions>
[ 6907 6896 6895 6894 ] final   -8.52 input  -60.11 | X-H torsion
[ 7974 7965 7964 7962 ] final    0.33 input  175.53 | X-H torsion
[ 8008 7997 7996 7995 ] final   57.40 input   59.86 | X-H torsion
[ 10167 10162 10161 10158 ] final -163.96 input  -65.29 | X-H torsion
[ 10718 10713 10712 10709 ] final  119.71 input   66.30 | X-H torsion
[ 10763 10752 10751 10750 ] final   52.12 input  -60.55 | X-H torsion
[ 11005 11000 10999 10996 ] final    1.78 input  -57.11 | X-H torsion

> <Gold.Protein.ActiveResidues>
 VAL166  LYS551  ARG553  GLY616  TRP617  ASP618  TYR619  PRO620  LYS621  CYS622 
 ASP623  PHE694  ASN695  SER759  ASP760  ASP761  ALA762  ILE779  LEU786  VAL792 
 PHE793  MET794  SER795  GLU796  ALA797  LYS798  CYS799  TRP800  GLU811  SER814 

> <Gold.Protein.RotatedAtoms>
  151.4323  135.1011  159.9645 H   0  0  0  0  0  0  0  0  0  0  0  0  # atno 6907 bound_to 6896
  152.4952  133.8606  159.7259 H   0  0  0  0  0  0  0  0  0  0  0  0  # atno 6908 bound_to 6896
  150.9146  133.6896  159.2874 H   0  0  0  0  0  0  0  0  0  0  0  0  # atno 6909 bound_to 6896
  146.2433  140.1154  142.8342 H   0  0  0  0  0  0  0  0  0  0  0  0  # atno 7974 bound_to 7965
  155.5332  140.3482  155.4431 H   0  0  0  0  0  0  0  0  0  0  0  0  # atno 8008 bound_to 7997
  156.0703  140.1361  156.9863 H   0  0  0  0  0  0  0  0  0  0  0  0  # atno 8009 bound_to 7997
  154.4525  140.0967  156.6634 H   0  0  0  0  0  0  0  0  0  0  0  0  # atno 8010 bound_to 7997
  139.6284  144.0487  152.1994 H   0  0  0  0  0  0  0  0  0  0  0  0  # atno 10167 bound_to 10162
  157.5943  131.1060  150.7934 H   0  0  0  0  0  0  0  0  0  0  0  0  # atno 10718 bound_to 10713
  152.9787  135.5823  154.4526 H   0  0  0  0  0  0  0  0  0  0  0  0  # atno 10763 bound_to 10752
  154.4113  135.2770  155.2037 H   0  0  0  0  0  0  0  0  0  0  0  0  # atno 10764 bound_to 10752
  154.3825  135.6143  153.5853 H   0  0  0  0  0  0  0  0  0  0  0  0  # atno 10765 bound_to 10752
  140.6116  133.9743  155.8180 H   0  0  0  0  0  0  0  0  0  0  0  0  # atno 11005 bound_to 11000
  145.0452  140.8975  143.5029 LP  0  0  0  0  0  0  0  0  0  0  0  0  # atno 17320 bound_to 7965
  145.1241  139.2674  143.5573 LP  0  0  0  0  0  0  0  0  0  0  0  0  # atno 17321 bound_to 7965
  140.0147  144.6198  150.7617 LP  0  0  0  0  0  0  0  0  0  0  0  0  # atno 17342 bound_to 10162
  140.7424  143.2832  151.3538 LP  0  0  0  0  0  0  0  0  0  0  0  0  # atno 17343 bound_to 10162
  156.8348  130.5028  149.5327 LP  0  0  0  0  0  0  0  0  0  0  0  0  # atno 17370 bound_to 10713
  156.1002  130.5963  150.9881 LP  0  0  0  0  0  0  0  0  0  0  0  0  # atno 17371 bound_to 10713
  141.0804  134.0071  157.3395 LP  0  0  0  0  0  0  0  0  0  0  0  0  # atno 17394 bound_to 11000
  139.9190  135.0199  156.7991 LP  0  0  0  0  0  0  0  0  0  0  0  0  # atno 17395 bound_to 11000

$$$$
