#       Name:                AV-unprocessed.smi:1508
#       Creating user name   scv26
#       Creation time:       Fri Mar 27 06:20:59 2020


#       File generated by GOLD software.
#

@<TRIPOS>MOLECULE
AV-unprocessed.smi:1508
    42    43     1
SMALL
NO_CHARGES


@<TRIPOS>ATOM
      1 ****        -0.7685   2.5319  -1.4631 C.3            1 S1                 0.0000
      2 ****        -1.0749   1.5038  -0.3625 C.3            1 S1                 0.0000
      3 ****        -0.4581   0.0976  -0.5943 C.3            1 S1                 0.0000
      4 ****         1.0949   0.1314  -0.6203 C.3            1 S1                 0.0000
      5 ****         1.6723   0.7503   0.5690 N.am           1 S1                 0.0000
      6 ****         1.7494   0.1675   1.7738 C.2            1 S1                 0.0000
      7 ****         1.3359  -0.9694   2.0006 O.2            1 S1                 0.0000
      8 ****         2.3216   0.9825   2.6744 N.am           1 S1                 0.0000
      9 ****         2.5590   0.7319   4.0491 C.2            1 S1                 0.0000
     10 ****         3.1352   1.6986   4.7731 N.2            1 S1                 0.0000
     11 ****         3.3056   1.3236   6.1002 N.2            1 S1                 0.0000
     12 ****         2.8513   0.0869   6.3250 C.2            1 S1                 0.0000
     13 ****         2.1693  -0.7438   4.9379 S.3            1 S1                 0.0000
     14 ****        -1.0026  -0.5607  -1.8186 N.4            1 S1                 1.0000
     15 ****        -0.5234  -1.9458  -2.0592 C.3            1 S1                 0.0000
     16 ****        -1.6905  -2.7339  -2.6707 C.3            1 S1                 0.0000
     17 ****        -2.7630  -1.6897  -2.9588 C.3            1 S1                 0.0000
     18 ****        -2.4773  -0.6058  -1.9264 C.3            1 S1                 0.0000
     19 ****        -1.2701   3.4768  -1.2536 H              1 S1                 0.0000
     20 ****        -1.1101   2.1895  -2.4399 H              1 S1                 0.0000
     21 ****         0.2989   2.7405  -1.5330 H              1 S1                 0.0000
     22 ****        -0.7258   1.9029   0.5901 H              1 S1                 0.0000
     23 ****        -2.1551   1.4252  -0.2407 H              1 S1                 0.0000
     24 ****        -0.7644  -0.5226   0.2499 H              1 S1                 0.0000
     25 ****         1.5128  -0.8714  -0.7163 H              1 S1                 0.0000
     26 ****         1.4468   0.6824  -1.4924 H              1 S1                 0.0000
     27 ****         2.0370   1.6866   0.4667 H              1 S1                 0.0000
     28 ****         2.6158   1.8896   2.3434 H              1 S1                 0.0000
     29 ****         2.9178  -0.3387   7.3153 H              1 S1                 0.0000
     30 ****         0.3365  -1.9215  -2.7293 H              1 S1                 0.0000
     31 ****        -0.2093  -2.4268  -1.1314 H              1 S1                 0.0000
     32 ****        -1.3999  -3.2855  -3.5655 H              1 S1                 0.0000
     33 ****        -2.0658  -3.4567  -1.9449 H              1 S1                 0.0000
     34 ****        -2.6289  -1.2876  -3.9641 H              1 S1                 0.0000
     35 ****        -3.7752  -2.0888  -2.8868 H              1 S1                 0.0000
     36 ****        -2.9096  -0.8887  -0.9650 H              1 S1                 0.0000
     37 ****        -2.8987   0.3552  -2.2220 H              1 S1                 0.0000
     38 ****        -0.6886  -0.0169  -2.6098 H              1 S1                 0.0000
     39 ****         0.9179  -1.5050   1.2669 LP             1 S1                 0.0000
     40 ****         1.4180  -1.3575   2.9186 LP             1 S1                 0.0000
     41 ****         3.4105   2.5858   4.4029 LP             1 S1                 0.0000
     42 ****         3.7172   1.9069   6.8005 LP             1 S1                 0.0000
@<TRIPOS>BOND
    1    1    2 1     
    2    1   19 1     
    3    1   20 1     
    4    1   21 1     
    5    2    3 1     
    6    2   22 1     
    7    2   23 1     
    8    3    4 1     
    9    3   14 1     
   10    3   24 1     
   11    4    5 1     
   12    4   25 1     
   13    4   26 1     
   14    5    6 am    
   15    5   27 1     
   16    6    7 2     
   17    6    8 am    
   18    8    9 1     
   19    8   28 1     
   20    9   13 1     
   21    9   10 2     
   22   10   11 1     
   23   11   12 2     
   24   12   13 1     
   25   12   29 1     
   26   14   18 1     
   27   14   15 1     
   28   14   38 1     
   29   15   16 1     
   30   15   30 1     
   31   15   31 1     
   32   16   17 1     
   33   16   32 1     
   34   16   33 1     
   35   17   18 1     
   36   17   34 1     
   37   17   35 1     
   38   18   36 1     
   39   18   37 1     
   40    7   39 1     
   41    7   40 1     
   42   10   41 1     
   43   11   42 1     
@<TRIPOS>SUBSTRUCTURE
      1 S1             1
@<TRIPOS>SET
LONE_PAIRS      STATIC     ATOMS    <user>   **** ""
4 39 40 41 42
DONOR_HYDROGENS      STATIC     ATOMS    <user>   **** ""
3 27 28 38
ATOM$BLUE        STATIC     ATOMS    COLORGROUP SYSTEM
4 39 40 41 42
ATOM$RED        STATIC     ATOMS    COLORGROUP SYSTEM
3 27 28 38
