AV-unprocessed.smi:3338|AV-procd|sdf|12873|dock5
  -GOLD-   2272019273D 1   1.00000     0.00000
 Structure written by MMmdl.
 44 45  0  0  0  0  0  0  0  0  2 V2000
  151.7092  145.4123  160.0739 C   0  0  0  0  0  0  0  0  0  0  0  0
  151.9599  144.1068  159.3058 C   0  0  2  0  0  0  0  0  0  0  0  0
  150.6616  143.5611  158.6871 C   0  0  0  0  0  0  0  0  0  0  0  0
  150.9334  142.2409  157.9548 C   0  0  0  0  0  0  0  0  0  0  0  0
  151.6114  141.2234  158.8860 C   0  0  0  0  0  0  0  0  0  0  0  0
  152.8657  141.7772  159.4579 N   0  3  2  0  0  0  0  0  0  0  0  0
  153.6163  140.7728  160.2517 C   0  0  0  0  0  0  0  0  0  0  0  0
  153.8296  139.4582  159.4766 C   0  0  0  0  0  0  0  0  0  0  0  0
  154.4081  138.4296  160.3321 N   0  0  0  0  0  0  0  0  0  0  0  0
  153.7957  137.2833  160.6693 C   0  0  0  0  0  0  0  0  0  0  0  0
  152.6535  137.0033  160.3028 O   0  0  0  0  0  0  0  0  0  0  0  0
  154.6033  136.3086  161.5417 C   0  0  1  0  0  0  0  0  0  0  0  0
  155.7825  135.6662  160.7841 C   0  0  0  0  0  0  0  0  0  0  0  0
  155.0398  136.9651  162.7689 N   0  0  0  0  0  0  0  0  0  0  0  0
  154.6999  136.6497  164.0689 C   0  0  0  0  0  0  0  0  0  0  0  0
  155.3265  137.5459  164.8867 C   0  0  0  0  0  0  0  0  0  0  0  0
  156.0315  138.3904  163.9852 C   0  0  0  0  0  0  0  0  0  0  0  0
  155.8532  138.0461  162.7205 N   0  0  0  0  0  0  0  0  0  0  0  0
  152.6130  143.0384  160.2060 C   0  0  0  0  0  0  0  0  0  0  0  0
  151.0180  145.2587  160.9035 H   0  0  0  0  0  0  0  0  0  0  0  0
  151.2821  146.1753  159.4224 H   0  0  0  0  0  0  0  0  0  0  0  0
  152.6371  145.8117  160.4838 H   0  0  0  0  0  0  0  0  0  0  0  0
  152.6535  144.3314  158.4938 H   0  0  0  0  0  0  0  0  0  0  0  0
  149.9161  143.3998  159.4673 H   0  0  0  0  0  0  0  0  0  0  0  0
  150.2362  144.2890  157.9949 H   0  0  0  0  0  0  0  0  0  0  0  0
  149.9993  141.8298  157.5702 H   0  0  0  0  0  0  0  0  0  0  0  0
  151.5702  142.4264  157.0887 H   0  0  0  0  0  0  0  0  0  0  0  0
  150.9347  140.9402  159.6939 H   0  0  0  0  0  0  0  0  0  0  0  0
  151.8307  140.3160  158.3219 H   0  0  0  0  0  0  0  0  0  0  0  0
  154.5662  141.2001  160.5774 H   0  0  0  0  0  0  0  0  0  0  0  0
  153.0607  140.5375  161.1608 H   0  0  0  0  0  0  0  0  0  0  0  0
  152.8748  139.0896  159.1002 H   0  0  0  0  0  0  0  0  0  0  0  0
  154.4688  139.6044  158.6052 H   0  0  0  0  0  0  0  0  0  0  0  0
  155.3437  138.5896  160.6774 H   0  0  0  0  0  0  0  0  0  0  0  0
  153.9294  135.5003  161.8302 H   0  0  0  0  0  0  0  0  0  0  0  0
  155.4386  135.1408  159.8923 H   0  0  0  0  0  0  0  0  0  0  0  0
  156.2966  134.9386  161.4128 H   0  0  0  0  0  0  0  0  0  0  0  0
  156.5191  136.4061  160.4685 H   0  0  0  0  0  0  0  0  0  0  0  0
  154.0487  135.8206  164.3030 H   0  0  0  0  0  0  0  0  0  0  0  0
  155.2869  137.5916  165.9650 H   0  0  0  0  0  0  0  0  0  0  0  0
  156.6611  139.2389  164.2097 H   0  0  0  0  0  0  0  0  0  0  0  0
  153.5490  143.4317  160.6018 H   0  0  0  0  0  0  0  0  0  0  0  0
  151.9743  142.8286  161.0658 H   0  0  0  0  0  0  0  0  0  0  0  0
  153.4512  142.0133  158.6697 H   0  0  0  0  0  0  0  0  0  0  0  0
  1  2  1  0  0  0  0
  1 20  1  0  0  0  0
  1 21  1  0  0  0  0
  1 22  1  0  0  0  0
  2 19  1  0  0  0  0
  2  3  1  0  0  0  0
  2 23  1  0  0  0  0
  3  4  1  0  0  0  0
  3 24  1  0  0  0  0
  3 25  1  0  0  0  0
  4  5  1  0  0  0  0
  4 26  1  0  0  0  0
  4 27  1  0  0  0  0
  5  6  1  0  0  0  0
  5 28  1  0  0  0  0
  5 29  1  0  0  0  0
  6  7  1  0  0  0  0
  6 19  1  0  0  0  0
  6 44  1  0  0  0  0
  7  8  1  0  0  0  0
  7 30  1  0  0  0  0
  7 31  1  0  0  0  0
  8  9  1  0  0  0  0
  8 32  1  0  0  0  0
  8 33  1  0  0  0  0
  9 10  1  0  0  0  0
  9 34  1  0  0  0  0
 10 11  2  0  0  0  0
 10 12  1  0  0  0  0
 12 13  1  0  0  0  0
 12 14  1  0  0  0  0
 12 35  1  0  0  0  0
 13 36  1  0  0  0  0
 13 37  1  0  0  0  0
 13 38  1  0  0  0  0
 14 18  1  0  0  0  0
 14 15  1  0  0  0  0
 15 16  2  0  0  0  0
 15 39  1  0  0  0  0
 16 17  1  0  0  0  0
 16 40  1  0  0  0  0
 17 18  2  0  0  0  0
 17 41  1  0  0  0  0
 19 42  1  0  0  0  0
 19 43  1  0  0  0  0
M  CHG  1   6   1
M  END
> <s_m_source_file>
AV-unprocessed.smi

> <i_m_source_file_index>
3338

> <i_lp_mmshare_version>
43012

> <i_f3d_flags>
0

> <s_epik_input>
W0NIM11bQ0BASF0xW0NIMl1bQ0gyXVtDSDJdTihbQ0gyXTEpW0NIMl1bQ0gyXVtOSF1DKD1PKVtDQEhdKFtDSDNdKW4yW2NIXVtjSF1bY0hdbjI=

> <s_epik_cmdline>
J2VwaWtfcHl0aG9uJywgJy1waCcsICc3LjAnLCAnLXRuJywgJzgnLCAnLW1hJywgJzIwMCcsICctbWV0YWxfYmluZGluZycsICctaW1hZScsICc8aW5maWxlLm1hZT4nLCAnLW9tYWUnLCAnPG91dGZpbGUubWFlPic=

> <r_lp_tautomer_probability>
1

> <r_epik_Ionization_Penalty>
0.00225707

> <r_epik_Ionization_Penalty_Charging>
0.00223709

> <r_epik_Ionization_Penalty_Neutral>
1.99775e-05

> <r_epik_State_Penalty>
0.00153978

> <r_epik_Charging_Adjusted_Penalty>
0.00377687

> <i_epik_Tot_Q>
1

> <i_epik_Tot_abs_Q>
1

> <r_epik_Metal_State_Penalty>
-0

> <b_epik_Metal_Only>
0

> <s_lp_Force_Field>
OPLS_2005

> <r_lp_Energy>
19.822

> <b_lp_Chiralities_Consistent>
1

> <s_lp_Variant>
AV-unprocessed.smi:3338-5

> <Gold.Version>
5.8.1

> <Gold.Id.Protein>
6NUR|6NUR_protein|mol2

> <Gold.PLP.Fitness>
44.9928

> <Gold.PLP.PLP>
-42.3095

> <Gold.PLP.part.hbond>
-0.9391

> <Gold.PLP.part.metal>
0.0000

> <Gold.PLP.part.buried>
-5.0991

> <Gold.PLP.part.nonpolar>
-36.5946

> <Gold.PLP.part.repulsive>
0.1032

> <Gold.PLP.ligand.clash>
0.0000

> <Gold.PLP.ligand.torsion>
0.1771

> <Gold.PLP.Chemscore.Hbond>
0.9750

> <Gold.PLP.Chemscore.CHOScore>
0.0000

> <Gold.PLP.Chemscore.Metal>
0.0000

> <Gold.Chemscore.Hbonds>
donor molecule, donor type, donor heavy atom, donor atom, acceptor molecule, acceptor atom, score
      P1  H  6896  6909       L1    11  0.94

> <Gold.PLP.Chemscore.Internal.Correction>
0.1125

> <Gold.Rescore>
     Score         DG    S(hbond)    S(metal)    S(lipo)     H(rot)  DE(clash)    DE(int)     intcor
     16.15     -17.62       0.99        0.00     114.07       1.76       0.03       1.44       ----

> <Gold.Chemscore.Fitness>
16.1526

> <Gold.Chemscore.DG>
-17.6250

> <Gold.Chemscore.ZeroCoef>
-5.4800

> <Gold.Chemscore.Hbond>
0.9872

> <Gold.Chemscore.Metal>
0.0000

> <Gold.Chemscore.Lipo>
114.0658

> <Gold.Chemscore.Internal_Hbond>
0.0000

> <Gold.Chemscore.DEClash>
0.0301

> <Gold.Chemscore.DEInternal>
1.4423

> <Gold.Chemscore.Rot>
1.7570

> <Gold.Chemscore.Internal.Correction>
   9.000000E+99

> <Gold.Chemscore.Hbonds>
donor molecule, donor type, donor heavy atom, donor atom, acceptor molecule, acceptor atom, score
      P1  H  6896  6909       L1    11  0.90

> <Gold.Chemscore.Hbond.Weighted>
-3.2972

> <Gold.Chemscore.Metal.Weighted>
-0.0000

> <Gold.Chemscore.Lipo.Weighted>
-13.3457

> <Gold.Chemscore.Internal_Hbond.Weighted>
0.0000

> <Gold.Chemscore.DEClash.Weighted>
0.0301

> <Gold.Chemscore.DEInternal.Weighted>
1.4423

> <Gold.Chemscore.Rot.Weighted>
4.4979

> <Gold.Chemscore.Internal.Correction.Weighted>
   9.000000E+99

> <Gold.Protein.RotatedTorsions>
[ 6907 6896 6895 6894 ] final  137.11 input  -60.11 | X-H torsion
[ 7974 7965 7964 7962 ] final  -10.71 input  175.53 | X-H torsion
[ 8008 7997 7996 7995 ] final -126.10 input   59.86 | X-H torsion
[ 10167 10162 10161 10158 ] final  -20.90 input  -65.29 | X-H torsion
[ 10718 10713 10712 10709 ] final  122.48 input   66.30 | X-H torsion
[ 10763 10752 10751 10750 ] final   31.74 input  -60.55 | X-H torsion
[ 11005 11000 10999 10996 ] final  103.37 input  -57.11 | X-H torsion

> <Gold.Protein.ActiveResidues>
 VAL166  LYS551  ARG553  GLY616  TRP617  ASP618  TYR619  PRO620  LYS621  CYS622 
 ASP623  PHE694  ASN695  SER759  ASP760  ASP761  ALA762  ILE779  LEU786  VAL792 
 PHE793  MET794  SER795  GLU796  ALA797  LYS798  CYS799  TRP800  GLU811  SER814 

> <Gold.Protein.RotatedAtoms>
  152.2817  133.5477  159.5501 H   0  0  0  0  0  0  0  0  0  0  0  0  # atno 6907 bound_to 6896
  150.7199  134.0554  159.3822 H   0  0  0  0  0  0  0  0  0  0  0  0  # atno 6908 bound_to 6896
  151.8464  135.0573  160.0505 H   0  0  0  0  0  0  0  0  0  0  0  0  # atno 6909 bound_to 6896
  146.2212  140.2804  142.8362 H   0  0  0  0  0  0  0  0  0  0  0  0  # atno 7974 bound_to 7965
  155.2241  140.0423  157.2952 H   0  0  0  0  0  0  0  0  0  0  0  0  # atno 8008 bound_to 7997
  154.5930  140.2432  155.7865 H   0  0  0  0  0  0  0  0  0  0  0  0  # atno 8009 bound_to 7997
  156.2272  140.2950  156.0105 H   0  0  0  0  0  0  0  0  0  0  0  0  # atno 8010 bound_to 7997
  140.7279  143.4679  151.0288 H   0  0  0  0  0  0  0  0  0  0  0  0  # atno 10167 bound_to 10162
  157.5739  131.1081  150.8316 H   0  0  0  0  0  0  0  0  0  0  0  0  # atno 10718 bound_to 10713
  153.0299  135.6431  154.1246 H   0  0  0  0  0  0  0  0  0  0  0  0  # atno 10763 bound_to 10752
  154.0970  135.2862  155.3261 H   0  0  0  0  0  0  0  0  0  0  0  0  # atno 10764 bound_to 10752
  154.6425  135.5454  153.7869 H   0  0  0  0  0  0  0  0  0  0  0  0  # atno 10765 bound_to 10752
  139.8783  134.9260  156.5200 H   0  0  0  0  0  0  0  0  0  0  0  0  # atno 11005 bound_to 11000
  144.9201  140.7858  143.5753 LP  0  0  0  0  0  0  0  0  0  0  0  0  # atno 17320 bound_to 7965
  145.2740  139.1943  143.4826 LP  0  0  0  0  0  0  0  0  0  0  0  0  # atno 17321 bound_to 7965
  139.8369  143.7616  152.3180 LP  0  0  0  0  0  0  0  0  0  0  0  0  # atno 17342 bound_to 10162
  139.7751  144.7463  151.0168 LP  0  0  0  0  0  0  0  0  0  0  0  0  # atno 17343 bound_to 10162
  156.8780  130.5169  149.5292 LP  0  0  0  0  0  0  0  0  0  0  0  0  # atno 17370 bound_to 10713
  156.0783  130.5800  150.9516 LP  0  0  0  0  0  0  0  0  0  0  0  0  # atno 17371 bound_to 10713
  140.8458  133.8170  155.9119 LP  0  0  0  0  0  0  0  0  0  0  0  0  # atno 17394 bound_to 11000
  140.9193  134.2162  157.4937 LP  0  0  0  0  0  0  0  0  0  0  0  0  # atno 17395 bound_to 11000

$$$$
