AV-unprocessed.smi:1673|AV-procd|sdf|6712|dock7
  -GOLD-   22720 7453D 1   1.00000     0.00000
 Structure written by MMmdl.
 39 40  0  0  0  0  0  0  0  0  1 V2000
  150.1813  132.0006  155.7221 C   0  0  0  0  0  0  0  0  0  0  0  0
  150.5332  133.4624  155.7165 C   0  0  0  0  0  0  0  0  0  0  0  0
  151.4771  133.9000  156.5368 N   0  0  0  0  0  0  0  0  0  0  0  0
  151.6438  135.2674  156.2677 O   0  0  0  0  0  0  0  0  0  0  0  0
  150.7846  135.6288  155.2793 C   0  0  0  0  0  0  0  0  0  0  0  0
  150.8243  137.0514  154.8333 C   0  0  0  0  0  0  0  0  0  0  0  0
  150.0455  134.5405  154.9206 C   0  0  0  0  0  0  0  0  0  0  0  0
  149.0632  134.5330  153.8988 N   0  0  0  0  0  0  0  0  0  0  0  0
  147.9533  133.7806  153.8577 C   0  0  0  0  0  0  0  0  0  0  0  0
  147.5996  133.0030  154.7435 O   0  0  0  0  0  0  0  0  0  0  0  0
  147.2607  133.9948  152.7296 N   0  0  0  0  0  0  0  0  0  0  0  0
  145.9993  133.3515  152.3638 C   0  0  1  0  0  0  0  0  0  0  0  0
  145.2995  134.2107  151.2924 C   0  0  0  0  0  0  0  0  0  0  0  0
  143.9898  133.5681  150.8137 C   0  0  0  0  0  0  0  0  0  0  0  0
  144.2342  132.1444  150.2962 C   0  0  0  0  0  0  0  0  0  0  0  0
  144.9165  131.2791  151.3665 C   0  0  0  0  0  0  0  0  0  0  0  0
  146.2382  131.9050  151.8570 C   0  0  2  0  0  0  0  0  0  0  0  0
  146.8995  131.0017  152.9136 C   0  0  0  0  0  0  0  0  0  0  0  0
  149.8979  131.6590  154.7265 H   0  0  0  0  0  0  0  0  0  0  0  0
  149.3490  131.8008  156.3969 H   0  0  0  0  0  0  0  0  0  0  0  0
  151.0234  131.3887  156.0466 H   0  0  0  0  0  0  0  0  0  0  0  0
  150.1751  137.2117  153.9726 H   0  0  0  0  0  0  0  0  0  0  0  0
  151.8369  137.3387  154.5498 H   0  0  0  0  0  0  0  0  0  0  0  0
  150.4950  137.7151  155.6328 H   0  0  0  0  0  0  0  0  0  0  0  0
  149.1735  135.2243  153.1717 H   0  0  0  0  0  0  0  0  0  0  0  0
  147.6354  134.6570  152.0663 H   0  0  0  0  0  0  0  0  0  0  0  0
  145.3382  133.3057  153.2315 H   0  0  0  0  0  0  0  0  0  0  0  0
  145.0931  135.2057  151.6889 H   0  0  0  0  0  0  0  0  0  0  0  0
  145.9638  134.3511  150.4382 H   0  0  0  0  0  0  0  0  0  0  0  0
  143.2722  133.5424  151.6348 H   0  0  0  0  0  0  0  0  0  0  0  0
  143.5411  134.1775  150.0287 H   0  0  0  0  0  0  0  0  0  0  0  0
  143.2890  131.6904  149.9972 H   0  0  0  0  0  0  0  0  0  0  0  0
  144.8572  132.1808  149.4016 H   0  0  0  0  0  0  0  0  0  0  0  0
  144.2377  131.1460  152.2104 H   0  0  0  0  0  0  0  0  0  0  0  0
  145.1024  130.2834  150.9623 H   0  0  0  0  0  0  0  0  0  0  0  0
  146.9146  131.9542  151.0021 H   0  0  0  0  0  0  0  0  0  0  0  0
  146.2940  130.9446  153.8187 H   0  0  0  0  0  0  0  0  0  0  0  0
  147.8871  131.3666  153.1959 H   0  0  0  0  0  0  0  0  0  0  0  0
  147.0290  129.9872  152.5357 H   0  0  0  0  0  0  0  0  0  0  0  0
  1  2  1  0  0  0  0
  1 19  1  0  0  0  0
  1 20  1  0  0  0  0
  1 21  1  0  0  0  0
  2  7  1  0  0  0  0
  2  3  2  0  0  0  0
  3  4  1  0  0  0  0
  4  5  1  0  0  0  0
  5  6  1  0  0  0  0
  5  7  2  0  0  0  0
  6 22  1  0  0  0  0
  6 23  1  0  0  0  0
  6 24  1  0  0  0  0
  7  8  1  0  0  0  0
  8  9  1  0  0  0  0
  8 25  1  0  0  0  0
  9 10  2  0  0  0  0
  9 11  1  0  0  0  0
 11 12  1  0  0  0  0
 11 26  1  0  0  0  0
 12 17  1  0  0  0  0
 12 13  1  0  0  0  0
 12 27  1  0  0  0  0
 13 14  1  0  0  0  0
 13 28  1  0  0  0  0
 13 29  1  0  0  0  0
 14 15  1  0  0  0  0
 14 30  1  0  0  0  0
 14 31  1  0  0  0  0
 15 16  1  0  0  0  0
 15 32  1  0  0  0  0
 15 33  1  0  0  0  0
 16 17  1  0  0  0  0
 16 34  1  0  0  0  0
 16 35  1  0  0  0  0
 17 18  1  0  0  0  0
 17 36  1  0  0  0  0
 18 37  1  0  0  0  0
 18 38  1  0  0  0  0
 18 39  1  0  0  0  0
M  END
> <s_m_source_file>
AV-unprocessed.smi

> <i_m_source_file_index>
1673

> <i_lp_mmshare_version>
43012

> <i_f3d_flags>
0

> <s_epik_input>
W0NIM11jMW5vYyhbQ0gzXSljMVtOSF1DKD1PKVtOSF1bQ0BASF0yW0NIMl1bQ0gyXVtDSDJdW0NIMl1bQ0BIXTJbQ0gzXQ==

> <s_epik_cmdline>
J2VwaWtfcHl0aG9uJywgJy1waCcsICc3LjAnLCAnLXRuJywgJzgnLCAnLW1hJywgJzIwMCcsICctbWV0YWxfYmluZGluZycsICctaW1hZScsICc8aW5maWxlLm1hZT4nLCAnLW9tYWUnLCAnPG91dGZpbGUubWFlPic=

> <r_lp_tautomer_probability>
1

> <r_epik_Ionization_Penalty>
4.01865e-05

> <r_epik_Ionization_Penalty_Charging>
0

> <r_epik_Ionization_Penalty_Neutral>
4.01865e-05

> <r_epik_State_Penalty>
-0

> <r_epik_Charging_Adjusted_Penalty>
0

> <i_epik_Tot_Q>
0

> <i_epik_Tot_abs_Q>
0

> <r_epik_Metal_State_Penalty>
-0

> <b_epik_Metal_Only>
0

> <s_lp_Force_Field>
OPLS_2005

> <r_lp_Energy>
12.0286

> <b_lp_Chiralities_Consistent>
1

> <s_lp_Variant>
AV-unprocessed.smi:1673-4

> <Gold.Version>
5.8.1

> <Gold.Id.Protein>
6NUR|6NUR_protein|mol2

> <Gold.PLP.Fitness>
37.3789

> <Gold.PLP.PLP>
-30.0229

> <Gold.PLP.part.hbond>
-3.0057

> <Gold.PLP.part.metal>
0.0000

> <Gold.PLP.part.buried>
-3.5533

> <Gold.PLP.part.nonpolar>
-23.7550

> <Gold.PLP.part.repulsive>
0.0333

> <Gold.PLP.ligand.clash>
0.0000

> <Gold.PLP.ligand.torsion>
0.4871

> <Gold.PLP.Chemscore.Hbond>
2.6888

> <Gold.PLP.Chemscore.CHOScore>
0.0000

> <Gold.PLP.Chemscore.Metal>
0.0000

> <Gold.Chemscore.Hbonds>
donor molecule, donor type, donor heavy atom, donor atom, acceptor molecule, acceptor atom, score
      L1  H     8    25       P1  7948  0.85
      L1  H    11    26       P1  7948  0.90
      P1  H 10752 10763       L1     4  0.88

> <Gold.PLP.Chemscore.Internal.Correction>
0.2639

> <Gold.Rescore>
     Score         DG    S(hbond)    S(metal)    S(lipo)     H(rot)  DE(clash)    DE(int)     intcor
     15.29     -17.20       1.89        0.00      68.16       1.00       0.01       1.90       ----

> <Gold.Chemscore.Fitness>
15.2942

> <Gold.Chemscore.DG>
-17.1985

> <Gold.Chemscore.ZeroCoef>
-5.4800

> <Gold.Chemscore.Hbond>
1.8873

> <Gold.Chemscore.Metal>
0.0000

> <Gold.Chemscore.Lipo>
68.1628

> <Gold.Chemscore.Internal_Hbond>
0.0000

> <Gold.Chemscore.DEClash>
0.0077

> <Gold.Chemscore.DEInternal>
1.8966

> <Gold.Chemscore.Rot>
1.0000

> <Gold.Chemscore.Internal.Correction>
   9.000000E+99

> <Gold.Chemscore.Hbonds>
donor molecule, donor type, donor heavy atom, donor atom, acceptor molecule, acceptor atom, score
      L1  H     8    25       P1  7948  0.15
      L1  H    11    26       P1  7948  0.49
      P1  H 10752 10763       L1     4  0.08

> <Gold.Chemscore.Hbond.Weighted>
-6.3035

> <Gold.Chemscore.Metal.Weighted>
-0.0000

> <Gold.Chemscore.Lipo.Weighted>
-7.9750

> <Gold.Chemscore.Internal_Hbond.Weighted>
0.0000

> <Gold.Chemscore.DEClash.Weighted>
0.0077

> <Gold.Chemscore.DEInternal.Weighted>
1.8966

> <Gold.Chemscore.Rot.Weighted>
2.5600

> <Gold.Chemscore.Internal.Correction.Weighted>
   9.000000E+99

> <Gold.Protein.RotatedTorsions>
[ 6907 6896 6895 6894 ] final  -20.60 input  -60.11 | X-H torsion
[ 7974 7965 7964 7962 ] final   -4.50 input  175.53 | X-H torsion
[ 8008 7997 7996 7995 ] final   -2.07 input   59.86 | X-H torsion
[ 10167 10162 10161 10158 ] final  -91.04 input  -65.29 | X-H torsion
[ 10718 10713 10712 10709 ] final   -9.35 input   66.30 | X-H torsion
[ 10763 10752 10751 10750 ] final  105.74 input  -60.55 | X-H torsion
[ 11005 11000 10999 10996 ] final  -66.90 input  -57.11 | X-H torsion

> <Gold.Protein.ActiveResidues>
 VAL166  LYS551  ARG553  GLY616  TRP617  ASP618  TYR619  PRO620  LYS621  CYS622 
 ASP623  PHE694  ASN695  SER759  ASP760  ASP761  ALA762  ILE779  LEU786  VAL792 
 PHE793  MET794  SER795  GLU796  ALA797  LYS798  CYS799  TRP800  GLU811  SER814 

> <Gold.Protein.RotatedAtoms>
  151.2457  135.0605  159.9042 H   0  0  0  0  0  0  0  0  0  0  0  0  # atno 6907 bound_to 6896
  152.5387  134.0386  159.8067 H   0  0  0  0  0  0  0  0  0  0  0  0  # atno 6908 bound_to 6896
  151.0586  133.5514  159.2667 H   0  0  0  0  0  0  0  0  0  0  0  0  # atno 6909 bound_to 6896
  146.2371  140.1880  142.8332 H   0  0  0  0  0  0  0  0  0  0  0  0  # atno 7974 bound_to 7965
  154.6398  140.2543  155.7336 H   0  0  0  0  0  0  0  0  0  0  0  0  # atno 8008 bound_to 7997
  156.2523  140.2890  156.0706 H   0  0  0  0  0  0  0  0  0  0  0  0  # atno 8009 bound_to 7997
  155.1615  140.0384  157.2834 H   0  0  0  0  0  0  0  0  0  0  0  0  # atno 8010 bound_to 7997
  140.3489  143.2902  151.9749 H   0  0  0  0  0  0  0  0  0  0  0  0  # atno 10167 bound_to 10162
  156.6892  130.5060  149.5948 H   0  0  0  0  0  0  0  0  0  0  0  0  # atno 10718 bound_to 10713
  153.3835  135.3900  155.1873 H   0  0  0  0  0  0  0  0  0  0  0  0  # atno 10763 bound_to 10752
  154.8710  135.3731  154.4827 H   0  0  0  0  0  0  0  0  0  0  0  0  # atno 10764 bound_to 10752
  153.5307  135.7086  153.5746 H   0  0  0  0  0  0  0  0  0  0  0  0  # atno 10765 bound_to 10752
  141.1494  133.6708  156.6211 H   0  0  0  0  0  0  0  0  0  0  0  0  # atno 11005 bound_to 11000
  144.9881  140.8521  143.5356 LP  0  0  0  0  0  0  0  0  0  0  0  0  # atno 17320 bound_to 7965
  145.1882  139.2315  143.5256 LP  0  0  0  0  0  0  0  0  0  0  0  0  # atno 17321 bound_to 7965
  139.4829  144.6093  151.7463 LP  0  0  0  0  0  0  0  0  0  0  0  0  # atno 17342 bound_to 10162
  140.5238  144.0837  150.6031 LP  0  0  0  0  0  0  0  0  0  0  0  0  # atno 17343 bound_to 10162
  156.1810  130.6499  151.0951 LP  0  0  0  0  0  0  0  0  0  0  0  0  # atno 17370 bound_to 10713
  157.7015  131.0774  150.6805 LP  0  0  0  0  0  0  0  0  0  0  0  0  # atno 17371 bound_to 10713
  140.3540  134.7744  157.4487 LP  0  0  0  0  0  0  0  0  0  0  0  0  # atno 17394 bound_to 11000
  140.0838  134.5695  155.8513 LP  0  0  0  0  0  0  0  0  0  0  0  0  # atno 17395 bound_to 11000

$$$$
