AV-unprocessed.smi:315|AV-procd|sdf|2320|dock1
  -GOLD-   2262022223D 1   1.00000     0.00000
 Structure written by MMmdl.
 47 49  0  0  0  0  0  0  0  0  2 V2000
  147.0948  140.6029  153.6563 C   0  0  0  0  0  0  0  0  0  0  0  0
  148.5461  140.6345  154.1409 C   0  0  0  0  0  0  0  0  0  0  0  0
  149.0661  139.3099  154.0984 O   0  0  0  0  0  0  0  0  0  0  0  0
  150.3127  139.0672  154.6435 C   0  0  0  0  0  0  0  0  0  0  0  0
  151.0638  140.1237  155.0425 N   0  0  0  0  0  0  0  0  0  0  0  0
  152.2807  139.8813  155.5727 C   0  0  0  0  0  0  0  0  0  0  0  0
  152.8070  138.5864  155.7367 C   0  0  0  0  0  0  0  0  0  0  0  0
  152.0294  137.4890  155.3231 C   0  0  0  0  0  0  0  0  0  0  0  0
  150.7566  137.7298  154.7535 C   0  0  0  0  0  0  0  0  0  0  0  0
  149.8807  136.6997  154.3227 N   0  0  0  0  0  0  0  0  0  0  0  0
  149.7413  135.4572  154.8210 C   0  0  0  0  0  0  0  0  0  0  0  0
  150.2822  135.0482  155.8454 O   0  0  0  0  0  0  0  0  0  0  0  0
  148.9639  134.6531  154.0726 N   0  0  0  0  0  0  0  0  0  0  0  0
  148.6026  133.2522  154.3164 C   0  0  2  0  0  0  0  0  0  0  0  0
  149.7358  132.2742  153.9525 C   0  0  0  0  0  0  0  0  0  0  0  0
  149.0254  131.0812  153.3063 C   0  0  0  0  0  0  0  0  0  0  0  0
  147.8915  131.7099  152.6198 N   0  3  1  0  0  0  0  0  0  0  0  0
  146.8293  130.8435  152.0701 C   0  0  0  0  0  0  0  0  0  0  0  0
  145.8701  131.7194  151.2362 C   0  0  0  0  0  0  0  0  0  0  0  0
  145.3536  132.9396  152.0310 C   0  0  0  0  0  0  0  0  0  0  0  0
  146.5056  133.7278  152.6912 C   0  0  0  0  0  0  0  0  0  0  0  0
  147.3705  132.7569  153.5163 C   0  0  2  0  0  0  0  0  0  0  0  0
  146.6528  141.5990  153.6867 H   0  0  0  0  0  0  0  0  0  0  0  0
  146.4875  139.9473  154.2807 H   0  0  0  0  0  0  0  0  0  0  0  0
  147.0330  140.2417  152.6301 H   0  0  0  0  0  0  0  0  0  0  0  0
  149.1318  141.2968  153.5010 H   0  0  0  0  0  0  0  0  0  0  0  0
  148.5840  141.0255  155.1588 H   0  0  0  0  0  0  0  0  0  0  0  0
  152.8495  140.7457  155.8813 H   0  0  0  0  0  0  0  0  0  0  0  0
  153.7827  138.4380  156.1752 H   0  0  0  0  0  0  0  0  0  0  0  0
  152.4129  136.4897  155.4617 H   0  0  0  0  0  0  0  0  0  0  0  0
  149.4156  136.8750  153.4443 H   0  0  0  0  0  0  0  0  0  0  0  0
  148.6111  135.0529  153.2146 H   0  0  0  0  0  0  0  0  0  0  0  0
  148.3973  133.1183  155.3802 H   0  0  0  0  0  0  0  0  0  0  0  0
  150.4091  132.7282  153.2233 H   0  0  0  0  0  0  0  0  0  0  0  0
  150.3353  131.9839  154.8161 H   0  0  0  0  0  0  0  0  0  0  0  0
  149.6672  130.5311  152.6175 H   0  0  0  0  0  0  0  0  0  0  0  0
  148.6594  130.3912  154.0687 H   0  0  0  0  0  0  0  0  0  0  0  0
  147.2725  130.0697  151.4425 H   0  0  0  0  0  0  0  0  0  0  0  0
  146.2965  130.3414  152.8789 H   0  0  0  0  0  0  0  0  0  0  0  0
  146.3919  132.0721  150.3456 H   0  0  0  0  0  0  0  0  0  0  0  0
  145.0305  131.1210  150.8819 H   0  0  0  0  0  0  0  0  0  0  0  0
  144.7761  133.5952  151.3786 H   0  0  0  0  0  0  0  0  0  0  0  0
  144.6659  132.5947  152.8034 H   0  0  0  0  0  0  0  0  0  0  0  0
  147.1092  134.2202  151.9275 H   0  0  0  0  0  0  0  0  0  0  0  0
  146.0887  134.5114  153.3232 H   0  0  0  0  0  0  0  0  0  0  0  0
  146.7157  132.2697  154.2426 H   0  0  0  0  0  0  0  0  0  0  0  0
  148.2956  132.1971  151.8326 H   0  0  0  0  0  0  0  0  0  0  0  0
  1  2  1  0  0  0  0
  1 23  1  0  0  0  0
  1 24  1  0  0  0  0
  1 25  1  0  0  0  0
  2  3  1  0  0  0  0
  2 26  1  0  0  0  0
  2 27  1  0  0  0  0
  3  4  1  0  0  0  0
  4  9  1  0  0  0  0
  4  5  2  0  0  0  0
  5  6  1  0  0  0  0
  6  7  2  0  0  0  0
  6 28  1  0  0  0  0
  7  8  1  0  0  0  0
  7 29  1  0  0  0  0
  8  9  2  0  0  0  0
  8 30  1  0  0  0  0
  9 10  1  0  0  0  0
 10 11  1  0  0  0  0
 10 31  1  0  0  0  0
 11 12  2  0  0  0  0
 11 13  1  0  0  0  0
 13 14  1  0  0  0  0
 13 32  1  0  0  0  0
 14 22  1  0  0  0  0
 14 15  1  0  0  0  0
 14 33  1  0  0  0  0
 15 16  1  0  0  0  0
 15 34  1  0  0  0  0
 15 35  1  0  0  0  0
 16 17  1  0  0  0  0
 16 36  1  0  0  0  0
 16 37  1  0  0  0  0
 17 22  1  0  0  0  0
 17 18  1  0  0  0  0
 17 47  1  0  0  0  0
 18 19  1  0  0  0  0
 18 38  1  0  0  0  0
 18 39  1  0  0  0  0
 19 20  1  0  0  0  0
 19 40  1  0  0  0  0
 19 41  1  0  0  0  0
 20 21  1  0  0  0  0
 20 42  1  0  0  0  0
 20 43  1  0  0  0  0
 21 22  1  0  0  0  0
 21 44  1  0  0  0  0
 21 45  1  0  0  0  0
 22 46  1  0  0  0  0
M  CHG  1  17   1
M  END
> <s_m_source_file>
AV-unprocessed.smi

> <i_m_source_file_index>
315

> <i_lp_mmshare_version>
43012

> <i_f3d_flags>
0

> <s_epik_input>
W0NIM11bQ0gyXU9jMW5bY0hdW2NIXVtjSF1jMVtOSF1DKD1PKVtOSF1bQ0BIXShbQ0gyXVtDSDJdMilbQ0BASF0oTjIzKVtDSDJdW0NIMl1bQ0gyXVtDSDJdMw==

> <s_epik_cmdline>
J2VwaWtfcHl0aG9uJywgJy1waCcsICc3LjAnLCAnLXRuJywgJzgnLCAnLW1hJywgJzIwMCcsICctbWV0YWxfYmluZGluZycsICctaW1hZScsICc8aW5maWxlLm1hZT4nLCAnLW9tYWUnLCAnPG91dGZpbGUubWFlPic=

> <r_lp_tautomer_probability>
1

> <r_epik_Ionization_Penalty>
0.00106455

> <r_epik_Ionization_Penalty_Charging>
0.000974069

> <r_epik_Ionization_Penalty_Neutral>
9.04821e-05

> <r_epik_State_Penalty>
0.000633842

> <r_epik_Charging_Adjusted_Penalty>
0.00160791

> <i_epik_Tot_Q>
1

> <i_epik_Tot_abs_Q>
1

> <r_epik_Metal_State_Penalty>
-0

> <b_epik_Metal_Only>
0

> <s_lp_Force_Field>
OPLS_2005

> <r_lp_Energy>
53.3213

> <b_lp_Chiralities_Consistent>
1

> <s_lp_Variant>
AV-unprocessed.smi:315-5

> <Gold.Version>
5.8.1

> <Gold.Id.Protein>
6NUR|6NUR_protein|mol2

> <Gold.PLP.Fitness>
44.3164

> <Gold.PLP.PLP>
-36.3004

> <Gold.PLP.part.hbond>
-4.1220

> <Gold.PLP.part.metal>
0.0000

> <Gold.PLP.part.buried>
-0.8869

> <Gold.PLP.part.nonpolar>
-31.5349

> <Gold.PLP.part.repulsive>
1.2125

> <Gold.PLP.ligand.clash>
0.0000

> <Gold.PLP.ligand.torsion>
0.5345

> <Gold.PLP.Chemscore.Hbond>
3.0245

> <Gold.PLP.Chemscore.CHOScore>
0.0000

> <Gold.PLP.Chemscore.Metal>
0.0000

> <Gold.Chemscore.Hbonds>
donor molecule, donor type, donor heavy atom, donor atom, acceptor molecule, acceptor atom, score
      L1  H    10    31       P1  7948  0.91
      L1  H    13    32       P1  7948  0.90
      L1  H    17    47       P1 10747  0.19
      P1  H  7989  7998       L1     5  0.85

> <Gold.PLP.Chemscore.Internal.Correction>
0.0114

> <Gold.Rescore>
     Score         DG    S(hbond)    S(metal)    S(lipo)     H(rot)  DE(clash)    DE(int)     intcor
     17.55     -18.80       2.02        0.00      86.34       1.38       0.63       0.62       ----

> <Gold.Chemscore.Fitness>
17.5510

> <Gold.Chemscore.DG>
-18.8023

> <Gold.Chemscore.ZeroCoef>
-5.4800

> <Gold.Chemscore.Hbond>
2.0196

> <Gold.Chemscore.Metal>
0.0000

> <Gold.Chemscore.Lipo>
86.3417

> <Gold.Chemscore.Internal_Hbond>
0.0000

> <Gold.Chemscore.DEClash>
0.6285

> <Gold.Chemscore.DEInternal>
0.6227

> <Gold.Chemscore.Rot>
1.3770

> <Gold.Chemscore.Internal.Correction>
   9.000000E+99

> <Gold.Chemscore.Hbonds>
donor molecule, donor type, donor heavy atom, donor atom, acceptor molecule, acceptor atom, score
      L1  H    10    31       P1  7948  0.81
      L1  H    13    32       P1  7948  0.62
      L1  H    17    47       P1 10747  0.18
      P1  H  7989  7998       L1     5  0.07

> <Gold.Chemscore.Hbond.Weighted>
-6.7454

> <Gold.Chemscore.Metal.Weighted>
-0.0000

> <Gold.Chemscore.Lipo.Weighted>
-10.1020

> <Gold.Chemscore.Internal_Hbond.Weighted>
0.0000

> <Gold.Chemscore.DEClash.Weighted>
0.6285

> <Gold.Chemscore.DEInternal.Weighted>
0.6227

> <Gold.Chemscore.Rot.Weighted>
3.5252

> <Gold.Chemscore.Internal.Correction.Weighted>
   9.000000E+99

> <Gold.Protein.RotatedTorsions>
[ 6907 6896 6895 6894 ] final -150.53 input  -60.11 | X-H torsion
[ 7974 7965 7964 7962 ] final   -3.00 input  175.53 | X-H torsion
[ 8008 7997 7996 7995 ] final -140.11 input   59.86 | X-H torsion
[ 10167 10162 10161 10158 ] final  125.05 input  -65.29 | X-H torsion
[ 10718 10713 10712 10709 ] final    1.16 input   66.30 | X-H torsion
[ 10763 10752 10751 10750 ] final   29.08 input  -60.55 | X-H torsion
[ 11005 11000 10999 10996 ] final  -90.14 input  -57.11 | X-H torsion

> <Gold.Protein.ActiveResidues>
 VAL166  LYS551  ARG553  GLY616  TRP617  ASP618  TYR619  PRO620  LYS621  CYS622 
 ASP623  PHE694  ASN695  SER759  ASP760  ASP761  ALA762  ILE779  LEU786  VAL792 
 PHE793  MET794  SER795  GLU796  ALA797  LYS798  CYS799  TRP800  GLU811  SER814 

> <Gold.Protein.RotatedAtoms>
  151.1999  133.4617  159.2595 H   0  0  0  0  0  0  0  0  0  0  0  0  # atno 6907 bound_to 6896
  151.1079  135.0010  159.8490 H   0  0  0  0  0  0  0  0  0  0  0  0  # atno 6908 bound_to 6896
  152.5448  134.1921  159.8731 H   0  0  0  0  0  0  0  0  0  0  0  0  # atno 6909 bound_to 6896
  146.2396  140.1655  142.8332 H   0  0  0  0  0  0  0  0  0  0  0  0  # atno 7974 bound_to 7965
  155.4560  140.0542  157.2996 H   0  0  0  0  0  0  0  0  0  0  0  0  # atno 8008 bound_to 7997
  154.4757  140.2060  155.9839 H   0  0  0  0  0  0  0  0  0  0  0  0  # atno 8009 bound_to 7997
  156.1128  140.3201  155.8101 H   0  0  0  0  0  0  0  0  0  0  0  0  # atno 8010 bound_to 7997
  139.5707  144.6937  151.3786 H   0  0  0  0  0  0  0  0  0  0  0  0  # atno 10167 bound_to 10162
  156.8441  130.5531  149.5675 H   0  0  0  0  0  0  0  0  0  0  0  0  # atno 10718 bound_to 10713
  153.0452  135.6497  154.0837 H   0  0  0  0  0  0  0  0  0  0  0  0  # atno 10763 bound_to 10752
  154.0536  135.2893  155.3338 H   0  0  0  0  0  0  0  0  0  0  0  0  # atno 10764 bound_to 10752
  154.6704  135.5358  153.8196 H   0  0  0  0  0  0  0  0  0  0  0  0  # atno 10765 bound_to 10752
  141.1571  133.7673  156.9695 H   0  0  0  0  0  0  0  0  0  0  0  0  # atno 11005 bound_to 11000
  145.0054  140.8668  143.5256 LP  0  0  0  0  0  0  0  0  0  0  0  0  # atno 17320 bound_to 7965
  145.1680  139.2420  143.5356 LP  0  0  0  0  0  0  0  0  0  0  0  0  # atno 17321 bound_to 7965
  140.6991  143.7675  150.7374 LP  0  0  0  0  0  0  0  0  0  0  0  0  # atno 17342 bound_to 10162
  140.1180  143.4638  152.2330 LP  0  0  0  0  0  0  0  0  0  0  0  0  # atno 17343 bound_to 10162
  156.0864  130.5861  150.9656 LP  0  0  0  0  0  0  0  0  0  0  0  0  # atno 17370 bound_to 10713
  157.6339  131.0918  150.8386 LP  0  0  0  0  0  0  0  0  0  0  0  0  # atno 17371 bound_to 10713
  140.1139  134.9459  157.2105 LP  0  0  0  0  0  0  0  0  0  0  0  0  # atno 17394 bound_to 11000
  140.3158  134.2972  155.7256 LP  0  0  0  0  0  0  0  0  0  0  0  0  # atno 17395 bound_to 11000

$$$$
