#       Name:                AV-unprocessed.smi:3189
#       Creating user name   scv26
#       Creation time:       Fri Mar 27 18:03:10 2020


#       File generated by GOLD software.
#

@<TRIPOS>MOLECULE
AV-unprocessed.smi:3189
    33    34     1
SMALL
NO_CHARGES


@<TRIPOS>ATOM
      1 ****        -4.3345   1.5852  -0.2564 C.3            1 S1                 0.0000
      2 ****        -3.4941   0.3512   0.0102 C.ar           1 S1                 0.0000
      3 ****        -4.1409  -0.7955   0.3148 N.pl3          1 S1                 1.0000
      4 ****        -3.5010  -1.9567   0.5650 C.ar           1 S1                 0.0000
      5 ****        -2.0942  -2.0077   0.5200 C.ar           1 S1                 0.0000
      6 ****        -1.3642  -0.8293   0.2225 C.ar           1 S1                 0.0000
      7 ****         0.0551  -0.7933   0.1416 N.am           1 S1                 0.0000
      8 ****         0.9574  -1.5915   0.7453 C.2            1 S1                 0.0000
      9 ****         0.6743  -2.5244   1.4939 O.2            1 S1                 0.0000
     10 ****         2.2361  -1.2457   0.5148 N.am           1 S1                 0.0000
     11 ****         3.4146  -1.8898   1.0103 C.3            1 S1                 0.0000
     12 ****         4.7231  -1.1598   0.8045 C.3            1 S1                 0.0000
     13 ****         4.4291  -2.4072   0.0125 C.3            1 S1                 0.0000
     14 ****         5.2020  -3.6794   0.2850 C.3            1 S1                 0.0000
     15 ****        -2.0806   0.3627  -0.0498 C.ar           1 S1                 0.0000
     16 ****        -1.2386   1.8241  -0.4449 Cl             1 S1                 0.0000
     17 ****        -4.0955   2.3687   0.4633 H              1 S1                 0.0000
     18 ****        -5.4002   1.3667  -0.1776 H              1 S1                 0.0000
     19 ****        -4.1418   1.9672  -1.2595 H              1 S1                 0.0000
     20 ****        -4.1296  -2.8069   0.7865 H              1 S1                 0.0000
     21 ****        -1.6035  -2.9515   0.7031 H              1 S1                 0.0000
     22 ****         0.4379  -0.0089  -0.3666 H              1 S1                 0.0000
     23 ****         2.3872  -0.3906  -0.0013 H              1 S1                 0.0000
     24 ****         3.3336  -2.4204   1.9582 H              1 S1                 0.0000
     25 ****         4.7018  -0.2123   0.2689 H              1 S1                 0.0000
     26 ****         5.4633  -1.2256   1.5996 H              1 S1                 0.0000
     27 ****         4.1883  -2.2603  -1.0390 H              1 S1                 0.0000
     28 ****         5.4333  -3.7733   1.3465 H              1 S1                 0.0000
     29 ****         6.1365  -3.6774  -0.2763 H              1 S1                 0.0000
     30 ****         4.6146  -4.5455  -0.0197 H              1 S1                 0.0000
     31 ****        -5.1605  -0.7840   0.3527 H              1 S1                 0.0000
     32 ****        -0.2833  -2.7344   1.6912 LP             1 S1                 0.0000
     33 ****         1.4016  -3.0735   1.9058 LP             1 S1                 0.0000
@<TRIPOS>BOND
    1    1    2 1     
    2    1   17 1     
    3    1   18 1     
    4    1   19 1     
    5    2   15 ar    
    6    2    3 ar    
    7    3    4 ar    
    8    3   31 1     
    9    4    5 ar    
   10    4   20 1     
   11    5    6 ar    
   12    5   21 1     
   13    6    7 1     
   14    6   15 ar    
   15    7    8 am    
   16    7   22 1     
   17    8    9 2     
   18    8   10 am    
   19   10   11 1     
   20   10   23 1     
   21   11   13 1     
   22   11   12 1     
   23   11   24 1     
   24   12   13 1     
   25   12   25 1     
   26   12   26 1     
   27   13   14 1     
   28   13   27 1     
   29   14   28 1     
   30   14   29 1     
   31   14   30 1     
   32   15   16 1     
   33    9   32 1     
   34    9   33 1     
@<TRIPOS>SUBSTRUCTURE
      1 S1             1
@<TRIPOS>SET
LONE_PAIRS      STATIC     ATOMS    <user>   **** ""
2 32 33
DONOR_HYDROGENS      STATIC     ATOMS    <user>   **** ""
3 31 22 23
ATOM$BLUE        STATIC     ATOMS    COLORGROUP SYSTEM
2 32 33
ATOM$RED        STATIC     ATOMS    COLORGROUP SYSTEM
3 31 22 23
