AV-unprocessed.smi:287|AV-procd|sdf|2195|dock9
  -GOLD-   2262022 03D 1   1.00000     0.00000
 Structure written by MMmdl.
 55 58  0  0  0  0  0  0  0  0  1 V2000
  151.2668  142.7751  157.5171 C   0  0  0  0  0  0  0  0  0  0  0  0
  151.4169  141.3321  157.1766 C   0  0  0  0  0  0  0  0  0  0  0  0
  150.9463  140.5474  156.1644 C   0  0  0  0  0  0  0  0  0  0  0  0
  151.4297  139.2236  156.3912 C   0  0  0  0  0  0  0  0  0  0  0  0
  151.1706  138.0018  155.5195 C   0  0  1  0  0  0  0  0  0  0  0  0
  150.2287  138.3818  154.3656 C   0  0  0  0  0  0  0  0  0  0  0  0
  152.3476  137.5146  154.9040 O   0  0  0  0  0  0  0  0  0  0  0  0
  150.5836  136.8114  156.3131 C   0  0  0  0  0  0  0  0  0  0  0  0
  150.3417  135.6393  155.4816 N   0  0  0  0  0  0  0  0  0  0  0  0
  149.0872  135.2065  155.2376 C   0  0  0  0  0  0  0  0  0  0  0  0
  148.1020  135.9329  155.8148 N   0  0  0  0  0  0  0  0  0  0  0  0
  146.8251  135.5915  155.6332 C   0  0  0  0  0  0  0  0  0  0  0  0
  146.3285  134.5789  154.9231 N   0  0  0  0  0  0  0  0  0  0  0  0
  147.3088  133.8322  154.3362 C   0  0  0  0  0  0  0  0  0  0  0  0
  148.7098  134.0792  154.4478 C   0  0  0  0  0  0  0  0  0  0  0  0
  149.4044  133.1132  153.7313 N   0  0  0  0  0  0  0  0  0  0  0  0
  148.4733  132.3492  153.2328 C   0  0  0  0  0  0  0  0  0  0  0  0
  147.1790  132.7114  153.5298 N   0  0  0  0  0  0  0  0  0  0  0  0
  145.9421  131.9698  153.0964 C   0  0  1  0  0  0  0  0  0  0  0  0
  145.1141  132.8569  152.4160 O   0  0  0  0  0  0  0  0  0  0  0  0
  145.3440  132.7520  151.0185 C   0  0  2  0  0  0  0  0  0  0  0  0
  144.1131  133.2599  150.2524 C   0  0  0  0  0  0  0  0  0  0  0  0
  142.9599  132.5620  150.6718 O   0  0  0  0  0  0  0  0  0  0  0  0
  145.6071  131.2499  150.8250 C   0  0  1  0  0  0  0  0  0  0  0  0
  146.5096  131.0429  149.7570 O   0  0  0  0  0  0  0  0  0  0  0  0
  146.2180  130.7867  152.1519 C   0  0  2  0  0  0  0  0  0  0  0  0
  145.5690  129.6140  152.6011 O   0  0  0  0  0  0  0  0  0  0  0  0
  152.1881  139.3193  157.5326 C   0  0  0  0  0  0  0  0  0  0  0  0
  152.9999  138.3432  158.3184 C   0  0  0  0  0  0  0  0  0  0  0  0
  152.1799  140.5915  158.0194 O   0  0  0  0  0  0  0  0  0  0  0  0
  145.4781  131.6700  154.0373 H   0  0  0  0  0  0  0  0  0  0  0  0
  146.2251  133.3353  150.7509 H   0  0  0  0  0  0  0  0  0  0  0  0
  144.6705  130.7267  150.6242 H   0  0  0  0  0  0  0  0  0  0  0  0
  147.2857  130.5781  152.0924 H   0  0  0  0  0  0  0  0  0  0  0  0
  150.5157  143.2477  156.8840 H   0  0  0  0  0  0  0  0  0  0  0  0
  152.2091  143.3047  157.3772 H   0  0  0  0  0  0  0  0  0  0  0  0
  150.9584  142.8987  158.5554 H   0  0  0  0  0  0  0  0  0  0  0  0
  150.3173  140.8842  155.3535 H   0  0  0  0  0  0  0  0  0  0  0  0
  149.2708  138.7433  154.7416 H   0  0  0  0  0  0  0  0  0  0  0  0
  150.0250  137.5289  153.7172 H   0  0  0  0  0  0  0  0  0  0  0  0
  150.6568  139.1722  153.7475 H   0  0  0  0  0  0  0  0  0  0  0  0
  153.0865  137.9907  155.2508 H   0  0  0  0  0  0  0  0  0  0  0  0
  151.3011  136.5245  157.0829 H   0  0  0  0  0  0  0  0  0  0  0  0
  149.6666  137.1034  156.8270 H   0  0  0  0  0  0  0  0  0  0  0  0
  151.1657  135.1227  155.2091 H   0  0  0  0  0  0  0  0  0  0  0  0
  146.0972  136.2197  156.1249 H   0  0  0  0  0  0  0  0  0  0  0  0
  148.7099  131.4868  152.6266 H   0  0  0  0  0  0  0  0  0  0  0  0
  143.9504  134.3170  150.4647 H   0  0  0  0  0  0  0  0  0  0  0  0
  144.2467  133.1615  149.1747 H   0  0  0  0  0  0  0  0  0  0  0  0
  142.1993  133.0796  150.4567 H   0  0  0  0  0  0  0  0  0  0  0  0
  147.3337  130.7484  150.1139 H   0  0  0  0  0  0  0  0  0  0  0  0
  144.9686  129.8499  153.2918 H   0  0  0  0  0  0  0  0  0  0  0  0
  153.6697  137.7835  157.6656 H   0  0  0  0  0  0  0  0  0  0  0  0
  152.3545  137.6313  158.8330 H   0  0  0  0  0  0  0  0  0  0  0  0
  153.6089  138.8486  159.0685 H   0  0  0  0  0  0  0  0  0  0  0  0
  1  2  1  0  0  0  0
  1 35  1  0  0  0  0
  1 36  1  0  0  0  0
  1 37  1  0  0  0  0
  2 30  1  0  0  0  0
  2  3  2  0  0  0  0
  3  4  1  0  0  0  0
  3 38  1  0  0  0  0
  4  5  1  0  0  0  0
  4 28  2  0  0  0  0
  5  6  1  0  0  0  0
  5  7  1  0  0  0  0
  5  8  1  0  0  0  0
  6 39  1  0  0  0  0
  6 40  1  0  0  0  0
  6 41  1  0  0  0  0
  7 42  1  0  0  0  0
  8  9  1  0  0  0  0
  8 43  1  0  0  0  0
  8 44  1  0  0  0  0
  9 10  1  0  0  0  0
  9 45  1  0  0  0  0
 10 15  1  0  0  0  0
 10 11  2  0  0  0  0
 11 12  1  0  0  0  0
 12 13  2  0  0  0  0
 12 46  1  0  0  0  0
 13 14  1  0  0  0  0
 14 18  1  0  0  0  0
 14 15  2  0  0  0  0
 15 16  1  0  0  0  0
 16 17  2  0  0  0  0
 17 18  1  0  0  0  0
 17 47  1  0  0  0  0
 18 19  1  0  0  0  0
 19 31  1  0  0  0  0
 19 26  1  0  0  0  0
 19 20  1  0  0  0  0
 20 21  1  0  0  0  0
 21 32  1  0  0  0  0
 21 22  1  0  0  0  0
 21 24  1  0  0  0  0
 22 23  1  0  0  0  0
 22 48  1  0  0  0  0
 22 49  1  0  0  0  0
 23 50  1  0  0  0  0
 24 33  1  0  0  0  0
 24 25  1  0  0  0  0
 24 26  1  0  0  0  0
 25 51  1  0  0  0  0
 26 34  1  0  0  0  0
 26 27  1  0  0  0  0
 27 52  1  0  0  0  0
 28 29  1  0  0  0  0
 28 30  1  0  0  0  0
 29 53  1  0  0  0  0
 29 54  1  0  0  0  0
 29 55  1  0  0  0  0
M  END
> <s_m_source_file>
AV-unprocessed.smi

> <i_m_source_file_index>
287

> <i_lp_mmshare_version>
43012

> <i_f3d_flags>
0

> <s_epik_input>
W0NIM11jMVtjSF1jKGMobzEpW0NIM10pW0NAQF0oW0NIM10pKFtPSF0pW0NIMl1bTkhdYyhuW2NIXW4yKWMoYzIzKW5bY0hdbjNbQ0BASF00T1tDQEhdKFtDSDJdW09IXSlbQ0BASF0oW09IXSlbQ0BIXTRbT0hd

> <s_epik_cmdline>
J2VwaWtfcHl0aG9uJywgJy1waCcsICc3LjAnLCAnLXRuJywgJzgnLCAnLW1hJywgJzIwMCcsICctbWV0YWxfYmluZGluZycsICctaW1hZScsICc8aW5maWxlLm1hZT4nLCAnLW9tYWUnLCAnPG91dGZpbGUubWFlPic=

> <r_lp_tautomer_probability>
1

> <r_epik_Ionization_Penalty>
0.000992612

> <r_epik_Ionization_Penalty_Charging>
0

> <r_epik_Ionization_Penalty_Neutral>
0.000992612

> <r_epik_State_Penalty>
-0

> <r_epik_Charging_Adjusted_Penalty>
0

> <i_epik_Tot_Q>
0

> <i_epik_Tot_abs_Q>
0

> <r_epik_Metal_State_Penalty>
-0

> <b_epik_Metal_Only>
0

> <s_epik_Chemistry_Notes>
This compound contains an acetal/aminal-like group ( X-CH(R)-Y where X, Y are N, S, or O) that may be acid/base labile, releasing an aldehyde.

> <s_lp_Force_Field>
OPLS_2005

> <r_lp_Energy>
36.8397

> <b_lp_Chiralities_Consistent>
1

> <s_lp_Variant>
AV-unprocessed.smi:287-19

> <Gold.Version>
5.8.1

> <Gold.Id.Protein>
6NUR|6NUR_protein|mol2

> <Gold.PLP.Fitness>
53.8051

> <Gold.PLP.PLP>
-41.8405

> <Gold.PLP.part.hbond>
-4.0423

> <Gold.PLP.part.metal>
0.0000

> <Gold.PLP.part.buried>
-8.4483

> <Gold.PLP.part.nonpolar>
-30.5887

> <Gold.PLP.part.repulsive>
0.4668

> <Gold.PLP.ligand.clash>
0.0000

> <Gold.PLP.ligand.torsion>
0.1224

> <Gold.PLP.Chemscore.Hbond>
3.0281

> <Gold.PLP.Chemscore.CHOScore>
1.0000

> <Gold.PLP.Chemscore.Metal>
0.0000

> <Gold.Chemscore.Hbonds>
donor molecule, donor type, donor heavy atom, donor atom, acceptor molecule, acceptor atom, score
      L1  H    23    50       P1 10186  1.00
      L1  H    25    51       P1 10747  1.00
      L1  H    27    52       P1 10956  0.33
      P1  H 10752 10764       L1     7  0.66
      L1  C    17    47       P1 10747  1.00

> <Gold.PLP.Chemscore.Internal.Correction>
0.1252

> <Gold.Rescore>
     Score         DG    S(hbond)    S(metal)    S(lipo)     H(rot)  DE(clash)    DE(int)     intcor
     11.55     -11.70       2.55        0.00      95.56       5.27       0.03       0.12       ----

> <Gold.Chemscore.Fitness>
11.5526

> <Gold.Chemscore.DG>
-11.7023

> <Gold.Chemscore.ZeroCoef>
-5.4800

> <Gold.Chemscore.Hbond>
2.5526

> <Gold.Chemscore.Metal>
0.0000

> <Gold.Chemscore.Lipo>
95.5593

> <Gold.Chemscore.Internal_Hbond>
0.0000

> <Gold.Chemscore.DEClash>
0.0295

> <Gold.Chemscore.DEInternal>
0.1202

> <Gold.Chemscore.Rot>
5.2672

> <Gold.Chemscore.Internal.Correction>
   9.000000E+99

> <Gold.Chemscore.Hbonds>
donor molecule, donor type, donor heavy atom, donor atom, acceptor molecule, acceptor atom, score
      L1  H    23    50       P1 10186  0.96
      L1  H    25    51       P1 10747  0.96
      L1  H    27    52       P1 10956  0.04
      P1  H 10752 10764       L1     7  0.42

> <Gold.Chemscore.Hbond.Weighted>
-8.5258

> <Gold.Chemscore.Metal.Weighted>
-0.0000

> <Gold.Chemscore.Lipo.Weighted>
-11.1804

> <Gold.Chemscore.Internal_Hbond.Weighted>
0.0000

> <Gold.Chemscore.DEClash.Weighted>
0.0295

> <Gold.Chemscore.DEInternal.Weighted>
0.1202

> <Gold.Chemscore.Rot.Weighted>
13.4839

> <Gold.Chemscore.Internal.Correction.Weighted>
   9.000000E+99

> <Gold.Protein.RotatedTorsions>
[ 6907 6896 6895 6894 ] final  -30.41 input  -60.11 | X-H torsion
[ 7974 7965 7964 7962 ] final  109.51 input  175.53 | X-H torsion
[ 8008 7997 7996 7995 ] final  -40.50 input   59.86 | X-H torsion
[ 10167 10162 10161 10158 ] final  -84.36 input  -65.29 | X-H torsion
[ 10718 10713 10712 10709 ] final -116.22 input   66.30 | X-H torsion
[ 10763 10752 10751 10750 ] final  -72.99 input  -60.55 | X-H torsion
[ 11005 11000 10999 10996 ] final  108.70 input  -57.11 | X-H torsion

> <Gold.Protein.ActiveResidues>
 VAL166  LYS551  ARG553  GLY616  TRP617  ASP618  TYR619  PRO620  LYS621  CYS622 
 ASP623  PHE694  ASN695  SER759  ASP760  ASP761  ALA762  ILE779  LEU786  VAL792 
 PHE793  MET794  SER795  GLU796  ALA797  LYS798  CYS799  TRP800  GLU811  SER814 

> <Gold.Protein.RotatedAtoms>
  151.1060  134.9999  159.8470 H   0  0  0  0  0  0  0  0  0  0  0  0  # atno 6907 bound_to 6896
  152.5440  134.1893  159.8677 H   0  0  0  0  0  0  0  0  0  0  0  0  # atno 6908 bound_to 6896
  151.1940  133.4606  159.2628 H   0  0  0  0  0  0  0  0  0  0  0  0  # atno 6909 bound_to 6896
  145.2669  139.2681  143.3987 H   0  0  0  0  0  0  0  0  0  0  0  0  # atno 7974 bound_to 7965
  154.4011  140.1524  156.3037 H   0  0  0  0  0  0  0  0  0  0  0  0  # atno 8008 bound_to 7997
  155.8678  140.3450  155.5778 H   0  0  0  0  0  0  0  0  0  0  0  0  # atno 8009 bound_to 7997
  155.7808  140.0843  157.2050 H   0  0  0  0  0  0  0  0  0  0  0  0  # atno 8010 bound_to 7997
  140.4139  143.2611  151.8980 H   0  0  0  0  0  0  0  0  0  0  0  0  # atno 10167 bound_to 10162
  156.0948  130.6123  150.9007 H   0  0  0  0  0  0  0  0  0  0  0  0  # atno 10718 bound_to 10713
  154.4533  135.5912  153.6206 H   0  0  0  0  0  0  0  0  0  0  0  0  # atno 10763 bound_to 10752
  152.9815  135.6026  154.3577 H   0  0  0  0  0  0  0  0  0  0  0  0  # atno 10764 bound_to 10752
  154.3441  135.2841  155.2386 H   0  0  0  0  0  0  0  0  0  0  0  0  # atno 10765 bound_to 10752
  139.8849  134.9438  156.6013 H   0  0  0  0  0  0  0  0  0  0  0  0  # atno 11005 bound_to 11000
  146.3258  140.3101  142.8626 LP  0  0  0  0  0  0  0  0  0  0  0  0  # atno 17320 bound_to 7965
  144.9369  140.8036  143.5654 LP  0  0  0  0  0  0  0  0  0  0  0  0  # atno 17321 bound_to 7965
  139.4782  144.5508  151.8389 LP  0  0  0  0  0  0  0  0  0  0  0  0  # atno 17342 bound_to 10162
  140.4607  144.1725  150.5906 LP  0  0  0  0  0  0  0  0  0  0  0  0  # atno 17343 bound_to 10162
  157.6107  131.0936  150.8800 LP  0  0  0  0  0  0  0  0  0  0  0  0  # atno 17370 bound_to 10713
  156.8941  130.5223  149.5285 LP  0  0  0  0  0  0  0  0  0  0  0  0  # atno 17371 bound_to 10713
  140.7881  133.8604  155.8623 LP  0  0  0  0  0  0  0  0  0  0  0  0  # atno 17394 bound_to 11000
  140.9701  134.1542  157.4583 LP  0  0  0  0  0  0  0  0  0  0  0  0  # atno 17395 bound_to 11000

$$$$
