AV-unprocessed.smi:3234|AV-procd|sdf|12352|dock4
  -GOLD-   2272018213D 1   1.00000     0.00000
 Structure written by MMmdl.
 38 40  0  0  0  0  0  0  0  0  3 V2000
  145.3483  138.6296  152.9175 O   0  0  0  0  0  0  0  0  0  0  0  0
  146.4327  138.1110  152.6564 C   0  0  0  0  0  0  0  0  0  0  0  0
  147.6410  138.6288  152.9416 N   0  0  0  0  0  0  0  0  0  0  0  0
  147.9779  139.8497  153.5924 C   0  0  0  0  0  0  0  0  0  0  0  0
  147.0485  140.9088  153.4853 C   0  0  0  0  0  0  0  0  0  0  0  0
  147.3220  142.1454  154.1047 C   0  0  0  0  0  0  0  0  0  0  0  0
  148.4699  142.3113  154.7948 N   0  3  0  0  0  0  0  0  0  0  0  0
  149.3905  141.3324  154.9243 C   0  0  0  0  0  0  0  0  0  0  0  0
  149.1719  140.0742  154.3266 C   0  0  0  0  0  0  0  0  0  0  0  0
  146.5466  136.9289  152.0342 N   0  0  0  0  0  0  0  0  0  0  0  0
  145.4195  136.1112  151.5973 C   0  0  2  0  0  0  0  0  0  0  0  0
  144.2063  136.1565  152.5211 C   0  0  0  0  0  0  0  0  0  0  0  0
  143.4494  134.8789  152.1408 C   0  0  0  0  0  0  0  0  0  0  0  0
  144.4611  133.9150  151.6395 N   0  3  1  0  0  0  0  0  0  0  0  0
  144.0845  133.2761  150.3595 C   0  0  0  0  0  0  0  0  0  0  0  0
  143.7986  131.7984  150.4831 C   0  0  0  0  0  0  0  0  0  0  0  0
  145.0968  132.2706  149.8648 C   0  0  0  0  0  0  0  0  0  0  0  0
  145.7602  134.6216  151.5882 C   0  0  0  0  0  0  0  0  0  0  0  0
  148.4312  138.0750  152.6450 H   0  0  0  0  0  0  0  0  0  0  0  0
  146.1289  140.7793  152.9328 H   0  0  0  0  0  0  0  0  0  0  0  0
  146.6620  142.9997  154.0684 H   0  0  0  0  0  0  0  0  0  0  0  0
  150.2708  141.5830  155.4983 H   0  0  0  0  0  0  0  0  0  0  0  0
  149.9307  139.3182  154.4485 H   0  0  0  0  0  0  0  0  0  0  0  0
  147.4726  136.5705  151.8508 H   0  0  0  0  0  0  0  0  0  0  0  0
  145.1189  136.4082  150.5902 H   0  0  0  0  0  0  0  0  0  0  0  0
  144.5214  136.1066  153.5648 H   0  0  0  0  0  0  0  0  0  0  0  0
  143.6046  137.0571  152.3922 H   0  0  0  0  0  0  0  0  0  0  0  0
  142.8981  134.4635  152.9848 H   0  0  0  0  0  0  0  0  0  0  0  0
  142.7251  135.1072  151.3570 H   0  0  0  0  0  0  0  0  0  0  0  0
  143.5263  133.8913  149.6556 H   0  0  0  0  0  0  0  0  0  0  0  0
  143.8478  131.3445  151.4713 H   0  0  0  0  0  0  0  0  0  0  0  0
  143.0534  131.3739  149.8135 H   0  0  0  0  0  0  0  0  0  0  0  0
  145.2062  132.1568  148.7882 H   0  0  0  0  0  0  0  0  0  0  0  0
  146.0092  132.1308  150.4420 H   0  0  0  0  0  0  0  0  0  0  0  0
  146.3645  134.3373  150.7251 H   0  0  0  0  0  0  0  0  0  0  0  0
  146.3215  134.3537  152.4848 H   0  0  0  0  0  0  0  0  0  0  0  0
  144.5521  133.1777  152.3239 H   0  0  0  0  0  0  0  0  0  0  0  0
  148.6500  143.2138  155.2358 H   0  0  0  0  0  0  0  0  0  0  0  0
  1  2  2  0  0  0  0
  2  3  1  0  0  0  0
  2 10  1  0  0  0  0
  3  4  1  0  0  0  0
  3 19  1  0  0  0  0
  4  9  1  0  0  0  0
  4  5  2  0  0  0  0
  5  6  1  0  0  0  0
  5 20  1  0  0  0  0
  6  7  2  0  0  0  0
  6 21  1  0  0  0  0
  7  8  1  0  0  0  0
  7 38  1  0  0  0  0
  8  9  2  0  0  0  0
  8 22  1  0  0  0  0
  9 23  1  0  0  0  0
 10 11  1  0  0  0  0
 10 24  1  0  0  0  0
 11 18  1  0  0  0  0
 11 12  1  0  0  0  0
 11 25  1  0  0  0  0
 12 13  1  0  0  0  0
 12 26  1  0  0  0  0
 12 27  1  0  0  0  0
 13 14  1  0  0  0  0
 13 28  1  0  0  0  0
 13 29  1  0  0  0  0
 14 15  1  0  0  0  0
 14 18  1  0  0  0  0
 14 37  1  0  0  0  0
 15 17  1  0  0  0  0
 15 16  1  0  0  0  0
 15 30  1  0  0  0  0
 16 17  1  0  0  0  0
 16 31  1  0  0  0  0
 16 32  1  0  0  0  0
 17 33  1  0  0  0  0
 17 34  1  0  0  0  0
 18 35  1  0  0  0  0
 18 36  1  0  0  0  0
M  CHG  1   7   1
M  CHG  1  14   1
M  END
> <s_m_source_file>
AV-unprocessed.smi

> <i_m_source_file_index>
3234

> <i_lp_mmshare_version>
43012

> <i_f3d_flags>
0

> <s_epik_input>
W2NIXTFbY0hdbltjSF1bY0hdYzFbTkhdQyg9TylbTkhdW0NAQEhdMltDSDJdW0NIMl1OKFtDSDJdMilbQ0hdM1tDSDJdW0NIMl0z

> <s_epik_cmdline>
J2VwaWtfcHl0aG9uJywgJy1waCcsICc3LjAnLCAnLXRuJywgJzgnLCAnLW1hJywgJzIwMCcsICctbWV0YWxfYmluZGluZycsICctaW1hZScsICc8aW5maWxlLm1hZT4nLCAnLW9tYWUnLCAnPG91dGZpbGUubWFlPic=

> <r_epik_Ionization_Penalty>
1.14489

> <r_epik_Ionization_Penalty_Charging>
1.14487

> <r_epik_Ionization_Penalty_Neutral>
1.95212e-05

> <r_epik_State_Penalty>
1.205

> <r_epik_Charging_Adjusted_Penalty>
2.34987

> <i_epik_Tot_Q>
2

> <i_epik_Tot_abs_Q>
2

> <r_epik_Metal_State_Penalty>
1.28709

> <b_epik_Metal_Only>
0

> <s_lp_Force_Field>
OPLS_2005

> <r_lp_Energy>
49.761

> <b_lp_Chiralities_Consistent>
1

> <s_lp_Variant>
AV-unprocessed.smi:3234-5

> <Gold.Version>
5.8.1

> <Gold.Id.Protein>
6NUR|6NUR_protein|mol2

> <Gold.PLP.Fitness>
44.2968

> <Gold.PLP.PLP>
-34.2301

> <Gold.PLP.part.hbond>
-3.8575

> <Gold.PLP.part.metal>
0.0000

> <Gold.PLP.part.buried>
-5.1504

> <Gold.PLP.part.nonpolar>
-31.0526

> <Gold.PLP.part.repulsive>
4.3437

> <Gold.PLP.ligand.clash>
0.0000

> <Gold.PLP.ligand.torsion>
1.2509

> <Gold.PLP.Chemscore.Hbond>
3.7680

> <Gold.PLP.Chemscore.CHOScore>
0.0000

> <Gold.PLP.Chemscore.Metal>
0.0000

> <Gold.Chemscore.Hbonds>
donor molecule, donor type, donor heavy atom, donor atom, acceptor molecule, acceptor atom, score
      L1  H     3    19       P1  7948  0.84
      L1  H     7    38       P1  8028  2.00
      L1  H    10    24       P1  7948  0.91

> <Gold.PLP.Chemscore.Internal.Correction>
1.2645

> <Gold.Rescore>
     Score         DG    S(hbond)    S(metal)    S(lipo)     H(rot)  DE(clash)    DE(int)     intcor
     16.10     -21.60       2.84        0.00      83.59       1.22       1.54       3.96       ----

> <Gold.Chemscore.Fitness>
16.0966

> <Gold.Chemscore.DG>
-21.5964

> <Gold.Chemscore.ZeroCoef>
-5.4800

> <Gold.Chemscore.Hbond>
2.8359

> <Gold.Chemscore.Metal>
0.0000

> <Gold.Chemscore.Lipo>
83.5887

> <Gold.Chemscore.Internal_Hbond>
0.0000

> <Gold.Chemscore.DEClash>
1.5425

> <Gold.Chemscore.DEInternal>
3.9573

> <Gold.Chemscore.Rot>
1.2248

> <Gold.Chemscore.Internal.Correction>
   9.000000E+99

> <Gold.Chemscore.Hbonds>
donor molecule, donor type, donor heavy atom, donor atom, acceptor molecule, acceptor atom, score
      L1  H     3    19       P1  7948  0.79
      L1  H     7    38       P1  8028  0.97
      L1  H    10    24       P1  7948  0.87

> <Gold.Chemscore.Hbond.Weighted>
-9.4720

> <Gold.Chemscore.Metal.Weighted>
-0.0000

> <Gold.Chemscore.Lipo.Weighted>
-9.7799

> <Gold.Chemscore.Internal_Hbond.Weighted>
0.0000

> <Gold.Chemscore.DEClash.Weighted>
1.5425

> <Gold.Chemscore.DEInternal.Weighted>
3.9573

> <Gold.Chemscore.Rot.Weighted>
3.1355

> <Gold.Chemscore.Internal.Correction.Weighted>
   9.000000E+99

> <Gold.Protein.RotatedTorsions>
[ 6907 6896 6895 6894 ] final -101.35 input  -60.11 | X-H torsion
[ 7974 7965 7964 7962 ] final   73.53 input  175.53 | X-H torsion
[ 8008 7997 7996 7995 ] final -146.03 input   59.86 | X-H torsion
[ 10167 10162 10161 10158 ] final -176.05 input  -65.29 | X-H torsion
[ 10718 10713 10712 10709 ] final  108.78 input   66.30 | X-H torsion
[ 10763 10752 10751 10750 ] final -108.35 input  -60.55 | X-H torsion
[ 11005 11000 10999 10996 ] final -136.84 input  -57.11 | X-H torsion

> <Gold.Protein.ActiveResidues>
 VAL166  LYS551  ARG553  GLY616  TRP617  ASP618  TYR619  PRO620  LYS621  CYS622 
 ASP623  PHE694  ASN695  SER759  ASP760  ASP761  ALA762  ILE779  LEU786  VAL792 
 PHE793  MET794  SER795  GLU796  ALA797  LYS798  CYS799  TRP800  GLU811  SER814 

> <Gold.Protein.RotatedAtoms>
  150.7151  134.0747  159.3876 H   0  0  0  0  0  0  0  0  0  0  0  0  # atno 6907 bound_to 6896
  151.8730  135.0480  160.0490 H   0  0  0  0  0  0  0  0  0  0  0  0  # atno 6908 bound_to 6896
  152.2628  133.5277  159.5428 H   0  0  0  0  0  0  0  0  0  0  0  0  # atno 6909 bound_to 6896
  145.7397  139.2716  143.1493 H   0  0  0  0  0  0  0  0  0  0  0  0  # atno 7974 bound_to 7965
  155.5529  140.0618  157.2846 H   0  0  0  0  0  0  0  0  0  0  0  0  # atno 8008 bound_to 7997
  154.4415  140.1899  156.0749 H   0  0  0  0  0  0  0  0  0  0  0  0  # atno 8009 bound_to 7997
  156.0503  140.3285  155.7347 H   0  0  0  0  0  0  0  0  0  0  0  0  # atno 8010 bound_to 7997
  139.5549  144.2014  152.1142 H   0  0  0  0  0  0  0  0  0  0  0  0  # atno 10167 bound_to 10162
  157.6571  131.0900  150.6356 H   0  0  0  0  0  0  0  0  0  0  0  0  # atno 10718 bound_to 10713
  154.8130  135.4641  154.0568 H   0  0  0  0  0  0  0  0  0  0  0  0  # atno 10763 bound_to 10752
  153.1983  135.6865  153.8270 H   0  0  0  0  0  0  0  0  0  0  0  0  # atno 10764 bound_to 10752
  153.7764  135.3263  155.3336 H   0  0  0  0  0  0  0  0  0  0  0  0  # atno 10765 bound_to 10752
  140.8767  134.1983  157.4617 H   0  0  0  0  0  0  0  0  0  0  0  0  # atno 11005 bound_to 11000
  146.0459  140.8118  142.9805 LP  0  0  0  0  0  0  0  0  0  0  0  0  # atno 17320 bound_to 7965
  144.6873  140.2980  143.7267 LP  0  0  0  0  0  0  0  0  0  0  0  0  # atno 17321 bound_to 7965
  140.1516  144.5109  150.6684 LP  0  0  0  0  0  0  0  0  0  0  0  0  # atno 17342 bound_to 10162
  140.6820  143.2331  151.5359 LP  0  0  0  0  0  0  0  0  0  0  0  0  # atno 17343 bound_to 10162
  156.6662  130.4526  149.5672 LP  0  0  0  0  0  0  0  0  0  0  0  0  # atno 17370 bound_to 10713
  156.2031  130.6632  151.1189 LP  0  0  0  0  0  0  0  0  0  0  0  0  # atno 17371 bound_to 10713
  139.8716  134.9799  156.5054 LP  0  0  0  0  0  0  0  0  0  0  0  0  # atno 17394 bound_to 11000
  140.8510  133.8132  155.9168 LP  0  0  0  0  0  0  0  0  0  0  0  0  # atno 17395 bound_to 11000

$$$$
