AV-unprocessed.smi:3116|AV-procd|sdf|11877|dock10
  -GOLD-   2272017263D 1   1.00000     0.00000
 Structure written by MMmdl.
 33 33  0  0  0  0  0  0  0  0  1 V2000
  151.6062  138.9993  157.9914 C   0  0  0  0  0  0  0  0  0  0  0  0
  150.9175  140.3322  157.6558 C   0  0  1  0  0  0  0  0  0  0  0  0
  151.7853  141.4514  158.0739 N   0  0  0  0  0  0  0  0  0  0  0  0
  151.2738  142.8124  157.8882 C   0  0  1  0  0  0  0  0  0  0  0  0
  149.7955  142.8643  158.3320 C   0  0  0  0  0  0  0  0  0  0  0  0
  152.1920  143.7734  158.6926 C   0  0  1  0  0  0  0  0  0  0  0  0
  151.5839  145.1829  158.8367 C   0  0  0  0  0  0  0  0  0  0  0  0
  152.5381  143.2413  160.0057 N   0  0  0  0  0  0  0  0  0  0  0  0
  152.3209  143.8154  161.2414 C   0  0  0  0  0  0  0  0  0  0  0  0
  152.8174  142.9609  162.1834 C   0  0  0  0  0  0  0  0  0  0  0  0
  153.3258  141.8743  161.4189 C   0  0  0  0  0  0  0  0  0  0  0  0
  153.1596  142.0447  160.1175 N   0  0  0  0  0  0  0  0  0  0  0  0
  150.5304  140.3739  156.1683 C   0  0  0  0  0  0  0  0  0  0  0  0
  149.2469  140.6028  155.8795 N   0  0  0  0  0  0  0  0  0  0  0  0
  151.3807  140.2225  155.2931 O   0  0  0  0  0  0  0  0  0  0  0  0
  150.9866  138.1488  157.7044 H   0  0  0  0  0  0  0  0  0  0  0  0
  151.7948  138.9164  159.0622 H   0  0  0  0  0  0  0  0  0  0  0  0
  152.5646  138.9008  157.4796 H   0  0  0  0  0  0  0  0  0  0  0  0
  150.0019  140.3678  158.2471 H   0  0  0  0  0  0  0  0  0  0  0  0
  152.1171  141.3364  159.0205 H   0  0  0  0  0  0  0  0  0  0  0  0
  151.3287  143.1104  156.8413 H   0  0  0  0  0  0  0  0  0  0  0  0
  149.3685  143.8577  158.1963 H   0  0  0  0  0  0  0  0  0  0  0  0
  149.6875  142.5993  159.3842 H   0  0  0  0  0  0  0  0  0  0  0  0
  149.1720  142.1857  157.7510 H   0  0  0  0  0  0  0  0  0  0  0  0
  153.1328  143.8770  158.1489 H   0  0  0  0  0  0  0  0  0  0  0  0
  151.4326  145.6542  157.8655 H   0  0  0  0  0  0  0  0  0  0  0  0
  152.2399  145.8346  159.4143 H   0  0  0  0  0  0  0  0  0  0  0  0
  150.6174  145.1526  159.3408 H   0  0  0  0  0  0  0  0  0  0  0  0
  151.8376  144.7755  161.3466 H   0  0  0  0  0  0  0  0  0  0  0  0
  152.8171  143.0922  163.2552 H   0  0  0  0  0  0  0  0  0  0  0  0
  153.8080  140.9735  161.7684 H   0  0  0  0  0  0  0  0  0  0  0  0
  148.9448  140.6356  154.9169 H   0  0  0  0  0  0  0  0  0  0  0  0
  148.5825  140.7388  156.6274 H   0  0  0  0  0  0  0  0  0  0  0  0
  1  2  1  0  0  0  0
  1 16  1  0  0  0  0
  1 17  1  0  0  0  0
  1 18  1  0  0  0  0
  2  3  1  0  0  0  0
  2 13  1  0  0  0  0
  2 19  1  0  0  0  0
  3  4  1  0  0  0  0
  3 20  1  0  0  0  0
  4  5  1  0  0  0  0
  4  6  1  0  0  0  0
  4 21  1  0  0  0  0
  5 22  1  0  0  0  0
  5 23  1  0  0  0  0
  5 24  1  0  0  0  0
  6  7  1  0  0  0  0
  6  8  1  0  0  0  0
  6 25  1  0  0  0  0
  7 26  1  0  0  0  0
  7 27  1  0  0  0  0
  7 28  1  0  0  0  0
  8 12  1  0  0  0  0
  8  9  1  0  0  0  0
  9 10  2  0  0  0  0
  9 29  1  0  0  0  0
 10 11  1  0  0  0  0
 10 30  1  0  0  0  0
 11 12  2  0  0  0  0
 11 31  1  0  0  0  0
 13 14  1  0  0  0  0
 13 15  2  0  0  0  0
 14 32  1  0  0  0  0
 14 33  1  0  0  0  0
M  END
> <s_m_source_file>
AV-unprocessed.smi

> <i_m_source_file_index>
3116

> <i_lp_mmshare_version>
43012

> <i_f3d_flags>
0

> <s_epik_input>
W05IMl1DKD1PKVtDQEhdKFtDSDNdKVtOSF1bQ0BIXShbQ0gzXSlbQ0BIXShbQ0gzXSluMVtjSF1bY0hdW2NIXW4x

> <s_epik_cmdline>
J2VwaWtfcHl0aG9uJywgJy1waCcsICc3LjAnLCAnLXRuJywgJzgnLCAnLW1hJywgJzIwMCcsICctbWV0YWxfYmluZGluZycsICctaW1hZScsICc8aW5maWxlLm1hZT4nLCAnLW9tYWUnLCAnPG91dGZpbGUubWFlPic=

> <r_lp_tautomer_probability>
1

> <r_epik_Ionization_Penalty>
0.865977

> <r_epik_Ionization_Penalty_Charging>
0

> <r_epik_Ionization_Penalty_Neutral>
0.865977

> <r_epik_State_Penalty>
0.901888

> <r_epik_Charging_Adjusted_Penalty>
0.901888

> <i_epik_Tot_Q>
0

> <i_epik_Tot_abs_Q>
0

> <r_epik_Metal_State_Penalty>
0.901181

> <b_epik_Metal_Only>
0

> <s_lp_Force_Field>
OPLS_2005

> <r_lp_Energy>
8.45698

> <b_lp_Chiralities_Consistent>
1

> <s_lp_Variant>
AV-unprocessed.smi:3116-16

> <Gold.Version>
5.8.1

> <Gold.Id.Protein>
6NUR|6NUR_protein|mol2

> <Gold.PLP.Fitness>
39.0132

> <Gold.PLP.PLP>
-37.1993

> <Gold.PLP.part.hbond>
-1.0000

> <Gold.PLP.part.metal>
0.0000

> <Gold.PLP.part.buried>
-6.1000

> <Gold.PLP.part.nonpolar>
-30.5308

> <Gold.PLP.part.repulsive>
0.0919

> <Gold.PLP.ligand.clash>
0.0000

> <Gold.PLP.ligand.torsion>
0.4287

> <Gold.PLP.Chemscore.Hbond>
0.8640

> <Gold.PLP.Chemscore.CHOScore>
0.0000

> <Gold.PLP.Chemscore.Metal>
0.0000

> <Gold.Chemscore.Hbonds>
donor molecule, donor type, donor heavy atom, donor atom, acceptor molecule, acceptor atom, score
      P1  H  7989  7998       L1    15  1.00

> <Gold.PLP.Chemscore.Internal.Correction>
0.0794

> <Gold.Rescore>
     Score         DG    S(hbond)    S(metal)    S(lipo)     H(rot)  DE(clash)    DE(int)     intcor
     11.15     -12.84       0.99        0.00      86.91       2.38       0.01       1.68       ----

> <Gold.Chemscore.Fitness>
11.1477

> <Gold.Chemscore.DG>
-12.8367

> <Gold.Chemscore.ZeroCoef>
-5.4800

> <Gold.Chemscore.Hbond>
0.9850

> <Gold.Chemscore.Metal>
0.0000

> <Gold.Chemscore.Lipo>
86.9112

> <Gold.Chemscore.Internal_Hbond>
0.0000

> <Gold.Chemscore.DEClash>
0.0106

> <Gold.Chemscore.DEInternal>
1.6784

> <Gold.Chemscore.Rot>
2.3836

> <Gold.Chemscore.Internal.Correction>
   9.000000E+99

> <Gold.Chemscore.Hbonds>
donor molecule, donor type, donor heavy atom, donor atom, acceptor molecule, acceptor atom, score
      P1  H  7989  7998       L1    15  0.95

> <Gold.Chemscore.Hbond.Weighted>
-3.2901

> <Gold.Chemscore.Metal.Weighted>
-0.0000

> <Gold.Chemscore.Lipo.Weighted>
-10.1686

> <Gold.Chemscore.Internal_Hbond.Weighted>
0.0000

> <Gold.Chemscore.DEClash.Weighted>
0.0106

> <Gold.Chemscore.DEInternal.Weighted>
1.6784

> <Gold.Chemscore.Rot.Weighted>
6.1020

> <Gold.Chemscore.Internal.Correction.Weighted>
   9.000000E+99

> <Gold.Protein.RotatedTorsions>
[ 6907 6896 6895 6894 ] final   80.87 input  -60.11 | X-H torsion
[ 7974 7965 7964 7962 ] final   76.46 input  175.53 | X-H torsion
[ 8008 7997 7996 7995 ] final  -95.68 input   59.86 | X-H torsion
[ 10167 10162 10161 10158 ] final   69.54 input  -65.29 | X-H torsion
[ 10718 10713 10712 10709 ] final  -15.58 input   66.30 | X-H torsion
[ 10763 10752 10751 10750 ] final   17.75 input  -60.55 | X-H torsion
[ 11005 11000 10999 10996 ] final  -25.01 input  -57.11 | X-H torsion

> <Gold.Protein.ActiveResidues>
 VAL166  LYS551  ARG553  GLY616  TRP617  ASP618  TYR619  PRO620  LYS621  CYS622 
 ASP623  PHE694  ASN695  SER759  ASP760  ASP761  ALA762  ILE779  LEU786  VAL792 
 PHE793  MET794  SER795  GLU796  ALA797  LYS798  CYS799  TRP800  GLU811  SER814 

> <Gold.Protein.RotatedAtoms>
  152.5250  134.3290  159.9175 H   0  0  0  0  0  0  0  0  0  0  0  0  # atno 6907 bound_to 6896
  151.3240  133.4022  159.2664 H   0  0  0  0  0  0  0  0  0  0  0  0  # atno 6908 bound_to 6896
  150.9936  134.9282  159.7971 H   0  0  0  0  0  0  0  0  0  0  0  0  # atno 6909 bound_to 6896
  145.7026  139.2587  143.1697 H   0  0  0  0  0  0  0  0  0  0  0  0  # atno 7974 bound_to 7965
  154.7645  140.0478  157.1001 H   0  0  0  0  0  0  0  0  0  0  0  0  # atno 8008 bound_to 7997
  154.9897  140.3111  155.4892 H   0  0  0  0  0  0  0  0  0  0  0  0  # atno 8009 bound_to 7997
  156.2910  140.2221  156.5001 H   0  0  0  0  0  0  0  0  0  0  0  0  # atno 8010 bound_to 7997
  140.0667  144.5187  150.7256 H   0  0  0  0  0  0  0  0  0  0  0  0  # atno 10167 bound_to 10162
  156.5997  130.4821  149.6245 H   0  0  0  0  0  0  0  0  0  0  0  0  # atno 10718 bound_to 10713
  153.1311  135.6740  153.9178 H   0  0  0  0  0  0  0  0  0  0  0  0  # atno 10763 bound_to 10752
  153.8664  135.3075  155.3441 H   0  0  0  0  0  0  0  0  0  0  0  0  # atno 10764 bound_to 10752
  154.7708  135.4940  153.9726 H   0  0  0  0  0  0  0  0  0  0  0  0  # atno 10765 bound_to 10752
  140.8898  133.7596  156.0407 H   0  0  0  0  0  0  0  0  0  0  0  0  # atno 11005 bound_to 11000
  146.0784  140.7791  142.9653 LP  0  0  0  0  0  0  0  0  0  0  0  0  # atno 17320 bound_to 7965
  144.6964  140.3451  143.7192 LP  0  0  0  0  0  0  0  0  0  0  0  0  # atno 17321 bound_to 7965
  140.7145  143.2533  151.4476 LP  0  0  0  0  0  0  0  0  0  0  0  0  # atno 17342 bound_to 10162
  139.5860  144.1602  152.2030 LP  0  0  0  0  0  0  0  0  0  0  0  0  # atno 17343 bound_to 10162
  156.2479  130.6890  151.1618 LP  0  0  0  0  0  0  0  0  0  0  0  0  # atno 17370 bound_to 10713
  157.7282  131.0633  150.5828 LP  0  0  0  0  0  0  0  0  0  0  0  0  # atno 17371 bound_to 10713
  140.8360  134.3122  157.5331 LP  0  0  0  0  0  0  0  0  0  0  0  0  # atno 17394 bound_to 11000
  139.8728  134.9390  156.3729 LP  0  0  0  0  0  0  0  0  0  0  0  0  # atno 17395 bound_to 11000

$$$$
