AV-unprocessed.smi:3287|AV-procd|sdf|12595|dock2
  -GOLD-   2272018513D 1   1.00000     0.00000
 Structure written by MMmdl.
 43 44  0  0  0  0  0  0  0  0  2 V2000
  152.1401  143.0940  161.3466 C   0  0  0  0  0  0  0  0  0  0  0  0
  152.8743  143.5056  160.0544 C   0  0  1  0  0  0  0  0  0  0  0  0
  153.1375  142.2933  159.1375 C   0  0  0  0  0  0  0  0  0  0  0  0
  151.8570  141.7937  158.4469 C   0  0  0  0  0  0  0  0  0  0  0  0
  151.1679  142.9170  157.6520 C   0  0  1  0  0  0  0  0  0  0  0  0
  149.9322  142.4002  157.0225 N   0  3  0  0  0  0  0  0  0  0  0  0
  150.1064  141.1983  156.1777 C   0  0  0  0  0  0  0  0  0  0  0  0
  149.4971  141.3975  154.7792 C   0  0  1  0  0  0  0  0  0  0  0  0
  149.9073  140.3303  153.9461 O   0  0  0  0  0  0  0  0  0  0  0  0
  147.9819  141.5059  154.8541 C   0  0  0  0  0  0  0  0  0  0  0  0
  147.2151  140.5612  155.5707 C   0  0  0  0  0  0  0  0  0  0  0  0
  145.8155  140.7204  155.6111 C   0  0  0  0  0  0  0  0  0  0  0  0
  145.1672  141.7349  155.0006 N   0  0  0  0  0  0  0  0  0  0  0  0
  145.9050  142.6367  154.3190 C   0  0  0  0  0  0  0  0  0  0  0  0
  147.3090  142.5691  154.2163 C   0  0  0  0  0  0  0  0  0  0  0  0
  150.8856  144.1290  158.5657 C   0  0  0  0  0  0  0  0  0  0  0  0
  152.1702  144.6322  159.2558 C   0  0  1  0  0  0  0  0  0  0  0  0
  151.9127  145.8995  160.0876 C   0  0  0  0  0  0  0  0  0  0  0  0
  151.1213  142.7596  161.1542 H   0  0  0  0  0  0  0  0  0  0  0  0
  152.0893  143.9188  162.0568 H   0  0  0  0  0  0  0  0  0  0  0  0
  152.6633  142.2790  161.8473 H   0  0  0  0  0  0  0  0  0  0  0  0
  153.8489  143.8849  160.3651 H   0  0  0  0  0  0  0  0  0  0  0  0
  153.8650  142.5731  158.3746 H   0  0  0  0  0  0  0  0  0  0  0  0
  153.5959  141.4825  159.7047 H   0  0  0  0  0  0  0  0  0  0  0  0
  152.1055  140.9664  157.7810 H   0  0  0  0  0  0  0  0  0  0  0  0
  151.1712  141.3884  159.1919 H   0  0  0  0  0  0  0  0  0  0  0  0
  151.8464  143.2260  156.8552 H   0  0  0  0  0  0  0  0  0  0  0  0
  149.2915  142.1561  157.7641 H   0  0  0  0  0  0  0  0  0  0  0  0
  151.1645  140.9501  156.0918 H   0  0  0  0  0  0  0  0  0  0  0  0
  149.6184  140.3545  156.6677 H   0  0  0  0  0  0  0  0  0  0  0  0
  149.8869  142.3187  154.3435 H   0  0  0  0  0  0  0  0  0  0  0  0
  149.4706  140.4171  153.1117 H   0  0  0  0  0  0  0  0  0  0  0  0
  147.6833  139.7320  156.0808 H   0  0  0  0  0  0  0  0  0  0  0  0
  145.2009  140.0152  156.1509 H   0  0  0  0  0  0  0  0  0  0  0  0
  145.3603  143.4385  153.8427 H   0  0  0  0  0  0  0  0  0  0  0  0
  147.8508  143.3197  153.6598 H   0  0  0  0  0  0  0  0  0  0  0  0
  150.4601  144.9461  157.9835 H   0  0  0  0  0  0  0  0  0  0  0  0
  150.1361  143.8667  159.3135 H   0  0  0  0  0  0  0  0  0  0  0  0
  152.8584  144.9279  158.4620 H   0  0  0  0  0  0  0  0  0  0  0  0
  151.1643  145.7310  160.8619 H   0  0  0  0  0  0  0  0  0  0  0  0
  151.5506  146.7119  159.4568 H   0  0  0  0  0  0  0  0  0  0  0  0
  152.8265  146.2447  160.5721 H   0  0  0  0  0  0  0  0  0  0  0  0
  149.5118  143.1325  156.4679 H   0  0  0  0  0  0  0  0  0  0  0  0
  1  2  1  0  0  0  0
  1 19  1  0  0  0  0
  1 20  1  0  0  0  0
  1 21  1  0  0  0  0
  2 17  1  0  0  0  0
  2  3  1  0  0  0  0
  2 22  1  0  0  0  0
  3  4  1  0  0  0  0
  3 23  1  0  0  0  0
  3 24  1  0  0  0  0
  4  5  1  0  0  0  0
  4 25  1  0  0  0  0
  4 26  1  0  0  0  0
  5  6  1  0  0  0  0
  5 16  1  0  0  0  0
  5 27  1  0  0  0  0
  6  7  1  0  0  0  0
  6 28  1  0  0  0  0
  6 43  1  0  0  0  0
  7  8  1  0  0  0  0
  7 29  1  0  0  0  0
  7 30  1  0  0  0  0
  8  9  1  0  0  0  0
  8 10  1  0  0  0  0
  8 31  1  0  0  0  0
  9 32  1  0  0  0  0
 10 15  1  0  0  0  0
 10 11  2  0  0  0  0
 11 12  1  0  0  0  0
 11 33  1  0  0  0  0
 12 13  2  0  0  0  0
 12 34  1  0  0  0  0
 13 14  1  0  0  0  0
 14 15  2  0  0  0  0
 14 35  1  0  0  0  0
 15 36  1  0  0  0  0
 16 17  1  0  0  0  0
 16 37  1  0  0  0  0
 16 38  1  0  0  0  0
 17 18  1  0  0  0  0
 17 39  1  0  0  0  0
 18 40  1  0  0  0  0
 18 41  1  0  0  0  0
 18 42  1  0  0  0  0
M  CHG  1   6   1
M  END
> <s_m_source_file>
AV-unprocessed.smi

> <i_m_source_file_index>
3287

> <i_lp_mmshare_version>
43012

> <i_f3d_flags>
0

> <s_epik_input>
W0NIM11bQ0BASF0xW0NIMl1bQ0gyXVtDQEhdKFtDSDJdW0NASF0xW0NIM10pW05IXVtDSDJdW0NASF0oW09IXSljMltjSF1bY0hdbltjSF1bY0hdMg==

> <s_epik_cmdline>
J2VwaWtfcHl0aG9uJywgJy1waCcsICc3LjAnLCAnLXRuJywgJzgnLCAnLW1hJywgJzIwMCcsICctbWV0YWxfYmluZGluZycsICctaW1hZScsICc8aW5maWxlLm1hZT4nLCAnLW9tYWUnLCAnPG91dGZpbGUubWFlPic=

> <r_lp_tautomer_probability>
1

> <r_epik_Ionization_Penalty>
0.00537262

> <r_epik_Ionization_Penalty_Charging>
0.00321624

> <r_epik_Ionization_Penalty_Neutral>
0.00215638

> <r_epik_State_Penalty>
-0

> <r_epik_Charging_Adjusted_Penalty>
0.00321624

> <i_epik_Tot_Q>
1

> <i_epik_Tot_abs_Q>
1

> <r_epik_Metal_State_Penalty>
-0

> <b_epik_Metal_Only>
0

> <s_lp_Force_Field>
OPLS_2005

> <r_lp_Energy>
17.7653

> <b_lp_Chiralities_Consistent>
1

> <s_lp_Variant>
AV-unprocessed.smi:3287-6

> <Gold.Version>
5.8.1

> <Gold.Id.Protein>
6NUR|6NUR_protein|mol2

> <Gold.PLP.Fitness>
53.8754

> <Gold.PLP.PLP>
-44.1754

> <Gold.PLP.part.hbond>
-3.0000

> <Gold.PLP.part.metal>
0.0000

> <Gold.PLP.part.buried>
-3.6317

> <Gold.PLP.part.nonpolar>
-38.0060

> <Gold.PLP.part.repulsive>
0.1825

> <Gold.PLP.ligand.clash>
0.0000

> <Gold.PLP.ligand.torsion>
0.6357

> <Gold.PLP.Chemscore.Hbond>
3.6480

> <Gold.PLP.Chemscore.CHOScore>
0.0000

> <Gold.PLP.Chemscore.Metal>
0.0000

> <Gold.Chemscore.Hbonds>
donor molecule, donor type, donor heavy atom, donor atom, acceptor molecule, acceptor atom, score
      L1  H     6    43       P1  8028  2.00
      L1  H     9    32       P1  7957  0.90
      P1  H  7989  7998       L1     9  0.75

> <Gold.PLP.Chemscore.Internal.Correction>
0.0275

> <Gold.Rescore>
     Score         DG    S(hbond)    S(metal)    S(lipo)     H(rot)  DE(clash)    DE(int)     intcor
     21.67     -22.35       2.29        0.00     120.47       1.90       0.16       0.52       ----

> <Gold.Chemscore.Fitness>
21.6714

> <Gold.Chemscore.DG>
-22.3534

> <Gold.Chemscore.ZeroCoef>
-5.4800

> <Gold.Chemscore.Hbond>
2.2909

> <Gold.Chemscore.Metal>
0.0000

> <Gold.Chemscore.Lipo>
120.4689

> <Gold.Chemscore.Internal_Hbond>
0.0000

> <Gold.Chemscore.DEClash>
0.1649

> <Gold.Chemscore.DEInternal>
0.5172

> <Gold.Chemscore.Rot>
1.9035

> <Gold.Chemscore.Internal.Correction>
   9.000000E+99

> <Gold.Chemscore.Hbonds>
donor molecule, donor type, donor heavy atom, donor atom, acceptor molecule, acceptor atom, score
      L1  H     6    43       P1  8028  1.00
      L1  H     9    32       P1  7957  0.84
      P1  H  7989  7998       L1     9  0.06

> <Gold.Chemscore.Hbond.Weighted>
-7.6515

> <Gold.Chemscore.Metal.Weighted>
-0.0000

> <Gold.Chemscore.Lipo.Weighted>
-14.0949

> <Gold.Chemscore.Internal_Hbond.Weighted>
0.0000

> <Gold.Chemscore.DEClash.Weighted>
0.1649

> <Gold.Chemscore.DEInternal.Weighted>
0.5172

> <Gold.Chemscore.Rot.Weighted>
4.8729

> <Gold.Chemscore.Internal.Correction.Weighted>
   9.000000E+99

> <Gold.Protein.RotatedTorsions>
[ 6907 6896 6895 6894 ] final   37.96 input  -60.11 | X-H torsion
[ 7974 7965 7964 7962 ] final -171.88 input  175.53 | X-H torsion
[ 8008 7997 7996 7995 ] final -101.96 input   59.86 | X-H torsion
[ 10167 10162 10161 10158 ] final  123.04 input  -65.29 | X-H torsion
[ 10718 10713 10712 10709 ] final -162.92 input   66.30 | X-H torsion
[ 10763 10752 10751 10750 ] final -114.59 input  -60.55 | X-H torsion
[ 11005 11000 10999 10996 ] final  163.91 input  -57.11 | X-H torsion

> <Gold.Protein.ActiveResidues>
 VAL166  LYS551  ARG553  GLY616  TRP617  ASP618  TYR619  PRO620  LYS621  CYS622 
 ASP623  PHE694  ASN695  SER759  ASP760  ASP761  ALA762  ILE779  LEU786  VAL792 
 PHE793  MET794  SER795  GLU796  ALA797  LYS798  CYS799  TRP800  GLU811  SER814 

> <Gold.Protein.RotatedAtoms>
  152.1501  134.8995  160.0548 H   0  0  0  0  0  0  0  0  0  0  0  0  # atno 6907 bound_to 6896
  152.0030  133.3827  159.4197 H   0  0  0  0  0  0  0  0  0  0  0  0  # atno 6908 bound_to 6896
  150.6874  134.3735  159.5046 H   0  0  0  0  0  0  0  0  0  0  0  0  # atno 6909 bound_to 6896
  144.7152  140.1856  143.6354 H   0  0  0  0  0  0  0  0  0  0  0  0  # atno 7974 bound_to 7965
  154.8499  140.0431  157.1597 H   0  0  0  0  0  0  0  0  0  0  0  0  # atno 8008 bound_to 7997
  154.8955  140.2992  155.5326 H   0  0  0  0  0  0  0  0  0  0  0  0  # atno 8009 bound_to 7997
  156.2995  140.2385  156.3976 H   0  0  0  0  0  0  0  0  0  0  0  0  # atno 8010 bound_to 7997
  139.5823  144.6991  151.3497 H   0  0  0  0  0  0  0  0  0  0  0  0  # atno 10167 bound_to 10162
  156.6174  130.8876  151.2950 H   0  0  0  0  0  0  0  0  0  0  0  0  # atno 10718 bound_to 10713
  154.8446  135.4412  154.1530 H   0  0  0  0  0  0  0  0  0  0  0  0  # atno 10763 bound_to 10752
  153.2686  135.6943  153.7510 H   0  0  0  0  0  0  0  0  0  0  0  0  # atno 10764 bound_to 10752
  153.6759  135.3411  155.3141 H   0  0  0  0  0  0  0  0  0  0  0  0  # atno 10765 bound_to 10752
  140.2405  134.8054  157.3406 H   0  0  0  0  0  0  0  0  0  0  0  0  # atno 11005 bound_to 11000
  145.8816  139.2326  143.1602 LP  0  0  0  0  0  0  0  0  0  0  0  0  # atno 17320 bound_to 7965
  145.9990  140.8537  143.0028 LP  0  0  0  0  0  0  0  0  0  0  0  0  # atno 17321 bound_to 7965
  140.7100  143.7416  150.7549 LP  0  0  0  0  0  0  0  0  0  0  0  0  # atno 17342 bound_to 10162
  140.0952  143.4840  152.2456 LP  0  0  0  0  0  0  0  0  0  0  0  0  # atno 17343 bound_to 10162
  157.7237  130.9593  150.1545 LP  0  0  0  0  0  0  0  0  0  0  0  0  # atno 17370 bound_to 10713
  156.2340  130.3684  149.8412 LP  0  0  0  0  0  0  0  0  0  0  0  0  # atno 17371 bound_to 10713
  140.1658  134.4671  155.7864 LP  0  0  0  0  0  0  0  0  0  0  0  0  # atno 17394 bound_to 11000
  141.2211  133.6920  156.7622 LP  0  0  0  0  0  0  0  0  0  0  0  0  # atno 17395 bound_to 11000

$$$$
