AV-unprocessed.smi:232|AV-procd|sdf|1772|dock5
  -GOLD-   2262020313D 1   1.00000     0.00000
 Structure written by MMmdl.
 52 55  0  0  0  0  0  0  0  0  1 V2000
  153.7210  142.0527  160.2966 C   0  0  0  0  0  0  0  0  0  0  0  0
  152.2421  142.3984  160.5107 C   0  0  0  0  0  0  0  0  0  0  0  0
  151.3744  142.1568  159.2570 C   0  0  1  0  0  0  0  0  0  0  0  0
  151.3990  143.3195  158.2522 C   0  0  0  0  0  0  0  0  0  0  0  0
  151.2843  142.6564  156.8744 C   0  0  0  0  0  0  0  0  0  0  0  0
  151.1562  141.1603  157.1776 C   0  0  1  0  0  0  0  0  0  0  0  0
  151.7654  140.2593  156.0913 C   0  0  0  0  0  0  0  0  0  0  0  0
  151.7904  140.9940  158.4804 N   0  0  0  0  0  0  0  0  0  0  0  0
  151.6024  139.8020  159.0951 C   0  0  0  0  0  0  0  0  0  0  0  0
  152.5283  139.3184  159.9656 N   0  0  0  0  0  0  0  0  0  0  0  0
  152.3366  138.1332  160.5535 C   0  0  0  0  0  0  0  0  0  0  0  0
  151.3145  137.2855  160.4120 N   0  0  0  0  0  0  0  0  0  0  0  0
  150.3872  137.7702  159.5364 C   0  0  0  0  0  0  0  0  0  0  0  0
  150.4529  139.0096  158.8416 C   0  0  0  0  0  0  0  0  0  0  0  0
  149.3325  139.1672  158.0360 N   0  0  0  0  0  0  0  0  0  0  0  0
  148.6429  138.0777  158.2394 C   0  0  0  0  0  0  0  0  0  0  0  0
  149.2039  137.1838  159.1233 N   0  0  0  0  0  0  0  0  0  0  0  0
  148.6561  135.8983  159.5181 C   0  0  0  0  0  0  0  0  0  0  0  0
  147.8741  135.9788  160.8444 C   0  0  1  0  0  0  0  0  0  0  0  0
  147.0606  137.1368  160.8364 O   0  0  0  0  0  0  0  0  0  0  0  0
  146.9848  134.7432  161.0778 C   0  0  2  0  0  0  0  0  0  0  0  0
  146.2592  134.7347  162.4261 C   0  0  0  0  0  0  0  0  0  0  0  0
  146.0479  133.2563  162.6550 C   0  0  0  0  0  0  0  0  0  0  0  0
  147.3567  132.6787  162.1288 C   0  0  0  0  0  0  0  0  0  0  0  0
  147.7763  133.5551  161.0863 O   0  0  0  0  0  0  0  0  0  0  0  0
  154.3020  142.2687  161.1932 H   0  0  0  0  0  0  0  0  0  0  0  0
  154.1460  142.6337  159.4778 H   0  0  0  0  0  0  0  0  0  0  0  0
  153.8556  140.9961  160.0645 H   0  0  0  0  0  0  0  0  0  0  0  0
  151.8489  141.8223  161.3493 H   0  0  0  0  0  0  0  0  0  0  0  0
  152.1813  143.4459  160.8073 H   0  0  0  0  0  0  0  0  0  0  0  0
  150.3411  141.9969  159.5717 H   0  0  0  0  0  0  0  0  0  0  0  0
  150.5885  144.0243  158.4402 H   0  0  0  0  0  0  0  0  0  0  0  0
  152.3379  143.8717  158.3121 H   0  0  0  0  0  0  0  0  0  0  0  0
  150.4329  143.0266  156.3027 H   0  0  0  0  0  0  0  0  0  0  0  0
  152.1864  142.8606  156.2959 H   0  0  0  0  0  0  0  0  0  0  0  0
  150.0935  140.9296  157.2688 H   0  0  0  0  0  0  0  0  0  0  0  0
  151.3009  140.4494  155.1234 H   0  0  0  0  0  0  0  0  0  0  0  0
  151.6199  139.2037  156.3232 H   0  0  0  0  0  0  0  0  0  0  0  0
  152.8370  140.4330  155.9875 H   0  0  0  0  0  0  0  0  0  0  0  0
  153.1140  137.8189  161.2340 H   0  0  0  0  0  0  0  0  0  0  0  0
  147.7013  137.8915  157.7432 H   0  0  0  0  0  0  0  0  0  0  0  0
  148.0176  135.5259  158.7159 H   0  0  0  0  0  0  0  0  0  0  0  0
  149.4833  135.1933  159.6087 H   0  0  0  0  0  0  0  0  0  0  0  0
  148.5794  136.0719  161.6714 H   0  0  0  0  0  0  0  0  0  0  0  0
  146.3069  136.9778  161.3840 H   0  0  0  0  0  0  0  0  0  0  0  0
  146.2509  134.6456  160.2757 H   0  0  0  0  0  0  0  0  0  0  0  0
  146.8970  135.1439  163.2111 H   0  0  0  0  0  0  0  0  0  0  0  0
  145.3283  135.3025  162.4124 H   0  0  0  0  0  0  0  0  0  0  0  0
  145.8576  133.0042  163.6984 H   0  0  0  0  0  0  0  0  0  0  0  0
  145.2089  132.8999  162.0554 H   0  0  0  0  0  0  0  0  0  0  0  0
  148.1165  132.6846  162.9114 H   0  0  0  0  0  0  0  0  0  0  0  0
  147.2468  131.6547  161.7711 H   0  0  0  0  0  0  0  0  0  0  0  0
  1  2  1  0  0  0  0
  1 26  1  0  0  0  0
  1 27  1  0  0  0  0
  1 28  1  0  0  0  0
  2  3  1  0  0  0  0
  2 29  1  0  0  0  0
  2 30  1  0  0  0  0
  3  8  1  0  0  0  0
  3  4  1  0  0  0  0
  3 31  1  0  0  0  0
  4  5  1  0  0  0  0
  4 32  1  0  0  0  0
  4 33  1  0  0  0  0
  5  6  1  0  0  0  0
  5 34  1  0  0  0  0
  5 35  1  0  0  0  0
  6  7  1  0  0  0  0
  6  8  1  0  0  0  0
  6 36  1  0  0  0  0
  7 37  1  0  0  0  0
  7 38  1  0  0  0  0
  7 39  1  0  0  0  0
  8  9  1  0  0  0  0
  9 14  1  0  0  0  0
  9 10  2  0  0  0  0
 10 11  1  0  0  0  0
 11 12  2  0  0  0  0
 11 40  1  0  0  0  0
 12 13  1  0  0  0  0
 13 17  1  0  0  0  0
 13 14  2  0  0  0  0
 14 15  1  0  0  0  0
 15 16  2  0  0  0  0
 16 17  1  0  0  0  0
 16 41  1  0  0  0  0
 17 18  1  0  0  0  0
 18 19  1  0  0  0  0
 18 42  1  0  0  0  0
 18 43  1  0  0  0  0
 19 20  1  0  0  0  0
 19 21  1  0  0  0  0
 19 44  1  0  0  0  0
 20 45  1  0  0  0  0
 21 25  1  0  0  0  0
 21 22  1  0  0  0  0
 21 46  1  0  0  0  0
 22 23  1  0  0  0  0
 22 47  1  0  0  0  0
 22 48  1  0  0  0  0
 23 24  1  0  0  0  0
 23 49  1  0  0  0  0
 23 50  1  0  0  0  0
 24 25  1  0  0  0  0
 24 51  1  0  0  0  0
 24 52  1  0  0  0  0
M  END
> <s_m_source_file>
AV-unprocessed.smi

> <i_m_source_file_index>
232

> <i_lp_mmshare_version>
43012

> <i_f3d_flags>
0

> <s_epik_input>
W0NIM11bQ0gyXVtDQEBIXTFbQ0gyXVtDSDJdW0NAQEhdKFtDSDNdKU4xYyhuW2NIXW4yKWMoYzIzKW5bY0hdbjNbQ0gyXVtDQEhdKFtPSF0pW0NAQEhdNFtDSDJdW0NIMl1bQ0gyXU80

> <s_epik_cmdline>
J2VwaWtfcHl0aG9uJywgJy1waCcsICc3LjAnLCAnLXRuJywgJzgnLCAnLW1hJywgJzIwMCcsICctbWV0YWxfYmluZGluZycsICctaW1hZScsICc8aW5maWxlLm1hZT4nLCAnLW9tYWUnLCAnPG91dGZpbGUubWFlPic=

> <r_lp_tautomer_probability>
1

> <r_epik_Ionization_Penalty>
0.00258048

> <r_epik_Ionization_Penalty_Charging>
0

> <r_epik_Ionization_Penalty_Neutral>
0.00258048

> <r_epik_State_Penalty>
0.00168551

> <r_epik_Charging_Adjusted_Penalty>
0.00168551

> <i_epik_Tot_Q>
0

> <i_epik_Tot_abs_Q>
0

> <r_epik_Metal_State_Penalty>
-0

> <b_epik_Metal_Only>
0

> <s_lp_Force_Field>
OPLS_2005

> <r_lp_Energy>
51.197

> <b_lp_Chiralities_Consistent>
1

> <s_lp_Variant>
AV-unprocessed.smi:232-6

> <Gold.Version>
5.8.1

> <Gold.Id.Protein>
6NUR|6NUR_protein|mol2

> <Gold.PLP.Fitness>
50.6319

> <Gold.PLP.PLP>
-44.8659

> <Gold.PLP.part.hbond>
-3.0000

> <Gold.PLP.part.metal>
0.0000

> <Gold.PLP.part.buried>
-5.1559

> <Gold.PLP.part.nonpolar>
-37.1077

> <Gold.PLP.part.repulsive>
0.0000

> <Gold.PLP.ligand.clash>
0.0000

> <Gold.PLP.ligand.torsion>
1.4246

> <Gold.PLP.Chemscore.Hbond>
2.8484

> <Gold.PLP.Chemscore.CHOScore>
0.0000

> <Gold.PLP.Chemscore.Metal>
0.0000

> <Gold.Chemscore.Hbonds>
donor molecule, donor type, donor heavy atom, donor atom, acceptor molecule, acceptor atom, score
      P1  H  6896  6907       L1    12  0.65
      P1  H  6934  6947       L1    20  1.00

> <Gold.PLP.Chemscore.Internal.Correction>
0.0698

> <Gold.Rescore>
     Score         DG    S(hbond)    S(metal)    S(lipo)     H(rot)  DE(clash)    DE(int)     intcor
     16.26     -17.48       1.85        0.00     102.92       2.43       0.31       0.91       ----

> <Gold.Chemscore.Fitness>
16.2577

> <Gold.Chemscore.DG>
-17.4821

> <Gold.Chemscore.ZeroCoef>
-5.4800

> <Gold.Chemscore.Hbond>
1.8475

> <Gold.Chemscore.Metal>
0.0000

> <Gold.Chemscore.Lipo>
102.9236

> <Gold.Chemscore.Internal_Hbond>
0.0000

> <Gold.Chemscore.DEClash>
0.3094

> <Gold.Chemscore.DEInternal>
0.9150

> <Gold.Chemscore.Rot>
2.4260

> <Gold.Chemscore.Internal.Correction>
   9.000000E+99

> <Gold.Chemscore.Hbonds>
donor molecule, donor type, donor heavy atom, donor atom, acceptor molecule, acceptor atom, score
      P1  H  6896  6907       L1    12  0.45
      P1  H  6934  6947       L1    20  0.30

> <Gold.Chemscore.Hbond.Weighted>
-6.1707

> <Gold.Chemscore.Metal.Weighted>
-0.0000

> <Gold.Chemscore.Lipo.Weighted>
-12.0421

> <Gold.Chemscore.Internal_Hbond.Weighted>
0.0000

> <Gold.Chemscore.DEClash.Weighted>
0.3094

> <Gold.Chemscore.DEInternal.Weighted>
0.9150

> <Gold.Chemscore.Rot.Weighted>
6.2107

> <Gold.Chemscore.Internal.Correction.Weighted>
   9.000000E+99

> <Gold.Protein.RotatedTorsions>
[ 6907 6896 6895 6894 ] final    2.22 input  -60.11 | X-H torsion
[ 7974 7965 7964 7962 ] final -171.21 input  175.53 | X-H torsion
[ 8008 7997 7996 7995 ] final -104.67 input   59.86 | X-H torsion
[ 10167 10162 10161 10158 ] final  -66.91 input  -65.29 | X-H torsion
[ 10718 10713 10712 10709 ] final  -47.33 input   66.30 | X-H torsion
[ 10763 10752 10751 10750 ] final   -8.01 input  -60.55 | X-H torsion
[ 11005 11000 10999 10996 ] final  104.38 input  -57.11 | X-H torsion

> <Gold.Protein.ActiveResidues>
 VAL166  LYS551  ARG553  GLY616  TRP617  ASP618  TYR619  PRO620  LYS621  CYS622 
 ASP623  PHE694  ASN695  SER759  ASP760  ASP761  ALA762  ILE779  LEU786  VAL792 
 PHE793  MET794  SER795  GLU796  ALA797  LYS798  CYS799  TRP800  GLU811  SER814 

> <Gold.Protein.RotatedAtoms>
  151.6054  135.1044  160.0069 H   0  0  0  0  0  0  0  0  0  0  0  0  # atno 6907 bound_to 6896
  152.4236  133.7154  159.6513 H   0  0  0  0  0  0  0  0  0  0  0  0  # atno 6908 bound_to 6896
  150.8124  133.8325  159.3198 H   0  0  0  0  0  0  0  0  0  0  0  0  # atno 6909 bound_to 6896
  144.7160  140.1956  143.6344 H   0  0  0  0  0  0  0  0  0  0  0  0  # atno 7974 bound_to 7965
  154.8886  140.0416  157.1825 H   0  0  0  0  0  0  0  0  0  0  0  0  # atno 8008 bound_to 7997
  154.8564  140.2937  155.5545 H   0  0  0  0  0  0  0  0  0  0  0  0  # atno 8009 bound_to 7997
  156.2997  140.2455  156.3531 H   0  0  0  0  0  0  0  0  0  0  0  0  # atno 8010 bound_to 7997
  140.5622  143.2313  151.6705 H   0  0  0  0  0  0  0  0  0  0  0  0  # atno 10167 bound_to 10162
  156.2095  130.4160  149.9133 H   0  0  0  0  0  0  0  0  0  0  0  0  # atno 10718 bound_to 10713
  153.4344  135.7012  153.6209 H   0  0  0  0  0  0  0  0  0  0  0  0  # atno 10763 bound_to 10752
  153.4611  135.3736  155.2339 H   0  0  0  0  0  0  0  0  0  0  0  0  # atno 10764 bound_to 10752
  154.8726  135.4020  154.3733 H   0  0  0  0  0  0  0  0  0  0  0  0  # atno 10765 bound_to 10752
  139.8791  134.9298  156.5353 H   0  0  0  0  0  0  0  0  0  0  0  0  # atno 11005 bound_to 11000
  145.8728  139.2281  143.1651 LP  0  0  0  0  0  0  0  0  0  0  0  0  # atno 17320 bound_to 7965
  146.0069  140.8471  142.9990 LP  0  0  0  0  0  0  0  0  0  0  0  0  # atno 17321 bound_to 7965
  139.5075  144.3642  152.0533 LP  0  0  0  0  0  0  0  0  0  0  0  0  # atno 17342 bound_to 10162
  140.2770  144.3901  150.6132 LP  0  0  0  0  0  0  0  0  0  0  0  0  # atno 17343 bound_to 10162
  156.6816  130.8860  151.3576 LP  0  0  0  0  0  0  0  0  0  0  0  0  # atno 17370 bound_to 10713
  157.7031  130.9354  150.0845 LP  0  0  0  0  0  0  0  0  0  0  0  0  # atno 17371 bound_to 10713
  140.8350  133.8249  155.9020 LP  0  0  0  0  0  0  0  0  0  0  0  0  # atno 17394 bound_to 11000
  140.9292  134.2044  157.4875 LP  0  0  0  0  0  0  0  0  0  0  0  0  # atno 17395 bound_to 11000

$$$$
