AV-unprocessed.smi:2198|AV-procd|sdf|8916|dock6
  -GOLD-   2272012133D 1   1.00000     0.00000
 Structure written by MMmdl.
 43 44  0  0  0  0  0  0  0  0  1 V2000
  145.5569  137.6918  152.9420 C   0  0  0  0  0  0  0  0  0  0  0  0
  146.5913  138.6881  153.4186 C   0  0  0  0  0  0  0  0  0  0  0  0
  146.1321  139.9945  153.4533 N   0  0  0  0  0  0  0  0  0  0  0  0
  147.0106  140.9785  153.8709 C   0  0  0  0  0  0  0  0  0  0  0  0
  146.4302  142.3819  153.8760 C   0  0  0  0  0  0  0  0  0  0  0  0
  148.2802  140.6751  154.2427 C   0  0  0  0  0  0  0  0  0  0  0  0
  149.2801  141.7306  154.7141 C   0  0  0  0  0  0  0  0  0  0  0  0
  149.7936  141.5865  156.1494 C   0  0  0  0  0  0  0  0  0  0  0  0
  149.8407  140.4826  156.6929 O   0  0  0  0  0  0  0  0  0  0  0  0
  150.1695  142.7230  156.7547 N   0  0  0  0  0  0  0  0  0  0  0  0
  150.6645  142.8262  158.1242 C   0  0  1  0  0  0  0  0  0  0  0  0
  151.9141  141.9426  158.2898 C   0  0  0  0  0  0  0  0  0  0  0  0
  152.5078  142.0709  159.7011 C   0  0  0  0  0  0  0  0  0  0  0  0
  152.8212  143.5357  160.0437 C   0  0  0  0  0  0  0  0  0  0  0  0
  151.5756  144.4297  159.8921 C   0  0  1  0  0  0  0  0  0  0  0  0
  151.8897  145.8944  160.2290 C   0  0  0  0  0  0  0  0  0  0  0  0
  150.9832  144.2945  158.4759 C   0  0  0  0  0  0  0  0  0  0  0  0
  148.7098  139.2575  154.1965 C   0  0  0  0  0  0  0  0  0  0  0  0
  149.8418  138.9162  154.5373 O   0  0  0  0  0  0  0  0  0  0  0  0
  147.7835  138.2989  153.7547 N   0  0  0  0  0  0  0  0  0  0  0  0
  145.1952  140.2637  153.1902 H   0  0  0  0  0  0  0  0  0  0  0  0
  146.0082  136.7133  152.7724 H   0  0  0  0  0  0  0  0  0  0  0  0
  145.1068  138.0247  152.0064 H   0  0  0  0  0  0  0  0  0  0  0  0
  144.7683  137.5806  153.6868 H   0  0  0  0  0  0  0  0  0  0  0  0
  146.9746  143.0212  153.1810 H   0  0  0  0  0  0  0  0  0  0  0  0
  146.4976  142.8192  154.8724 H   0  0  0  0  0  0  0  0  0  0  0  0
  145.3804  142.3841  153.5807 H   0  0  0  0  0  0  0  0  0  0  0  0
  148.8116  142.7111  154.6260 H   0  0  0  0  0  0  0  0  0  0  0  0
  150.1375  141.7717  154.0414 H   0  0  0  0  0  0  0  0  0  0  0  0
  150.0993  143.5832  156.2307 H   0  0  0  0  0  0  0  0  0  0  0  0
  149.8964  142.4579  158.8074 H   0  0  0  0  0  0  0  0  0  0  0  0
  151.6641  140.8999  158.0902 H   0  0  0  0  0  0  0  0  0  0  0  0
  152.6689  142.2264  157.5546 H   0  0  0  0  0  0  0  0  0  0  0  0
  151.8059  141.6667  160.4314 H   0  0  0  0  0  0  0  0  0  0  0  0
  153.4139  141.4695  159.7780 H   0  0  0  0  0  0  0  0  0  0  0  0
  153.2040  143.5978  161.0630 H   0  0  0  0  0  0  0  0  0  0  0  0
  153.6177  143.8984  159.3925 H   0  0  0  0  0  0  0  0  0  0  0  0
  150.8247  144.0833  160.6037 H   0  0  0  0  0  0  0  0  0  0  0  0
  152.6385  146.3054  159.5511 H   0  0  0  0  0  0  0  0  0  0  0  0
  152.2714  145.9912  161.2457 H   0  0  0  0  0  0  0  0  0  0  0  0
  150.9960  146.5142  160.1532 H   0  0  0  0  0  0  0  0  0  0  0  0
  151.6855  144.7020  157.7468 H   0  0  0  0  0  0  0  0  0  0  0  0
  150.0780  144.8984  158.4003 H   0  0  0  0  0  0  0  0  0  0  0  0
  1 22  1  0  0  0  0
  1 23  1  0  0  0  0
  1 24  1  0  0  0  0
  1  2  1  0  0  0  0
  2  3  1  0  0  0  0
  2 20  2  0  0  0  0
  3  4  1  0  0  0  0
  3 21  1  0  0  0  0
  4  6  2  0  0  0  0
  4  5  1  0  0  0  0
  5 25  1  0  0  0  0
  5 26  1  0  0  0  0
  5 27  1  0  0  0  0
  6 18  1  0  0  0  0
  6  7  1  0  0  0  0
  7  8  1  0  0  0  0
  7 28  1  0  0  0  0
  7 29  1  0  0  0  0
  8  9  2  0  0  0  0
  8 10  1  0  0  0  0
 10 11  1  0  0  0  0
 10 30  1  0  0  0  0
 11 17  1  0  0  0  0
 11 12  1  0  0  0  0
 11 31  1  0  0  0  0
 12 13  1  0  0  0  0
 12 32  1  0  0  0  0
 12 33  1  0  0  0  0
 13 14  1  0  0  0  0
 13 34  1  0  0  0  0
 13 35  1  0  0  0  0
 14 15  1  0  0  0  0
 14 36  1  0  0  0  0
 14 37  1  0  0  0  0
 15 16  1  0  0  0  0
 15 17  1  0  0  0  0
 15 38  1  0  0  0  0
 16 39  1  0  0  0  0
 16 40  1  0  0  0  0
 16 41  1  0  0  0  0
 17 42  1  0  0  0  0
 17 43  1  0  0  0  0
 18 19  2  0  0  0  0
 18 20  1  0  0  0  0
M  END
> <s_m_source_file>
AV-unprocessed.smi

> <i_m_source_file_index>
2198

> <i_lp_mmshare_version>
43012

> <i_f3d_flags>
0

> <s_epik_input>
W0NIM11jMW5jKFtDSDNdKWMoYyg9TylbbkhdMSlbQ0gyXUMoPU8pW05IXVtDQEBIXTJbQ0gyXVtDSDJdW0NIMl1bQ0BASF0oW0NIM10pW0NIMl0y

> <s_epik_cmdline>
J2VwaWtfcHl0aG9uJywgJy1waCcsICc3LjAnLCAnLXRuJywgJzgnLCAnLW1hJywgJzIwMCcsICctbWV0YWxfYmluZGluZycsICctaW1hZScsICc8aW5maWxlLm1hZT4nLCAnLW9tYWUnLCAnPG91dGZpbGUubWFlPic=

> <r_lp_tautomer_probability>
0.156392

> <r_epik_Ionization_Penalty>
0.0136514

> <r_epik_Ionization_Penalty_Charging>
0.0135207

> <r_epik_Ionization_Penalty_Neutral>
0.000130657

> <r_epik_State_Penalty>
1.15342

> <r_epik_Charging_Adjusted_Penalty>
1.16694

> <i_epik_Tot_Q>
0

> <i_epik_Tot_abs_Q>
0

> <r_epik_Metal_State_Penalty>
1.31404

> <b_epik_Metal_Only>
0

> <s_lp_Force_Field>
OPLS_2005

> <r_lp_Energy>
13.5708

> <b_lp_Chiralities_Consistent>
1

> <s_lp_Variant>
AV-unprocessed.smi:2198-6

> <Gold.Version>
5.8.1

> <Gold.Id.Protein>
6NUR|6NUR_protein|mol2

> <Gold.PLP.Fitness>
46.0499

> <Gold.PLP.PLP>
-41.4435

> <Gold.PLP.part.hbond>
-2.0000

> <Gold.PLP.part.metal>
0.0000

> <Gold.PLP.part.buried>
-4.9051

> <Gold.PLP.part.nonpolar>
-36.0604

> <Gold.PLP.part.repulsive>
1.3217

> <Gold.PLP.ligand.clash>
0.0000

> <Gold.PLP.ligand.torsion>
0.3743

> <Gold.PLP.Chemscore.Hbond>
1.7840

> <Gold.PLP.Chemscore.CHOScore>
0.0000

> <Gold.PLP.Chemscore.Metal>
0.0000

> <Gold.Chemscore.Hbonds>
donor molecule, donor type, donor heavy atom, donor atom, acceptor molecule, acceptor atom, score
      L1  H     3    21       P1 10175  1.00
      L1  H    10    30       P1  8028  0.82

> <Gold.PLP.Chemscore.Internal.Correction>
0.0032

> <Gold.Rescore>
     Score         DG    S(hbond)    S(metal)    S(lipo)     H(rot)  DE(clash)    DE(int)     intcor
     16.71     -20.46       1.82        0.00     108.45       1.48       0.38       3.38       ----

> <Gold.Chemscore.Fitness>
16.7099

> <Gold.Chemscore.DG>
-20.4647

> <Gold.Chemscore.ZeroCoef>
-5.4800

> <Gold.Chemscore.Hbond>
1.8220

> <Gold.Chemscore.Metal>
0.0000

> <Gold.Chemscore.Lipo>
108.4461

> <Gold.Chemscore.Internal_Hbond>
0.0000

> <Gold.Chemscore.DEClash>
0.3751

> <Gold.Chemscore.DEInternal>
3.3797

> <Gold.Chemscore.Rot>
1.4801

> <Gold.Chemscore.Internal.Correction>
   9.000000E+99

> <Gold.Chemscore.Hbonds>
donor molecule, donor type, donor heavy atom, donor atom, acceptor molecule, acceptor atom, score
      L1  H     3    21       P1 10175  1.00
      L1  H    10    30       P1  8028  0.81

> <Gold.Chemscore.Hbond.Weighted>
-6.0856

> <Gold.Chemscore.Metal.Weighted>
-0.0000

> <Gold.Chemscore.Lipo.Weighted>
-12.6882

> <Gold.Chemscore.Internal_Hbond.Weighted>
0.0000

> <Gold.Chemscore.DEClash.Weighted>
0.3751

> <Gold.Chemscore.DEInternal.Weighted>
3.3797

> <Gold.Chemscore.Rot.Weighted>
3.7891

> <Gold.Chemscore.Internal.Correction.Weighted>
   9.000000E+99

> <Gold.Protein.RotatedTorsions>
[ 6907 6896 6895 6894 ] final  165.47 input  -60.11 | X-H torsion
[ 7974 7965 7964 7962 ] final  168.36 input  175.53 | X-H torsion
[ 8008 7997 7996 7995 ] final  172.56 input   59.86 | X-H torsion
[ 10167 10162 10161 10158 ] final  -30.06 input  -65.29 | X-H torsion
[ 10718 10713 10712 10709 ] final  -78.98 input   66.30 | X-H torsion
[ 10763 10752 10751 10750 ] final -142.17 input  -60.55 | X-H torsion
[ 11005 11000 10999 10996 ] final   65.54 input  -57.11 | X-H torsion

> <Gold.Protein.ActiveResidues>
 VAL166  LYS551  ARG553  GLY616  TRP617  ASP618  TYR619  PRO620  LYS621  CYS622 
 ASP623  PHE694  ASN695  SER759  ASP760  ASP761  ALA762  ILE779  LEU786  VAL792 
 PHE793  MET794  SER795  GLU796  ALA797  LYS798  CYS799  TRP800  GLU811  SER814 

> <Gold.Protein.RotatedAtoms>
  151.8939  133.3522  159.3807 H   0  0  0  0  0  0  0  0  0  0  0  0  # atno 6907 bound_to 6896
  150.7096  134.4896  159.5519 H   0  0  0  0  0  0  0  0  0  0  0  0  # atno 6908 bound_to 6896
  152.2472  134.8170  160.0502 H   0  0  0  0  0  0  0  0  0  0  0  0  # atno 6909 bound_to 6896
  144.7391  139.8895  143.6402 H   0  0  0  0  0  0  0  0  0  0  0  0  # atno 7974 bound_to 7965
  156.1163  140.1483  156.9268 H   0  0  0  0  0  0  0  0  0  0  0  0  # atno 8008 bound_to 7997
  154.4803  140.0881  156.7403 H   0  0  0  0  0  0  0  0  0  0  0  0  # atno 8009 bound_to 7997
  155.4508  140.3434  155.4303 H   0  0  0  0  0  0  0  0  0  0  0  0  # atno 8010 bound_to 7997
  140.7253  143.3879  151.1483 H   0  0  0  0  0  0  0  0  0  0  0  0  # atno 10167 bound_to 10162
  156.0104  130.4533  150.3579 H   0  0  0  0  0  0  0  0  0  0  0  0  # atno 10718 bound_to 10713
  154.8519  135.3503  154.5985 H   0  0  0  0  0  0  0  0  0  0  0  0  # atno 10763 bound_to 10752
  153.6594  135.6990  153.5187 H   0  0  0  0  0  0  0  0  0  0  0  0  # atno 10764 bound_to 10752
  153.2830  135.4258  155.1054 H   0  0  0  0  0  0  0  0  0  0  0  0  # atno 10765 bound_to 10752
  139.9888  134.6624  156.0128 H   0  0  0  0  0  0  0  0  0  0  0  0  # atno 11005 bound_to 11000
  146.1152  139.4162  143.0263 LP  0  0  0  0  0  0  0  0  0  0  0  0  # atno 17320 bound_to 7965
  145.7385  141.0017  143.1313 LP  0  0  0  0  0  0  0  0  0  0  0  0  # atno 17321 bound_to 7965
  139.7479  143.8824  152.3068 LP  0  0  0  0  0  0  0  0  0  0  0  0  # atno 17342 bound_to 10162
  139.8668  144.7089  150.9035 LP  0  0  0  0  0  0  0  0  0  0  0  0  # atno 17343 bound_to 10162
  157.1668  131.0359  151.2814 LP  0  0  0  0  0  0  0  0  0  0  0  0  # atno 17370 bound_to 10713
  157.4263  130.7465  149.6954 LP  0  0  0  0  0  0  0  0  0  0  0  0  # atno 17371 bound_to 10713
  141.1548  133.6544  156.4127 LP  0  0  0  0  0  0  0  0  0  0  0  0  # atno 17394 bound_to 11000
  140.4949  134.6540  157.5225 LP  0  0  0  0  0  0  0  0  0  0  0  0  # atno 17395 bound_to 11000

$$$$
