AV-unprocessed.smi:2256|AV-procd|sdf|9126|dock7
  -GOLD-   2272012333D 1   1.00000     0.00000
 Structure written by MMmdl.
 42 44  0  0  0  0  0  0  0  0  1 V2000
  148.1623  133.9112  157.6193 C   0  0  0  0  0  0  0  0  0  0  0  0
  149.1767  135.0394  157.6788 C   0  0  0  0  0  0  0  0  0  0  0  0
  149.0150  135.9418  158.7342 N   0  0  0  0  0  0  0  0  0  0  0  0
  149.8264  136.9407  158.8588 C   0  0  0  0  0  0  0  0  0  0  0  0
  150.8809  137.1514  157.9554 N   0  0  0  0  0  0  0  0  0  0  0  0
  151.7288  138.3289  158.2054 C   0  0  0  0  0  0  0  0  0  0  0  0
  151.8233  139.2549  156.9717 C   0  0  2  0  0  0  0  0  0  0  0  0
  153.1464  139.2833  156.4747 O   0  0  0  0  0  0  0  0  0  0  0  0
  151.4030  140.7035  157.2733 C   0  0  0  0  0  0  0  0  0  0  0  0
  152.1118  141.1868  158.4078 O   0  0  0  0  0  0  0  0  0  0  0  0
  151.9412  142.5028  158.7816 C   0  0  0  0  0  0  0  0  0  0  0  0
  151.4925  143.5225  157.9017 C   0  0  0  0  0  0  0  0  0  0  0  0
  151.3407  144.8478  158.3520 C   0  0  0  0  0  0  0  0  0  0  0  0
  151.6343  145.1746  159.6865 C   0  0  0  0  0  0  0  0  0  0  0  0
  152.0778  144.1660  160.5578 C   0  0  0  0  0  0  0  0  0  0  0  0
  152.4351  144.1822  161.8917 N   0  0  0  0  0  0  0  0  0  0  0  0
  152.8089  142.9183  162.3131 C   0  0  0  0  0  0  0  0  0  0  0  0
  152.7026  142.0499  161.2582 C   0  0  0  0  0  0  0  0  0  0  0  0
  152.2409  142.8150  160.1312 C   0  0  0  0  0  0  0  0  0  0  0  0
  151.1194  136.3109  156.9074 C   0  0  0  0  0  0  0  0  0  0  0  0
  152.0601  136.4943  156.1323 O   0  0  0  0  0  0  0  0  0  0  0  0
  150.1834  135.1828  156.7740 C   0  0  0  0  0  0  0  0  0  0  0  0
  150.4080  134.2331  155.6039 C   0  0  0  0  0  0  0  0  0  0  0  0
  152.4343  144.9892  162.4989 H   0  0  0  0  0  0  0  0  0  0  0  0
  147.5950  133.9579  156.6894 H   0  0  0  0  0  0  0  0  0  0  0  0
  147.4538  133.9701  158.4463 H   0  0  0  0  0  0  0  0  0  0  0  0
  148.6614  132.9437  157.6764 H   0  0  0  0  0  0  0  0  0  0  0  0
  149.7458  137.6706  159.6662 H   0  0  0  0  0  0  0  0  0  0  0  0
  151.3022  138.8864  159.0415 H   0  0  0  0  0  0  0  0  0  0  0  0
  152.7267  138.0516  158.5523 H   0  0  0  0  0  0  0  0  0  0  0  0
  151.1838  138.8855  156.1692 H   0  0  0  0  0  0  0  0  0  0  0  0
  153.3852  138.4105  156.2026 H   0  0  0  0  0  0  0  0  0  0  0  0
  151.5712  141.3395  156.4023 H   0  0  0  0  0  0  0  0  0  0  0  0
  150.3340  140.7160  157.4915 H   0  0  0  0  0  0  0  0  0  0  0  0
  151.2563  143.3132  156.8697 H   0  0  0  0  0  0  0  0  0  0  0  0
  150.9985  145.6132  157.6712 H   0  0  0  0  0  0  0  0  0  0  0  0
  151.5199  146.1895  160.0374 H   0  0  0  0  0  0  0  0  0  0  0  0
  153.1211  142.7399  163.3316 H   0  0  0  0  0  0  0  0  0  0  0  0
  152.9207  140.9922  161.2593 H   0  0  0  0  0  0  0  0  0  0  0  0
  151.4013  133.7874  155.6663 H   0  0  0  0  0  0  0  0  0  0  0  0
  150.3399  134.7770  154.6612 H   0  0  0  0  0  0  0  0  0  0  0  0
  149.6854  133.4199  155.5653 H   0  0  0  0  0  0  0  0  0  0  0  0
  1  2  1  0  0  0  0
  1 25  1  0  0  0  0
  1 26  1  0  0  0  0
  1 27  1  0  0  0  0
  2 22  2  0  0  0  0
  2  3  1  0  0  0  0
  3  4  2  0  0  0  0
  4  5  1  0  0  0  0
  4 28  1  0  0  0  0
  5  6  1  0  0  0  0
  5 20  1  0  0  0  0
  6  7  1  0  0  0  0
  6 29  1  0  0  0  0
  6 30  1  0  0  0  0
  7  8  1  0  0  0  0
  7  9  1  0  0  0  0
  7 31  1  0  0  0  0
  8 32  1  0  0  0  0
  9 10  1  0  0  0  0
  9 33  1  0  0  0  0
  9 34  1  0  0  0  0
 10 11  1  0  0  0  0
 11 19  1  0  0  0  0
 11 12  2  0  0  0  0
 12 13  1  0  0  0  0
 12 35  1  0  0  0  0
 13 14  2  0  0  0  0
 13 36  1  0  0  0  0
 14 15  1  0  0  0  0
 14 37  1  0  0  0  0
 15 19  2  0  0  0  0
 15 16  1  0  0  0  0
 16 24  1  0  0  0  0
 16 17  1  0  0  0  0
 17 18  2  0  0  0  0
 17 38  1  0  0  0  0
 18 19  1  0  0  0  0
 18 39  1  0  0  0  0
 20 21  2  0  0  0  0
 20 22  1  0  0  0  0
 22 23  1  0  0  0  0
 23 40  1  0  0  0  0
 23 41  1  0  0  0  0
 23 42  1  0  0  0  0
M  END
> <s_m_source_file>
AV-unprocessed.smi

> <i_m_source_file_index>
2256

> <i_lp_mmshare_version>
43012

> <i_f3d_flags>
0

> <s_epik_input>
W0NIM11jMW5bY0hdbihjKD1PKWMxW0NIM10pW0NIMl1bQ0BIXShbT0hdKVtDSDJdT2MoW2NIXVtjSF1bY0hdMiljKGMyMylbY0hdW2NIXVtuSF0z

> <s_epik_cmdline>
J2VwaWtfcHl0aG9uJywgJy1waCcsICc3LjAnLCAnLXRuJywgJzgnLCAnLW1hJywgJzIwMCcsICctbWV0YWxfYmluZGluZycsICctaW1hZScsICc8aW5maWxlLm1hZT4nLCAnLW9tYWUnLCAnPG91dGZpbGUubWFlPic=

> <r_lp_tautomer_probability>
1

> <r_epik_Ionization_Penalty>
4.18314e-05

> <r_epik_Ionization_Penalty_Charging>
1.04093e-07

> <r_epik_Ionization_Penalty_Neutral>
4.17273e-05

> <r_epik_State_Penalty>
-0

> <r_epik_Charging_Adjusted_Penalty>
1.04093e-07

> <i_epik_Tot_Q>
0

> <i_epik_Tot_abs_Q>
0

> <r_epik_Metal_State_Penalty>
-0

> <b_epik_Metal_Only>
0

> <s_lp_Force_Field>
OPLS_2005

> <r_lp_Energy>
26.398

> <b_lp_Chiralities_Consistent>
1

> <s_lp_Variant>
AV-unprocessed.smi:2256-1

> <Gold.Version>
5.8.1

> <Gold.Id.Protein>
6NUR|6NUR_protein|mol2

> <Gold.PLP.Fitness>
47.4830

> <Gold.PLP.PLP>
-43.6768

> <Gold.PLP.part.hbond>
-2.0353

> <Gold.PLP.part.metal>
0.0000

> <Gold.PLP.part.buried>
-6.1544

> <Gold.PLP.part.nonpolar>
-36.1438

> <Gold.PLP.part.repulsive>
0.0512

> <Gold.PLP.ligand.clash>
0.0000

> <Gold.PLP.ligand.torsion>
1.1354

> <Gold.PLP.Chemscore.Hbond>
1.9833

> <Gold.PLP.Chemscore.CHOScore>
0.0000

> <Gold.PLP.Chemscore.Metal>
0.0000

> <Gold.Chemscore.Hbonds>
donor molecule, donor type, donor heavy atom, donor atom, acceptor molecule, acceptor atom, score
      P1  H  7997  8008       L1     8  0.98
      P1  H 10752 10763       L1    21  1.00

> <Gold.PLP.Chemscore.Internal.Correction>
0.1270

> <Gold.Rescore>
     Score         DG    S(hbond)    S(metal)    S(lipo)     H(rot)  DE(clash)    DE(int)     intcor
     16.86     -19.29       1.95        0.00     118.72       2.58       0.01       2.42       ----

> <Gold.Chemscore.Fitness>
16.8622

> <Gold.Chemscore.DG>
-19.2868

> <Gold.Chemscore.ZeroCoef>
-5.4800

> <Gold.Chemscore.Hbond>
1.9529

> <Gold.Chemscore.Metal>
0.0000

> <Gold.Chemscore.Lipo>
118.7185

> <Gold.Chemscore.Internal_Hbond>
0.0000

> <Gold.Chemscore.DEClash>
0.0053

> <Gold.Chemscore.DEInternal>
2.4193

> <Gold.Chemscore.Rot>
2.5804

> <Gold.Chemscore.Internal.Correction>
   9.000000E+99

> <Gold.Chemscore.Hbonds>
donor molecule, donor type, donor heavy atom, donor atom, acceptor molecule, acceptor atom, score
      P1  H  7997  8008       L1     8  0.43
      P1  H 10752 10763       L1    21  0.99

> <Gold.Chemscore.Hbond.Weighted>
-6.5227

> <Gold.Chemscore.Metal.Weighted>
-0.0000

> <Gold.Chemscore.Lipo.Weighted>
-13.8901

> <Gold.Chemscore.Internal_Hbond.Weighted>
0.0000

> <Gold.Chemscore.DEClash.Weighted>
0.0053

> <Gold.Chemscore.DEInternal.Weighted>
2.4193

> <Gold.Chemscore.Rot.Weighted>
6.6059

> <Gold.Chemscore.Internal.Correction.Weighted>
   9.000000E+99

> <Gold.Protein.RotatedTorsions>
[ 6907 6896 6895 6894 ] final  148.62 input  -60.11 | X-H torsion
[ 7974 7965 7964 7962 ] final   69.12 input  175.53 | X-H torsion
[ 8008 7997 7996 7995 ] final  -30.83 input   59.86 | X-H torsion
[ 10167 10162 10161 10158 ] final   87.32 input  -65.29 | X-H torsion
[ 10718 10713 10712 10709 ] final   53.79 input   66.30 | X-H torsion
[ 10763 10752 10751 10750 ] final   76.46 input  -60.55 | X-H torsion
[ 11005 11000 10999 10996 ] final  -87.82 input  -57.11 | X-H torsion

> <Gold.Protein.ActiveResidues>
 VAL166  LYS551  ARG553  GLY616  TRP617  ASP618  TYR619  PRO620  LYS621  CYS622 
 ASP623  PHE694  ASN695  SER759  ASP760  ASP761  ALA762  ILE779  LEU786  VAL792 
 PHE793  MET794  SER795  GLU796  ALA797  LYS798  CYS799  TRP800  GLU811  SER814 

> <Gold.Protein.RotatedAtoms>
  152.1391  133.4453  159.4757 H   0  0  0  0  0  0  0  0  0  0  0  0  # atno 6907 bound_to 6896
  150.6884  134.2327  159.4450 H   0  0  0  0  0  0  0  0  0  0  0  0  # atno 6908 bound_to 6896
  152.0217  134.9818  160.0621 H   0  0  0  0  0  0  0  0  0  0  0  0  # atno 6909 bound_to 6896
  145.7943  139.2950  143.1192 H   0  0  0  0  0  0  0  0  0  0  0  0  # atno 7974 bound_to 7965
  154.4236  140.1781  156.1469 H   0  0  0  0  0  0  0  0  0  0  0  0  # atno 8008 bound_to 7997
  155.9947  140.3365  155.6762 H   0  0  0  0  0  0  0  0  0  0  0  0  # atno 8009 bound_to 7997
  155.6325  140.0671  157.2635 H   0  0  0  0  0  0  0  0  0  0  0  0  # atno 8010 bound_to 7997
  139.8786  144.6453  150.8868 H   0  0  0  0  0  0  0  0  0  0  0  0  # atno 10167 bound_to 10162
  157.5199  130.8557  149.8544 H   0  0  0  0  0  0  0  0  0  0  0  0  # atno 10718 bound_to 10713
  153.0727  135.4950  154.8339 H   0  0  0  0  0  0  0  0  0  0  0  0  # atno 10763 bound_to 10752
  154.7045  135.3008  154.9294 H   0  0  0  0  0  0  0  0  0  0  0  0  # atno 10764 bound_to 10752
  154.0007  135.6766  153.4812 H   0  0  0  0  0  0  0  0  0  0  0  0  # atno 10765 bound_to 10752
  141.1611  133.7533  156.9361 H   0  0  0  0  0  0  0  0  0  0  0  0  # atno 11005 bound_to 11000
  145.9944  140.8575  143.0050 LP  0  0  0  0  0  0  0  0  0  0  0  0  # atno 17320 bound_to 7965
  144.6777  140.2262  143.7360 LP  0  0  0  0  0  0  0  0  0  0  0  0  # atno 17321 bound_to 7965
  140.7748  143.3604  151.1839 LP  0  0  0  0  0  0  0  0  0  0  0  0  # atno 17342 bound_to 10162
  139.7217  143.9213  152.2988 LP  0  0  0  0  0  0  0  0  0  0  0  0  # atno 17343 bound_to 10162
  156.0346  130.3755  150.1595 LP  0  0  0  0  0  0  0  0  0  0  0  0  # atno 17370 bound_to 10713
  156.9783  130.9856  151.3443 LP  0  0  0  0  0  0  0  0  0  0  0  0  # atno 17371 bound_to 10713
  140.1353  134.9329  157.2393 LP  0  0  0  0  0  0  0  0  0  0  0  0  # atno 17394 bound_to 11000
  140.2903  134.3248  155.7317 LP  0  0  0  0  0  0  0  0  0  0  0  0  # atno 17395 bound_to 11000

$$$$
