AV-unprocessed.smi:271|AV-procd|sdf|2049|dock3
  -GOLD-   2262021283D 1   1.00000     0.00000
 Structure written by MMmdl.
 58 60  0  0  0  0  0  0  0  0  1 V2000
  151.6255  143.8485  161.5856 C   0  0  0  0  0  0  0  0  0  0  0  0
  152.3663  142.5104  161.7315 C   0  0  0  0  0  0  0  0  0  0  0  0
  153.0873  142.4419  163.0887 C   0  0  0  0  0  0  0  0  0  0  0  0
  153.3268  142.2873  160.5470 C   0  0  0  0  0  0  0  0  0  0  0  0
  152.6075  142.0407  159.2038 C   0  0  0  0  0  0  0  0  0  0  0  0
  152.5230  140.6284  158.8312 N   0  0  0  0  0  0  0  0  0  0  0  0
  153.7133  139.8410  159.1458 C   0  0  0  0  0  0  0  0  0  0  0  0
  153.4810  138.7974  160.2504 C   0  0  0  0  0  0  0  0  0  0  0  0
  152.8827  137.5591  159.7311 C   0  0  0  0  0  0  0  0  0  0  0  0
  152.4120  136.5844  159.3226 N   0  0  0  0  0  0  0  0  0  0  0  0
  152.0775  140.4272  157.5699 C   0  0  0  0  0  0  0  0  0  0  0  0
  152.8491  139.6669  156.7548 N   0  0  0  0  0  0  0  0  0  0  0  0
  152.4564  139.4252  155.5009 C   0  0  0  0  0  0  0  0  0  0  0  0
  151.3500  139.8377  154.8788 N   0  0  0  0  0  0  0  0  0  0  0  0
  150.5704  140.6004  155.6975 C   0  0  0  0  0  0  0  0  0  0  0  0
  150.8612  140.9490  157.0461 C   0  0  0  0  0  0  0  0  0  0  0  0
  149.8487  141.7500  157.5587 N   0  0  0  0  0  0  0  0  0  0  0  0
  149.0057  141.8659  156.5698 C   0  0  0  0  0  0  0  0  0  0  0  0
  149.3480  141.1895  155.4196 N   0  0  0  0  0  0  0  0  0  0  0  0
  148.5818  141.1409  154.1822 C   0  0  0  0  0  0  0  0  0  0  0  0
  147.1595  140.5321  154.3329 C   0  0  2  0  0  0  0  0  0  0  0  0
  146.6133  139.9678  152.9992 C   0  0  0  0  0  0  0  0  0  0  0  0
  147.4202  138.9091  152.5264 O   0  0  0  0  0  0  0  0  0  0  0  0
  146.1597  141.5314  154.9722 C   0  0  2  0  0  0  0  0  0  0  0  0
  144.8599  140.9068  155.4533 C   0  0  0  0  0  0  0  0  0  0  0  0
  143.9538  142.1236  155.6000 C   0  0  0  0  0  0  0  0  0  0  0  0
  144.3703  143.0324  154.5875 O   0  0  0  0  0  0  0  0  0  0  0  0
  145.6006  142.5942  154.0195 C   0  0  0  0  0  0  0  0  0  0  0  0
  152.3203  144.6892  161.5916 H   0  0  0  0  0  0  0  0  0  0  0  0
  150.9164  143.9974  162.4005 H   0  0  0  0  0  0  0  0  0  0  0  0
  151.0630  143.8885  160.6524 H   0  0  0  0  0  0  0  0  0  0  0  0
  151.6142  141.7207  161.7112 H   0  0  0  0  0  0  0  0  0  0  0  0
  153.8829  143.1846  163.1533 H   0  0  0  0  0  0  0  0  0  0  0  0
  153.5312  141.4618  163.2609 H   0  0  0  0  0  0  0  0  0  0  0  0
  152.3936  142.6273  163.9092 H   0  0  0  0  0  0  0  0  0  0  0  0
  153.9656  143.1649  160.4365 H   0  0  0  0  0  0  0  0  0  0  0  0
  153.9925  141.4562  160.7839 H   0  0  0  0  0  0  0  0  0  0  0  0
  151.6042  142.4655  159.2250 H   0  0  0  0  0  0  0  0  0  0  0  0
  153.1444  142.5693  158.4153 H   0  0  0  0  0  0  0  0  0  0  0  0
  154.0803  139.3519  158.2427 H   0  0  0  0  0  0  0  0  0  0  0  0
  154.5019  140.5227  159.4662 H   0  0  0  0  0  0  0  0  0  0  0  0
  154.4230  138.5360  160.7329 H   0  0  0  0  0  0  0  0  0  0  0  0
  152.8129  139.1798  161.0225 H   0  0  0  0  0  0  0  0  0  0  0  0
  153.1225  138.8122  154.9116 H   0  0  0  0  0  0  0  0  0  0  0  0
  148.0974  142.4440  156.6569 H   0  0  0  0  0  0  0  0  0  0  0  0
  148.5082  142.1586  153.7976 H   0  0  0  0  0  0  0  0  0  0  0  0
  149.1603  140.5942  153.4377 H   0  0  0  0  0  0  0  0  0  0  0  0
  147.2492  139.6889  155.0196 H   0  0  0  0  0  0  0  0  0  0  0  0
  145.6091  139.5653  153.1295 H   0  0  0  0  0  0  0  0  0  0  0  0
  146.5413  140.7430  152.2365 H   0  0  0  0  0  0  0  0  0  0  0  0
  148.1340  139.2756  152.0267 H   0  0  0  0  0  0  0  0  0  0  0  0
  146.6363  142.0466  155.8074 H   0  0  0  0  0  0  0  0  0  0  0  0
  144.4576  140.2331  154.6954 H   0  0  0  0  0  0  0  0  0  0  0  0
  144.9541  140.3474  156.3829 H   0  0  0  0  0  0  0  0  0  0  0  0
  142.8973  141.8723  155.5032 H   0  0  0  0  0  0  0  0  0  0  0  0
  144.1037  142.5936  156.5728 H   0  0  0  0  0  0  0  0  0  0  0  0
  146.2836  143.4325  153.8804 H   0  0  0  0  0  0  0  0  0  0  0  0
  145.3902  142.1633  153.0395 H   0  0  0  0  0  0  0  0  0  0  0  0
  1  2  1  0  0  0  0
  1 29  1  0  0  0  0
  1 30  1  0  0  0  0
  1 31  1  0  0  0  0
  2  3  1  0  0  0  0
  2  4  1  0  0  0  0
  2 32  1  0  0  0  0
  3 33  1  0  0  0  0
  3 34  1  0  0  0  0
  3 35  1  0  0  0  0
  4  5  1  0  0  0  0
  4 36  1  0  0  0  0
  4 37  1  0  0  0  0
  5  6  1  0  0  0  0
  5 38  1  0  0  0  0
  5 39  1  0  0  0  0
  6  7  1  0  0  0  0
  6 11  1  0  0  0  0
  7  8  1  0  0  0  0
  7 40  1  0  0  0  0
  7 41  1  0  0  0  0
  8  9  1  0  0  0  0
  8 42  1  0  0  0  0
  8 43  1  0  0  0  0
  9 10  3  0  0  0  0
 11 16  1  0  0  0  0
 11 12  2  0  0  0  0
 12 13  1  0  0  0  0
 13 14  2  0  0  0  0
 13 44  1  0  0  0  0
 14 15  1  0  0  0  0
 15 19  1  0  0  0  0
 15 16  2  0  0  0  0
 16 17  1  0  0  0  0
 17 18  2  0  0  0  0
 18 19  1  0  0  0  0
 18 45  1  0  0  0  0
 19 20  1  0  0  0  0
 20 21  1  0  0  0  0
 20 46  1  0  0  0  0
 20 47  1  0  0  0  0
 21 22  1  0  0  0  0
 21 24  1  0  0  0  0
 21 48  1  0  0  0  0
 22 23  1  0  0  0  0
 22 49  1  0  0  0  0
 22 50  1  0  0  0  0
 23 51  1  0  0  0  0
 24 28  1  0  0  0  0
 24 25  1  0  0  0  0
 24 52  1  0  0  0  0
 25 26  1  0  0  0  0
 25 53  1  0  0  0  0
 25 54  1  0  0  0  0
 26 27  1  0  0  0  0
 26 55  1  0  0  0  0
 26 56  1  0  0  0  0
 27 28  1  0  0  0  0
 28 57  1  0  0  0  0
 28 58  1  0  0  0  0
M  END
> <s_m_source_file>
AV-unprocessed.smi

> <i_m_source_file_index>
271

> <i_lp_mmshare_version>
43012

> <i_f3d_flags>
0

> <s_epik_input>
W0NIM11bQ0hdKFtDSDNdKVtDSDJdW0NIMl1OKFtDSDJdW0NIMl1DI04pYyhuW2NIXW4xKWMoYzEyKW5bY0hdbjJbQ0gyXVtDQEhdKFtDSDJdW09IXSlbQ0BASF0zW0NIMl1bQ0gyXU9bQ0gyXTM=

> <s_epik_cmdline>
J2VwaWtfcHl0aG9uJywgJy1waCcsICc3LjAnLCAnLXRuJywgJzgnLCAnLW1hJywgJzIwMCcsICctbWV0YWxfYmluZGluZycsICctaW1hZScsICc8aW5maWxlLm1hZT4nLCAnLW9tYWUnLCAnPG91dGZpbGUubWFlPic=

> <r_lp_tautomer_probability>
1

> <r_epik_Ionization_Penalty>
0.000825874

> <r_epik_Ionization_Penalty_Charging>
0

> <r_epik_Ionization_Penalty_Neutral>
0.000825874

> <r_epik_State_Penalty>
0.000396768

> <r_epik_Charging_Adjusted_Penalty>
0.000396768

> <i_epik_Tot_Q>
0

> <i_epik_Tot_abs_Q>
0

> <r_epik_Metal_State_Penalty>
-0

> <b_epik_Metal_Only>
0

> <s_lp_Force_Field>
OPLS_2005

> <r_lp_Energy>
34.7872

> <b_lp_Chiralities_Consistent>
1

> <s_lp_Variant>
AV-unprocessed.smi:271-1

> <Gold.Version>
5.8.1

> <Gold.Id.Protein>
6NUR|6NUR_protein|mol2

> <Gold.PLP.Fitness>
66.1929

> <Gold.PLP.PLP>
-55.5421

> <Gold.PLP.part.hbond>
-4.0000

> <Gold.PLP.part.metal>
0.0000

> <Gold.PLP.part.buried>
-0.2265

> <Gold.PLP.part.nonpolar>
-50.2247

> <Gold.PLP.part.repulsive>
0.3574

> <Gold.PLP.ligand.clash>
0.0000

> <Gold.PLP.ligand.torsion>
1.7936

> <Gold.PLP.Chemscore.Hbond>
3.8500

> <Gold.PLP.Chemscore.CHOScore>
0.7064

> <Gold.PLP.Chemscore.Metal>
0.0000

> <Gold.Chemscore.Hbonds>
donor molecule, donor type, donor heavy atom, donor atom, acceptor molecule, acceptor atom, score
      L1  H    23    51       P1  7957  1.00
      P1  H  6896  6909       L1    10  1.00
      P1  H  7989  7998       L1    14  1.00
      P1  H  7997  8010       L1    12  1.00
      L1  C    18    45       P1  8028  0.36

> <Gold.PLP.Chemscore.Internal.Correction>
0.5689

> <Gold.Rescore>
     Score         DG    S(hbond)    S(metal)    S(lipo)     H(rot)  DE(clash)    DE(int)     intcor
     14.15     -17.34       2.17        0.00     121.87       3.77       1.75       1.44       ----

> <Gold.Chemscore.Fitness>
14.1500

> <Gold.Chemscore.DG>
-17.3424

> <Gold.Chemscore.ZeroCoef>
-5.4800

> <Gold.Chemscore.Hbond>
2.1706

> <Gold.Chemscore.Metal>
0.0000

> <Gold.Chemscore.Lipo>
121.8745

> <Gold.Chemscore.Internal_Hbond>
0.0000

> <Gold.Chemscore.DEClash>
1.7490

> <Gold.Chemscore.DEInternal>
1.4433

> <Gold.Chemscore.Rot>
3.7683

> <Gold.Chemscore.Internal.Correction>
   9.000000E+99

> <Gold.Chemscore.Hbonds>
donor molecule, donor type, donor heavy atom, donor atom, acceptor molecule, acceptor atom, score
      L1  H    23    51       P1  7957  1.00
      P1  H  6896  6909       L1    10  0.94
      P1  H  7989  7998       L1    14  0.39
      P1  H  7997  8010       L1    12  0.32

> <Gold.Chemscore.Hbond.Weighted>
-7.2498

> <Gold.Chemscore.Metal.Weighted>
-0.0000

> <Gold.Chemscore.Lipo.Weighted>
-14.2593

> <Gold.Chemscore.Internal_Hbond.Weighted>
0.0000

> <Gold.Chemscore.DEClash.Weighted>
1.7490

> <Gold.Chemscore.DEInternal.Weighted>
1.4433

> <Gold.Chemscore.Rot.Weighted>
9.6468

> <Gold.Chemscore.Internal.Correction.Weighted>
   9.000000E+99

> <Gold.Protein.RotatedTorsions>
[ 6907 6896 6895 6894 ] final  141.82 input  -60.11 | X-H torsion
[ 7974 7965 7964 7962 ] final   61.13 input  175.53 | X-H torsion
[ 8008 7997 7996 7995 ] final   65.27 input   59.86 | X-H torsion
[ 10167 10162 10161 10158 ] final -126.84 input  -65.29 | X-H torsion
[ 10718 10713 10712 10709 ] final  164.07 input   66.30 | X-H torsion
[ 10763 10752 10751 10750 ] final -134.94 input  -60.55 | X-H torsion
[ 11005 11000 10999 10996 ] final -112.18 input  -57.11 | X-H torsion

> <Gold.Protein.ActiveResidues>
 VAL166  LYS551  ARG553  GLY616  TRP617  ASP618  TYR619  PRO620  LYS621  CYS622 
 ASP623  PHE694  ASN695  SER759  ASP760  ASP761  ALA762  ILE779  LEU786  VAL792 
 PHE793  MET794  SER795  GLU796  ALA797  LYS798  CYS799  TRP800  GLU811  SER814 

> <Gold.Protein.RotatedAtoms>
  152.2263  133.5023  159.5190 H   0  0  0  0  0  0  0  0  0  0  0  0  # atno 6907 bound_to 6896
  150.7026  134.1275  159.4066 H   0  0  0  0  0  0  0  0  0  0  0  0  # atno 6908 bound_to 6896
  151.9196  135.0304  160.0572 H   0  0  0  0  0  0  0  0  0  0  0  0  # atno 6909 bound_to 6896
  145.8882  139.3491  143.0665 H   0  0  0  0  0  0  0  0  0  0  0  0  # atno 7974 bound_to 7965
  155.6591  140.3497  155.4776 H   0  0  0  0  0  0  0  0  0  0  0  0  # atno 8008 bound_to 7997
  155.9784  140.1169  157.0772 H   0  0  0  0  0  0  0  0  0  0  0  0  # atno 8009 bound_to 7997
  154.4185  140.1143  156.5387 H   0  0  0  0  0  0  0  0  0  0  0  0  # atno 8010 bound_to 7997
  139.9672  143.5885  152.2425 H   0  0  0  0  0  0  0  0  0  0  0  0  # atno 10167 bound_to 10162
  157.0996  131.0439  151.2503 H   0  0  0  0  0  0  0  0  0  0  0  0  # atno 10718 bound_to 10713
  154.8711  135.3719  154.4818 H   0  0  0  0  0  0  0  0  0  0  0  0  # atno 10763 bound_to 10752
  153.5471  135.7025  153.5614 H   0  0  0  0  0  0  0  0  0  0  0  0  # atno 10764 bound_to 10752
  153.3750  135.4011  155.1780 H   0  0  0  0  0  0  0  0  0  0  0  0  # atno 10765 bound_to 10752
  141.0690  133.9411  157.2522 H   0  0  0  0  0  0  0  0  0  0  0  0  # atno 11005 bound_to 11000
  145.8941  140.9285  143.0537 LP  0  0  0  0  0  0  0  0  0  0  0  0  # atno 17320 bound_to 7965
  144.6729  140.0945  143.7463 LP  0  0  0  0  0  0  0  0  0  0  0  0  # atno 17321 bound_to 7965
  139.6509  144.7660  151.2151 LP  0  0  0  0  0  0  0  0  0  0  0  0  # atno 17342 bound_to 10162
  140.7534  143.6163  150.8556 LP  0  0  0  0  0  0  0  0  0  0  0  0  # atno 17343 bound_to 10162
  157.4652  130.7676  149.7272 LP  0  0  0  0  0  0  0  0  0  0  0  0  # atno 17370 bound_to 10713
  155.9877  130.3965  150.3153 LP  0  0  0  0  0  0  0  0  0  0  0  0  # atno 17371 bound_to 10713
  139.9505  135.0176  156.8978 LP  0  0  0  0  0  0  0  0  0  0  0  0  # atno 17394 bound_to 11000
  140.5713  134.0440  155.7431 LP  0  0  0  0  0  0  0  0  0  0  0  0  # atno 17395 bound_to 11000

$$$$
