AV-unprocessed.smi:2044|AV-procd|sdf|8303|dock5
  -GOLD-   2272010573D 1   1.00000     0.00000
 Structure written by MMmdl.
 38 39  0  0  0  0  0  0  0  0  2 V2000
  145.8451  136.6708  162.2044 C   0  0  0  0  0  0  0  0  0  0  0  0
  146.9250  136.7081  161.1779 C   0  0  0  0  0  0  0  0  0  0  0  0
  148.0466  135.9531  160.9830 C   0  0  0  0  0  0  0  0  0  0  0  0
  148.6305  136.5320  159.8229 C   0  0  0  0  0  0  0  0  0  0  0  0
  149.7576  136.1244  159.2193 N   0  5  0  0  0  0  0  0  0  0  0  0
  149.8919  136.2370  157.8777 C   0  0  0  0  0  0  0  0  0  0  0  0
  149.0570  135.9143  157.0292 O   0  0  0  0  0  0  0  0  0  0  0  0
  151.0649  136.7622  157.4955 N   0  0  0  0  0  0  0  0  0  0  0  0
  151.4778  137.0264  156.1190 C   0  0  0  0  0  0  0  0  0  0  0  0
  151.8146  138.5223  155.8481 C   0  0  1  0  0  0  0  0  0  0  0  0
  152.9101  138.5984  154.7539 C   0  0  0  0  0  0  0  0  0  0  0  0
  150.6247  139.3437  155.5231 N   0  0  0  0  0  0  0  0  0  0  0  0
  150.0832  139.0421  154.1928 C   0  0  0  0  0  0  0  0  0  0  0  0
  148.8639  139.9081  153.8323 C   0  0  0  0  0  0  0  0  0  0  0  0
  149.2119  141.2830  153.9144 O   0  0  0  0  0  0  0  0  0  0  0  0
  149.6710  141.6391  155.2111 C   0  0  0  0  0  0  0  0  0  0  0  0
  150.8954  140.7847  155.5839 C   0  0  0  0  0  0  0  0  0  0  0  0
  147.9175  137.5389  159.3469 N   0  0  0  0  0  0  0  0  0  0  0  0
  146.8250  137.6622  160.2137 O   0  0  0  0  0  0  0  0  0  0  0  0
  145.2265  135.7822  162.0797 H   0  0  0  0  0  0  0  0  0  0  0  0
  145.1995  137.5460  162.1276 H   0  0  0  0  0  0  0  0  0  0  0  0
  146.2677  136.6508  163.2090 H   0  0  0  0  0  0  0  0  0  0  0  0
  148.3970  135.1221  161.5761 H   0  0  0  0  0  0  0  0  0  0  0  0
  151.7200  137.0089  158.2227 H   0  0  0  0  0  0  0  0  0  0  0  0
  152.3480  136.4057  155.9033 H   0  0  0  0  0  0  0  0  0  0  0  0
  150.6751  136.6640  155.4783 H   0  0  0  0  0  0  0  0  0  0  0  0
  152.2539  138.9224  156.7630 H   0  0  0  0  0  0  0  0  0  0  0  0
  153.7625  137.9564  154.9730 H   0  0  0  0  0  0  0  0  0  0  0  0
  153.3297  139.5984  154.6565 H   0  0  0  0  0  0  0  0  0  0  0  0
  152.5171  138.2994  153.7818 H   0  0  0  0  0  0  0  0  0  0  0  0
  150.8592  139.1790  153.4382 H   0  0  0  0  0  0  0  0  0  0  0  0
  149.7642  138.0032  154.1338 H   0  0  0  0  0  0  0  0  0  0  0  0
  148.5290  139.6862  152.8190 H   0  0  0  0  0  0  0  0  0  0  0  0
  148.0274  139.6946  154.4996 H   0  0  0  0  0  0  0  0  0  0  0  0
  149.9321  142.6973  155.2176 H   0  0  0  0  0  0  0  0  0  0  0  0
  148.8696  141.5029  155.9391 H   0  0  0  0  0  0  0  0  0  0  0  0
  151.1884  141.0797  156.5893 H   0  0  0  0  0  0  0  0  0  0  0  0
  151.7273  141.0337  154.9232 H   0  0  0  0  0  0  0  0  0  0  0  0
  1  2  1  0  0  0  0
  1 20  1  0  0  0  0
  1 21  1  0  0  0  0
  1 22  1  0  0  0  0
  2 19  1  0  0  0  0
  2  3  2  0  0  0  0
  3  4  1  0  0  0  0
  3 23  1  0  0  0  0
  4  5  1  0  0  0  0
  4 18  2  0  0  0  0
  5  6  1  0  0  0  0
  6  7  2  0  0  0  0
  6  8  1  0  0  0  0
  8  9  1  0  0  0  0
  8 24  1  0  0  0  0
  9 10  1  0  0  0  0
  9 25  1  0  0  0  0
  9 26  1  0  0  0  0
 10 11  1  0  0  0  0
 10 12  1  0  0  0  0
 10 27  1  0  0  0  0
 11 28  1  0  0  0  0
 11 29  1  0  0  0  0
 11 30  1  0  0  0  0
 12 17  1  0  0  0  0
 12 13  1  0  0  0  0
 13 14  1  0  0  0  0
 13 31  1  0  0  0  0
 13 32  1  0  0  0  0
 14 15  1  0  0  0  0
 14 33  1  0  0  0  0
 14 34  1  0  0  0  0
 15 16  1  0  0  0  0
 16 17  1  0  0  0  0
 16 35  1  0  0  0  0
 16 36  1  0  0  0  0
 17 37  1  0  0  0  0
 17 38  1  0  0  0  0
 18 19  1  0  0  0  0
M  CHG  1   5  -1
M  END
> <s_m_source_file>
AV-unprocessed.smi

> <i_m_source_file_index>
2044

> <i_lp_mmshare_version>
43012

> <i_f3d_flags>
0

> <s_epik_input>
W0NIM11jMVtjSF1jKG5vMSlbTkhdQyg9TylbTkhdW0NIMl1bQ0BIXShbQ0gzXSlOMltDSDJdW0NIMl1PW0NIMl1bQ0gyXTI=

> <s_epik_cmdline>
J2VwaWtfcHl0aG9uJywgJy1waCcsICc3LjAnLCAnLXRuJywgJzgnLCAnLW1hJywgJzIwMCcsICctbWV0YWxfYmluZGluZycsICctaW1hZScsICc8aW5maWxlLm1hZT4nLCAnLW9tYWUnLCAnPG91dGZpbGUubWFlPic=

> <r_epik_Ionization_Penalty>
6.88367

> <r_epik_Ionization_Penalty_Charging>
6.57198

> <r_epik_Ionization_Penalty_Neutral>
0.311681

> <r_epik_State_Penalty>
6.77619

> <r_epik_Charging_Adjusted_Penalty>
13.3482

> <i_epik_Tot_Q>
-1

> <i_epik_Tot_abs_Q>
1

> <r_epik_Metal_State_Penalty>
2.70533

> <b_epik_Metal_Only>
1

> <s_lp_Force_Field>
OPLS_2005

> <r_lp_Energy>
21.654

> <b_lp_Chiralities_Consistent>
1

> <s_lp_Variant>
AV-unprocessed.smi:2044-6

> <Gold.Version>
5.8.1

> <Gold.Id.Protein>
6NUR|6NUR_protein|mol2

> <Gold.PLP.Fitness>
38.2437

> <Gold.PLP.PLP>
-29.2754

> <Gold.PLP.part.hbond>
-5.0000

> <Gold.PLP.part.metal>
0.0000

> <Gold.PLP.part.buried>
0.2914

> <Gold.PLP.part.nonpolar>
-24.7475

> <Gold.PLP.part.repulsive>
0.3093

> <Gold.PLP.ligand.clash>
0.0000

> <Gold.PLP.ligand.torsion>
1.0539

> <Gold.PLP.Chemscore.Hbond>
3.6759

> <Gold.PLP.Chemscore.CHOScore>
0.0000

> <Gold.PLP.Chemscore.Metal>
0.0000

> <Gold.Chemscore.Hbonds>
donor molecule, donor type, donor heavy atom, donor atom, acceptor molecule, acceptor atom, score
      P1  H  6896  6907       L1     5  2.00
      P1  H  6934  6947       L1    19  1.00
      P1  H  8011  8017       L1    15  0.82

> <Gold.PLP.Chemscore.Internal.Correction>
0.0485

> <Gold.Rescore>
     Score         DG    S(hbond)    S(metal)    S(lipo)     H(rot)  DE(clash)    DE(int)     intcor
     14.83     -17.93       2.36        0.00      72.76       1.55       1.85       1.24       ----

> <Gold.Chemscore.Fitness>
14.8338

> <Gold.Chemscore.DG>
-17.9289

> <Gold.Chemscore.ZeroCoef>
-5.4800

> <Gold.Chemscore.Hbond>
2.3642

> <Gold.Chemscore.Metal>
0.0000

> <Gold.Chemscore.Lipo>
72.7592

> <Gold.Chemscore.Internal_Hbond>
0.0000

> <Gold.Chemscore.DEClash>
1.8527

> <Gold.Chemscore.DEInternal>
1.2423

> <Gold.Chemscore.Rot>
1.5470

> <Gold.Chemscore.Internal.Correction>
   9.000000E+99

> <Gold.Chemscore.Hbonds>
donor molecule, donor type, donor heavy atom, donor atom, acceptor molecule, acceptor atom, score
      P1  H  6896  6907       L1     5  0.55
      P1  H  6934  6947       L1    19  0.15
      P1  H  8011  8017       L1    15  0.73

> <Gold.Chemscore.Hbond.Weighted>
-7.8963

> <Gold.Chemscore.Metal.Weighted>
-0.0000

> <Gold.Chemscore.Lipo.Weighted>
-8.5128

> <Gold.Chemscore.Internal_Hbond.Weighted>
0.0000

> <Gold.Chemscore.DEClash.Weighted>
1.8527

> <Gold.Chemscore.DEInternal.Weighted>
1.2423

> <Gold.Chemscore.Rot.Weighted>
3.9603

> <Gold.Chemscore.Internal.Correction.Weighted>
   9.000000E+99

> <Gold.Protein.RotatedTorsions>
[ 6907 6896 6895 6894 ] final  -51.59 input  -60.11 | X-H torsion
[ 7974 7965 7964 7962 ] final  130.95 input  175.53 | X-H torsion
[ 8008 7997 7996 7995 ] final  -64.93 input   59.86 | X-H torsion
[ 10167 10162 10161 10158 ] final -104.59 input  -65.29 | X-H torsion
[ 10718 10713 10712 10709 ] final -168.66 input   66.30 | X-H torsion
[ 10763 10752 10751 10750 ] final -135.72 input  -60.55 | X-H torsion
[ 11005 11000 10999 10996 ] final  -82.86 input  -57.11 | X-H torsion

> <Gold.Protein.ActiveResidues>
 VAL166  LYS551  ARG553  GLY616  TRP617  ASP618  TYR619  PRO620  LYS621  CYS622 
 ASP623  PHE694  ASN695  SER759  ASP760  ASP761  ALA762  ILE779  LEU786  VAL792 
 PHE793  MET794  SER795  GLU796  ALA797  LYS798  CYS799  TRP800  GLU811  SER814 

> <Gold.Protein.RotatedAtoms>
  150.8597  134.7945  159.7072 H   0  0  0  0  0  0  0  0  0  0  0  0  # atno 6907 bound_to 6896
  152.4637  134.5121  159.9767 H   0  0  0  0  0  0  0  0  0  0  0  0  # atno 6908 bound_to 6896
  151.5227  133.3425  159.2940 H   0  0  0  0  0  0  0  0  0  0  0  0  # atno 6909 bound_to 6896
  145.0125  139.4207  143.5238 H   0  0  0  0  0  0  0  0  0  0  0  0  # atno 7974 bound_to 7965
  154.4641  140.0943  156.6972 H   0  0  0  0  0  0  0  0  0  0  0  0  # atno 8008 bound_to 7997
  155.4910  140.3470  155.4336 H   0  0  0  0  0  0  0  0  0  0  0  0  # atno 8009 bound_to 7997
  156.0924  140.1400  156.9564 H   0  0  0  0  0  0  0  0  0  0  0  0  # atno 8010 bound_to 7997
  140.2076  143.3771  152.1077 H   0  0  0  0  0  0  0  0  0  0  0  0  # atno 10167 bound_to 10162
  156.7002  130.9193  151.3079 H   0  0  0  0  0  0  0  0  0  0  0  0  # atno 10718 bound_to 10713
  154.8698  135.3695  154.4944 H   0  0  0  0  0  0  0  0  0  0  0  0  # atno 10763 bound_to 10752
  153.5589  135.7023  153.5561 H   0  0  0  0  0  0  0  0  0  0  0  0  # atno 10764 bound_to 10752
  153.3646  135.4037  155.1707 H   0  0  0  0  0  0  0  0  0  0  0  0  # atno 10765 bound_to 10752
  141.1661  133.7265  156.8634 H   0  0  0  0  0  0  0  0  0  0  0  0  # atno 11005 bound_to 11000
  146.3472  139.9577  142.8721 LP  0  0  0  0  0  0  0  0  0  0  0  0  # atno 17320 bound_to 7965
  145.2004  140.9852  143.4159 LP  0  0  0  0  0  0  0  0  0  0  0  0  # atno 17321 bound_to 7965
  139.5192  144.7017  151.5475 LP  0  0  0  0  0  0  0  0  0  0  0  0  # atno 17342 bound_to 10162
  140.6346  143.9009  150.6636 LP  0  0  0  0  0  0  0  0  0  0  0  0  # atno 17343 bound_to 10162
  157.6976  130.9298  150.0690 LP  0  0  0  0  0  0  0  0  0  0  0  0  # atno 17370 bound_to 10713
  156.1734  130.3647  149.9133 LP  0  0  0  0  0  0  0  0  0  0  0  0  # atno 17371 bound_to 10713
  140.1832  134.9018  157.2974 LP  0  0  0  0  0  0  0  0  0  0  0  0  # atno 17394 bound_to 11000
  140.2371  134.3839  155.7496 LP  0  0  0  0  0  0  0  0  0  0  0  0  # atno 17395 bound_to 11000

$$$$
