AV-unprocessed.smi:1687|AV-procd|sdf|6768|dock8
  -GOLD-   22720 7533D 1   1.00000     0.00000
 Structure written by MMmdl.
 45 46  0  0  0  0  0  0  0  0  2 V2000
  149.7618  138.0503  157.3132 C   0  0  0  0  0  0  0  0  0  0  0  0
  149.9690  137.2783  155.9984 C   0  0  2  0  0  0  0  0  0  0  0  0
  150.6835  138.1186  154.9236 C   0  0  0  0  0  0  0  0  0  0  0  0
  149.7610  139.1873  154.3099 C   0  0  0  0  0  0  0  0  0  0  0  0
  148.5261  138.5691  153.7594 N   0  3  2  0  0  0  0  0  0  0  0  0
  147.7091  139.5060  152.9330 C   0  0  2  0  0  0  0  0  0  0  0  0
  147.4709  140.8643  153.6292 C   0  0  0  0  0  0  0  0  0  0  0  0
  146.4078  138.8146  152.4643 C   0  0  0  0  0  0  0  0  0  0  0  0
  146.6286  137.4384  152.0274 N   0  0  0  0  0  0  0  0  0  0  0  0
  145.6679  136.5727  151.6703 C   0  0  0  0  0  0  0  0  0  0  0  0
  144.4698  136.8574  151.6595 O   0  0  0  0  0  0  0  0  0  0  0  0
  146.1891  135.3821  151.3260 N   0  0  0  0  0  0  0  0  0  0  0  0
  145.5035  134.2167  150.8908 C   0  0  0  0  0  0  0  0  0  0  0  0
  146.2188  133.0081  151.0482 C   0  0  0  0  0  0  0  0  0  0  0  0
  145.6250  131.7949  150.6494 C   0  0  0  0  0  0  0  0  0  0  0  0
  144.3298  131.8219  150.1024 C   0  0  0  0  0  0  0  0  0  0  0  0
  143.6877  133.0678  149.9794 C   0  0  0  0  0  0  0  0  0  0  0  0
  144.2549  134.2318  150.3608 N   0  0  0  0  0  0  0  0  0  0  0  0
  147.7749  137.8161  154.8014 C   0  0  0  0  0  0  0  0  0  0  0  0
  148.6546  136.7168  155.4237 C   0  0  0  0  0  0  0  0  0  0  0  0
  149.1299  138.9280  157.1809 H   0  0  0  0  0  0  0  0  0  0  0  0
  150.7146  138.3899  157.7201 H   0  0  0  0  0  0  0  0  0  0  0  0
  149.2928  137.4178  158.0676 H   0  0  0  0  0  0  0  0  0  0  0  0
  150.6129  136.4307  156.2367 H   0  0  0  0  0  0  0  0  0  0  0  0
  151.5757  138.5871  155.3408 H   0  0  0  0  0  0  0  0  0  0  0  0
  151.0339  137.4572  154.1299 H   0  0  0  0  0  0  0  0  0  0  0  0
  149.5028  139.9407  155.0544 H   0  0  0  0  0  0  0  0  0  0  0  0
  150.3029  139.7039  153.5170 H   0  0  0  0  0  0  0  0  0  0  0  0
  148.2799  139.7105  152.0259 H   0  0  0  0  0  0  0  0  0  0  0  0
  147.0386  141.5901  152.9403 H   0  0  0  0  0  0  0  0  0  0  0  0
  148.4002  141.2979  153.9973 H   0  0  0  0  0  0  0  0  0  0  0  0
  146.7854  140.7722  154.4722 H   0  0  0  0  0  0  0  0  0  0  0  0
  145.6954  138.7831  153.2894 H   0  0  0  0  0  0  0  0  0  0  0  0
  145.9220  139.3858  151.6726 H   0  0  0  0  0  0  0  0  0  0  0  0
  147.5857  137.1177  152.0050 H   0  0  0  0  0  0  0  0  0  0  0  0
  147.1933  135.2980  151.3809 H   0  0  0  0  0  0  0  0  0  0  0  0
  147.2131  133.0050  151.4711 H   0  0  0  0  0  0  0  0  0  0  0  0
  146.1546  130.8605  150.7623 H   0  0  0  0  0  0  0  0  0  0  0  0
  143.8413  130.9122  149.7859 H   0  0  0  0  0  0  0  0  0  0  0  0
  142.6927  133.1321  149.5645 H   0  0  0  0  0  0  0  0  0  0  0  0
  147.4266  138.4951  155.5803 H   0  0  0  0  0  0  0  0  0  0  0  0
  146.8876  137.3540  154.3701 H   0  0  0  0  0  0  0  0  0  0  0  0
  148.8869  135.9747  154.6584 H   0  0  0  0  0  0  0  0  0  0  0  0
  148.0996  136.1865  156.1986 H   0  0  0  0  0  0  0  0  0  0  0  0
  148.8564  137.8733  153.1063 H   0  0  0  0  0  0  0  0  0  0  0  0
  1  2  1  0  0  0  0
  1 21  1  0  0  0  0
  1 22  1  0  0  0  0
  1 23  1  0  0  0  0
  2 20  1  0  0  0  0
  2  3  1  0  0  0  0
  2 24  1  0  0  0  0
  3  4  1  0  0  0  0
  3 25  1  0  0  0  0
  3 26  1  0  0  0  0
  4  5  1  0  0  0  0
  4 27  1  0  0  0  0
  4 28  1  0  0  0  0
  5  6  1  0  0  0  0
  5 19  1  0  0  0  0
  5 45  1  0  0  0  0
  6  7  1  0  0  0  0
  6  8  1  0  0  0  0
  6 29  1  0  0  0  0
  7 30  1  0  0  0  0
  7 31  1  0  0  0  0
  7 32  1  0  0  0  0
  8  9  1  0  0  0  0
  8 33  1  0  0  0  0
  8 34  1  0  0  0  0
  9 10  1  0  0  0  0
  9 35  1  0  0  0  0
 10 11  2  0  0  0  0
 10 12  1  0  0  0  0
 12 13  1  0  0  0  0
 12 36  1  0  0  0  0
 13 18  1  0  0  0  0
 13 14  2  0  0  0  0
 14 15  1  0  0  0  0
 14 37  1  0  0  0  0
 15 16  2  0  0  0  0
 15 38  1  0  0  0  0
 16 17  1  0  0  0  0
 16 39  1  0  0  0  0
 17 18  2  0  0  0  0
 17 40  1  0  0  0  0
 19 20  1  0  0  0  0
 19 41  1  0  0  0  0
 19 42  1  0  0  0  0
 20 43  1  0  0  0  0
 20 44  1  0  0  0  0
M  CHG  1   5   1
M  END
> <s_m_source_file>
AV-unprocessed.smi

> <i_m_source_file_index>
1687

> <i_lp_mmshare_version>
43012

> <i_f3d_flags>
0

> <s_epik_input>
W0NIM11bQ0hdMVtDSDJdW0NIMl1OKFtDSDJdW0NIMl0xKVtDQEhdKFtDSDNdKVtDSDJdW05IXUMoPU8pW05IXWMyW2NIXVtjSF1bY0hdW2NIXW4y

> <s_epik_cmdline>
J2VwaWtfcHl0aG9uJywgJy1waCcsICc3LjAnLCAnLXRuJywgJzgnLCAnLW1hJywgJzIwMCcsICctbWV0YWxfYmluZGluZycsICctaW1hZScsICc8aW5maWxlLm1hZT4nLCAnLW9tYWUnLCAnPG91dGZpbGUubWFlPic=

> <r_epik_Ionization_Penalty>
0.00142891

> <r_epik_Ionization_Penalty_Charging>
0.00139388

> <r_epik_Ionization_Penalty_Neutral>
3.50347e-05

> <r_epik_State_Penalty>
0.000929204

> <r_epik_Charging_Adjusted_Penalty>
0.00232308

> <i_epik_Tot_Q>
1

> <i_epik_Tot_abs_Q>
1

> <r_epik_Metal_State_Penalty>
-0

> <b_epik_Metal_Only>
0

> <s_lp_Force_Field>
OPLS_2005

> <r_lp_Energy>
23.5172

> <b_lp_Chiralities_Consistent>
1

> <s_lp_Variant>
AV-unprocessed.smi:1687-3

> <Gold.Version>
5.8.1

> <Gold.Id.Protein>
6NUR|6NUR_protein|mol2

> <Gold.PLP.Fitness>
45.9903

> <Gold.PLP.PLP>
-31.9086

> <Gold.PLP.part.hbond>
-3.8107

> <Gold.PLP.part.metal>
0.0000

> <Gold.PLP.part.buried>
-1.7524

> <Gold.PLP.part.nonpolar>
-27.4081

> <Gold.PLP.part.repulsive>
0.4813

> <Gold.PLP.ligand.clash>
0.0000

> <Gold.PLP.ligand.torsion>
0.4135

> <Gold.PLP.Chemscore.Hbond>
3.9280

> <Gold.PLP.Chemscore.CHOScore>
1.0000

> <Gold.PLP.Chemscore.Metal>
0.0000

> <Gold.Chemscore.Hbonds>
donor molecule, donor type, donor heavy atom, donor atom, acceptor molecule, acceptor atom, score
      L1  H     5    45       P1  7948  1.95
      L1  H     9    35       P1  7948  1.00
      L1  H    12    36       P1  7948  0.94
      L1  C    17    40       P1 10186  1.00

> <Gold.PLP.Chemscore.Internal.Correction>
0.1247

> <Gold.Rescore>
     Score         DG    S(hbond)    S(metal)    S(lipo)     H(rot)  DE(clash)    DE(int)     intcor
     18.88     -20.36       2.76        0.00      81.21       1.50       0.32       1.16       ----

> <Gold.Chemscore.Fitness>
18.8811

> <Gold.Chemscore.DG>
-20.3616

> <Gold.Chemscore.ZeroCoef>
-5.4800

> <Gold.Chemscore.Hbond>
2.7573

> <Gold.Chemscore.Metal>
0.0000

> <Gold.Chemscore.Lipo>
81.2064

> <Gold.Chemscore.Internal_Hbond>
0.0000

> <Gold.Chemscore.DEClash>
0.3217

> <Gold.Chemscore.DEInternal>
1.1588

> <Gold.Chemscore.Rot>
1.4956

> <Gold.Chemscore.Internal.Correction>
   9.000000E+99

> <Gold.Chemscore.Hbonds>
donor molecule, donor type, donor heavy atom, donor atom, acceptor molecule, acceptor atom, score
      L1  H     5    45       P1  7948  0.91
      L1  H     9    35       P1  7948  0.99
      L1  H    12    36       P1  7948  0.77

> <Gold.Chemscore.Hbond.Weighted>
-9.2093

> <Gold.Chemscore.Metal.Weighted>
-0.0000

> <Gold.Chemscore.Lipo.Weighted>
-9.5011

> <Gold.Chemscore.Internal_Hbond.Weighted>
0.0000

> <Gold.Chemscore.DEClash.Weighted>
0.3217

> <Gold.Chemscore.DEInternal.Weighted>
1.1588

> <Gold.Chemscore.Rot.Weighted>
3.8289

> <Gold.Chemscore.Internal.Correction.Weighted>
   9.000000E+99

> <Gold.Protein.RotatedTorsions>
[ 6907 6896 6895 6894 ] final   79.89 input  -60.11 | X-H torsion
[ 7974 7965 7964 7962 ] final  -89.83 input  175.53 | X-H torsion
[ 8008 7997 7996 7995 ] final  -32.89 input   59.86 | X-H torsion
[ 10167 10162 10161 10158 ] final  -26.60 input  -65.29 | X-H torsion
[ 10718 10713 10712 10709 ] final  134.20 input   66.30 | X-H torsion
[ 10763 10752 10751 10750 ] final -145.62 input  -60.55 | X-H torsion
[ 11005 11000 10999 10996 ] final  151.19 input  -57.11 | X-H torsion

> <Gold.Protein.ActiveResidues>
 VAL166  LYS551  ARG553  GLY616  TRP617  ASP618  TYR619  PRO620  LYS621  CYS622 
 ASP623  PHE694  ASN695  SER759  ASP760  ASP761  ALA762  ILE779  LEU786  VAL792 
 PHE793  MET794  SER795  GLU796  ALA797  LYS798  CYS799  TRP800  GLU811  SER814 

> <Gold.Protein.RotatedAtoms>
  152.5215  134.3442  159.9227 H   0  0  0  0  0  0  0  0  0  0  0  0  # atno 6907 bound_to 6896
  151.3392  133.3963  159.2677 H   0  0  0  0  0  0  0  0  0  0  0  0  # atno 6908 bound_to 6896
  150.9817  134.9189  159.7906 H   0  0  0  0  0  0  0  0  0  0  0  0  # atno 6909 bound_to 6896
  145.4345  140.9557  143.2109 H   0  0  0  0  0  0  0  0  0  0  0  0  # atno 7974 bound_to 7965
  154.4166  140.1725  156.1799 H   0  0  0  0  0  0  0  0  0  0  0  0  # atno 8008 bound_to 7997
  155.9690  140.3387  155.6535 H   0  0  0  0  0  0  0  0  0  0  0  0  # atno 8009 bound_to 7997
  155.6649  140.0705  157.2531 H   0  0  0  0  0  0  0  0  0  0  0  0  # atno 8010 bound_to 7997
  140.7282  143.4165  151.1021 H   0  0  0  0  0  0  0  0  0  0  0  0  # atno 10167 bound_to 10162
  157.4697  131.1079  150.9818 H   0  0  0  0  0  0  0  0  0  0  0  0  # atno 10718 bound_to 10713
  154.8374  135.3408  154.6534 H   0  0  0  0  0  0  0  0  0  0  0  0  # atno 10763 bound_to 10752
  153.7147  135.6962  153.5032 H   0  0  0  0  0  0  0  0  0  0  0  0  # atno 10764 bound_to 10752
  153.2425  135.4380  155.0667 H   0  0  0  0  0  0  0  0  0  0  0  0  # atno 10765 bound_to 10752
  140.1197  134.8871  157.2055 H   0  0  0  0  0  0  0  0  0  0  0  0  # atno 11005 bound_to 11000
  144.8161  139.5874  143.7008 LP  0  0  0  0  0  0  0  0  0  0  0  0  # atno 17320 bound_to 7965
  146.2589  139.6365  142.9375 LP  0  0  0  0  0  0  0  0  0  0  0  0  # atno 17321 bound_to 7965
  139.7805  143.8362  152.3136 LP  0  0  0  0  0  0  0  0  0  0  0  0  # atno 17342 bound_to 10162
  139.8312  144.7253  150.9448 LP  0  0  0  0  0  0  0  0  0  0  0  0  # atno 17343 bound_to 10162
  157.0588  130.5817  149.5382 LP  0  0  0  0  0  0  0  0  0  0  0  0  # atno 17370 bound_to 10713
  156.0067  130.5155  150.7854 LP  0  0  0  0  0  0  0  0  0  0  0  0  # atno 17371 bound_to 10713
  140.2981  134.3163  155.7297 LP  0  0  0  0  0  0  0  0  0  0  0  0  # atno 17394 bound_to 11000
  141.2149  133.7575  156.9601 LP  0  0  0  0  0  0  0  0  0  0  0  0  # atno 17395 bound_to 11000

$$$$
