AV-unprocessed.smi:2693|AV-procd|sdf|10404|dock8
  -GOLD-   2272014433D 1   1.00000     0.00000
 Structure written by MMmdl.
 45 47  0  0  0  0  0  0  0  0  1 V2000
  150.6117  128.2756  154.5725 C   0  0  0  0  0  0  0  0  0  0  0  0
  149.5568  129.0163  153.8868 N   0  0  0  0  0  0  0  0  0  0  0  0
  148.5642  128.2454  153.1433 C   0  0  0  0  0  0  0  0  0  0  0  0
  149.4924  130.4114  153.9489 C   0  0  0  0  0  0  0  0  0  0  0  0
  150.3287  131.0302  154.7926 N   0  0  0  0  0  0  0  0  0  0  0  0
  150.2725  132.3773  154.8606 C   0  0  0  0  0  0  0  0  0  0  0  0
  149.3618  133.1230  154.0746 C   0  0  0  0  0  0  0  0  0  0  0  0
  149.2537  134.5392  154.0709 N   0  0  0  0  0  0  0  0  0  0  0  0
  149.4199  135.3893  155.0981 C   0  0  0  0  0  0  0  0  0  0  0  0
  149.6655  135.0643  156.2592 O   0  0  0  0  0  0  0  0  0  0  0  0
  149.2562  136.6594  154.7064 N   0  0  0  0  0  0  0  0  0  0  0  0
  149.3400  137.8210  155.5980 C   0  0  1  0  0  0  0  0  0  0  0  0
  150.7715  138.3363  155.7628 C   0  0  1  0  0  0  0  0  0  0  0  0
  152.1334  137.7928  155.5235 C   0  0  0  0  0  0  0  0  0  0  0  0
  152.7481  139.0795  154.9086 C   0  0  0  0  0  0  0  0  0  0  0  0
  151.6367  139.9834  154.6783 O   0  0  0  0  0  0  0  0  0  0  0  0
  150.5305  139.1232  154.4911 C   0  0  2  0  0  0  0  0  0  0  0  0
  149.0488  139.2185  154.9196 C   0  0  0  0  0  0  0  0  0  0  0  0
  148.0316  139.2387  153.7729 C   0  0  0  0  0  0  0  0  0  0  0  0
  148.6592  140.3849  155.8455 C   0  0  0  0  0  0  0  0  0  0  0  0
  148.5378  132.3713  153.2137 C   0  0  0  0  0  0  0  0  0  0  0  0
  148.6027  131.0243  153.1567 N   0  0  0  0  0  0  0  0  0  0  0  0
  150.5089  128.3838  155.6526 H   0  0  0  0  0  0  0  0  0  0  0  0
  151.5939  128.6481  154.2803 H   0  0  0  0  0  0  0  0  0  0  0  0
  150.5802  127.2118  154.3371 H   0  0  0  0  0  0  0  0  0  0  0  0
  147.5570  128.4931  153.4801 H   0  0  0  0  0  0  0  0  0  0  0  0
  148.7007  127.1719  153.2749 H   0  0  0  0  0  0  0  0  0  0  0  0
  148.6347  128.4651  152.0775 H   0  0  0  0  0  0  0  0  0  0  0  0
  150.9779  132.8378  155.5342 H   0  0  0  0  0  0  0  0  0  0  0  0
  148.9741  134.9508  153.1926 H   0  0  0  0  0  0  0  0  0  0  0  0
  149.0510  136.8403  153.7349 H   0  0  0  0  0  0  0  0  0  0  0  0
  148.8281  137.6872  156.5525 H   0  0  0  0  0  0  0  0  0  0  0  0
  150.8045  138.9699  156.6527 H   0  0  0  0  0  0  0  0  0  0  0  0
  152.6356  137.4832  156.4405 H   0  0  0  0  0  0  0  0  0  0  0  0
  152.1293  136.9624  154.8163 H   0  0  0  0  0  0  0  0  0  0  0  0
  153.4668  139.5488  155.5806 H   0  0  0  0  0  0  0  0  0  0  0  0
  153.2574  138.8554  153.9705 H   0  0  0  0  0  0  0  0  0  0  0  0
  150.6554  138.5387  153.5738 H   0  0  0  0  0  0  0  0  0  0  0  0
  147.9760  140.2207  153.3020 H   0  0  0  0  0  0  0  0  0  0  0  0
  147.0313  138.9841  154.1246 H   0  0  0  0  0  0  0  0  0  0  0  0
  148.2872  138.5289  152.9860 H   0  0  0  0  0  0  0  0  0  0  0  0
  148.7576  141.3434  155.3347 H   0  0  0  0  0  0  0  0  0  0  0  0
  149.2665  140.4476  156.7466 H   0  0  0  0  0  0  0  0  0  0  0  0
  147.6236  140.2975  156.1758 H   0  0  0  0  0  0  0  0  0  0  0  0
  147.8176  132.8507  152.5670 H   0  0  0  0  0  0  0  0  0  0  0  0
  1  2  1  0  0  0  0
  1 23  1  0  0  0  0
  1 24  1  0  0  0  0
  1 25  1  0  0  0  0
  2  3  1  0  0  0  0
  2  4  1  0  0  0  0
  3 26  1  0  0  0  0
  3 27  1  0  0  0  0
  3 28  1  0  0  0  0
  4 22  1  0  0  0  0
  4  5  2  0  0  0  0
  5  6  1  0  0  0  0
  6  7  2  0  0  0  0
  6 29  1  0  0  0  0
  7  8  1  0  0  0  0
  7 21  1  0  0  0  0
  8  9  1  0  0  0  0
  8 30  1  0  0  0  0
  9 10  2  0  0  0  0
  9 11  1  0  0  0  0
 11 12  1  0  0  0  0
 11 31  1  0  0  0  0
 12 18  1  0  0  0  0
 12 13  1  0  0  0  0
 12 32  1  0  0  0  0
 13 17  1  0  0  0  0
 13 14  1  0  0  0  0
 13 33  1  0  0  0  0
 14 15  1  0  0  0  0
 14 34  1  0  0  0  0
 14 35  1  0  0  0  0
 15 16  1  0  0  0  0
 15 36  1  0  0  0  0
 15 37  1  0  0  0  0
 16 17  1  0  0  0  0
 17 18  1  0  0  0  0
 17 38  1  0  0  0  0
 18 19  1  0  0  0  0
 18 20  1  0  0  0  0
 19 39  1  0  0  0  0
 19 40  1  0  0  0  0
 19 41  1  0  0  0  0
 20 42  1  0  0  0  0
 20 43  1  0  0  0  0
 20 44  1  0  0  0  0
 21 22  2  0  0  0  0
 21 45  1  0  0  0  0
M  END
> <s_m_source_file>
AV-unprocessed.smi

> <i_m_source_file_index>
2693

> <i_lp_mmshare_version>
43012

> <i_f3d_flags>
0

> <s_epik_input>
W0NIM11OKFtDSDNdKWMxbltjSF1jKFtjSF1uMSlbTkhdQyg9TylbTkhdW0NASF0yQyhbQ0gzXSkoW0NIM10pW0NAQEhdKFtDQEhdMjMpT1tDSDJdW0NIMl0z

> <s_epik_cmdline>
J2VwaWtfcHl0aG9uJywgJy1waCcsICc3LjAnLCAnLXRuJywgJzgnLCAnLW1hJywgJzIwMCcsICctbWV0YWxfYmluZGluZycsICctaW1hZScsICc8aW5maWxlLm1hZT4nLCAnLW9tYWUnLCAnPG91dGZpbGUubWFlPic=

> <r_lp_tautomer_probability>
1

> <r_epik_Ionization_Penalty>
0.00031779

> <r_epik_Ionization_Penalty_Charging>
0

> <r_epik_Ionization_Penalty_Neutral>
0.00031779

> <r_epik_State_Penalty>
-0

> <r_epik_Charging_Adjusted_Penalty>
0

> <i_epik_Tot_Q>
0

> <i_epik_Tot_abs_Q>
0

> <r_epik_Metal_State_Penalty>
-0

> <b_epik_Metal_Only>
0

> <s_lp_Force_Field>
OPLS_2005

> <r_lp_Energy>
57.3202

> <b_lp_Chiralities_Consistent>
1

> <s_lp_Variant>
AV-unprocessed.smi:2693-8

> <Gold.Version>
5.8.1

> <Gold.Id.Protein>
6NUR|6NUR_protein|mol2

> <Gold.PLP.Fitness>
41.2090

> <Gold.PLP.PLP>
-32.8460

> <Gold.PLP.part.hbond>
-2.8164

> <Gold.PLP.part.metal>
0.0000

> <Gold.PLP.part.buried>
-3.8996

> <Gold.PLP.part.nonpolar>
-26.9732

> <Gold.PLP.part.repulsive>
1.2719

> <Gold.PLP.ligand.clash>
0.0000

> <Gold.PLP.ligand.torsion>
0.4496

> <Gold.PLP.Chemscore.Hbond>
3.0000

> <Gold.PLP.Chemscore.CHOScore>
0.0000

> <Gold.PLP.Chemscore.Metal>
0.0000

> <Gold.Chemscore.Hbonds>
donor molecule, donor type, donor heavy atom, donor atom, acceptor molecule, acceptor atom, score
      L1  H     8    30       P1  7948  0.90
      L1  H    11    31       P1  7948  0.99
      P1  H  7989  7998       L1    16  0.84

> <Gold.PLP.Chemscore.Internal.Correction>
0.2622

> <Gold.Rescore>
     Score         DG    S(hbond)    S(metal)    S(lipo)     H(rot)  DE(clash)    DE(int)     intcor
     17.55     -18.05       2.18        0.00      67.12       1.00       0.00       0.50       ----

> <Gold.Chemscore.Fitness>
17.5470

> <Gold.Chemscore.DG>
-18.0475

> <Gold.Chemscore.ZeroCoef>
-5.4800

> <Gold.Chemscore.Hbond>
2.1778

> <Gold.Chemscore.Metal>
0.0000

> <Gold.Chemscore.Lipo>
67.1238

> <Gold.Chemscore.Internal_Hbond>
0.0000

> <Gold.Chemscore.DEClash>
0.0009

> <Gold.Chemscore.DEInternal>
0.4996

> <Gold.Chemscore.Rot>
1.0000

> <Gold.Chemscore.Internal.Correction>
   9.000000E+99

> <Gold.Chemscore.Hbonds>
donor molecule, donor type, donor heavy atom, donor atom, acceptor molecule, acceptor atom, score
      L1  H     8    30       P1  7948  0.18
      L1  H    11    31       P1  7948  0.93
      P1  H  7989  7998       L1    16  0.43

> <Gold.Chemscore.Hbond.Weighted>
-7.2740

> <Gold.Chemscore.Metal.Weighted>
-0.0000

> <Gold.Chemscore.Lipo.Weighted>
-7.8535

> <Gold.Chemscore.Internal_Hbond.Weighted>
0.0000

> <Gold.Chemscore.DEClash.Weighted>
0.0009

> <Gold.Chemscore.DEInternal.Weighted>
0.4996

> <Gold.Chemscore.Rot.Weighted>
2.5600

> <Gold.Chemscore.Internal.Correction.Weighted>
   9.000000E+99

> <Gold.Protein.RotatedTorsions>
[ 6907 6896 6895 6894 ] final  134.25 input  -60.11 | X-H torsion
[ 7974 7965 7964 7962 ] final -142.67 input  175.53 | X-H torsion
[ 8008 7997 7996 7995 ] final  -68.06 input   59.86 | X-H torsion
[ 10167 10162 10161 10158 ] final  102.88 input  -65.29 | X-H torsion
[ 10718 10713 10712 10709 ] final   37.15 input   66.30 | X-H torsion
[ 10763 10752 10751 10750 ] final  108.56 input  -60.55 | X-H torsion
[ 11005 11000 10999 10996 ] final   55.20 input  -57.11 | X-H torsion

> <Gold.Protein.ActiveResidues>
 VAL166  LYS551  ARG553  GLY616  TRP617  ASP618  TYR619  PRO620  LYS621  CYS622 
 ASP623  PHE694  ASN695  SER759  ASP760  ASP761  ALA762  ILE779  LEU786  VAL792 
 PHE793  MET794  SER795  GLU796  ALA797  LYS798  CYS799  TRP800  GLU811  SER814 

> <Gold.Protein.RotatedAtoms>
  152.3133  133.5775  159.5694 H   0  0  0  0  0  0  0  0  0  0  0  0  # atno 6907 bound_to 6896
  150.7333  134.0120  159.3682 H   0  0  0  0  0  0  0  0  0  0  0  0  # atno 6908 bound_to 6896
  151.8011  135.0709  160.0451 H   0  0  0  0  0  0  0  0  0  0  0  0  # atno 6909 bound_to 6896
  144.8426  140.5929  143.5442 H   0  0  0  0  0  0  0  0  0  0  0  0  # atno 7974 bound_to 7965
  154.4842  140.0880  156.7447 H   0  0  0  0  0  0  0  0  0  0  0  0  # atno 8008 bound_to 7997
  155.4393  140.3453  155.4270 H   0  0  0  0  0  0  0  0  0  0  0  0  # atno 8009 bound_to 7997
  156.1236  140.1481  156.9156 H   0  0  0  0  0  0  0  0  0  0  0  0  # atno 8010 bound_to 7997
  139.7311  144.7035  151.0720 H   0  0  0  0  0  0  0  0  0  0  0  0  # atno 10167 bound_to 10162
  157.3434  130.7560  149.6928 H   0  0  0  0  0  0  0  0  0  0  0  0  # atno 10718 bound_to 10713
  153.4224  135.3808  155.2119 H   0  0  0  0  0  0  0  0  0  0  0  0  # atno 10763 bound_to 10752
  154.8745  135.3820  154.4367 H   0  0  0  0  0  0  0  0  0  0  0  0  # atno 10764 bound_to 10752
  153.4889  135.7088  153.5958 H   0  0  0  0  0  0  0  0  0  0  0  0  # atno 10765 bound_to 10752
  140.0626  134.5582  155.9135 H   0  0  0  0  0  0  0  0  0  0  0  0  # atno 11005 bound_to 11000
  145.4662  139.1508  143.3839 LP  0  0  0  0  0  0  0  0  0  0  0  0  # atno 17320 bound_to 7965
  146.2716  140.4794  142.8812 LP  0  0  0  0  0  0  0  0  0  0  0  0  # atno 17321 bound_to 7965
  140.7771  143.5042  150.9733 LP  0  0  0  0  0  0  0  0  0  0  0  0  # atno 17342 bound_to 10162
  139.8730  143.7168  152.3164 LP  0  0  0  0  0  0  0  0  0  0  0  0  # atno 17343 bound_to 10162
  155.9711  130.4161  150.4214 LP  0  0  0  0  0  0  0  0  0  0  0  0  # atno 17370 bound_to 10713
  157.2265  131.0494  151.2516 LP  0  0  0  0  0  0  0  0  0  0  0  0  # atno 17371 bound_to 10713
  141.1979  133.6599  156.5766 LP  0  0  0  0  0  0  0  0  0  0  0  0  # atno 17394 bound_to 11000
  140.3748  134.7575  157.4622 LP  0  0  0  0  0  0  0  0  0  0  0  0  # atno 17395 bound_to 11000

$$$$
