AV-unprocessed.smi:2299|AV-procd|sdf|9231|dock4
  -GOLD-   2272012453D 1   1.00000     0.00000
 Structure written by MMmdl.
 42 43  0  0  0  0  0  0  0  0  1 V2000
  152.6241  141.0382  159.8612 C   0  0  0  0  0  0  0  0  0  0  0  0
  153.0600  142.4083  160.4002 C   0  0  0  0  0  0  0  0  0  0  0  0
  153.4032  142.3559  161.8961 C   0  0  0  0  0  0  0  0  0  0  0  0
  152.0343  143.4692  160.1026 C   0  0  0  0  0  0  0  0  0  0  0  0
  151.5718  144.3083  161.0267 N   0  0  0  0  0  0  0  0  0  0  0  0
  150.6418  145.1004  160.3656 C   0  0  0  0  0  0  0  0  0  0  0  0
  150.5673  144.7095  159.0519 C   0  0  0  0  0  0  0  0  0  0  0  0
  151.4628  143.6586  158.8916 N   0  0  0  0  0  0  0  0  0  0  0  0
  151.6852  142.9391  157.6458 C   0  0  0  0  0  0  0  0  0  0  0  0
  150.3942  142.2829  157.1529 C   0  0  0  0  0  0  0  0  0  0  0  0
  149.3490  142.4294  157.7863 O   0  0  0  0  0  0  0  0  0  0  0  0
  150.4832  141.5556  156.0287 N   0  0  0  0  0  0  0  0  0  0  0  0
  149.3990  140.7868  155.4177 C   0  0  1  0  0  0  0  0  0  0  0  0
  148.5676  141.6870  154.4770 C   0  0  0  0  0  0  0  0  0  0  0  0
  147.1394  141.1753  154.2274 C   0  0  0  0  0  0  0  0  0  0  0  0
  147.0546  139.8126  153.5233 C   0  0  0  0  0  0  0  0  0  0  0  0
  147.6242  138.6491  154.3537 C   0  0  0  0  0  0  0  0  0  0  0  0
  149.0798  138.5866  154.3052 N   0  0  0  0  0  0  0  0  0  0  0  0
  149.9452  139.5094  154.7520 C   0  0  0  0  0  0  0  0  0  0  0  0
  151.1582  139.3423  154.6259 O   0  0  0  0  0  0  0  0  0  0  0  0
  152.4514  141.0792  158.7853 H   0  0  0  0  0  0  0  0  0  0  0  0
  151.7026  140.6979  160.3347 H   0  0  0  0  0  0  0  0  0  0  0  0
  153.3894  140.2828  160.0419 H   0  0  0  0  0  0  0  0  0  0  0  0
  153.9865  142.6601  159.8890 H   0  0  0  0  0  0  0  0  0  0  0  0
  153.7692  143.3212  162.2473 H   0  0  0  0  0  0  0  0  0  0  0  0
  154.1797  141.6169  162.0948 H   0  0  0  0  0  0  0  0  0  0  0  0
  152.5321  142.0911  162.4963 H   0  0  0  0  0  0  0  0  0  0  0  0
  150.1013  145.8801  160.8816 H   0  0  0  0  0  0  0  0  0  0  0  0
  149.9607  145.0784  158.2380 H   0  0  0  0  0  0  0  0  0  0  0  0
  152.0353  143.6436  156.8904 H   0  0  0  0  0  0  0  0  0  0  0  0
  152.4834  142.2080  157.7778 H   0  0  0  0  0  0  0  0  0  0  0  0
  151.3845  141.4906  155.5777 H   0  0  0  0  0  0  0  0  0  0  0  0
  148.7546  140.4515  156.2326 H   0  0  0  0  0  0  0  0  0  0  0  0
  148.4823  142.6855  154.9082 H   0  0  0  0  0  0  0  0  0  0  0  0
  149.0891  141.8207  153.5281 H   0  0  0  0  0  0  0  0  0  0  0  0
  146.5996  141.1297  155.1740 H   0  0  0  0  0  0  0  0  0  0  0  0
  146.6110  141.9114  153.6207 H   0  0  0  0  0  0  0  0  0  0  0  0
  146.0031  139.6052  153.3213 H   0  0  0  0  0  0  0  0  0  0  0  0
  147.5418  139.8579  152.5483 H   0  0  0  0  0  0  0  0  0  0  0  0
  147.2786  138.6953  155.3874 H   0  0  0  0  0  0  0  0  0  0  0  0
  147.2523  137.7072  153.9499 H   0  0  0  0  0  0  0  0  0  0  0  0
  149.4737  137.7610  153.8773 H   0  0  0  0  0  0  0  0  0  0  0  0
  1  2  1  0  0  0  0
  1 21  1  0  0  0  0
  1 22  1  0  0  0  0
  1 23  1  0  0  0  0
  2  3  1  0  0  0  0
  2  4  1  0  0  0  0
  2 24  1  0  0  0  0
  3 25  1  0  0  0  0
  3 26  1  0  0  0  0
  3 27  1  0  0  0  0
  4  8  1  0  0  0  0
  4  5  2  0  0  0  0
  5  6  1  0  0  0  0
  6  7  2  0  0  0  0
  6 28  1  0  0  0  0
  7  8  1  0  0  0  0
  7 29  1  0  0  0  0
  8  9  1  0  0  0  0
  9 10  1  0  0  0  0
  9 30  1  0  0  0  0
  9 31  1  0  0  0  0
 10 11  2  0  0  0  0
 10 12  1  0  0  0  0
 12 13  1  0  0  0  0
 12 32  1  0  0  0  0
 13 19  1  0  0  0  0
 13 14  1  0  0  0  0
 13 33  1  0  0  0  0
 14 15  1  0  0  0  0
 14 34  1  0  0  0  0
 14 35  1  0  0  0  0
 15 16  1  0  0  0  0
 15 36  1  0  0  0  0
 15 37  1  0  0  0  0
 16 17  1  0  0  0  0
 16 38  1  0  0  0  0
 16 39  1  0  0  0  0
 17 18  1  0  0  0  0
 17 40  1  0  0  0  0
 17 41  1  0  0  0  0
 18 19  1  0  0  0  0
 18 42  1  0  0  0  0
 19 20  2  0  0  0  0
M  END
> <s_m_source_file>
AV-unprocessed.smi

> <i_m_source_file_index>
2299

> <i_lp_mmshare_version>
43012

> <i_f3d_flags>
0

> <s_epik_input>
W0NIM11bQ0hdKFtDSDNdKWMxbltjSF1bY0hdbjFbQ0gyXUMoPU8pW05IXVtDQEBIXTJbQ0gyXVtDSDJdW0NIMl1bQ0gyXVtOSF1DMj1P

> <s_epik_cmdline>
J2VwaWtfcHl0aG9uJywgJy1waCcsICc3LjAnLCAnLXRuJywgJzgnLCAnLW1hJywgJzIwMCcsICctbWV0YWxfYmluZGluZycsICctaW1hZScsICc8aW5maWxlLm1hZT4nLCAnLW9tYWUnLCAnPG91dGZpbGUubWFlPic=

> <r_lp_tautomer_probability>
1

> <r_epik_Ionization_Penalty>
0.557868

> <r_epik_Ionization_Penalty_Charging>
0.557868

> <r_epik_Ionization_Penalty_Neutral>
1.99744e-07

> <r_epik_State_Penalty>
0.568774

> <r_epik_Charging_Adjusted_Penalty>
1.12664

> <i_epik_Tot_Q>
0

> <i_epik_Tot_abs_Q>
0

> <r_epik_Metal_State_Penalty>
0.289303

> <b_epik_Metal_Only>
0

> <s_lp_Force_Field>
OPLS_2005

> <r_lp_Energy>
10.2382

> <b_lp_Chiralities_Consistent>
1

> <s_lp_Variant>
AV-unprocessed.smi:2299-4

> <Gold.Version>
5.8.1

> <Gold.Id.Protein>
6NUR|6NUR_protein|mol2

> <Gold.PLP.Fitness>
46.5016

> <Gold.PLP.PLP>
-41.2426

> <Gold.PLP.part.hbond>
-1.1132

> <Gold.PLP.part.metal>
0.0000

> <Gold.PLP.part.buried>
-6.2062

> <Gold.PLP.part.nonpolar>
-35.2224

> <Gold.PLP.part.repulsive>
0.5820

> <Gold.PLP.ligand.clash>
0.0000

> <Gold.PLP.ligand.torsion>
0.5111

> <Gold.PLP.Chemscore.Hbond>
1.0000

> <Gold.PLP.Chemscore.CHOScore>
1.0697

> <Gold.PLP.Chemscore.Metal>
0.0000

> <Gold.Chemscore.Hbonds>
donor molecule, donor type, donor heavy atom, donor atom, acceptor molecule, acceptor atom, score
      P1  H  7989  7998       L1    20  1.00
      L1  C     7    29       P1  8028  0.08
      L1  C     7    29       P1  8029  0.99

> <Gold.PLP.Chemscore.Internal.Correction>
0.0721

> <Gold.Rescore>
     Score         DG    S(hbond)    S(metal)    S(lipo)     H(rot)  DE(clash)    DE(int)     intcor
     14.88     -16.56       1.67        0.00      84.29       1.70       0.11       1.58       ----

> <Gold.Chemscore.Fitness>
14.8755

> <Gold.Chemscore.DG>
-16.5633

> <Gold.Chemscore.ZeroCoef>
-5.4800

> <Gold.Chemscore.Hbond>
1.6690

> <Gold.Chemscore.Metal>
0.0000

> <Gold.Chemscore.Lipo>
84.2886

> <Gold.Chemscore.Internal_Hbond>
0.0000

> <Gold.Chemscore.DEClash>
0.1112

> <Gold.Chemscore.DEInternal>
1.5765

> <Gold.Chemscore.Rot>
1.7004

> <Gold.Chemscore.Internal.Correction>
   9.000000E+99

> <Gold.Chemscore.Hbonds>
donor molecule, donor type, donor heavy atom, donor atom, acceptor molecule, acceptor atom, score
      P1  H  7989  7998       L1    20  0.34

> <Gold.Chemscore.Hbond.Weighted>
-5.5745

> <Gold.Chemscore.Metal.Weighted>
-0.0000

> <Gold.Chemscore.Lipo.Weighted>
-9.8618

> <Gold.Chemscore.Internal_Hbond.Weighted>
0.0000

> <Gold.Chemscore.DEClash.Weighted>
0.1112

> <Gold.Chemscore.DEInternal.Weighted>
1.5765

> <Gold.Chemscore.Rot.Weighted>
4.3530

> <Gold.Chemscore.Internal.Correction.Weighted>
   9.000000E+99

> <Gold.Protein.RotatedTorsions>
[ 6907 6896 6895 6894 ] final  -79.52 input  -60.11 | X-H torsion
[ 7974 7965 7964 7962 ] final  174.28 input  175.53 | X-H torsion
[ 8008 7997 7996 7995 ] final  -46.91 input   59.86 | X-H torsion
[ 10167 10162 10161 10158 ] final  -13.76 input  -65.29 | X-H torsion
[ 10718 10713 10712 10709 ] final  115.83 input   66.30 | X-H torsion
[ 10763 10752 10751 10750 ] final  154.73 input  -60.55 | X-H torsion
[ 11005 11000 10999 10996 ] final  -79.19 input  -57.11 | X-H torsion

> <Gold.Protein.ActiveResidues>
 VAL166  LYS551  ARG553  GLY616  TRP617  ASP618  TYR619  PRO620  LYS621  CYS622 
 ASP623  PHE694  ASN695  SER759  ASP760  ASP761  ALA762  ILE779  LEU786  VAL792 
 PHE793  MET794  SER795  GLU796  ALA797  LYS798  CYS799  TRP800  GLU811  SER814 

> <Gold.Protein.RotatedAtoms>
  150.6948  134.4108  159.5160 H   0  0  0  0  0  0  0  0  0  0  0  0  # atno 6907 bound_to 6896
  152.1867  134.8705  160.0530 H   0  0  0  0  0  0  0  0  0  0  0  0  # atno 6908 bound_to 6896
  151.9675  133.3680  159.4095 H   0  0  0  0  0  0  0  0  0  0  0  0  # atno 6909 bound_to 6896
  144.7225  139.9774  143.6438 H   0  0  0  0  0  0  0  0  0  0  0  0  # atno 7974 bound_to 7965
  154.4011  140.1360  156.4088 H   0  0  0  0  0  0  0  0  0  0  0  0  # atno 8008 bound_to 7997
  155.7753  140.3483  155.5248 H   0  0  0  0  0  0  0  0  0  0  0  0  # atno 8009 bound_to 7997
  155.8726  140.0974  157.1530 H   0  0  0  0  0  0  0  0  0  0  0  0  # atno 8010 bound_to 7997
  140.7188  143.5392  150.9429 H   0  0  0  0  0  0  0  0  0  0  0  0  # atno 10167 bound_to 10162
  157.6198  131.1017  150.7386 H   0  0  0  0  0  0  0  0  0  0  0  0  # atno 10718 bound_to 10713
  154.1569  135.2812  155.3119 H   0  0  0  0  0  0  0  0  0  0  0  0  # atno 10763 bound_to 10752
  154.6175  135.5478  153.7543 H   0  0  0  0  0  0  0  0  0  0  0  0  # atno 10764 bound_to 10752
  153.0204  135.6431  154.1712 H   0  0  0  0  0  0  0  0  0  0  0  0  # atno 10765 bound_to 10752
  141.1667  133.7095  156.8085 H   0  0  0  0  0  0  0  0  0  0  0  0  # atno 11005 bound_to 11000
  146.0515  139.3515  143.0637 LP  0  0  0  0  0  0  0  0  0  0  0  0  # atno 17320 bound_to 7965
  145.8209  140.9679  143.0899 LP  0  0  0  0  0  0  0  0  0  0  0  0  # atno 17321 bound_to 7965
  139.9114  143.6715  152.3114 LP  0  0  0  0  0  0  0  0  0  0  0  0  # atno 17342 bound_to 10162
  139.7100  144.7622  151.1128 LP  0  0  0  0  0  0  0  0  0  0  0  0  # atno 17343 bound_to 10162
  156.7746  130.4840  149.5412 LP  0  0  0  0  0  0  0  0  0  0  0  0  # atno 17370 bound_to 10713
  156.1337  130.6196  151.0370 LP  0  0  0  0  0  0  0  0  0  0  0  0  # atno 17371 bound_to 10713
  140.2205  134.8761  157.3371 LP  0  0  0  0  0  0  0  0  0  0  0  0  # atno 17394 bound_to 11000
  140.1993  134.4274  155.7671 LP  0  0  0  0  0  0  0  0  0  0  0  0  # atno 17395 bound_to 11000

$$$$
