AV-unprocessed.smi:1748|AV-procd|sdf|7043|dock4
  -GOLD-   22720 8263D 1   1.00000     0.00000
 Structure written by MMmdl.
 39 40  0  0  0  0  0  0  0  0  3 V2000
  147.0361  138.8063  152.9473 C   0  0  0  0  0  0  0  0  0  0  0  0
  148.1229  138.0450  153.5998 N   0  3  2  0  0  0  0  0  0  0  0  0
  147.6075  137.0262  154.5483 C   0  0  0  0  0  0  0  0  0  0  0  0
  148.7524  136.1685  155.1121 C   0  0  0  0  0  0  0  0  0  0  0  0
  149.8267  137.0453  155.7709 C   0  0  0  0  0  0  0  0  0  0  0  0
  150.3221  138.1110  154.7797 C   0  0  2  0  0  0  0  0  0  0  0  0
  151.2969  138.9819  155.4298 N   0  0  0  0  0  0  0  0  0  0  0  0
  151.1334  139.5651  156.6262 C   0  0  0  0  0  0  0  0  0  0  0  0
  150.1234  139.4148  157.3136 O   0  0  0  0  0  0  0  0  0  0  0  0
  152.2144  140.2936  156.9582 N   0  0  0  0  0  0  0  0  0  0  0  0
  152.4390  141.0800  158.1009 C   0  0  0  0  0  0  0  0  0  0  0  0
  151.9174  142.3219  158.3020 C   0  0  0  0  0  0  0  0  0  0  0  0
  152.2013  143.1004  159.5017 C   0  0  0  0  0  0  0  0  0  0  0  0
  151.6441  144.4851  159.7766 C   0  0  0  0  0  0  0  0  0  0  0  0
  152.0360  145.3356  158.8285 F   0  0  0  0  0  0  0  0  0  0  0  0
  150.3117  144.4542  159.7766 F   0  0  0  0  0  0  0  0  0  0  0  0
  152.0545  144.9509  160.9561 F   0  0  0  0  0  0  0  0  0  0  0  0
  153.0496  142.4406  160.3681 C   0  0  0  0  0  0  0  0  0  0  0  0
  153.6150  141.2201  160.2411 N   0  5  0  0  0  0  0  0  0  0  0  0
  153.3395  140.4981  159.1181 C   0  0  0  0  0  0  0  0  0  0  0  0
  153.8216  139.3793  158.9366 O   0  0  0  0  0  0  0  0  0  0  0  0
  149.1347  138.9298  154.2294 C   0  0  0  0  0  0  0  0  0  0  0  0
  146.4685  139.3831  153.6789 H   0  0  0  0  0  0  0  0  0  0  0  0
  146.3485  138.1333  152.4341 H   0  0  0  0  0  0  0  0  0  0  0  0
  147.4402  139.4961  152.2058 H   0  0  0  0  0  0  0  0  0  0  0  0
  147.0728  137.5207  155.3610 H   0  0  0  0  0  0  0  0  0  0  0  0
  146.8880  136.3832  154.0399 H   0  0  0  0  0  0  0  0  0  0  0  0
  148.3605  135.4531  155.8359 H   0  0  0  0  0  0  0  0  0  0  0  0
  149.2001  135.5817  154.3087 H   0  0  0  0  0  0  0  0  0  0  0  0
  149.4126  137.5238  156.6597 H   0  0  0  0  0  0  0  0  0  0  0  0
  150.6578  136.4246  156.1082 H   0  0  0  0  0  0  0  0  0  0  0  0
  150.8120  137.5978  153.9494 H   0  0  0  0  0  0  0  0  0  0  0  0
  152.1578  139.1572  154.9321 H   0  0  0  0  0  0  0  0  0  0  0  0
  152.9996  140.2519  156.3248 H   0  0  0  0  0  0  0  0  0  0  0  0
  151.2872  142.7805  157.5581 H   0  0  0  0  0  0  0  0  0  0  0  0
  153.3134  142.9775  161.3045 H   0  0  0  0  0  0  0  0  0  0  0  0
  149.4904  139.6468  153.4882 H   0  0  0  0  0  0  0  0  0  0  0  0
  148.6666  139.5071  155.0289 H   0  0  0  0  0  0  0  0  0  0  0  0
  148.6005  137.5417  152.8655 H   0  0  0  0  0  0  0  0  0  0  0  0
  1  2  1  0  0  0  0
  1 23  1  0  0  0  0
  1 24  1  0  0  0  0
  1 25  1  0  0  0  0
  2 22  1  0  0  0  0
  2  3  1  0  0  0  0
  2 39  1  0  0  0  0
  3  4  1  0  0  0  0
  3 26  1  0  0  0  0
  3 27  1  0  0  0  0
  4  5  1  0  0  0  0
  4 28  1  0  0  0  0
  4 29  1  0  0  0  0
  5  6  1  0  0  0  0
  5 30  1  0  0  0  0
  5 31  1  0  0  0  0
  6  7  1  0  0  0  0
  6 22  1  0  0  0  0
  6 32  1  0  0  0  0
  7  8  1  0  0  0  0
  7 33  1  0  0  0  0
  8  9  2  0  0  0  0
  8 10  1  0  0  0  0
 10 11  1  0  0  0  0
 10 34  1  0  0  0  0
 11 20  1  0  0  0  0
 11 12  2  0  0  0  0
 12 13  1  0  0  0  0
 12 35  1  0  0  0  0
 13 14  1  0  0  0  0
 13 18  2  0  0  0  0
 14 15  1  0  0  0  0
 14 16  1  0  0  0  0
 14 17  1  0  0  0  0
 18 19  1  0  0  0  0
 18 36  1  0  0  0  0
 19 20  1  0  0  0  0
 20 21  2  0  0  0  0
 22 37  1  0  0  0  0
 22 38  1  0  0  0  0
M  CHG  1   2   1
M  CHG  1  19  -1
M  END
> <s_m_source_file>
AV-unprocessed.smi

> <i_m_source_file_index>
1748

> <i_lp_mmshare_version>
43012

> <i_f3d_flags>
0

> <s_epik_input>
W0NIM11OMVtDSDJdW0NIMl1bQ0gyXVtDQEhdKFtDSDJdMSlbTkhdQyg9TylbTkhdYzJbY0hdYyhDKEYpKEYpRilbY0hdW25IXWMyPU8=

> <s_epik_cmdline>
J2VwaWtfcHl0aG9uJywgJy1waCcsICc3LjAnLCAnLXRuJywgJzgnLCAnLW1hJywgJzIwMCcsICctbWV0YWxfYmluZGluZycsICctaW1hZScsICc8aW5maWxlLm1hZT4nLCAnLW9tYWUnLCAnPG91dGZpbGUubWFlPic=

> <r_lp_tautomer_probability>
1

> <r_epik_Ionization_Penalty>
3.00907

> <r_epik_Ionization_Penalty_Charging>
0.148702

> <r_epik_Ionization_Penalty_Neutral>
2.86036

> <r_epik_State_Penalty>
2.85557

> <r_epik_Charging_Adjusted_Penalty>
3.00428

> <i_epik_Tot_Q>
0

> <i_epik_Tot_abs_Q>
2

> <r_epik_Metal_State_Penalty>
0.443779

> <b_epik_Metal_Only>
1

> <s_lp_Force_Field>
OPLS_2005

> <r_lp_Energy>
26.5131

> <b_lp_Chiralities_Consistent>
1

> <s_lp_Variant>
AV-unprocessed.smi:1748-8

> <Gold.Version>
5.8.1

> <Gold.Id.Protein>
6NUR|6NUR_protein|mol2

> <Gold.PLP.Fitness>
42.8092

> <Gold.PLP.PLP>
-36.2736

> <Gold.PLP.part.hbond>
-2.0000

> <Gold.PLP.part.metal>
0.0000

> <Gold.PLP.part.buried>
-4.1910

> <Gold.PLP.part.nonpolar>
-29.9772

> <Gold.PLP.part.repulsive>
0.2988

> <Gold.PLP.ligand.clash>
0.0000

> <Gold.PLP.ligand.torsion>
0.8596

> <Gold.PLP.Chemscore.Hbond>
2.7500

> <Gold.PLP.Chemscore.CHOScore>
0.0000

> <Gold.PLP.Chemscore.Metal>
0.0000

> <Gold.Chemscore.Hbonds>
donor molecule, donor type, donor heavy atom, donor atom, acceptor molecule, acceptor atom, score
      L1  H     2    39       P1  7948  2.00
      P1  H  7997  8008       L1    21  0.54

> <Gold.PLP.Chemscore.Internal.Correction>
0.0048

> <Gold.Rescore>
     Score         DG    S(hbond)    S(metal)    S(lipo)     H(rot)  DE(clash)    DE(int)     intcor
     15.15     -17.23       1.71        0.00      73.59       1.00       0.15       1.93       ----

> <Gold.Chemscore.Fitness>
15.1468

> <Gold.Chemscore.DG>
-17.2275

> <Gold.Chemscore.ZeroCoef>
-5.4800

> <Gold.Chemscore.Hbond>
1.7057

> <Gold.Chemscore.Metal>
0.0000

> <Gold.Chemscore.Lipo>
73.5927

> <Gold.Chemscore.Internal_Hbond>
0.0000

> <Gold.Chemscore.DEClash>
0.1507

> <Gold.Chemscore.DEInternal>
1.9300

> <Gold.Chemscore.Rot>
1.0000

> <Gold.Chemscore.Internal.Correction>
   9.000000E+99

> <Gold.Chemscore.Hbonds>
donor molecule, donor type, donor heavy atom, donor atom, acceptor molecule, acceptor atom, score
      L1  H     2    39       P1  7948  0.99
      P1  H  7997  8008       L1    21  0.05

> <Gold.Chemscore.Hbond.Weighted>
-5.6971

> <Gold.Chemscore.Metal.Weighted>
-0.0000

> <Gold.Chemscore.Lipo.Weighted>
-8.6103

> <Gold.Chemscore.Internal_Hbond.Weighted>
0.0000

> <Gold.Chemscore.DEClash.Weighted>
0.1507

> <Gold.Chemscore.DEInternal.Weighted>
1.9300

> <Gold.Chemscore.Rot.Weighted>
2.5600

> <Gold.Chemscore.Internal.Correction.Weighted>
   9.000000E+99

> <Gold.Protein.RotatedTorsions>
[ 6907 6896 6895 6894 ] final -166.15 input  -60.11 | X-H torsion
[ 7974 7965 7964 7962 ] final   -8.86 input  175.53 | X-H torsion
[ 8008 7997 7996 7995 ] final -109.90 input   59.86 | X-H torsion
[ 10167 10162 10161 10158 ] final  -98.35 input  -65.29 | X-H torsion
[ 10718 10713 10712 10709 ] final  123.90 input   66.30 | X-H torsion
[ 10763 10752 10751 10750 ] final  -65.27 input  -60.55 | X-H torsion
[ 11005 11000 10999 10996 ] final -162.51 input  -57.11 | X-H torsion

> <Gold.Protein.ActiveResidues>
 VAL166  LYS551  ARG553  GLY616  TRP617  ASP618  TYR619  PRO620  LYS621  CYS622 
 ASP623  PHE694  ASN695  SER759  ASP760  ASP761  ALA762  ILE779  LEU786  VAL792 
 PHE793  MET794  SER795  GLU796  ALA797  LYS798  CYS799  TRP800  GLU811  SER814 

> <Gold.Protein.RotatedAtoms>
  151.4390  133.3648  159.2778 H   0  0  0  0  0  0  0  0  0  0  0  0  # atno 6907 bound_to 6896
  150.9171  134.8590  159.7475 H   0  0  0  0  0  0  0  0  0  0  0  0  # atno 6908 bound_to 6896
  152.4962  134.4325  159.9569 H   0  0  0  0  0  0  0  0  0  0  0  0  # atno 6909 bound_to 6896
  146.2268  140.2530  142.8348 H   0  0  0  0  0  0  0  0  0  0  0  0  # atno 7974 bound_to 7965
  154.9664  140.0398  157.2214 H   0  0  0  0  0  0  0  0  0  0  0  0  # atno 8008 bound_to 7997
  154.7842  140.2824  155.6018 H   0  0  0  0  0  0  0  0  0  0  0  0  # atno 8009 bound_to 7997
  156.2940  140.2586  156.2674 H   0  0  0  0  0  0  0  0  0  0  0  0  # atno 8010 bound_to 7997
  140.2739  143.3326  152.0508 H   0  0  0  0  0  0  0  0  0  0  0  0  # atno 10167 bound_to 10162
  157.5628  131.1088  150.8508 H   0  0  0  0  0  0  0  0  0  0  0  0  # atno 10718 bound_to 10713
  154.3425  135.6154  153.5603 H   0  0  0  0  0  0  0  0  0  0  0  0  # atno 10763 bound_to 10752
  152.9803  135.5773  154.4837 H   0  0  0  0  0  0  0  0  0  0  0  0  # atno 10764 bound_to 10752
  154.4543  135.2854  155.1736 H   0  0  0  0  0  0  0  0  0  0  0  0  # atno 10765 bound_to 10752
  140.6085  134.4874  157.5213 H   0  0  0  0  0  0  0  0  0  0  0  0  # atno 11005 bound_to 11000
  144.9397  140.8065  143.5638 LP  0  0  0  0  0  0  0  0  0  0  0  0  # atno 17320 bound_to 7965
  145.2481  139.2043  143.4957 LP  0  0  0  0  0  0  0  0  0  0  0  0  # atno 17321 bound_to 7965
  139.4981  144.6638  151.6404 LP  0  0  0  0  0  0  0  0  0  0  0  0  # atno 17342 bound_to 10162
  140.5867  143.9851  150.6300 LP  0  0  0  0  0  0  0  0  0  0  0  0  # atno 17343 bound_to 10162
  156.9001  130.5244  149.5283 LP  0  0  0  0  0  0  0  0  0  0  0  0  # atno 17370 bound_to 10713
  156.0679  130.5718  150.9324 LP  0  0  0  0  0  0  0  0  0  0  0  0  # atno 17371 bound_to 10713
  139.9202  134.8164  156.1235 LP  0  0  0  0  0  0  0  0  0  0  0  0  # atno 17394 bound_to 11000
  141.0824  133.6748  156.2365 LP  0  0  0  0  0  0  0  0  0  0  0  0  # atno 17395 bound_to 11000

$$$$
