#       Name:                AV-unprocessed.smi:2310
#       Creating user name   scv26
#       Creation time:       Fri Mar 27 12:47:48 2020


#       File generated by GOLD software.
#

@<TRIPOS>MOLECULE
AV-unprocessed.smi:2310
    50    51     1
SMALL
NO_CHARGES


@<TRIPOS>ATOM
      1 ****        -4.5281  -1.8451  -2.2668 C.3            1 S1                 0.0000
      2 ****        -4.8913  -2.5881  -0.9730 C.3            1 S1                 0.0000
      3 ****        -4.4352  -1.8653   0.3084 C.3            1 S1                 0.0000
      4 ****        -4.9384  -2.5905   1.5661 C.3            1 S1                 0.0000
      5 ****        -4.6537  -1.8606   2.8120 C.1            1 S1                 0.0000
      6 ****        -4.4290  -1.2872   3.7912 N.1            1 S1                 0.0000
      7 ****        -2.9750  -1.7715   0.3480 N.am           1 S1                 0.0000
      8 ****        -2.2587  -0.6390   0.2865 C.2            1 S1                 0.0000
      9 ****        -2.7598   0.4788   0.1681 O.2            1 S1                 0.0000
     10 ****        -0.9407  -0.8961   0.3483 N.am           1 S1                 0.0000
     11 ****         0.1442   0.0250   0.3119 C.ar           1 S1                 0.0000
     12 ****         0.0235   1.3665   0.7489 C.ar           1 S1                 0.0000
     13 ****         1.1484   2.2101   0.7026 C.ar           1 S1                 0.0000
     14 ****         2.3693   1.6892   0.2330 C.ar           1 S1                 0.0000
     15 ****         3.4920   2.5297   0.1893 N.3            1 S1                 0.0000
     16 ****         4.6262   2.0980   0.9897 C.3            1 S1                 0.0000
     17 ****         5.8143   2.9234   0.4901 C.3            1 S1                 0.0000
     18 ****         5.4193   3.3637  -0.9249 C.3            1 S1                 0.0000
     19 ****         4.0182   2.7849  -1.1414 C.3            1 S1                 0.0000
     20 ****         2.5001   0.4049  -0.1731 N.ar           1 S1                 0.0000
     21 ****         1.4208  -0.4070  -0.1314 C.ar           1 S1                 0.0000
     22 ****         1.6931  -1.8253  -0.6075 C.3            1 S1                 0.0000
     23 ****        -4.9203  -2.3706  -3.1377 H              1 S1                 0.0000
     24 ****        -3.4485  -1.7605  -2.3927 H              1 S1                 0.0000
     25 ****        -4.9456  -0.8379  -2.2711 H              1 S1                 0.0000
     26 ****        -5.9738  -2.7176  -0.9413 H              1 S1                 0.0000
     27 ****        -4.4681  -3.5930  -1.0016 H              1 S1                 0.0000
     28 ****        -4.8818  -0.8694   0.3065 H              1 S1                 0.0000
     29 ****        -6.0187  -2.7280   1.5146 H              1 S1                 0.0000
     30 ****        -4.4926  -3.5825   1.6446 H              1 S1                 0.0000
     31 ****        -2.4705  -2.6415   0.4356 H              1 S1                 0.0000
     32 ****        -0.6787  -1.8709   0.3505 H              1 S1                 0.0000
     33 ****        -0.9041   1.7613   1.1331 H              1 S1                 0.0000
     34 ****         1.0734   3.2369   1.0297 H              1 S1                 0.0000
     35 ****         4.4421   2.2612   2.0519 H              1 S1                 0.0000
     36 ****         4.8213   1.0350   0.8403 H              1 S1                 0.0000
     37 ****         5.9594   3.7992   1.1238 H              1 S1                 0.0000
     38 ****         6.7393   2.3462   0.5038 H              1 S1                 0.0000
     39 ****         5.3943   4.4526  -0.9818 H              1 S1                 0.0000
     40 ****         6.1199   3.0077  -1.6807 H              1 S1                 0.0000
     41 ****         4.0800   1.8580  -1.7135 H              1 S1                 0.0000
     42 ****         3.3787   3.4768  -1.6904 H              1 S1                 0.0000
     43 ****         0.8064  -2.4574  -0.6214 H              1 S1                 0.0000
     44 ****         2.4301  -2.2996   0.0409 H              1 S1                 0.0000
     45 ****         2.0982  -1.8062  -1.6199 H              1 S1                 0.0000
     46 ****        -4.2347  -0.7915   4.6377 LP             1 S1                 0.0000
     47 ****        -3.7533   0.5780   0.1123 LP             1 S1                 0.0000
     48 ****        -2.1735   1.2879   0.1277 LP             1 S1                 0.0000
     49 ****         3.0963   3.3630   0.5754 LP             1 S1                 0.0000
     50 ****         3.3813   0.0623  -0.4988 LP             1 S1                 0.0000
@<TRIPOS>BOND
    1    1    2 1     
    2    1   23 1     
    3    1   24 1     
    4    1   25 1     
    5    2    3 1     
    6    2   26 1     
    7    2   27 1     
    8    3    4 1     
    9    3    7 1     
   10    3   28 1     
   11    4    5 1     
   12    4   29 1     
   13    4   30 1     
   14    5    6 3     
   15    7    8 am    
   16    7   31 1     
   17    8    9 2     
   18    8   10 am    
   19   10   11 1     
   20   10   32 1     
   21   11   21 ar    
   22   11   12 ar    
   23   12   13 ar    
   24   12   33 1     
   25   13   14 ar    
   26   13   34 1     
   27   14   15 1     
   28   14   20 ar    
   29   15   19 1     
   30   15   16 1     
   31   16   17 1     
   32   16   35 1     
   33   16   36 1     
   34   17   18 1     
   35   17   37 1     
   36   17   38 1     
   37   18   19 1     
   38   18   39 1     
   39   18   40 1     
   40   19   41 1     
   41   19   42 1     
   42   20   21 ar    
   43   21   22 1     
   44   22   43 1     
   45   22   44 1     
   46   22   45 1     
   47    6   46 1     
   48    9   47 1     
   49    9   48 1     
   50   15   49 1     
   51   20   50 1     
@<TRIPOS>SUBSTRUCTURE
      1 S1             1
@<TRIPOS>SET
LONE_PAIRS      STATIC     ATOMS    <user>   **** ""
5 46 47 48 49 50
DONOR_HYDROGENS      STATIC     ATOMS    <user>   **** ""
2 31 32
ATOM$BLUE        STATIC     ATOMS    COLORGROUP SYSTEM
5 46 47 48 49 50
ATOM$RED        STATIC     ATOMS    COLORGROUP SYSTEM
2 31 32
