#       Name:                AV-unprocessed.smi:2960
#       Creating user name   scv26
#       Creation time:       Fri Mar 27 16:21:22 2020


#       File generated by GOLD software.
#

@<TRIPOS>MOLECULE
AV-unprocessed.smi:2960
    53    55     1
SMALL
NO_CHARGES


@<TRIPOS>ATOM
      1 ****        -1.4223   6.2473  -0.9005 C.3            1 S1                 0.0000
      2 ****        -2.0031   4.8374  -0.9047 C.2            1 S1                 0.0000
      3 ****        -3.1939   4.6595  -1.1600 O.2            1 S1                 0.0000
      4 ****        -1.1495   3.8425  -0.6202 N.am           1 S1                 0.0000
      5 ****        -1.5035   2.4294  -0.5600 C.3            1 S1                 0.0000
      6 ****        -1.6034   1.8065  -1.9623 C.3            1 S1                 0.0000
      7 ****        -1.9685   0.3584  -1.8957 C.2            1 S1                 0.0000
      8 ****        -3.2355  -0.1407  -1.9614 N.pl3          1 S1                 1.0000
      9 ****        -3.2034  -1.5316  -1.8558 C.ar           1 S1                 0.0000
     10 ****        -4.2292  -2.4718  -1.8722 C.ar           1 S1                 0.0000
     11 ****        -3.8503  -3.8240  -1.7396 C.ar           1 S1                 0.0000
     12 ****        -2.4979  -4.1974  -1.5972 C.ar           1 S1                 0.0000
     13 ****        -1.4669  -3.2348  -1.5817 C.ar           1 S1                 0.0000
     14 ****        -1.8503  -1.9004  -1.7136 C.ar           1 S1                 0.0000
     15 ****        -1.1250  -0.7038  -1.7374 N.pl3          1 S1                 0.0000
     16 ****         0.3372  -0.7578  -1.5987 C.3            1 S1                 0.0000
     17 ****         0.7740  -0.9183  -0.1364 C.3            1 S1                 0.0000
     18 ****         2.1928  -0.9533  -0.0905 O.3            1 S1                 0.0000
     19 ****         2.8018  -1.0649   1.1413 C.ar           1 S1                 0.0000
     20 ****         4.2112  -1.1021   1.1581 C.ar           1 S1                 0.0000
     21 ****         4.9158  -1.2111   2.3722 C.ar           1 S1                 0.0000
     22 ****         4.2156  -1.2846   3.5919 C.ar           1 S1                 0.0000
     23 ****         4.9785  -1.3991   4.8956 C.3            1 S1                 0.0000
     24 ****         2.8069  -1.2501   3.5878 C.ar           1 S1                 0.0000
     25 ****         2.1028  -1.1419   2.3727 C.ar           1 S1                 0.0000
     26 ****        -0.6102   6.3276  -1.6241 H              1 S1                 0.0000
     27 ****        -1.0313   6.4951   0.0868 H              1 S1                 0.0000
     28 ****        -2.1851   6.9824  -1.1607 H              1 S1                 0.0000
     29 ****        -0.1889   4.0830  -0.4207 H              1 S1                 0.0000
     30 ****        -0.7380   1.9186   0.0227 H              1 S1                 0.0000
     31 ****        -2.4422   2.3046  -0.0171 H              1 S1                 0.0000
     32 ****        -2.3573   2.3264  -2.5546 H              1 S1                 0.0000
     33 ****        -0.6608   1.9191  -2.4981 H              1 S1                 0.0000
     34 ****        -5.2658  -2.1885  -1.9807 H              1 S1                 0.0000
     35 ****        -4.6120  -4.5902  -1.7473 H              1 S1                 0.0000
     36 ****        -2.2456  -5.2432  -1.4974 H              1 S1                 0.0000
     37 ****        -0.4339  -3.5303  -1.4710 H              1 S1                 0.0000
     38 ****         0.7158  -1.5754  -2.2131 H              1 S1                 0.0000
     39 ****         0.7535   0.1592  -2.0151 H              1 S1                 0.0000
     40 ****         0.3978  -0.0824   0.4542 H              1 S1                 0.0000
     41 ****         0.3644  -1.8396   0.2803 H              1 S1                 0.0000
     42 ****         4.7590  -1.0458   0.2288 H              1 S1                 0.0000
     43 ****         5.9958  -1.2374   2.3646 H              1 S1                 0.0000
     44 ****         4.3033  -1.4260   5.7515 H              1 S1                 0.0000
     45 ****         5.6481  -0.5474   5.0175 H              1 S1                 0.0000
     46 ****         5.5766  -2.3108   4.9048 H              1 S1                 0.0000
     47 ****         2.2588  -1.3059   4.5170 H              1 S1                 0.0000
     48 ****         1.0246  -1.1188   2.4140 H              1 S1                 0.0000
     49 ****        -4.0619   0.4331  -2.0717 H              1 S1                 0.0000
     50 ****        -3.7833   5.4407  -1.3655 LP             1 S1                 0.0000
     51 ****        -3.5719   3.7337  -1.1620 LP             1 S1                 0.0000
     52 ****         2.5241  -0.1080  -0.5097 LP             1 S1                 0.0000
     53 ****         2.4881  -1.7354  -0.6393 LP             1 S1                 0.0000
@<TRIPOS>BOND
    1    1    2 1     
    2    1   26 1     
    3    1   27 1     
    4    1   28 1     
    5    2    3 2     
    6    2    4 am    
    7    4    5 1     
    8    4   29 1     
    9    5    6 1     
   10    5   30 1     
   11    5   31 1     
   12    6    7 1     
   13    6   32 1     
   14    6   33 1     
   15    7   15 1     
   16    7    8 2     
   17    8    9 1     
   18    8   49 1     
   19    9   14 ar    
   20    9   10 ar    
   21   10   11 ar    
   22   10   34 1     
   23   11   12 ar    
   24   11   35 1     
   25   12   13 ar    
   26   12   36 1     
   27   13   14 ar    
   28   13   37 1     
   29   14   15 1     
   30   15   16 1     
   31   16   17 1     
   32   16   38 1     
   33   16   39 1     
   34   17   18 1     
   35   17   40 1     
   36   17   41 1     
   37   18   19 1     
   38   19   25 ar    
   39   19   20 ar    
   40   20   21 ar    
   41   20   42 1     
   42   21   22 ar    
   43   21   43 1     
   44   22   23 1     
   45   22   24 ar    
   46   23   44 1     
   47   23   45 1     
   48   23   46 1     
   49   24   25 ar    
   50   24   47 1     
   51   25   48 1     
   52    3   50 1     
   53    3   51 1     
   54   18   52 1     
   55   18   53 1     
@<TRIPOS>SUBSTRUCTURE
      1 S1             1
@<TRIPOS>SET
LONE_PAIRS      STATIC     ATOMS    <user>   **** ""
4 50 51 52 53
DONOR_HYDROGENS      STATIC     ATOMS    <user>   **** ""
2 29 49
ATOM$BLUE        STATIC     ATOMS    COLORGROUP SYSTEM
4 50 51 52 53
ATOM$RED        STATIC     ATOMS    COLORGROUP SYSTEM
2 29 49
