AV-unprocessed.smi:69|AV-procd|sdf|644|dock10
  -GOLD-   2262016543D 1   1.00000     0.00000
 Structure written by MMmdl.
 32 34  0  0  0  0  0  0  0  0  1 V2000
  147.5021  140.0901  152.7120 N   0  0  0  0  0  0  0  0  0  0  0  0
  146.8578  138.9707  153.0691 C   0  0  0  0  0  0  0  0  0  0  0  0
  146.6071  138.7622  154.3834 N   0  0  0  0  0  0  0  0  0  0  0  0
  145.9667  137.6514  154.7642 C   0  0  0  0  0  0  0  0  0  0  0  0
  145.5055  136.6504  154.0083 N   0  0  0  0  0  0  0  0  0  0  0  0
  145.7592  136.8669  152.6845 C   0  0  0  0  0  0  0  0  0  0  0  0
  146.4277  137.9947  152.1352 C   0  0  0  0  0  0  0  0  0  0  0  0
  146.5071  137.8696  150.7546 N   0  0  0  0  0  0  0  0  0  0  0  0
  145.9192  136.7290  150.5073 C   0  0  0  0  0  0  0  0  0  0  0  0
  145.4422  136.0586  151.6152 N   0  0  0  0  0  0  0  0  0  0  0  0
  144.7236  134.7448  151.6978 C   0  0  1  0  0  0  0  0  0  0  0  0
  144.0438  134.5389  150.4952 O   0  0  0  0  0  0  0  0  0  0  0  0
  144.7527  133.5987  149.6951 C   0  0  2  0  0  0  0  0  0  0  0  0
  143.8037  132.9738  148.6617 C   0  0  0  0  0  0  0  0  0  0  0  0
  143.5171  133.9108  147.6457 O   0  0  0  0  0  0  0  0  0  0  0  0
  145.2432  132.6177  150.7596 C   0  0  1  0  0  0  0  0  0  0  0  0
  146.2675  131.7591  150.2930 O   0  0  0  0  0  0  0  0  0  0  0  0
  145.6891  133.5487  151.8848 C   0  0  1  0  0  0  0  0  0  0  0  0
  147.0628  133.8958  151.7819 O   0  0  0  0  0  0  0  0  0  0  0  0
  144.0099  134.8688  152.5133 H   0  0  0  0  0  0  0  0  0  0  0  0
  145.6060  134.0790  149.2120 H   0  0  0  0  0  0  0  0  0  0  0  0
  144.4059  132.0113  151.1086 H   0  0  0  0  0  0  0  0  0  0  0  0
  145.5214  133.0956  152.8625 H   0  0  0  0  0  0  0  0  0  0  0  0
  147.6998  140.2648  151.7371 H   0  0  0  0  0  0  0  0  0  0  0  0
  147.7866  140.7555  153.4162 H   0  0  0  0  0  0  0  0  0  0  0  0
  145.8004  137.5502  155.8266 H   0  0  0  0  0  0  0  0  0  0  0  0
  145.8192  136.3488  149.5012 H   0  0  0  0  0  0  0  0  0  0  0  0
  144.2765  132.1126  148.1885 H   0  0  0  0  0  0  0  0  0  0  0  0
  142.8822  132.6231  149.1275 H   0  0  0  0  0  0  0  0  0  0  0  0
  144.2489  134.5036  147.5686 H   0  0  0  0  0  0  0  0  0  0  0  0
  147.1015  132.1748  150.4498 H   0  0  0  0  0  0  0  0  0  0  0  0
  147.5358  133.1466  151.4526 H   0  0  0  0  0  0  0  0  0  0  0  0
  1  2  1  0  0  0  0
  1 24  1  0  0  0  0
  1 25  1  0  0  0  0
  2  7  1  0  0  0  0
  2  3  2  0  0  0  0
  3  4  1  0  0  0  0
  4  5  2  0  0  0  0
  4 26  1  0  0  0  0
  5  6  1  0  0  0  0
  6 10  1  0  0  0  0
  6  7  2  0  0  0  0
  7  8  1  0  0  0  0
  8  9  2  0  0  0  0
  9 10  1  0  0  0  0
  9 27  1  0  0  0  0
 10 11  1  0  0  0  0
 11 20  1  0  0  0  0
 11 18  1  0  0  0  0
 11 12  1  0  0  0  0
 12 13  1  0  0  0  0
 13 21  1  0  0  0  0
 13 14  1  0  0  0  0
 13 16  1  0  0  0  0
 14 15  1  0  0  0  0
 14 28  1  0  0  0  0
 14 29  1  0  0  0  0
 15 30  1  0  0  0  0
 16 22  1  0  0  0  0
 16 17  1  0  0  0  0
 16 18  1  0  0  0  0
 17 31  1  0  0  0  0
 18 23  1  0  0  0  0
 18 19  1  0  0  0  0
 19 32  1  0  0  0  0
M  END
> <s_m_source_file>
AV-unprocessed.smi

> <i_m_source_file_index>
69

> <i_lp_mmshare_version>
43012

> <i_f3d_flags>
0

> <s_epik_input>
bjFbY0hdbmMoW05IMl0pYyhjMTIpbltjSF1uMltDQEBIXTNPW0NASF0oW0NIMl1bT0hdKVtDQEBIXShbT0hdKVtDQEhdM1tPSF0=

> <s_epik_cmdline>
J2VwaWtfcHl0aG9uJywgJy1waCcsICc3LjAnLCAnLXRuJywgJzgnLCAnLW1hJywgJzIwMCcsICctbWV0YWxfYmluZGluZycsICctaW1hZScsICc8aW5maWxlLm1hZT4nLCAnLW9tYWUnLCAnPG91dGZpbGUubWFlPic=

> <r_lp_tautomer_probability>
1

> <r_epik_Ionization_Penalty>
0.000428445

> <r_epik_Ionization_Penalty_Charging>
0

> <r_epik_Ionization_Penalty_Neutral>
0.000428445

> <r_epik_State_Penalty>
-0

> <r_epik_Charging_Adjusted_Penalty>
0

> <i_epik_Tot_Q>
0

> <i_epik_Tot_abs_Q>
0

> <r_epik_Metal_State_Penalty>
-0

> <b_epik_Metal_Only>
0

> <s_epik_Chemistry_Notes>
This compound contains an acetal/aminal-like group ( X-CH(R)-Y where X, Y are N, S, or O) that may be acid/base labile, releasing an aldehyde.

> <s_lp_Force_Field>
OPLS_2005

> <r_lp_Energy>
41.389

> <b_lp_Chiralities_Consistent>
1

> <s_lp_Variant>
AV-unprocessed.smi:69-2

> <Gold.Version>
5.8.1

> <Gold.Id.Protein>
6NUR|6NUR_protein|mol2

> <Gold.PLP.Fitness>
41.0299

> <Gold.PLP.PLP>
-29.1113

> <Gold.PLP.part.hbond>
-7.7283

> <Gold.PLP.part.metal>
0.0000

> <Gold.PLP.part.buried>
-0.4415

> <Gold.PLP.part.nonpolar>
-23.6210

> <Gold.PLP.part.repulsive>
2.6218

> <Gold.PLP.ligand.clash>
0.0000

> <Gold.PLP.ligand.torsion>
0.7972

> <Gold.PLP.Chemscore.Hbond>
3.4827

> <Gold.PLP.Chemscore.CHOScore>
1.0000

> <Gold.PLP.Chemscore.Metal>
0.0000

> <Gold.Chemscore.Hbonds>
donor molecule, donor type, donor heavy atom, donor atom, acceptor molecule, acceptor atom, score
      L1  H     1    24       P1  7957  0.37
      L1  H    15    30       P1  7921  1.00
      L1  H    17    31       P1 10747  0.11
      P1  H  7954  7966       L1     8  1.00
      P1  H 10192 10197       L1    15  1.00
      L1  C     9    27       P1  7921  1.00

> <Gold.PLP.Chemscore.Internal.Correction>
0.0649

> <Gold.Rescore>
     Score         DG    S(hbond)    S(metal)    S(lipo)     H(rot)  DE(clash)    DE(int)     intcor
      8.16     -12.49       3.67        0.00      43.22       4.03       3.49       0.85       ----

> <Gold.Chemscore.Fitness>
8.1551

> <Gold.Chemscore.DG>
-12.4890

> <Gold.Chemscore.ZeroCoef>
-5.4800

> <Gold.Chemscore.Hbond>
3.6715

> <Gold.Chemscore.Metal>
0.0000

> <Gold.Chemscore.Lipo>
43.2240

> <Gold.Chemscore.Internal_Hbond>
0.0000

> <Gold.Chemscore.DEClash>
3.4884

> <Gold.Chemscore.DEInternal>
0.8456

> <Gold.Chemscore.Rot>
4.0277

> <Gold.Chemscore.Internal.Correction>
   9.000000E+99

> <Gold.Chemscore.Hbonds>
donor molecule, donor type, donor heavy atom, donor atom, acceptor molecule, acceptor atom, score
      L1  H     1    24       P1  7957  0.35
      L1  H    15    30       P1  7921  0.94
      L1  H    17    31       P1 10747  0.12
      P1  H  7954  7966       L1     8  0.63
      P1  H 10192 10197       L1    15  0.24

> <Gold.Chemscore.Hbond.Weighted>
-12.2628

> <Gold.Chemscore.Metal.Weighted>
-0.0000

> <Gold.Chemscore.Lipo.Weighted>
-5.0572

> <Gold.Chemscore.Internal_Hbond.Weighted>
0.0000

> <Gold.Chemscore.DEClash.Weighted>
3.4884

> <Gold.Chemscore.DEInternal.Weighted>
0.8456

> <Gold.Chemscore.Rot.Weighted>
10.3110

> <Gold.Chemscore.Internal.Correction.Weighted>
   9.000000E+99

> <Gold.Protein.RotatedTorsions>
[ 6907 6896 6895 6894 ] final -158.87 input  -60.11 | X-H torsion
[ 7974 7965 7964 7962 ] final  121.08 input  175.53 | X-H torsion
[ 8008 7997 7996 7995 ] final  -33.96 input   59.86 | X-H torsion
[ 10167 10162 10161 10158 ] final    9.30 input  -65.29 | X-H torsion
[ 10718 10713 10712 10709 ] final   44.68 input   66.30 | X-H torsion
[ 10763 10752 10751 10750 ] final -174.57 input  -60.55 | X-H torsion
[ 11005 11000 10999 10996 ] final    9.47 input  -57.11 | X-H torsion

> <Gold.Protein.ActiveResidues>
 VAL166  LYS551  ARG553  GLY616  TRP617  ASP618  TYR619  PRO620  LYS621  CYS622 
 ASP623  PHE694  ASN695  SER759  ASP760  ASP761  ALA762  ILE779  LEU786  VAL792 
 PHE793  MET794  SER795  GLU796  ALA797  LYS798  CYS799  TRP800  GLU811  SER814 

> <Gold.Protein.RotatedAtoms>
  151.3248  133.4025  159.2657 H   0  0  0  0  0  0  0  0  0  0  0  0  # atno 6907 bound_to 6896
  151.0004  134.9318  159.7961 H   0  0  0  0  0  0  0  0  0  0  0  0  # atno 6908 bound_to 6896
  152.5273  134.3213  159.9202 H   0  0  0  0  0  0  0  0  0  0  0  0  # atno 6909 bound_to 6896
  145.1236  139.3373  143.4701 H   0  0  0  0  0  0  0  0  0  0  0  0  # atno 7974 bound_to 7965
  154.4134  140.1697  156.1972 H   0  0  0  0  0  0  0  0  0  0  0  0  # atno 8008 bound_to 7997
  155.9554  140.3397  155.6420 H   0  0  0  0  0  0  0  0  0  0  0  0  # atno 8009 bound_to 7997
  155.6816  140.0723  157.2473 H   0  0  0  0  0  0  0  0  0  0  0  0  # atno 8010 bound_to 7997
  140.6263  143.8094  150.7237 H   0  0  0  0  0  0  0  0  0  0  0  0  # atno 10167 bound_to 10162
  157.4294  130.8016  149.7589 H   0  0  0  0  0  0  0  0  0  0  0  0  # atno 10718 bound_to 10713
  154.5947  135.2848  155.0598 H   0  0  0  0  0  0  0  0  0  0  0  0  # atno 10763 bound_to 10752
  154.1886  135.6444  153.5057 H   0  0  0  0  0  0  0  0  0  0  0  0  # atno 10764 bound_to 10752
  153.0134  135.5441  154.6645 H   0  0  0  0  0  0  0  0  0  0  0  0  # atno 10765 bound_to 10752
  140.5254  134.0519  155.7857 H   0  0  0  0  0  0  0  0  0  0  0  0  # atno 11005 bound_to 11000
  146.3519  140.1205  142.8600 LP  0  0  0  0  0  0  0  0  0  0  0  0  # atno 17320 bound_to 7965
  145.0713  140.9157  143.4880 LP  0  0  0  0  0  0  0  0  0  0  0  0  # atno 17321 bound_to 7965
  140.1695  143.4206  152.2011 LP  0  0  0  0  0  0  0  0  0  0  0  0  # atno 17342 bound_to 10162
  139.5483  144.7317  151.4514 LP  0  0  0  0  0  0  0  0  0  0  0  0  # atno 17343 bound_to 10162
  155.9908  130.3942  150.3013 LP  0  0  0  0  0  0  0  0  0  0  0  0  # atno 17370 bound_to 10713
  157.1168  131.0236  151.3025 LP  0  0  0  0  0  0  0  0  0  0  0  0  # atno 17371 bound_to 10713
  141.1311  133.9300  157.2533 LP  0  0  0  0  0  0  0  0  0  0  0  0  # atno 17394 bound_to 11000
  139.9583  135.0160  156.9190 LP  0  0  0  0  0  0  0  0  0  0  0  0  # atno 17395 bound_to 11000

$$$$
