AV-unprocessed.smi:1787|AV-procd|sdf|7208|dock6
  -GOLD-   22720 8453D 1   1.00000     0.00000
 Structure written by MMmdl.
 45 47  0  0  0  0  0  0  0  0  2 V2000
  144.6975  137.0972  152.5242 O   0  0  0  0  0  0  0  0  0  0  0  0
  145.8889  136.8229  152.3903 C   0  0  0  0  0  0  0  0  0  0  0  0
  146.8813  137.5908  152.8612 N   0  0  0  0  0  0  0  0  0  0  0  0
  146.7157  138.8462  153.5940 C   0  0  0  0  0  0  0  0  0  0  0  0
  148.0220  139.3357  154.3000 C   0  0  1  0  0  0  0  0  0  0  0  0
  149.0595  138.2403  154.2293 N   0  3  0  0  0  0  0  0  0  0  0  0
  150.4665  138.7265  154.2974 C   0  0  0  0  0  0  0  0  0  0  0  0
  151.4552  137.5848  154.0197 C   0  0  0  0  0  0  0  0  0  0  0  0
  151.2520  136.5523  154.9722 O   0  0  0  0  0  0  0  0  0  0  0  0
  149.9504  135.9953  154.8654 C   0  0  0  0  0  0  0  0  0  0  0  0
  148.8830  137.0711  155.1363 C   0  0  0  0  0  0  0  0  0  0  0  0
  148.5057  140.6551  153.6510 C   0  0  0  0  0  0  0  0  0  0  0  0
  147.5448  141.7842  154.0516 C   0  0  0  0  0  0  0  0  0  0  0  0
  146.8478  141.3799  155.6729 S   0  0  0  0  0  0  0  0  0  0  0  0
  147.6902  139.7804  155.7501 C   0  0  0  0  0  0  0  0  0  0  0  0
  146.3776  135.7415  151.7594 N   0  0  0  0  0  0  0  0  0  0  0  0
  145.6777  134.6706  151.1393 C   0  0  0  0  0  0  0  0  0  0  0  0
  146.0810  133.3130  151.1753 C   0  0  0  0  0  0  0  0  0  0  0  0
  145.2983  132.3536  150.5045 C   0  0  0  0  0  0  0  0  0  0  0  0
  144.1469  132.7841  149.8173 C   0  0  0  0  0  0  0  0  0  0  0  0
  143.7568  134.0749  149.7655 N   0  0  0  0  0  0  0  0  0  0  0  0
  144.5108  134.9884  150.4121 C   0  0  0  0  0  0  0  0  0  0  0  0
  147.8291  137.2950  152.6792 H   0  0  0  0  0  0  0  0  0  0  0  0
  146.3822  139.5874  152.8684 H   0  0  0  0  0  0  0  0  0  0  0  0
  145.8832  138.7626  154.2935 H   0  0  0  0  0  0  0  0  0  0  0  0
  150.6424  139.5204  153.5736 H   0  0  0  0  0  0  0  0  0  0  0  0
  150.6731  139.1416  155.2845 H   0  0  0  0  0  0  0  0  0  0  0  0
  151.3368  137.1999  153.0054 H   0  0  0  0  0  0  0  0  0  0  0  0
  152.4799  137.9467  154.1061 H   0  0  0  0  0  0  0  0  0  0  0  0
  149.8135  135.5552  153.8761 H   0  0  0  0  0  0  0  0  0  0  0  0
  149.8552  135.1841  155.5873 H   0  0  0  0  0  0  0  0  0  0  0  0
  148.9283  137.3925  156.1774 H   0  0  0  0  0  0  0  0  0  0  0  0
  147.9196  136.5904  154.9768 H   0  0  0  0  0  0  0  0  0  0  0  0
  149.5018  140.9040  154.0183 H   0  0  0  0  0  0  0  0  0  0  0  0
  148.5810  140.5860  152.5653 H   0  0  0  0  0  0  0  0  0  0  0  0
  148.0472  142.7514  154.0763 H   0  0  0  0  0  0  0  0  0  0  0  0
  146.7248  141.8582  153.3369 H   0  0  0  0  0  0  0  0  0  0  0  0
  147.1138  139.0490  156.3149 H   0  0  0  0  0  0  0  0  0  0  0  0
  148.5850  140.0028  156.3274 H   0  0  0  0  0  0  0  0  0  0  0  0
  147.3829  135.6945  151.6799 H   0  0  0  0  0  0  0  0  0  0  0  0
  146.9715  132.9856  151.6878 H   0  0  0  0  0  0  0  0  0  0  0  0
  145.5765  131.3102  150.5136 H   0  0  0  0  0  0  0  0  0  0  0  0
  143.5256  132.0740  149.2921 H   0  0  0  0  0  0  0  0  0  0  0  0
  144.1681  136.0109  150.3472 H   0  0  0  0  0  0  0  0  0  0  0  0
  148.9508  137.8549  153.3020 H   0  0  0  0  0  0  0  0  0  0  0  0
  1  2  2  0  0  0  0
  2  3  1  0  0  0  0
  2 16  1  0  0  0  0
  3  4  1  0  0  0  0
  3 23  1  0  0  0  0
  4  5  1  0  0  0  0
  4 24  1  0  0  0  0
  4 25  1  0  0  0  0
  5 15  1  0  0  0  0
  5  6  1  0  0  0  0
  5 12  1  0  0  0  0
  6 11  1  0  0  0  0
  6  7  1  0  0  0  0
  6 45  1  0  0  0  0
  7  8  1  0  0  0  0
  7 26  1  0  0  0  0
  7 27  1  0  0  0  0
  8  9  1  0  0  0  0
  8 28  1  0  0  0  0
  8 29  1  0  0  0  0
  9 10  1  0  0  0  0
 10 11  1  0  0  0  0
 10 30  1  0  0  0  0
 10 31  1  0  0  0  0
 11 32  1  0  0  0  0
 11 33  1  0  0  0  0
 12 13  1  0  0  0  0
 12 34  1  0  0  0  0
 12 35  1  0  0  0  0
 13 14  1  0  0  0  0
 13 36  1  0  0  0  0
 13 37  1  0  0  0  0
 14 15  1  0  0  0  0
 15 38  1  0  0  0  0
 15 39  1  0  0  0  0
 16 17  1  0  0  0  0
 16 40  1  0  0  0  0
 17 22  1  0  0  0  0
 17 18  2  0  0  0  0
 18 19  1  0  0  0  0
 18 41  1  0  0  0  0
 19 20  2  0  0  0  0
 19 42  1  0  0  0  0
 20 21  1  0  0  0  0
 20 43  1  0  0  0  0
 21 22  2  0  0  0  0
 22 44  1  0  0  0  0
M  CHG  1   6   1
M  END
> <s_m_source_file>
AV-unprocessed.smi

> <i_m_source_file_index>
1787

> <i_lp_mmshare_version>
43012

> <i_f3d_flags>
0

> <s_epik_input>
W2NIXTFuW2NIXVtjSF1bY0hdYzFbTkhdQyg9TylbTkhdW0NIMl1bQ0BdMihbQ0gyXVtDSDJdU1tDSDJdMilOM1tDSDJdW0NIMl1PW0NIMl1bQ0gyXTM=

> <s_epik_cmdline>
J2VwaWtfcHl0aG9uJywgJy1waCcsICc3LjAnLCAnLXRuJywgJzgnLCAnLW1hJywgJzIwMCcsICctbWV0YWxfYmluZGluZycsICctaW1hZScsICc8aW5maWxlLm1hZT4nLCAnLW9tYWUnLCAnPG91dGZpbGUubWFlPic=

> <r_epik_Ionization_Penalty>
2.03633

> <r_epik_Ionization_Penalty_Charging>
2.03219

> <r_epik_Ionization_Penalty_Neutral>
0.00414252

> <r_epik_State_Penalty>
2.16328

> <r_epik_Charging_Adjusted_Penalty>
4.19546

> <i_epik_Tot_Q>
1

> <i_epik_Tot_abs_Q>
1

> <r_epik_Metal_State_Penalty>
2.16381

> <b_epik_Metal_Only>
0

> <s_lp_Force_Field>
OPLS_2005

> <r_lp_Energy>
45.3922

> <b_lp_Chiralities_Consistent>
1

> <s_lp_Variant>
AV-unprocessed.smi:1787-3

> <Gold.Version>
5.8.1

> <Gold.Id.Protein>
6NUR|6NUR_protein|mol2

> <Gold.PLP.Fitness>
43.0498

> <Gold.PLP.PLP>
-30.6766

> <Gold.PLP.part.hbond>
-3.8507

> <Gold.PLP.part.metal>
0.0000

> <Gold.PLP.part.buried>
-0.0818

> <Gold.PLP.part.nonpolar>
-30.5877

> <Gold.PLP.part.repulsive>
3.0990

> <Gold.PLP.ligand.clash>
0.0000

> <Gold.PLP.ligand.torsion>
2.0073

> <Gold.PLP.Chemscore.Hbond>
4.4220

> <Gold.PLP.Chemscore.CHOScore>
1.0000

> <Gold.PLP.Chemscore.Metal>
0.0000

> <Gold.Chemscore.Hbonds>
donor molecule, donor type, donor heavy atom, donor atom, acceptor molecule, acceptor atom, score
      L1  H     3    23       P1  7948  0.99
      L1  H     6    45       P1  7948  1.40
      L1  H    16    40       P1  7948  1.00
      P1  H 10752 10765       L1     9  0.95
      L1  C    22    44       P1 10171  0.76

> <Gold.PLP.Chemscore.Internal.Correction>
0.1217

> <Gold.Rescore>
     Score         DG    S(hbond)    S(metal)    S(lipo)     H(rot)  DE(clash)    DE(int)     intcor
     17.23     -24.18       3.45        0.00      93.97       1.49       3.61       3.34       ----

> <Gold.Chemscore.Fitness>
17.2320

> <Gold.Chemscore.DG>
-24.1824

> <Gold.Chemscore.ZeroCoef>
-5.4800

> <Gold.Chemscore.Hbond>
3.4466

> <Gold.Chemscore.Metal>
0.0000

> <Gold.Chemscore.Lipo>
93.9748

> <Gold.Chemscore.Internal_Hbond>
0.0000

> <Gold.Chemscore.DEClash>
3.6140

> <Gold.Chemscore.DEInternal>
3.3364

> <Gold.Chemscore.Rot>
1.4860

> <Gold.Chemscore.Internal.Correction>
   9.000000E+99

> <Gold.Chemscore.Hbonds>
donor molecule, donor type, donor heavy atom, donor atom, acceptor molecule, acceptor atom, score
      L1  H     3    23       P1  7948  0.94
      L1  H     6    45       P1  7948  0.69
      L1  H    16    40       P1  7948  0.98
      P1  H 10752 10765       L1     9  0.21

> <Gold.Chemscore.Hbond.Weighted>
-11.5116

> <Gold.Chemscore.Metal.Weighted>
-0.0000

> <Gold.Chemscore.Lipo.Weighted>
-10.9950

> <Gold.Chemscore.Internal_Hbond.Weighted>
0.0000

> <Gold.Chemscore.DEClash.Weighted>
3.6140

> <Gold.Chemscore.DEInternal.Weighted>
3.3364

> <Gold.Chemscore.Rot.Weighted>
3.8042

> <Gold.Chemscore.Internal.Correction.Weighted>
   9.000000E+99

> <Gold.Protein.RotatedTorsions>
[ 6907 6896 6895 6894 ] final  -73.08 input  -60.11 | X-H torsion
[ 7974 7965 7964 7962 ] final  -14.25 input  175.53 | X-H torsion
[ 8008 7997 7996 7995 ] final   61.86 input   59.86 | X-H torsion
[ 10167 10162 10161 10158 ] final   40.78 input  -65.29 | X-H torsion
[ 10718 10713 10712 10709 ] final   64.51 input   66.30 | X-H torsion
[ 10763 10752 10751 10750 ] final -169.32 input  -60.55 | X-H torsion
[ 11005 11000 10999 10996 ] final  166.92 input  -57.11 | X-H torsion

> <Gold.Protein.ActiveResidues>
 VAL166  LYS551  ARG553  GLY616  TRP617  ASP618  TYR619  PRO620  LYS621  CYS622 
 ASP623  PHE694  ASN695  SER759  ASP760  ASP761  ALA762  ILE779  LEU786  VAL792 
 PHE793  MET794  SER795  GLU796  ALA797  LYS798  CYS799  TRP800  GLU811  SER814 

> <Gold.Protein.RotatedAtoms>
  150.7144  134.5069  159.5588 H   0  0  0  0  0  0  0  0  0  0  0  0  # atno 6907 bound_to 6896
  152.2654  134.7986  160.0432 H   0  0  0  0  0  0  0  0  0  0  0  0  # atno 6908 bound_to 6896
  151.8685  133.3436  159.3764 H   0  0  0  0  0  0  0  0  0  0  0  0  # atno 6909 bound_to 6896
  146.2081  140.3322  142.8400 H   0  0  0  0  0  0  0  0  0  0  0  0  # atno 7974 bound_to 7965
  155.6051  140.3494  155.4605 H   0  0  0  0  0  0  0  0  0  0  0  0  # atno 8008 bound_to 7997
  156.0198  140.1251  157.0393 H   0  0  0  0  0  0  0  0  0  0  0  0  # atno 8009 bound_to 7997
  154.4311  140.1065  156.5934 H   0  0  0  0  0  0  0  0  0  0  0  0  # atno 8010 bound_to 7997
  140.3708  144.2107  150.6133 H   0  0  0  0  0  0  0  0  0  0  0  0  # atno 10167 bound_to 10162
  157.6044  130.9164  149.9855 H   0  0  0  0  0  0  0  0  0  0  0  0  # atno 10718 bound_to 10713
  154.6535  135.2914  154.9957 H   0  0  0  0  0  0  0  0  0  0  0  0  # atno 10763 bound_to 10752
  154.1042  135.6572  153.4877 H   0  0  0  0  0  0  0  0  0  0  0  0  # atno 10764 bound_to 10752
  153.0389  135.5249  154.7453 H   0  0  0  0  0  0  0  0  0  0  0  0  # atno 10765 bound_to 10752
  140.2714  134.7823  157.3679 H   0  0  0  0  0  0  0  0  0  0  0  0  # atno 11005 bound_to 11000
  144.8844  140.7443  143.5966 LP  0  0  0  0  0  0  0  0  0  0  0  0  # atno 17320 bound_to 7965
  145.3243  139.1779  143.4571 LP  0  0  0  0  0  0  0  0  0  0  0  0  # atno 17321 bound_to 7965
  140.5035  143.2311  151.8643 LP  0  0  0  0  0  0  0  0  0  0  0  0  # atno 17342 bound_to 10162
  139.4804  144.5032  151.9032 LP  0  0  0  0  0  0  0  0  0  0  0  0  # atno 17343 bound_to 10162
  156.1126  130.3649  150.0022 LP  0  0  0  0  0  0  0  0  0  0  0  0  # atno 17370 bound_to 10713
  156.8118  130.9327  151.3644 LP  0  0  0  0  0  0  0  0  0  0  0  0  # atno 17371 bound_to 10713
  140.1369  134.5022  155.8061 LP  0  0  0  0  0  0  0  0  0  0  0  0  # atno 17394 bound_to 11000
  141.2177  133.6811  156.7141 LP  0  0  0  0  0  0  0  0  0  0  0  0  # atno 17395 bound_to 11000

$$$$
