#       Name:                AV-unprocessed.smi:1260
#       Creating user name   scv26
#       Creation time:       Fri Mar 27 04:41:35 2020


#       File generated by GOLD software.
#

@<TRIPOS>MOLECULE
AV-unprocessed.smi:1260
    42    44     1
SMALL
NO_CHARGES


@<TRIPOS>ATOM
      1 ****         0.8850   2.6976  -0.2874 O.2            1 S1                 0.0000
      2 ****         1.5619   1.8024   0.2168 C.2            1 S1                 0.0000
      3 ****         3.0777   1.9706   0.3429 C.3            1 S1                 0.0000
      4 ****         3.5041   1.9409   1.7299 N.pl3          1 S1                 0.0000
      5 ****         3.9765   0.9437   2.4807 C.2            1 S1                 0.0000
      6 ****         4.2346   1.3421   3.7167 N.2            1 S1                 0.0000
      7 ****         3.8901   2.6833   3.6932 N.2            1 S1                 0.0000
      8 ****         3.4559   3.0444   2.5169 N.2            1 S1                 0.0000
      9 ****         1.0422   0.6482   0.6644 N.am           1 S1                 0.0000
     10 ****        -0.3740   0.2960   0.6406 C.3            1 S1                 0.0000
     11 ****        -0.7676  -0.6750   1.7680 C.3            1 S1                 0.0000
     12 ****        -1.7894  -1.6422   1.1380 C.3            1 S1                 0.0000
     13 ****        -2.0134  -1.1376  -0.2301 N.4            1 S1                 1.0000
     14 ****        -2.4899  -2.1106  -1.2372 C.3            1 S1                 0.0000
     15 ****        -2.7414  -1.3798  -2.5715 C.3            1 S1                 0.0000
     16 ****        -1.5069  -0.5741  -3.0252 C.3            1 S1                 0.0000
     17 ****        -1.0022   0.3515  -1.9015 C.3            1 S1                 0.0000
     18 ****        -0.7624  -0.4724  -0.6251 C.3            1 S1                 0.0000
     19 ****         3.5824   1.1706  -0.2003 H              1 S1                 0.0000
     20 ****         3.3923   2.9141  -0.1060 H              1 S1                 0.0000
     21 ****         4.1234  -0.0659   2.1266 H              1 S1                 0.0000
     22 ****         1.6742  -0.0318   1.0620 H              1 S1                 0.0000
     23 ****        -0.9938   1.1911   0.7284 H              1 S1                 0.0000
     24 ****         0.0944  -1.2363   2.1320 H              1 S1                 0.0000
     25 ****        -1.1891  -0.1371   2.6179 H              1 S1                 0.0000
     26 ****        -1.3753  -2.6511   1.1029 H              1 S1                 0.0000
     27 ****        -2.7260  -1.6800   1.6949 H              1 S1                 0.0000
     28 ****        -1.7508  -2.9023  -1.3684 H              1 S1                 0.0000
     29 ****        -3.4090  -2.5810  -0.8862 H              1 S1                 0.0000
     30 ****        -3.0237  -2.0971  -3.3429 H              1 S1                 0.0000
     31 ****        -3.5886  -0.7025  -2.4569 H              1 S1                 0.0000
     32 ****        -0.7107  -1.2624  -3.3117 H              1 S1                 0.0000
     33 ****        -1.7454   0.0097  -3.9149 H              1 S1                 0.0000
     34 ****        -0.0825   0.8462  -2.2146 H              1 S1                 0.0000
     35 ****        -1.7329   1.1385  -1.7104 H              1 S1                 0.0000
     36 ****        -0.0092  -1.2387  -0.8240 H              1 S1                 0.0000
     37 ****        -2.7120  -0.4114  -0.1581 H              1 S1                 0.0000
     38 ****         1.3255   3.5338  -0.6142 LP             1 S1                 0.0000
     39 ****        -0.1056   2.5890  -0.3704 LP             1 S1                 0.0000
     40 ****         4.5915   0.8052   4.4812 LP             1 S1                 0.0000
     41 ****         3.9648   3.2975   4.4787 LP             1 S1                 0.0000
     42 ****         3.1477   3.9569   2.2481 LP             1 S1                 0.0000
@<TRIPOS>BOND
    1    1    2 2     
    2    2    3 1     
    3    2    9 am    
    4    3    4 1     
    5    3   19 1     
    6    3   20 1     
    7    4    8 1     
    8    4    5 1     
    9    5    6 2     
   10    5   21 1     
   11    6    7 1     
   12    7    8 2     
   13    9   10 1     
   14    9   22 1     
   15   10   18 1     
   16   10   11 1     
   17   10   23 1     
   18   11   12 1     
   19   11   24 1     
   20   11   25 1     
   21   12   13 1     
   22   12   26 1     
   23   12   27 1     
   24   13   18 1     
   25   13   14 1     
   26   13   37 1     
   27   14   15 1     
   28   14   28 1     
   29   14   29 1     
   30   15   16 1     
   31   15   30 1     
   32   15   31 1     
   33   16   17 1     
   34   16   32 1     
   35   16   33 1     
   36   17   18 1     
   37   17   34 1     
   38   17   35 1     
   39   18   36 1     
   40    1   38 1     
   41    1   39 1     
   42    6   40 1     
   43    7   41 1     
   44    8   42 1     
@<TRIPOS>SUBSTRUCTURE
      1 S1             1
@<TRIPOS>SET
LONE_PAIRS      STATIC     ATOMS    <user>   **** ""
5 38 39 40 41 42
DONOR_HYDROGENS      STATIC     ATOMS    <user>   **** ""
2 22 37
ATOM$BLUE        STATIC     ATOMS    COLORGROUP SYSTEM
5 38 39 40 41 42
ATOM$RED        STATIC     ATOMS    COLORGROUP SYSTEM
2 22 37
