AV-unprocessed.smi:1641|AV-procd|sdf|6557|dock3
  -GOLD-   22720 7243D 1   1.00000     0.00000
 Structure written by MMmdl.
 41 42  0  0  0  0  0  0  0  0  1 V2000
  151.1446  131.2074  156.5048 C   0  0  0  0  0  0  0  0  0  0  0  0
  150.6075  132.5790  156.2783 C   0  0  0  0  0  0  0  0  0  0  0  0
  150.5844  133.5141  157.2358 N   0  0  0  0  0  0  0  0  0  0  0  0
  150.0390  134.7098  156.7901 N   0  0  0  0  0  0  0  0  0  0  0  0
  149.6657  134.6408  155.5048 C   0  0  0  0  0  0  0  0  0  0  0  0
  149.0774  135.7201  154.7944 N   0  0  0  0  0  0  0  0  0  0  0  0
  148.6583  136.9033  155.2760 C   0  0  0  0  0  0  0  0  0  0  0  0
  148.7525  137.2656  156.4489 O   0  0  0  0  0  0  0  0  0  0  0  0
  148.1136  137.6552  154.3081 N   0  0  0  0  0  0  0  0  0  0  0  0
  147.5078  138.9697  154.5005 C   0  0  0  0  0  0  0  0  0  0  0  0
  148.4322  140.0957  153.9974 C   0  0  0  0  0  0  0  0  0  0  0  0
  149.5883  140.3871  154.8449 N   0  0  0  0  0  0  0  0  0  0  0  0
  149.2236  140.6000  156.2437 C   0  0  0  0  0  0  0  0  0  0  0  0
  150.4455  140.9095  157.1311 C   0  0  2  0  0  0  0  0  0  0  0  0
  151.0110  142.3242  156.9147 C   0  0  0  0  0  0  0  0  0  0  0  0
  151.4467  139.9046  156.9597 O   0  0  0  0  0  0  0  0  0  0  0  0
  151.8316  139.6534  155.6092 C   0  0  1  0  0  0  0  0  0  0  0  0
  152.8452  138.5042  155.6073 C   0  0  0  0  0  0  0  0  0  0  0  0
  150.5815  139.3246  154.7728 C   0  0  0  0  0  0  0  0  0  0  0  0
  149.9472  133.0913  154.7301 S   0  0  0  0  0  0  0  0  0  0  0  0
  151.9260  131.2250  157.2649 H   0  0  0  0  0  0  0  0  0  0  0  0
  151.5670  130.8115  155.5811 H   0  0  0  0  0  0  0  0  0  0  0  0
  150.3452  130.5453  156.8374 H   0  0  0  0  0  0  0  0  0  0  0  0
  148.9482  135.5680  153.8051 H   0  0  0  0  0  0  0  0  0  0  0  0
  148.0854  137.2772  153.3726 H   0  0  0  0  0  0  0  0  0  0  0  0
  146.5186  139.0266  154.0450 H   0  0  0  0  0  0  0  0  0  0  0  0
  147.3456  139.0988  155.5707 H   0  0  0  0  0  0  0  0  0  0  0  0
  148.7719  139.8566  152.9886 H   0  0  0  0  0  0  0  0  0  0  0  0
  147.8274  140.9984  153.8992 H   0  0  0  0  0  0  0  0  0  0  0  0
  148.5049  141.4129  156.3364 H   0  0  0  0  0  0  0  0  0  0  0  0
  148.7260  139.7079  156.6269 H   0  0  0  0  0  0  0  0  0  0  0  0
  150.1267  140.8502  158.1719 H   0  0  0  0  0  0  0  0  0  0  0  0
  150.2670  143.0805  157.1662 H   0  0  0  0  0  0  0  0  0  0  0  0
  151.3072  142.4951  155.8798 H   0  0  0  0  0  0  0  0  0  0  0  0
  151.8828  142.4963  157.5460 H   0  0  0  0  0  0  0  0  0  0  0  0
  152.3187  140.5400  155.2023 H   0  0  0  0  0  0  0  0  0  0  0  0
  153.1885  138.2854  154.5958 H   0  0  0  0  0  0  0  0  0  0  0  0
  152.4099  137.5930  156.0184 H   0  0  0  0  0  0  0  0  0  0  0  0
  153.7199  138.7562  156.2072 H   0  0  0  0  0  0  0  0  0  0  0  0
  150.1441  138.3863  155.1184 H   0  0  0  0  0  0  0  0  0  0  0  0
  150.8777  139.1666  153.7349 H   0  0  0  0  0  0  0  0  0  0  0  0
  1  2  1  0  0  0  0
  1 21  1  0  0  0  0
  1 22  1  0  0  0  0
  1 23  1  0  0  0  0
  2 20  1  0  0  0  0
  2  3  2  0  0  0  0
  3  4  1  0  0  0  0
  4  5  2  0  0  0  0
  5  6  1  0  0  0  0
  5 20  1  0  0  0  0
  6  7  1  0  0  0  0
  6 24  1  0  0  0  0
  7  8  2  0  0  0  0
  7  9  1  0  0  0  0
  9 10  1  0  0  0  0
  9 25  1  0  0  0  0
 10 11  1  0  0  0  0
 10 26  1  0  0  0  0
 10 27  1  0  0  0  0
 11 12  1  0  0  0  0
 11 28  1  0  0  0  0
 11 29  1  0  0  0  0
 12 19  1  0  0  0  0
 12 13  1  0  0  0  0
 13 14  1  0  0  0  0
 13 30  1  0  0  0  0
 13 31  1  0  0  0  0
 14 15  1  0  0  0  0
 14 16  1  0  0  0  0
 14 32  1  0  0  0  0
 15 33  1  0  0  0  0
 15 34  1  0  0  0  0
 15 35  1  0  0  0  0
 16 17  1  0  0  0  0
 17 18  1  0  0  0  0
 17 19  1  0  0  0  0
 17 36  1  0  0  0  0
 18 37  1  0  0  0  0
 18 38  1  0  0  0  0
 18 39  1  0  0  0  0
 19 40  1  0  0  0  0
 19 41  1  0  0  0  0
M  END
> <s_m_source_file>
AV-unprocessed.smi

> <i_m_source_file_index>
1641

> <i_lp_mmshare_version>
43012

> <i_f3d_flags>
0

> <s_epik_input>
W0NIM11jMW5uYyhzMSlbTkhdQyg9TylbTkhdW0NIMl1bQ0gyXU4yW0NIMl1bQ0BASF0oW0NIM10pT1tDQEBIXShbQ0gzXSlbQ0gyXTI=

> <s_epik_cmdline>
J2VwaWtfcHl0aG9uJywgJy1waCcsICc3LjAnLCAnLXRuJywgJzgnLCAnLW1hJywgJzIwMCcsICctbWV0YWxfYmluZGluZycsICctaW1hZScsICc8aW5maWxlLm1hZT4nLCAnLW9tYWUnLCAnPG91dGZpbGUubWFlPic=

> <r_lp_tautomer_probability>
1

> <r_epik_Ionization_Penalty>
0.221104

> <r_epik_Ionization_Penalty_Charging>
0

> <r_epik_Ionization_Penalty_Neutral>
0.221104

> <r_epik_State_Penalty>
0.209349

> <r_epik_Charging_Adjusted_Penalty>
0.209349

> <i_epik_Tot_Q>
0

> <i_epik_Tot_abs_Q>
0

> <r_epik_Metal_State_Penalty>
0.560954

> <b_epik_Metal_Only>
0

> <s_lp_Force_Field>
OPLS_2005

> <r_lp_Energy>
24.8312

> <b_lp_Chiralities_Consistent>
1

> <s_lp_Variant>
AV-unprocessed.smi:1641-2

> <Gold.Version>
5.8.1

> <Gold.Id.Protein>
6NUR|6NUR_protein|mol2

> <Gold.PLP.Fitness>
35.3989

> <Gold.PLP.PLP>
-27.3266

> <Gold.PLP.part.hbond>
-3.0000

> <Gold.PLP.part.metal>
0.0000

> <Gold.PLP.part.buried>
-2.9122

> <Gold.PLP.part.nonpolar>
-21.6370

> <Gold.PLP.part.repulsive>
0.1184

> <Gold.PLP.ligand.clash>
0.0000

> <Gold.PLP.ligand.torsion>
0.2143

> <Gold.PLP.Chemscore.Hbond>
2.8320

> <Gold.PLP.Chemscore.CHOScore>
0.0000

> <Gold.PLP.Chemscore.Metal>
0.0000

> <Gold.Chemscore.Hbonds>
donor molecule, donor type, donor heavy atom, donor atom, acceptor molecule, acceptor atom, score
      L1  H     6    24       P1  7948  1.00
      L1  H     9    25       P1  7948  1.00
      P1  H  6896  6908       L1     3  0.86

> <Gold.PLP.Chemscore.Internal.Correction>
0.0049

> <Gold.Rescore>
     Score         DG    S(hbond)    S(metal)    S(lipo)     H(rot)  DE(clash)    DE(int)     intcor
     14.42     -17.05       2.48        0.00      63.16       1.60       0.16       2.47       ----

> <Gold.Chemscore.Fitness>
14.4234

> <Gold.Chemscore.DG>
-17.0489

> <Gold.Chemscore.ZeroCoef>
-5.4800

> <Gold.Chemscore.Hbond>
2.4758

> <Gold.Chemscore.Metal>
0.0000

> <Gold.Chemscore.Lipo>
63.1559

> <Gold.Chemscore.Internal_Hbond>
0.0000

> <Gold.Chemscore.DEClash>
0.1565

> <Gold.Chemscore.DEInternal>
2.4690

> <Gold.Chemscore.Rot>
1.5975

> <Gold.Chemscore.Internal.Correction>
   9.000000E+99

> <Gold.Chemscore.Hbonds>
donor molecule, donor type, donor heavy atom, donor atom, acceptor molecule, acceptor atom, score
      L1  H     6    24       P1  7948  0.77
      L1  H     9    25       P1  7948  0.88
      P1  H  6896  6908       L1     3  0.63

> <Gold.Chemscore.Hbond.Weighted>
-8.2692

> <Gold.Chemscore.Metal.Weighted>
-0.0000

> <Gold.Chemscore.Lipo.Weighted>
-7.3892

> <Gold.Chemscore.Internal_Hbond.Weighted>
0.0000

> <Gold.Chemscore.DEClash.Weighted>
0.1565

> <Gold.Chemscore.DEInternal.Weighted>
2.4690

> <Gold.Chemscore.Rot.Weighted>
4.0896

> <Gold.Chemscore.Internal.Correction.Weighted>
   9.000000E+99

> <Gold.Protein.RotatedTorsions>
[ 6907 6896 6895 6894 ] final  102.97 input  -60.11 | X-H torsion
[ 7974 7965 7964 7962 ] final   65.37 input  175.53 | X-H torsion
[ 8008 7997 7996 7995 ] final    2.56 input   59.86 | X-H torsion
[ 10167 10162 10161 10158 ] final -168.93 input  -65.29 | X-H torsion
[ 10718 10713 10712 10709 ] final  158.63 input   66.30 | X-H torsion
[ 10763 10752 10751 10750 ] final -154.82 input  -60.55 | X-H torsion
[ 11005 11000 10999 10996 ] final   10.22 input  -57.11 | X-H torsion

> <Gold.Protein.ActiveResidues>
 VAL166  LYS551  ARG553  GLY616  TRP617  ASP618  TYR619  PRO620  LYS621  CYS622 
 ASP623  PHE694  ASN695  SER759  ASP760  ASP761  ALA762  ILE779  LEU786  VAL792 
 PHE793  MET794  SER795  GLU796  ALA797  LYS798  CYS799  TRP800  GLU811  SER814 

> <Gold.Protein.RotatedAtoms>
  152.5309  133.9895  159.7843 H   0  0  0  0  0  0  0  0  0  0  0  0  # atno 6907 bound_to 6896
  151.0134  133.5936  159.2687 H   0  0  0  0  0  0  0  0  0  0  0  0  # atno 6908 bound_to 6896
  151.3002  135.0773  159.9289 H   0  0  0  0  0  0  0  0  0  0  0  0  # atno 6909 bound_to 6896
  145.8393  139.3185  143.0941 H   0  0  0  0  0  0  0  0  0  0  0  0  # atno 7974 bound_to 7965
  154.6931  140.2657  155.6793 H   0  0  0  0  0  0  0  0  0  0  0  0  # atno 8008 bound_to 7997
  156.2739  140.2787  156.1439 H   0  0  0  0  0  0  0  0  0  0  0  0  # atno 8009 bound_to 7997
  155.0869  140.0373  157.2646 H   0  0  0  0  0  0  0  0  0  0  0  0  # atno 8010 bound_to 7997
  139.5954  144.1123  152.1683 H   0  0  0  0  0  0  0  0  0  0  0  0  # atno 10167 bound_to 10162
  157.1753  131.0620  151.2161 H   0  0  0  0  0  0  0  0  0  0  0  0  # atno 10718 bound_to 10713
  154.7831  135.3181  154.7945 H   0  0  0  0  0  0  0  0  0  0  0  0  # atno 10763 bound_to 10752
  153.8652  135.6849  153.4783 H   0  0  0  0  0  0  0  0  0  0  0  0  # atno 10764 bound_to 10752
  153.1474  135.4713  154.9524 H   0  0  0  0  0  0  0  0  0  0  0  0  # atno 10765 bound_to 10752
  140.5169  134.0597  155.7833 H   0  0  0  0  0  0  0  0  0  0  0  0  # atno 11005 bound_to 11000
  145.9483  140.8928  143.0272 LP  0  0  0  0  0  0  0  0  0  0  0  0  # atno 17320 bound_to 7965
  144.6734  140.1645  143.7419 LP  0  0  0  0  0  0  0  0  0  0  0  0  # atno 17321 bound_to 7965
  140.0706  144.5782  150.7194 LP  0  0  0  0  0  0  0  0  0  0  0  0  # atno 17342 bound_to 10162
  140.7208  143.2587  151.4285 LP  0  0  0  0  0  0  0  0  0  0  0  0  # atno 17343 bound_to 10162
  157.4004  130.7330  149.6763 LP  0  0  0  0  0  0  0  0  0  0  0  0  # atno 17370 bound_to 10713
  155.9732  130.4122  150.4021 LP  0  0  0  0  0  0  0  0  0  0  0  0  # atno 17371 bound_to 10713
  141.1355  133.9228  157.2442 LP  0  0  0  0  0  0  0  0  0  0  0  0  # atno 17394 bound_to 11000
  139.9627  135.0150  156.9305 LP  0  0  0  0  0  0  0  0  0  0  0  0  # atno 17395 bound_to 11000

$$$$
