AV-unprocessed.smi:1896|AV-procd|sdf|7683|dock6
  -GOLD-   22720 9423D 1   1.00000     0.00000
 Structure written by MMmdl.
 47 48  0  0  0  0  0  0  0  0  2 V2000
  153.7689  137.9197  156.1352 C   0  0  0  0  0  0  0  0  0  0  0  0
  152.5906  138.8305  155.9416 C   0  0  0  0  0  0  0  0  0  0  0  0
  152.4612  139.8870  156.7260 N   0  0  0  0  0  0  0  0  0  0  0  0
  151.3225  140.4819  156.3181 N   0  0  0  0  0  0  0  0  0  0  0  0
  150.8759  141.6926  156.9792 C   0  0  0  0  0  0  0  0  0  0  0  0
  150.7285  139.7971  155.2760 C   0  0  0  0  0  0  0  0  0  0  0  0
  149.4477  140.2531  154.6545 C   0  0  0  0  0  0  0  0  0  0  0  0
  151.5240  138.7165  155.0007 C   0  0  0  0  0  0  0  0  0  0  0  0
  151.3258  137.6450  153.9585 C   0  0  0  0  0  0  0  0  0  0  0  0
  150.9679  136.3278  154.6458 C   0  0  0  0  0  0  0  0  0  0  0  0
  151.7496  135.8176  155.4479 O   0  0  0  0  0  0  0  0  0  0  0  0
  149.7906  135.7787  154.3134 N   0  0  0  0  0  0  0  0  0  0  0  0
  149.3071  134.5002  154.8201 C   0  0  0  0  0  0  0  0  0  0  0  0
  149.0787  133.4712  153.6859 C   0  0  1  0  0  0  0  0  0  0  0  0
  148.8754  132.0513  154.2613 C   0  0  0  0  0  0  0  0  0  0  0  0
  147.9240  133.8581  152.8234 N   0  3  0  0  0  0  0  0  0  0  0  0
  147.6607  132.9783  151.6633 C   0  0  0  0  0  0  0  0  0  0  0  0
  146.2186  133.2693  151.2650 C   0  0  0  0  0  0  0  0  0  0  0  0
  145.5289  133.4845  152.6067 C   0  0  0  0  0  0  0  0  0  0  0  0
  146.6291  134.0196  153.5334 C   0  0  0  0  0  0  0  0  0  0  0  0
  153.5214  137.1084  156.8193 H   0  0  0  0  0  0  0  0  0  0  0  0
  154.6239  138.4541  156.5508 H   0  0  0  0  0  0  0  0  0  0  0  0
  154.0874  137.4761  155.1921 H   0  0  0  0  0  0  0  0  0  0  0  0
  150.7607  142.4901  156.2451 H   0  0  0  0  0  0  0  0  0  0  0  0
  151.5982  142.0099  157.7328 H   0  0  0  0  0  0  0  0  0  0  0  0
  149.9163  141.5121  157.4643 H   0  0  0  0  0  0  0  0  0  0  0  0
  149.0978  139.5478  153.9011 H   0  0  0  0  0  0  0  0  0  0  0  0
  149.5753  141.2227  154.1728 H   0  0  0  0  0  0  0  0  0  0  0  0
  148.6646  140.3487  155.4066 H   0  0  0  0  0  0  0  0  0  0  0  0
  150.5288  137.9056  153.2616 H   0  0  0  0  0  0  0  0  0  0  0  0
  152.2195  137.5101  153.3480 H   0  0  0  0  0  0  0  0  0  0  0  0
  149.2086  136.2637  153.6456 H   0  0  0  0  0  0  0  0  0  0  0  0
  150.0279  134.1101  155.5410 H   0  0  0  0  0  0  0  0  0  0  0  0
  148.3807  134.6890  155.3639 H   0  0  0  0  0  0  0  0  0  0  0  0
  149.9707  133.4592  153.0570 H   0  0  0  0  0  0  0  0  0  0  0  0
  149.7392  131.7253  154.8399 H   0  0  0  0  0  0  0  0  0  0  0  0
  148.7358  131.3042  153.4805 H   0  0  0  0  0  0  0  0  0  0  0  0
  148.0046  132.0120  154.9162 H   0  0  0  0  0  0  0  0  0  0  0  0
  148.3535  133.1645  150.8420 H   0  0  0  0  0  0  0  0  0  0  0  0
  147.7559  131.9332  151.9631 H   0  0  0  0  0  0  0  0  0  0  0  0
  146.1746  134.1849  150.6732 H   0  0  0  0  0  0  0  0  0  0  0  0
  145.7688  132.4669  150.6793 H   0  0  0  0  0  0  0  0  0  0  0  0
  144.6772  134.1614  152.5317 H   0  0  0  0  0  0  0  0  0  0  0  0
  145.1608  132.5307  152.9871 H   0  0  0  0  0  0  0  0  0  0  0  0
  146.6129  133.4684  154.4748 H   0  0  0  0  0  0  0  0  0  0  0  0
  146.4754  135.0746  153.7633 H   0  0  0  0  0  0  0  0  0  0  0  0
  148.1398  134.7643  152.4325 H   0  0  0  0  0  0  0  0  0  0  0  0
  1  2  1  0  0  0  0
  1 21  1  0  0  0  0
  1 22  1  0  0  0  0
  1 23  1  0  0  0  0
  2  8  1  0  0  0  0
  2  3  2  0  0  0  0
  3  4  1  0  0  0  0
  4  5  1  0  0  0  0
  4  6  1  0  0  0  0
  5 24  1  0  0  0  0
  5 25  1  0  0  0  0
  5 26  1  0  0  0  0
  6  7  1  0  0  0  0
  6  8  2  0  0  0  0
  7 27  1  0  0  0  0
  7 28  1  0  0  0  0
  7 29  1  0  0  0  0
  8  9  1  0  0  0  0
  9 10  1  0  0  0  0
  9 30  1  0  0  0  0
  9 31  1  0  0  0  0
 10 11  2  0  0  0  0
 10 12  1  0  0  0  0
 12 13  1  0  0  0  0
 12 32  1  0  0  0  0
 13 14  1  0  0  0  0
 13 33  1  0  0  0  0
 13 34  1  0  0  0  0
 14 15  1  0  0  0  0
 14 16  1  0  0  0  0
 14 35  1  0  0  0  0
 15 36  1  0  0  0  0
 15 37  1  0  0  0  0
 15 38  1  0  0  0  0
 16 20  1  0  0  0  0
 16 17  1  0  0  0  0
 16 47  1  0  0  0  0
 17 18  1  0  0  0  0
 17 39  1  0  0  0  0
 17 40  1  0  0  0  0
 18 19  1  0  0  0  0
 18 41  1  0  0  0  0
 18 42  1  0  0  0  0
 19 20  1  0  0  0  0
 19 43  1  0  0  0  0
 19 44  1  0  0  0  0
 20 45  1  0  0  0  0
 20 46  1  0  0  0  0
M  CHG  1  16   1
M  END
> <s_m_source_file>
AV-unprocessed.smi

> <i_m_source_file_index>
1896

> <i_lp_mmshare_version>
43012

> <i_f3d_flags>
0

> <s_epik_input>
W0NIM11jMW5uKFtDSDNdKWMoW0NIM10pYzFbQ0gyXUMoPU8pW05IXVtDSDJdW0NASF0oW0NIM10pTjJbQ0gyXVtDSDJdW0NIMl1bQ0gyXTI=

> <s_epik_cmdline>
J2VwaWtfcHl0aG9uJywgJy1waCcsICc3LjAnLCAnLXRuJywgJzgnLCAnLW1hJywgJzIwMCcsICctbWV0YWxfYmluZGluZycsICctaW1hZScsICc8aW5maWxlLm1hZT4nLCAnLW9tYWUnLCAnPG91dGZpbGUubWFlPic=

> <r_lp_tautomer_probability>
1

> <r_epik_Ionization_Penalty>
0.00723064

> <r_epik_Ionization_Penalty_Charging>
0.0050435

> <r_epik_Ionization_Penalty_Neutral>
0.00218714

> <r_epik_State_Penalty>
-0

> <r_epik_Charging_Adjusted_Penalty>
0.0050435

> <i_epik_Tot_Q>
1

> <i_epik_Tot_abs_Q>
1

> <r_epik_Metal_State_Penalty>
-0

> <b_epik_Metal_Only>
0

> <s_lp_Force_Field>
OPLS_2005

> <r_lp_Energy>
24.4883

> <b_lp_Chiralities_Consistent>
1

> <s_lp_Variant>
AV-unprocessed.smi:1896-2

> <Gold.Version>
5.8.1

> <Gold.Id.Protein>
6NUR|6NUR_protein|mol2

> <Gold.PLP.Fitness>
46.8767

> <Gold.PLP.PLP>
-34.8099

> <Gold.PLP.part.hbond>
-4.0000

> <Gold.PLP.part.metal>
0.0000

> <Gold.PLP.part.buried>
1.5947

> <Gold.PLP.part.nonpolar>
-32.0694

> <Gold.PLP.part.repulsive>
0.0896

> <Gold.PLP.ligand.clash>
0.0000

> <Gold.PLP.ligand.torsion>
0.1739

> <Gold.PLP.Chemscore.Hbond>
4.1200

> <Gold.PLP.Chemscore.CHOScore>
0.0000

> <Gold.PLP.Chemscore.Metal>
0.0000

> <Gold.Chemscore.Hbonds>
donor molecule, donor type, donor heavy atom, donor atom, acceptor molecule, acceptor atom, score
      L1  H    12    32       P1  7948  0.70
      L1  H    16    47       P1  7948  2.00
      P1  H  7997  8008       L1     3  0.35
      P1  H 10752 10765       L1    11  0.81

> <Gold.PLP.Chemscore.Internal.Correction>
0.0546

> <Gold.Rescore>
     Score         DG    S(hbond)    S(metal)    S(lipo)     H(rot)  DE(clash)    DE(int)     intcor
     18.16     -18.84       2.41        0.00      81.62       1.65       0.38       0.30       ----

> <Gold.Chemscore.Fitness>
18.1637

> <Gold.Chemscore.DG>
-18.8418

> <Gold.Chemscore.ZeroCoef>
-5.4800

> <Gold.Chemscore.Hbond>
2.4055

> <Gold.Chemscore.Metal>
0.0000

> <Gold.Chemscore.Lipo>
81.6239

> <Gold.Chemscore.Internal_Hbond>
0.0000

> <Gold.Chemscore.DEClash>
0.3827

> <Gold.Chemscore.DEInternal>
0.2953

> <Gold.Chemscore.Rot>
1.6495

> <Gold.Chemscore.Internal.Correction>
   9.000000E+99

> <Gold.Chemscore.Hbonds>
donor molecule, donor type, donor heavy atom, donor atom, acceptor molecule, acceptor atom, score
      L1  H    12    32       P1  7948  0.65
      L1  H    16    47       P1  7948  0.50
      P1  H  7997  8008       L1     3  0.01
      P1  H 10752 10765       L1    11  0.75

> <Gold.Chemscore.Hbond.Weighted>
-8.0344

> <Gold.Chemscore.Metal.Weighted>
-0.0000

> <Gold.Chemscore.Lipo.Weighted>
-9.5500

> <Gold.Chemscore.Internal_Hbond.Weighted>
0.0000

> <Gold.Chemscore.DEClash.Weighted>
0.3827

> <Gold.Chemscore.DEInternal.Weighted>
0.2953

> <Gold.Chemscore.Rot.Weighted>
4.2227

> <Gold.Chemscore.Internal.Correction.Weighted>
   9.000000E+99

> <Gold.Protein.RotatedTorsions>
[ 6907 6896 6895 6894 ] final    7.57 input  -60.11 | X-H torsion
[ 7974 7965 7964 7962 ] final  -19.92 input  175.53 | X-H torsion
[ 8008 7997 7996 7995 ] final  -57.33 input   59.86 | X-H torsion
[ 10167 10162 10161 10158 ] final -164.20 input  -65.29 | X-H torsion
[ 10718 10713 10712 10709 ] final -121.71 input   66.30 | X-H torsion
[ 10763 10752 10751 10750 ] final -154.94 input  -60.55 | X-H torsion
[ 11005 11000 10999 10996 ] final  -34.11 input  -57.11 | X-H torsion

> <Gold.Protein.ActiveResidues>
 VAL166  LYS551  ARG553  GLY616  TRP617  ASP618  TYR619  PRO620  LYS621  CYS622 
 ASP623  PHE694  ASN695  SER759  ASP760  ASP761  ALA762  ILE779  LEU786  VAL792 
 PHE793  MET794  SER795  GLU796  ALA797  LYS798  CYS799  TRP800  GLU811  SER814 

> <Gold.Protein.RotatedAtoms>
  151.6920  135.0945  160.0235 H   0  0  0  0  0  0  0  0  0  0  0  0  # atno 6907 bound_to 6896
  152.3773  133.6494  159.6142 H   0  0  0  0  0  0  0  0  0  0  0  0  # atno 6908 bound_to 6896
  150.7719  133.9089  159.3405 H   0  0  0  0  0  0  0  0  0  0  0  0  # atno 6909 bound_to 6896
  146.1816  140.4130  142.8492 H   0  0  0  0  0  0  0  0  0  0  0  0  # atno 7974 bound_to 7965
  154.4264  140.1109  156.5780 H   0  0  0  0  0  0  0  0  0  0  0  0  # atno 8008 bound_to 7997
  155.6142  140.3494  155.4613 H   0  0  0  0  0  0  0  0  0  0  0  0  # atno 8009 bound_to 7997
  156.0075  140.1212  157.0476 H   0  0  0  0  0  0  0  0  0  0  0  0  # atno 8010 bound_to 7997
  139.6267  144.0519  152.1980 H   0  0  0  0  0  0  0  0  0  0  0  0  # atno 10167 bound_to 10162
  156.1359  130.6430  150.9696 H   0  0  0  0  0  0  0  0  0  0  0  0  # atno 10718 bound_to 10713
  154.7823  135.3179  154.7963 H   0  0  0  0  0  0  0  0  0  0  0  0  # atno 10763 bound_to 10752
  153.8672  135.6848  153.4782 H   0  0  0  0  0  0  0  0  0  0  0  0  # atno 10764 bound_to 10752
  153.1463  135.4718  154.9509 H   0  0  0  0  0  0  0  0  0  0  0  0  # atno 10765 bound_to 10752
  140.9690  133.7120  156.1492 H   0  0  0  0  0  0  0  0  0  0  0  0  # atno 11005 bound_to 11000
  144.8324  140.6729  143.6282 LP  0  0  0  0  0  0  0  0  0  0  0  0  # atno 17320 bound_to 7965
  145.4060  139.1589  143.4151 LP  0  0  0  0  0  0  0  0  0  0  0  0  # atno 17321 bound_to 7965
  140.0174  144.6179  150.7595 LP  0  0  0  0  0  0  0  0  0  0  0  0  # atno 17342 bound_to 10162
  140.7415  143.2819  151.3574 LP  0  0  0  0  0  0  0  0  0  0  0  0  # atno 17343 bound_to 10162
  157.6532  131.0893  150.8005 LP  0  0  0  0  0  0  0  0  0  0  0  0  # atno 17370 bound_to 10713
  156.8085  130.4944  149.5359 LP  0  0  0  0  0  0  0  0  0  0  0  0  # atno 17371 bound_to 10713
  140.7357  134.4205  157.5561 LP  0  0  0  0  0  0  0  0  0  0  0  0  # atno 17394 bound_to 11000
  139.8905  134.8803  156.2367 LP  0  0  0  0  0  0  0  0  0  0  0  0  # atno 17395 bound_to 11000

$$$$
