AV-unprocessed.smi:1024|AV-procd|sdf|4464|dock1
  -GOLD-   22720 2443D 1   1.00000     0.00000
 Structure written by MMmdl.
 48 50  0  0  0  0  0  0  0  0  2 V2000
  145.7748  138.6809  154.2742 O   0  0  0  0  0  0  0  0  0  0  0  0
  146.7953  139.1312  153.7506 C   0  0  0  0  0  0  0  0  0  0  0  0
  147.1976  138.7407  152.5290 N   0  0  0  0  0  0  0  0  0  0  0  0
  146.5181  137.7523  151.7006 C   0  0  0  0  0  0  0  0  0  0  0  0
  146.1241  136.5098  152.5164 C   0  0  0  0  0  0  0  0  0  0  0  0
  145.4183  135.5264  151.6946 N   0  0  0  0  0  0  0  0  0  0  0  0
  145.8047  134.2410  151.4149 C   0  0  0  0  0  0  0  0  0  0  0  0
  144.8337  133.7095  150.6054 C   0  0  0  0  0  0  0  0  0  0  0  0
  143.8972  134.6925  150.4257 N   0  3  0  0  0  0  0  0  0  0  0  0
  144.2553  135.7971  151.0883 C   0  0  0  0  0  0  0  0  0  0  0  0
  147.5849  140.0648  154.3397 N   0  0  0  0  0  0  0  0  0  0  0  0
  148.7743  140.6983  153.7500 C   0  0  0  0  0  0  0  0  0  0  0  0
  150.0307  140.0932  154.4055 C   0  0  0  0  0  0  0  0  0  0  0  0
  150.0465  140.2458  155.9527 C   0  0  0  0  0  0  0  0  0  0  0  0
  151.1854  139.3555  156.5152 C   0  0  0  0  0  0  0  0  0  0  0  0
  151.4352  139.5555  158.0205 C   0  0  0  0  0  0  0  0  0  0  0  0
  151.7372  141.0250  158.3413 C   0  0  0  0  0  0  0  0  0  0  0  0
  150.6178  141.9420  157.8309 C   0  0  0  0  0  0  0  0  0  0  0  0
  150.3535  141.7242  156.3294 C   0  0  0  0  0  0  0  0  0  0  0  0
  148.6701  139.7773  156.5134 C   0  0  0  0  0  0  0  0  0  0  0  0
  147.4708  140.3906  155.7646 C   0  0  0  0  0  0  0  0  0  0  0  0
  148.0364  139.1581  152.1522 H   0  0  0  0  0  0  0  0  0  0  0  0
  145.6392  138.2015  151.2346 H   0  0  0  0  0  0  0  0  0  0  0  0
  147.1879  137.4677  150.8886 H   0  0  0  0  0  0  0  0  0  0  0  0
  147.0071  136.0272  152.9375 H   0  0  0  0  0  0  0  0  0  0  0  0
  145.4754  136.7761  153.3524 H   0  0  0  0  0  0  0  0  0  0  0  0
  146.7179  133.8117  151.8012 H   0  0  0  0  0  0  0  0  0  0  0  0
  144.7418  132.7317  150.1553 H   0  0  0  0  0  0  0  0  0  0  0  0
  143.7133  136.7256  151.1248 H   0  0  0  0  0  0  0  0  0  0  0  0
  148.8410  140.5896  152.6678 H   0  0  0  0  0  0  0  0  0  0  0  0
  148.7326  141.7740  153.9219 H   0  0  0  0  0  0  0  0  0  0  0  0
  150.0744  139.0347  154.1441 H   0  0  0  0  0  0  0  0  0  0  0  0
  150.9247  140.5416  153.9705 H   0  0  0  0  0  0  0  0  0  0  0  0
  150.9737  138.3035  156.3205 H   0  0  0  0  0  0  0  0  0  0  0  0
  152.1116  139.5746  155.9816 H   0  0  0  0  0  0  0  0  0  0  0  0
  150.5706  139.2206  158.5937 H   0  0  0  0  0  0  0  0  0  0  0  0
  152.2701  138.9317  158.3399 H   0  0  0  0  0  0  0  0  0  0  0  0
  151.8658  141.1538  159.4164 H   0  0  0  0  0  0  0  0  0  0  0  0
  152.6826  141.3120  157.8793 H   0  0  0  0  0  0  0  0  0  0  0  0
  149.7075  141.7700  158.4047 H   0  0  0  0  0  0  0  0  0  0  0  0
  150.8902  142.9829  158.0071 H   0  0  0  0  0  0  0  0  0  0  0  0
  151.2366  142.0560  155.7817 H   0  0  0  0  0  0  0  0  0  0  0  0
  149.5492  142.3862  156.0117 H   0  0  0  0  0  0  0  0  0  0  0  0
  148.6001  138.6917  156.4323 H   0  0  0  0  0  0  0  0  0  0  0  0
  148.5793  139.9943  157.5765 H   0  0  0  0  0  0  0  0  0  0  0  0
  147.4452  141.4729  155.8922 H   0  0  0  0  0  0  0  0  0  0  0  0
  146.5404  140.0285  156.2034 H   0  0  0  0  0  0  0  0  0  0  0  0
  143.0551  134.6001  149.8716 H   0  0  0  0  0  0  0  0  0  0  0  0
  1  2  2  0  0  0  0
  2  3  1  0  0  0  0
  2 11  1  0  0  0  0
  3  4  1  0  0  0  0
  3 22  1  0  0  0  0
  4  5  1  0  0  0  0
  4 23  1  0  0  0  0
  4 24  1  0  0  0  0
  5  6  1  0  0  0  0
  5 25  1  0  0  0  0
  5 26  1  0  0  0  0
  6 10  1  0  0  0  0
  6  7  1  0  0  0  0
  7  8  2  0  0  0  0
  7 27  1  0  0  0  0
  8  9  1  0  0  0  0
  8 28  1  0  0  0  0
  9 10  2  0  0  0  0
  9 48  1  0  0  0  0
 10 29  1  0  0  0  0
 11 21  1  0  0  0  0
 11 12  1  0  0  0  0
 12 13  1  0  0  0  0
 12 30  1  0  0  0  0
 12 31  1  0  0  0  0
 13 14  1  0  0  0  0
 13 32  1  0  0  0  0
 13 33  1  0  0  0  0
 14 19  1  0  0  0  0
 14 15  1  0  0  0  0
 14 20  1  0  0  0  0
 15 16  1  0  0  0  0
 15 34  1  0  0  0  0
 15 35  1  0  0  0  0
 16 17  1  0  0  0  0
 16 36  1  0  0  0  0
 16 37  1  0  0  0  0
 17 18  1  0  0  0  0
 17 38  1  0  0  0  0
 17 39  1  0  0  0  0
 18 19  1  0  0  0  0
 18 40  1  0  0  0  0
 18 41  1  0  0  0  0
 19 42  1  0  0  0  0
 19 43  1  0  0  0  0
 20 21  1  0  0  0  0
 20 44  1  0  0  0  0
 20 45  1  0  0  0  0
 21 46  1  0  0  0  0
 21 47  1  0  0  0  0
M  CHG  1   9   1
M  END
> <s_m_source_file>
AV-unprocessed.smi

> <i_m_source_file_index>
1024

> <i_lp_mmshare_version>
43012

> <i_f3d_flags>
0

> <s_epik_input>
W2NIXTFuW2NIXVtjSF1uMVtDSDJdW0NIMl1bTkhdQyg9TylOKFtDSDJdW0NIMl0yKVtDSDJdW0NIMl1DMjNbQ0gyXVtDSDJdW0NIMl1bQ0gyXVtDSDJdMw==

> <s_epik_cmdline>
J2VwaWtfcHl0aG9uJywgJy1waCcsICc3LjAnLCAnLXRuJywgJzgnLCAnLW1hJywgJzIwMCcsICctbWV0YWxfYmluZGluZycsICctaW1hZScsICc8aW5maWxlLm1hZT4nLCAnLW9tYWUnLCAnPG91dGZpbGUubWFlPic=

> <r_lp_tautomer_probability>
1

> <r_epik_Ionization_Penalty>
0.249817

> <r_epik_Ionization_Penalty_Charging>
0

> <r_epik_Ionization_Penalty_Neutral>
0.249817

> <r_epik_State_Penalty>
0.241048

> <r_epik_Charging_Adjusted_Penalty>
0.241048

> <i_epik_Tot_Q>
1

> <i_epik_Tot_abs_Q>
1

> <r_epik_Metal_State_Penalty>
0.532587

> <b_epik_Metal_Only>
0

> <s_lp_Force_Field>
OPLS_2005

> <r_lp_Energy>
44.4362

> <b_lp_Chiralities_Consistent>
1

> <s_lp_Variant>
AV-unprocessed.smi:1024-1

> <Gold.Version>
5.8.1

> <Gold.Id.Protein>
6NUR|6NUR_protein|mol2

> <Gold.PLP.Fitness>
40.1758

> <Gold.PLP.PLP>
-28.4114

> <Gold.PLP.part.hbond>
-2.6092

> <Gold.PLP.part.metal>
0.0000

> <Gold.PLP.part.buried>
4.9349

> <Gold.PLP.part.nonpolar>
-31.4423

> <Gold.PLP.part.repulsive>
0.2088

> <Gold.PLP.ligand.clash>
0.0000

> <Gold.PLP.ligand.torsion>
0.1364

> <Gold.PLP.Chemscore.Hbond>
3.0000

> <Gold.PLP.Chemscore.CHOScore>
0.9994

> <Gold.PLP.Chemscore.Metal>
0.0000

> <Gold.Chemscore.Hbonds>
donor molecule, donor type, donor heavy atom, donor atom, acceptor molecule, acceptor atom, score
      L1  H     3    22       P1  7957  0.99
      L1  H     9    48       P1 10186  1.79
      L1  C    10    29       P1 10171  1.00

> <Gold.PLP.Chemscore.Internal.Correction>
0.0390

> <Gold.Rescore>
     Score         DG    S(hbond)    S(metal)    S(lipo)     H(rot)  DE(clash)    DE(int)     intcor
     11.67     -16.00       1.58        0.00      79.23       1.57       2.98       1.36       ----

> <Gold.Chemscore.Fitness>
11.6688

> <Gold.Chemscore.DG>
-16.0008

> <Gold.Chemscore.ZeroCoef>
-5.4800

> <Gold.Chemscore.Hbond>
1.5815

> <Gold.Chemscore.Metal>
0.0000

> <Gold.Chemscore.Lipo>
79.2307

> <Gold.Chemscore.Internal_Hbond>
0.0000

> <Gold.Chemscore.DEClash>
2.9764

> <Gold.Chemscore.DEInternal>
1.3556

> <Gold.Chemscore.Rot>
1.5747

> <Gold.Chemscore.Internal.Correction>
   9.000000E+99

> <Gold.Chemscore.Hbonds>
donor molecule, donor type, donor heavy atom, donor atom, acceptor molecule, acceptor atom, score
      L1  H     3    22       P1  7957  0.92
      L1  H     9    48       P1 10186  0.76

> <Gold.Chemscore.Hbond.Weighted>
-5.2821

> <Gold.Chemscore.Metal.Weighted>
-0.0000

> <Gold.Chemscore.Lipo.Weighted>
-9.2700

> <Gold.Chemscore.Internal_Hbond.Weighted>
0.0000

> <Gold.Chemscore.DEClash.Weighted>
2.9764

> <Gold.Chemscore.DEInternal.Weighted>
1.3556

> <Gold.Chemscore.Rot.Weighted>
4.0313

> <Gold.Chemscore.Internal.Correction.Weighted>
   9.000000E+99

> <Gold.Protein.RotatedTorsions>
[ 6907 6896 6895 6894 ] final   35.29 input  -60.11 | X-H torsion
[ 7974 7965 7964 7962 ] final  -11.26 input  175.53 | X-H torsion
[ 8008 7997 7996 7995 ] final -144.69 input   59.86 | X-H torsion
[ 10167 10162 10161 10158 ] final  -65.29 input  -65.29 | X-H torsion
[ 10718 10713 10712 10709 ] final -158.99 input   66.30 | X-H torsion
[ 10763 10752 10751 10750 ] final   40.55 input  -60.55 | X-H torsion
[ 11005 11000 10999 10996 ] final  -12.78 input  -57.11 | X-H torsion

> <Gold.Protein.ActiveResidues>
 VAL166  LYS551  ARG553  GLY616  TRP617  ASP618  TYR619  PRO620  LYS621  CYS622 
 ASP623  PHE694  ASN695  SER759  ASP760  ASP761  ALA762  ILE779  LEU786  VAL792 
 PHE793  MET794  SER795  GLU796  ALA797  LYS798  CYS799  TRP800  GLU811  SER814 

> <Gold.Protein.RotatedAtoms>
  152.1141  134.9253  160.0565 H   0  0  0  0  0  0  0  0  0  0  0  0  # atno 6907 bound_to 6896
  152.0419  133.3976  159.4348 H   0  0  0  0  0  0  0  0  0  0  0  0  # atno 6908 bound_to 6896
  150.6845  134.3326  159.4877 H   0  0  0  0  0  0  0  0  0  0  0  0  # atno 6909 bound_to 6896
  146.2193  140.2885  142.8367 H   0  0  0  0  0  0  0  0  0  0  0  0  # atno 7974 bound_to 7965
  155.5310  140.0599  157.2889 H   0  0  0  0  0  0  0  0  0  0  0  0  # atno 8008 bound_to 7997
  154.4484  140.1936  156.0539 H   0  0  0  0  0  0  0  0  0  0  0  0  # atno 8009 bound_to 7997
  156.0652  140.3267  155.7513 H   0  0  0  0  0  0  0  0  0  0  0  0  # atno 8010 bound_to 7997
  140.5740  143.2320  151.6479 H   0  0  0  0  0  0  0  0  0  0  0  0  # atno 10167 bound_to 10162
  156.5618  130.8650  151.2812 H   0  0  0  0  0  0  0  0  0  0  0  0  # atno 10718 bound_to 10713
  152.9933  135.6188  154.2644 H   0  0  0  0  0  0  0  0  0  0  0  0  # atno 10763 bound_to 10752
  154.2379  135.2789  155.2867 H   0  0  0  0  0  0  0  0  0  0  0  0  # atno 10764 bound_to 10752
  154.5394  135.5765  153.6884 H   0  0  0  0  0  0  0  0  0  0  0  0  # atno 10765 bound_to 10752
  140.7693  133.8452  155.9192 H   0  0  0  0  0  0  0  0  0  0  0  0  # atno 11005 bound_to 11000
  144.9144  140.7796  143.5787 LP  0  0  0  0  0  0  0  0  0  0  0  0  # atno 17320 bound_to 7965
  145.2817  139.1916  143.4787 LP  0  0  0  0  0  0  0  0  0  0  0  0  # atno 17321 bound_to 7965
  139.5133  144.3448  152.0707 LP  0  0  0  0  0  0  0  0  0  0  0  0  # atno 17342 bound_to 10162
  140.2589  144.4088  150.6193 LP  0  0  0  0  0  0  0  0  0  0  0  0  # atno 17343 bound_to 10162
  157.7367  130.9783  150.2150 LP  0  0  0  0  0  0  0  0  0  0  0  0  # atno 17370 bound_to 10713
  156.2792  130.3731  149.7953 LP  0  0  0  0  0  0  0  0  0  0  0  0  # atno 17371 bound_to 10713
  140.9589  134.1681  157.4669 LP  0  0  0  0  0  0  0  0  0  0  0  0  # atno 17394 bound_to 11000
  139.8758  134.9937  156.5659 LP  0  0  0  0  0  0  0  0  0  0  0  0  # atno 17395 bound_to 11000

$$$$
