AV-unprocessed.smi:2556|AV-procd|sdf|10024|dock6
  -GOLD-   2272014 73D 1   1.00000     0.00000
 Structure written by MMmdl.
 35 37  0  0  0  0  0  0  0  0  1 V2000
  152.2596  138.0898  154.1196 C   0  0  0  0  0  0  0  0  0  0  0  0
  151.5604  138.2026  155.4013 N   0  0  0  0  0  0  0  0  0  0  0  0
  151.5527  137.1791  156.3180 C   0  0  0  0  0  0  0  0  0  0  0  0
  152.1320  136.1107  156.1257 O   0  0  0  0  0  0  0  0  0  0  0  0
  150.8676  137.3767  157.4869 N   0  0  0  0  0  0  0  0  0  0  0  0
  150.1829  138.4838  157.8646 C   0  0  0  0  0  0  0  0  0  0  0  0
  149.5894  138.5884  158.9362 O   0  0  0  0  0  0  0  0  0  0  0  0
  150.2250  139.5504  156.8600 C   0  0  0  0  0  0  0  0  0  0  0  0
  150.8828  139.4223  155.6786 C   0  0  0  0  0  0  0  0  0  0  0  0
  150.7671  140.5766  154.9119 N   0  0  0  0  0  0  0  0  0  0  0  0
  150.0248  141.3597  155.6979 C   0  0  0  0  0  0  0  0  0  0  0  0
  149.6605  140.8221  156.8806 N   0  0  0  0  0  0  0  0  0  0  0  0
  148.8589  141.4557  157.9157 C   0  0  0  0  0  0  0  0  0  0  0  0
  149.2245  142.9384  158.1285 C   0  0  1  0  0  0  0  0  0  0  0  0
  148.2715  143.5535  158.9747 O   0  0  0  0  0  0  0  0  0  0  0  0
  150.6442  143.0851  158.6535 C   0  0  0  0  0  0  0  0  0  0  0  0
  151.4446  141.9470  158.8988 C   0  0  0  0  0  0  0  0  0  0  0  0
  152.7615  142.0945  159.3759 C   0  0  0  0  0  0  0  0  0  0  0  0
  153.2876  143.3797  159.6073 C   0  0  0  0  0  0  0  0  0  0  0  0
  152.4959  144.5177  159.3608 C   0  0  0  0  0  0  0  0  0  0  0  0
  151.1786  144.3711  158.8839 C   0  0  0  0  0  0  0  0  0  0  0  0
  150.8742  136.6094  158.1429 H   0  0  0  0  0  0  0  0  0  0  0  0
  152.7240  137.1178  153.9501 H   0  0  0  0  0  0  0  0  0  0  0  0
  153.0451  138.8434  154.0567 H   0  0  0  0  0  0  0  0  0  0  0  0
  151.5630  138.2632  153.2987 H   0  0  0  0  0  0  0  0  0  0  0  0
  149.7390  142.3595  155.4049 H   0  0  0  0  0  0  0  0  0  0  0  0
  147.8065  141.3618  157.6439 H   0  0  0  0  0  0  0  0  0  0  0  0
  148.9856  140.8943  158.8418 H   0  0  0  0  0  0  0  0  0  0  0  0
  149.1638  143.4588  157.1722 H   0  0  0  0  0  0  0  0  0  0  0  0
  147.9048  144.2968  158.5205 H   0  0  0  0  0  0  0  0  0  0  0  0
  151.0528  140.9564  158.7192 H   0  0  0  0  0  0  0  0  0  0  0  0
  153.3688  141.2210  159.5621 H   0  0  0  0  0  0  0  0  0  0  0  0
  154.2981  143.4924  159.9716 H   0  0  0  0  0  0  0  0  0  0  0  0
  152.9000  145.5040  159.5355 H   0  0  0  0  0  0  0  0  0  0  0  0
  150.5806  145.2504  158.6932 H   0  0  0  0  0  0  0  0  0  0  0  0
  1  2  1  0  0  0  0
  1 23  1  0  0  0  0
  1 24  1  0  0  0  0
  1 25  1  0  0  0  0
  2  9  1  0  0  0  0
  2  3  1  0  0  0  0
  3  4  2  0  0  0  0
  3  5  1  0  0  0  0
  5 22  1  0  0  0  0
  5  6  1  0  0  0  0
  6  7  2  0  0  0  0
  6  8  1  0  0  0  0
  8 12  1  0  0  0  0
  8  9  2  0  0  0  0
  9 10  1  0  0  0  0
 10 11  2  0  0  0  0
 11 12  1  0  0  0  0
 11 26  1  0  0  0  0
 12 13  1  0  0  0  0
 13 14  1  0  0  0  0
 13 27  1  0  0  0  0
 13 28  1  0  0  0  0
 14 15  1  0  0  0  0
 14 16  1  0  0  0  0
 14 29  1  0  0  0  0
 15 30  1  0  0  0  0
 16 21  1  0  0  0  0
 16 17  2  0  0  0  0
 17 18  1  0  0  0  0
 17 31  1  0  0  0  0
 18 19  2  0  0  0  0
 18 32  1  0  0  0  0
 19 20  1  0  0  0  0
 19 33  1  0  0  0  0
 20 21  2  0  0  0  0
 20 34  1  0  0  0  0
 21 35  1  0  0  0  0
M  END
> <s_m_source_file>
AV-unprocessed.smi

> <i_m_source_file_index>
2556

> <i_lp_mmshare_version>
43012

> <i_f3d_flags>
0

> <s_epik_input>
Tz1jMVtuSF1jKD1PKW4oW0NIM10pYyhjMTIpbltjSF1uMltDSDJdW0NASF0oW09IXSljM1tjSF1bY0hdW2NIXVtjSF1bY0hdMw==

> <s_epik_cmdline>
J2VwaWtfcHl0aG9uJywgJy1waCcsICc3LjAnLCAnLXRuJywgJzgnLCAnLW1hJywgJzIwMCcsICctbWV0YWxfYmluZGluZycsICctaW1hZScsICc8aW5maWxlLm1hZT4nLCAnLW9tYWUnLCAnPG91dGZpbGUubWFlPic=

> <r_lp_tautomer_probability>
1

> <r_epik_Ionization_Penalty>
0.000177505

> <r_epik_Ionization_Penalty_Charging>
0.000176585

> <r_epik_Ionization_Penalty_Neutral>
9.19728e-07

> <r_epik_State_Penalty>
-0

> <r_epik_Charging_Adjusted_Penalty>
0.000176585

> <i_epik_Tot_Q>
0

> <i_epik_Tot_abs_Q>
0

> <r_epik_Metal_State_Penalty>
0.122509

> <b_epik_Metal_Only>
0

> <s_lp_Force_Field>
OPLS_2005

> <r_lp_Energy>
28.4521

> <b_lp_Chiralities_Consistent>
1

> <s_lp_Variant>
AV-unprocessed.smi:2556-2

> <Gold.Version>
5.8.1

> <Gold.Id.Protein>
6NUR|6NUR_protein|mol2

> <Gold.PLP.Fitness>
46.5954

> <Gold.PLP.PLP>
-35.1775

> <Gold.PLP.part.hbond>
-4.1941

> <Gold.PLP.part.metal>
0.0000

> <Gold.PLP.part.buried>
-3.0906

> <Gold.PLP.part.nonpolar>
-27.4272

> <Gold.PLP.part.repulsive>
0.1434

> <Gold.PLP.ligand.clash>
0.0000

> <Gold.PLP.ligand.torsion>
0.3022

> <Gold.PLP.Chemscore.Hbond>
3.0000

> <Gold.PLP.Chemscore.CHOScore>
1.0000

> <Gold.PLP.Chemscore.Metal>
0.0000

> <Gold.Chemscore.Hbonds>
donor molecule, donor type, donor heavy atom, donor atom, acceptor molecule, acceptor atom, score
      L1  H    15    30       P1  8029  0.93
      P1  H  7989  7998       L1    10  0.99
      P1  H 10752 10764       L1     4  1.00
      L1  C    11    26       P1  8028  1.00

> <Gold.PLP.Chemscore.Internal.Correction>
0.0224

> <Gold.Rescore>
     Score         DG    S(hbond)    S(metal)    S(lipo)     H(rot)  DE(clash)    DE(int)     intcor
     17.28     -18.96       2.82        0.00      85.18       2.31       0.26       1.42       ----

> <Gold.Chemscore.Fitness>
17.2812

> <Gold.Chemscore.DG>
-18.9608

> <Gold.Chemscore.ZeroCoef>
-5.4800

> <Gold.Chemscore.Hbond>
2.8241

> <Gold.Chemscore.Metal>
0.0000

> <Gold.Chemscore.Lipo>
85.1770

> <Gold.Chemscore.Internal_Hbond>
0.0000

> <Gold.Chemscore.DEClash>
0.2592

> <Gold.Chemscore.DEInternal>
1.4204

> <Gold.Chemscore.Rot>
2.3115

> <Gold.Chemscore.Internal.Correction>
   9.000000E+99

> <Gold.Chemscore.Hbonds>
donor molecule, donor type, donor heavy atom, donor atom, acceptor molecule, acceptor atom, score
      L1  H    15    30       P1  8029  0.72
      P1  H  7989  7998       L1    10  0.94
      P1  H 10752 10764       L1     4  0.99

> <Gold.Chemscore.Hbond.Weighted>
-9.4325

> <Gold.Chemscore.Metal.Weighted>
-0.0000

> <Gold.Chemscore.Lipo.Weighted>
-9.9657

> <Gold.Chemscore.Internal_Hbond.Weighted>
0.0000

> <Gold.Chemscore.DEClash.Weighted>
0.2592

> <Gold.Chemscore.DEInternal.Weighted>
1.4204

> <Gold.Chemscore.Rot.Weighted>
5.9174

> <Gold.Chemscore.Internal.Correction.Weighted>
   9.000000E+99

> <Gold.Protein.RotatedTorsions>
[ 6907 6896 6895 6894 ] final  -84.12 input  -60.11 | X-H torsion
[ 7974 7965 7964 7962 ] final  -56.47 input  175.53 | X-H torsion
[ 8008 7997 7996 7995 ] final  -18.88 input   59.86 | X-H torsion
[ 10167 10162 10161 10158 ] final  -22.08 input  -65.29 | X-H torsion
[ 10718 10713 10712 10709 ] final -116.71 input   66.30 | X-H torsion
[ 10763 10752 10751 10750 ] final  -19.92 input  -60.55 | X-H torsion
[ 11005 11000 10999 10996 ] final   86.72 input  -57.11 | X-H torsion

> <Gold.Protein.ActiveResidues>
 VAL166  LYS551  ARG553  GLY616  TRP617  ASP618  TYR619  PRO620  LYS621  CYS622 
 ASP623  PHE694  ASN695  SER759  ASP760  ASP761  ALA762  ILE779  LEU786  VAL792 
 PHE793  MET794  SER795  GLU796  ALA797  LYS798  CYS799  TRP800  GLU811  SER814 

> <Gold.Protein.RotatedAtoms>
  150.6879  134.3407  159.4866 H   0  0  0  0  0  0  0  0  0  0  0  0  # atno 6907 bound_to 6896
  152.1261  134.9167  160.0570 H   0  0  0  0  0  0  0  0  0  0  0  0  # atno 6908 bound_to 6896
  152.0355  133.3920  159.4352 H   0  0  0  0  0  0  0  0  0  0  0  0  # atno 6909 bound_to 6896
  145.8623  140.8277  142.9931 H   0  0  0  0  0  0  0  0  0  0  0  0  # atno 7974 bound_to 7965
  154.4875  140.2104  155.9622 H   0  0  0  0  0  0  0  0  0  0  0  0  # atno 8008 bound_to 7997
  156.1257  140.3205  155.8243 H   0  0  0  0  0  0  0  0  0  0  0  0  # atno 8009 bound_to 7997
  155.4387  140.0508  157.3003 H   0  0  0  0  0  0  0  0  0  0  0  0  # atno 8010 bound_to 7997
  140.7284  143.4568  151.0437 H   0  0  0  0  0  0  0  0  0  0  0  0  # atno 10167 bound_to 10162
  156.0983  130.6150  150.9071 H   0  0  0  0  0  0  0  0  0  0  0  0  # atno 10718 bound_to 10713
  153.6123  135.6996  153.5342 H   0  0  0  0  0  0  0  0  0  0  0  0  # atno 10763 bound_to 10752
  153.3007  135.4130  155.1249 H   0  0  0  0  0  0  0  0  0  0  0  0  # atno 10764 bound_to 10752
  154.8561  135.3648  154.5661 H   0  0  0  0  0  0  0  0  0  0  0  0  # atno 10765 bound_to 10752
  139.8937  134.8374  156.2760 H   0  0  0  0  0  0  0  0  0  0  0  0  # atno 11005 bound_to 11000
  144.6726  140.1113  143.7455 LP  0  0  0  0  0  0  0  0  0  0  0  0  # atno 17320 bound_to 7965
  145.9234  139.2560  143.1368 LP  0  0  0  0  0  0  0  0  0  0  0  0  # atno 17321 bound_to 7965
  139.8249  143.7769  152.3178 LP  0  0  0  0  0  0  0  0  0  0  0  0  # atno 17342 bound_to 10162
  139.7865  144.7426  151.0015 LP  0  0  0  0  0  0  0  0  0  0  0  0  # atno 17343 bound_to 10162
  157.6148  131.0934  150.8730 LP  0  0  0  0  0  0  0  0  0  0  0  0  # atno 17370 bound_to 10713
  156.8863  130.5197  149.5288 LP  0  0  0  0  0  0  0  0  0  0  0  0  # atno 17371 bound_to 10713
  141.0070  133.7118  156.1050 LP  0  0  0  0  0  0  0  0  0  0  0  0  # atno 17394 bound_to 11000
  140.7420  134.4139  157.5553 LP  0  0  0  0  0  0  0  0  0  0  0  0  # atno 17395 bound_to 11000

$$$$
