AV-unprocessed.smi:2931|AV-procd|sdf|11244|dock3
  -GOLD-   2272016133D 1   1.00000     0.00000
 Structure written by MMmdl.
 42 43  0  0  0  0  0  0  0  0  2 V2000
  145.7054  135.3969  151.6034 C   0  0  0  0  0  0  0  0  0  0  0  0
  146.3932  136.6645  151.9279 N   0  3  1  0  0  0  0  0  0  0  0  0
  146.0322  137.7601  150.9932 C   0  0  0  0  0  0  0  0  0  0  0  0
  146.8515  139.0309  151.2808 C   0  0  0  0  0  0  0  0  0  0  0  0
  146.7261  139.4605  152.7534 C   0  0  0  0  0  0  0  0  0  0  0  0
  147.0714  138.2955  153.6985 C   0  0  2  0  0  0  0  0  0  0  0  0
  148.4993  137.9926  153.6056 N   0  0  0  0  0  0  0  0  0  0  0  0
  149.4121  138.2565  154.5499 C   0  0  0  0  0  0  0  0  0  0  0  0
  149.1659  138.8410  155.6044 O   0  0  0  0  0  0  0  0  0  0  0  0
  150.6137  137.7617  154.2252 N   0  0  0  0  0  0  0  0  0  0  0  0
  151.7831  137.7534  155.0991 C   0  0  0  0  0  0  0  0  0  0  0  0
  152.4928  139.1224  155.1738 C   0  0  0  0  0  0  0  0  0  0  0  0
  151.8879  140.0728  156.1947 C   0  0  0  0  0  0  0  0  0  0  0  0
  152.1905  139.9456  157.5671 C   0  0  0  0  0  0  0  0  0  0  0  0
  151.6121  140.8598  158.4700 C   0  0  0  0  0  0  0  0  0  0  0  0
  150.7890  141.8592  158.0885 N   0  0  0  0  0  0  0  0  0  0  0  0
  150.5015  141.9735  156.7738 C   0  0  0  0  0  0  0  0  0  0  0  0
  151.0227  141.1097  155.7895 C   0  0  0  0  0  0  0  0  0  0  0  0
  146.2027  137.0666  153.3442 C   0  0  0  0  0  0  0  0  0  0  0  0
  144.6240  135.5025  151.6978 H   0  0  0  0  0  0  0  0  0  0  0  0
  146.0315  134.5994  152.2718 H   0  0  0  0  0  0  0  0  0  0  0  0
  145.9325  135.0875  150.5827 H   0  0  0  0  0  0  0  0  0  0  0  0
  146.2094  137.4375  149.9665 H   0  0  0  0  0  0  0  0  0  0  0  0
  144.9659  137.9753  151.0785 H   0  0  0  0  0  0  0  0  0  0  0  0
  147.8991  138.8519  151.0353 H   0  0  0  0  0  0  0  0  0  0  0  0
  146.5214  139.8406  150.6293 H   0  0  0  0  0  0  0  0  0  0  0  0
  147.3682  140.3195  152.9528 H   0  0  0  0  0  0  0  0  0  0  0  0
  145.7046  139.7914  152.9462 H   0  0  0  0  0  0  0  0  0  0  0  0
  146.8554  138.6036  154.7230 H   0  0  0  0  0  0  0  0  0  0  0  0
  148.8083  137.5164  152.7707 H   0  0  0  0  0  0  0  0  0  0  0  0
  150.7149  137.3027  153.3317 H   0  0  0  0  0  0  0  0  0  0  0  0
  151.4328  137.4770  156.0940 H   0  0  0  0  0  0  0  0  0  0  0  0
  152.4826  136.9749  154.7913 H   0  0  0  0  0  0  0  0  0  0  0  0
  153.5477  138.9772  155.4091 H   0  0  0  0  0  0  0  0  0  0  0  0
  152.4699  139.5980  154.1925 H   0  0  0  0  0  0  0  0  0  0  0  0
  152.8505  139.1675  157.9222 H   0  0  0  0  0  0  0  0  0  0  0  0
  151.8208  140.7900  159.5271 H   0  0  0  0  0  0  0  0  0  0  0  0
  149.8378  142.7793  156.4973 H   0  0  0  0  0  0  0  0  0  0  0  0
  150.7657  141.2444  154.7489 H   0  0  0  0  0  0  0  0  0  0  0  0
  145.1491  137.2925  153.5171 H   0  0  0  0  0  0  0  0  0  0  0  0
  146.4469  136.2285  153.9982 H   0  0  0  0  0  0  0  0  0  0  0  0
  147.3815  136.4930  151.8093 H   0  0  0  0  0  0  0  0  0  0  0  0
  1  2  1  0  0  0  0
  1 20  1  0  0  0  0
  1 21  1  0  0  0  0
  1 22  1  0  0  0  0
  2 19  1  0  0  0  0
  2  3  1  0  0  0  0
  2 42  1  0  0  0  0
  3  4  1  0  0  0  0
  3 23  1  0  0  0  0
  3 24  1  0  0  0  0
  4  5  1  0  0  0  0
  4 25  1  0  0  0  0
  4 26  1  0  0  0  0
  5  6  1  0  0  0  0
  5 27  1  0  0  0  0
  5 28  1  0  0  0  0
  6  7  1  0  0  0  0
  6 19  1  0  0  0  0
  6 29  1  0  0  0  0
  7  8  1  0  0  0  0
  7 30  1  0  0  0  0
  8  9  2  0  0  0  0
  8 10  1  0  0  0  0
 10 11  1  0  0  0  0
 10 31  1  0  0  0  0
 11 12  1  0  0  0  0
 11 32  1  0  0  0  0
 11 33  1  0  0  0  0
 12 13  1  0  0  0  0
 12 34  1  0  0  0  0
 12 35  1  0  0  0  0
 13 18  1  0  0  0  0
 13 14  2  0  0  0  0
 14 15  1  0  0  0  0
 14 36  1  0  0  0  0
 15 16  2  0  0  0  0
 15 37  1  0  0  0  0
 16 17  1  0  0  0  0
 17 18  2  0  0  0  0
 17 38  1  0  0  0  0
 18 39  1  0  0  0  0
 19 40  1  0  0  0  0
 19 41  1  0  0  0  0
M  CHG  1   2   1
M  END
> <s_m_source_file>
AV-unprocessed.smi

> <i_m_source_file_index>
2931

> <i_lp_mmshare_version>
43012

> <i_f3d_flags>
0

> <s_epik_input>
W0NIM11OMVtDSDJdW0NIMl1bQ0gyXVtDQEhdKFtDSDJdMSlbTkhdQyg9TylbTkhdW0NIMl1bQ0gyXWMyW2NIXVtjSF1uW2NIXVtjSF0y

> <s_epik_cmdline>
J2VwaWtfcHl0aG9uJywgJy1waCcsICc3LjAnLCAnLXRuJywgJzgnLCAnLW1hJywgJzIwMCcsICctbWV0YWxfYmluZGluZycsICctaW1hZScsICc8aW5maWxlLm1hZT4nLCAnLW9tYWUnLCAnPG91dGZpbGUubWFlPic=

> <r_epik_Ionization_Penalty>
0.0573876

> <r_epik_Ionization_Penalty_Charging>
0.00229982

> <r_epik_Ionization_Penalty_Neutral>
0.0550878

> <r_epik_State_Penalty>
0.0473925

> <r_epik_Charging_Adjusted_Penalty>
0.0496923

> <i_epik_Tot_Q>
1

> <i_epik_Tot_abs_Q>
1

> <r_epik_Metal_State_Penalty>
0.0433388

> <b_epik_Metal_Only>
0

> <s_lp_Force_Field>
OPLS_2005

> <r_lp_Energy>
20.0995

> <b_lp_Chiralities_Consistent>
1

> <s_lp_Variant>
AV-unprocessed.smi:2931-3

> <Gold.Version>
5.8.1

> <Gold.Id.Protein>
6NUR|6NUR_protein|mol2

> <Gold.PLP.Fitness>
42.9787

> <Gold.PLP.PLP>
-31.6535

> <Gold.PLP.part.hbond>
-2.3275

> <Gold.PLP.part.metal>
0.0000

> <Gold.PLP.part.buried>
2.4890

> <Gold.PLP.part.nonpolar>
-32.3972

> <Gold.PLP.part.repulsive>
0.2158

> <Gold.PLP.ligand.clash>
0.0000

> <Gold.PLP.ligand.torsion>
0.6370

> <Gold.PLP.Chemscore.Hbond>
3.1934

> <Gold.PLP.Chemscore.CHOScore>
1.0000

> <Gold.PLP.Chemscore.Metal>
0.0000

> <Gold.Chemscore.Hbonds>
donor molecule, donor type, donor heavy atom, donor atom, acceptor molecule, acceptor atom, score
      L1  H     2    42       P1  7948  2.00
      L1  H     7    30       P1  7948  1.00
      L1  H    10    31       P1  7949  0.22
      L1  C    17    38       P1  8028  1.00

> <Gold.PLP.Chemscore.Internal.Correction>
0.0191

> <Gold.Rescore>
     Score         DG    S(hbond)    S(metal)    S(lipo)     H(rot)  DE(clash)    DE(int)     intcor
     16.30     -18.09       2.00        0.00      84.93       1.56       1.22       0.58       ----

> <Gold.Chemscore.Fitness>
16.2968

> <Gold.Chemscore.DG>
-18.0935

> <Gold.Chemscore.ZeroCoef>
-5.4800

> <Gold.Chemscore.Hbond>
1.9964

> <Gold.Chemscore.Metal>
0.0000

> <Gold.Chemscore.Lipo>
84.9306

> <Gold.Chemscore.Internal_Hbond>
0.0000

> <Gold.Chemscore.DEClash>
1.2213

> <Gold.Chemscore.DEInternal>
0.5754

> <Gold.Chemscore.Rot>
1.5592

> <Gold.Chemscore.Internal.Correction>
   9.000000E+99

> <Gold.Chemscore.Hbonds>
donor molecule, donor type, donor heavy atom, donor atom, acceptor molecule, acceptor atom, score
      L1  H     2    42       P1  7948  0.97
      L1  H     7    30       P1  7948  0.94
      L1  H    10    31       P1  7949  0.02

> <Gold.Chemscore.Hbond.Weighted>
-6.6681

> <Gold.Chemscore.Metal.Weighted>
-0.0000

> <Gold.Chemscore.Lipo.Weighted>
-9.9369

> <Gold.Chemscore.Internal_Hbond.Weighted>
0.0000

> <Gold.Chemscore.DEClash.Weighted>
1.2213

> <Gold.Chemscore.DEInternal.Weighted>
0.5754

> <Gold.Chemscore.Rot.Weighted>
3.9915

> <Gold.Chemscore.Internal.Correction.Weighted>
   9.000000E+99

> <Gold.Protein.RotatedTorsions>
[ 6907 6896 6895 6894 ] final -135.34 input  -60.11 | X-H torsion
[ 7974 7965 7964 7962 ] final -137.84 input  175.53 | X-H torsion
[ 8008 7997 7996 7995 ] final  139.48 input   59.86 | X-H torsion
[ 10167 10162 10161 10158 ] final  -86.84 input  -65.29 | X-H torsion
[ 10718 10713 10712 10709 ] final  -12.58 input   66.30 | X-H torsion
[ 10763 10752 10751 10750 ] final   26.22 input  -60.55 | X-H torsion
[ 11005 11000 10999 10996 ] final    6.71 input  -57.11 | X-H torsion

> <Gold.Protein.ActiveResidues>
 VAL166  LYS551  ARG553  GLY616  TRP617  ASP618  TYR619  PRO620  LYS621  CYS622 
 ASP623  PHE694  ASN695  SER759  ASP760  ASP761  ALA762  ILE779  LEU786  VAL792 
 PHE793  MET794  SER795  GLU796  ALA797  LYS798  CYS799  TRP800  GLU811  SER814 

> <Gold.Protein.RotatedAtoms>
  150.9966  133.6097  159.2700 H   0  0  0  0  0  0  0  0  0  0  0  0  # atno 6907 bound_to 6896
  151.3298  135.0838  159.9344 H   0  0  0  0  0  0  0  0  0  0  0  0  # atno 6908 bound_to 6896
  152.5262  133.9598  159.7766 H   0  0  0  0  0  0  0  0  0  0  0  0  # atno 6909 bound_to 6896
  144.8808  140.6505  143.5207 H   0  0  0  0  0  0  0  0  0  0  0  0  # atno 7974 bound_to 7965
  156.2989  140.2366  156.4245 H   0  0  0  0  0  0  0  0  0  0  0  0  # atno 8008 bound_to 7997
  154.8325  140.0432  157.1507 H   0  0  0  0  0  0  0  0  0  0  0  0  # atno 8009 bound_to 7997
  154.9192  140.3001  155.5229 H   0  0  0  0  0  0  0  0  0  0  0  0  # atno 8010 bound_to 7997
  140.3903  143.2708  151.9273 H   0  0  0  0  0  0  0  0  0  0  0  0  # atno 10167 bound_to 10162
  156.6425  130.4932  149.6090 H   0  0  0  0  0  0  0  0  0  0  0  0  # atno 10718 bound_to 10713
  153.0637  135.6565  154.0402 H   0  0  0  0  0  0  0  0  0  0  0  0  # atno 10763 bound_to 10752
  154.0064  135.2932  155.3398 H   0  0  0  0  0  0  0  0  0  0  0  0  # atno 10764 bound_to 10752
  154.6987  135.5253  153.8563 H   0  0  0  0  0  0  0  0  0  0  0  0  # atno 10765 bound_to 10752
  140.5564  134.0234  155.7955 H   0  0  0  0  0  0  0  0  0  0  0  0  # atno 11005 bound_to 11000
  145.3957  139.1607  143.4205 LP  0  0  0  0  0  0  0  0  0  0  0  0  # atno 17320 bound_to 7965
  146.2993  140.4050  142.8710 LP  0  0  0  0  0  0  0  0  0  0  0  0  # atno 17321 bound_to 7965
  139.4789  144.5734  151.8051 LP  0  0  0  0  0  0  0  0  0  0  0  0  # atno 17342 bound_to 10162
  140.4847  144.1399  150.5939 LP  0  0  0  0  0  0  0  0  0  0  0  0  # atno 17343 bound_to 10162
  156.2148  130.6701  151.1307 LP  0  0  0  0  0  0  0  0  0  0  0  0  # atno 17370 bound_to 10713
  157.7166  131.0706  150.6301 LP  0  0  0  0  0  0  0  0  0  0  0  0  # atno 17371 bound_to 10713
  141.1141  133.9569  157.2855 LP  0  0  0  0  0  0  0  0  0  0  0  0  # atno 17394 bound_to 11000
  139.9429  135.0188  156.8765 LP  0  0  0  0  0  0  0  0  0  0  0  0  # atno 17395 bound_to 11000

$$$$
