AV-unprocessed.smi:718|AV-procd|sdf|3491|dock10
  -GOLD-   22720 0483D 1   1.00000     0.00000
 Structure written by MMmdl.
 27 28  0  0  0  0  0  0  0  0  1 V2000
  150.7883  142.1306  157.7852 O   0  0  0  0  0  0  0  0  0  0  0  0
  151.7572  141.4084  157.5477 C   0  0  0  0  0  0  0  0  0  0  0  0
  152.8106  141.2578  158.3739 N   0  0  0  0  0  0  0  0  0  0  0  0
  153.0235  141.8422  159.6503 C   0  0  0  0  0  0  0  0  0  0  0  0
  153.7513  141.0428  160.5599 C   0  0  0  0  0  0  0  0  0  0  0  0
  154.0168  141.5298  161.8549 C   0  0  0  0  0  0  0  0  0  0  0  0
  154.9062  140.5598  162.9741 Cl  0  0  0  0  0  0  0  0  0  0  0  0
  153.5448  142.8103  162.2071 C   0  0  0  0  0  0  0  0  0  0  0  0
  153.8265  143.4822  163.7734 Cl  0  0  0  0  0  0  0  0  0  0  0  0
  152.8284  143.5399  161.2404 C   0  0  0  0  0  0  0  0  0  0  0  0
  152.5740  143.0733  159.9997 N   0  0  0  0  0  0  0  0  0  0  0  0
  151.8275  140.6304  156.2245 C   0  0  2  0  0  0  0  0  0  0  0  0
  150.4407  140.4330  155.5692 C   0  0  0  0  0  0  0  0  0  0  0  0
  150.5875  139.6760  154.3748 O   0  0  0  0  0  0  0  0  0  0  0  0
  151.1550  138.4002  154.6358 C   0  0  0  0  0  0  0  0  0  0  0  0
  152.5397  138.5923  155.2747 C   0  0  0  0  0  0  0  0  0  0  0  0
  152.3963  139.3459  156.4712 O   0  0  0  0  0  0  0  0  0  0  0  0
  153.5398  140.6392  158.0501 H   0  0  0  0  0  0  0  0  0  0  0  0
  154.1049  140.0636  160.2710 H   0  0  0  0  0  0  0  0  0  0  0  0
  152.4486  144.5254  161.4667 H   0  0  0  0  0  0  0  0  0  0  0  0
  152.4785  141.1881  155.5488 H   0  0  0  0  0  0  0  0  0  0  0  0
  149.7501  139.9291  156.2478 H   0  0  0  0  0  0  0  0  0  0  0  0
  149.9941  141.3938  155.3110 H   0  0  0  0  0  0  0  0  0  0  0  0
  150.5006  137.8215  155.2895 H   0  0  0  0  0  0  0  0  0  0  0  0
  151.2420  137.8504  153.6987 H   0  0  0  0  0  0  0  0  0  0  0  0
  152.9841  137.6260  155.5135 H   0  0  0  0  0  0  0  0  0  0  0  0
  153.2197  139.0992  154.5882 H   0  0  0  0  0  0  0  0  0  0  0  0
  1  2  2  0  0  0  0
  2  3  1  0  0  0  0
  2 12  1  0  0  0  0
  3  4  1  0  0  0  0
  3 18  1  0  0  0  0
  4 11  1  0  0  0  0
  4  5  2  0  0  0  0
  5  6  1  0  0  0  0
  5 19  1  0  0  0  0
  6  7  1  0  0  0  0
  6  8  2  0  0  0  0
  8  9  1  0  0  0  0
  8 10  1  0  0  0  0
 10 11  2  0  0  0  0
 10 20  1  0  0  0  0
 12 17  1  0  0  0  0
 12 13  1  0  0  0  0
 12 21  1  0  0  0  0
 13 14  1  0  0  0  0
 13 22  1  0  0  0  0
 13 23  1  0  0  0  0
 14 15  1  0  0  0  0
 15 16  1  0  0  0  0
 15 24  1  0  0  0  0
 15 25  1  0  0  0  0
 16 17  1  0  0  0  0
 16 26  1  0  0  0  0
 16 27  1  0  0  0  0
M  END
> <s_m_source_file>
AV-unprocessed.smi

> <i_m_source_file_index>
718

> <i_lp_mmshare_version>
43012

> <i_f3d_flags>
0

> <s_epik_input>
TzFbQ0gyXVtDSDJdT1tDSDJdW0NASF0xQyg9TylbTkhdYzJbY0hdYyhDbCljKENsKVtjSF1uMg==

> <s_epik_cmdline>
J2VwaWtfcHl0aG9uJywgJy1waCcsICc3LjAnLCAnLXRuJywgJzgnLCAnLW1hJywgJzIwMCcsICctbWV0YWxfYmluZGluZycsICctaW1hZScsICc8aW5maWxlLm1hZT4nLCAnLW9tYWUnLCAnPG91dGZpbGUubWFlPic=

> <r_lp_tautomer_probability>
1

> <r_epik_Ionization_Penalty>
4.81693e-06

> <r_epik_Ionization_Penalty_Charging>
0

> <r_epik_Ionization_Penalty_Neutral>
4.81693e-06

> <r_epik_State_Penalty>
-0

> <r_epik_Charging_Adjusted_Penalty>
0

> <i_epik_Tot_Q>
0

> <i_epik_Tot_abs_Q>
0

> <r_epik_Metal_State_Penalty>
-0

> <b_epik_Metal_Only>
0

> <s_lp_Force_Field>
OPLS_2005

> <r_lp_Energy>
11.6855

> <b_lp_Chiralities_Consistent>
1

> <s_lp_Variant>
AV-unprocessed.smi:718-1

> <Gold.Version>
5.8.1

> <Gold.Id.Protein>
6NUR|6NUR_protein|mol2

> <Gold.PLP.Fitness>
43.7311

> <Gold.PLP.PLP>
-39.6698

> <Gold.PLP.part.hbond>
-2.0000

> <Gold.PLP.part.metal>
0.0000

> <Gold.PLP.part.buried>
-2.9793

> <Gold.PLP.part.nonpolar>
-32.7862

> <Gold.PLP.part.repulsive>
0.3013

> <Gold.PLP.ligand.clash>
0.0000

> <Gold.PLP.ligand.torsion>
0.8202

> <Gold.PLP.Chemscore.Hbond>
1.9000

> <Gold.PLP.Chemscore.CHOScore>
0.0000

> <Gold.PLP.Chemscore.Metal>
0.0000

> <Gold.Chemscore.Hbonds>
donor molecule, donor type, donor heavy atom, donor atom, acceptor molecule, acceptor atom, score
      P1  H  7989  7998       L1    14  0.85
      P1  H  7997  8010       L1    17  0.46

> <Gold.PLP.Chemscore.Internal.Correction>
0.0017

> <Gold.Rescore>
     Score         DG    S(hbond)    S(metal)    S(lipo)     H(rot)  DE(clash)    DE(int)     intcor
     14.46     -15.88       0.66        0.00      91.94       1.00       0.09       1.33       ----

> <Gold.Chemscore.Fitness>
14.4551

> <Gold.Chemscore.DG>
-15.8754

> <Gold.Chemscore.ZeroCoef>
-5.4800

> <Gold.Chemscore.Hbond>
0.6583

> <Gold.Chemscore.Metal>
0.0000

> <Gold.Chemscore.Lipo>
91.9369

> <Gold.Chemscore.Internal_Hbond>
0.0000

> <Gold.Chemscore.DEClash>
0.0868

> <Gold.Chemscore.DEInternal>
1.3335

> <Gold.Chemscore.Rot>
1.0000

> <Gold.Chemscore.Internal.Correction>
   9.000000E+99

> <Gold.Chemscore.Hbonds>
donor molecule, donor type, donor heavy atom, donor atom, acceptor molecule, acceptor atom, score
      P1  H  7989  7998       L1    14  0.14
      P1  H  7997  8010       L1    17  0.01

> <Gold.Chemscore.Hbond.Weighted>
-2.1988

> <Gold.Chemscore.Metal.Weighted>
-0.0000

> <Gold.Chemscore.Lipo.Weighted>
-10.7566

> <Gold.Chemscore.Internal_Hbond.Weighted>
0.0000

> <Gold.Chemscore.DEClash.Weighted>
0.0868

> <Gold.Chemscore.DEInternal.Weighted>
1.3335

> <Gold.Chemscore.Rot.Weighted>
2.5600

> <Gold.Chemscore.Internal.Correction.Weighted>
   9.000000E+99

> <Gold.Protein.RotatedTorsions>
[ 6907 6896 6895 6894 ] final -166.91 input  -60.11 | X-H torsion
[ 7974 7965 7964 7962 ] final  145.49 input  175.53 | X-H torsion
[ 8008 7997 7996 7995 ] final   64.68 input   59.86 | X-H torsion
[ 10167 10162 10161 10158 ] final  -50.68 input  -65.29 | X-H torsion
[ 10718 10713 10712 10709 ] final  131.12 input   66.30 | X-H torsion
[ 10763 10752 10751 10750 ] final -168.99 input  -60.55 | X-H torsion
[ 11005 11000 10999 10996 ] final    6.93 input  -57.11 | X-H torsion

> <Gold.Protein.ActiveResidues>
 VAL166  LYS551  ARG553  GLY616  TRP617  ASP618  TYR619  PRO620  LYS621  CYS622 
 ASP623  PHE694  ASN695  SER759  ASP760  ASP761  ALA762  ILE779  LEU786  VAL792 
 PHE793  MET794  SER795  GLU796  ALA797  LYS798  CYS799  TRP800  GLU811  SER814 

> <Gold.Protein.RotatedAtoms>
  151.4512  133.3617  159.2795 H   0  0  0  0  0  0  0  0  0  0  0  0  # atno 6907 bound_to 6896
  150.9090  134.8507  159.7423 H   0  0  0  0  0  0  0  0  0  0  0  0  # atno 6908 bound_to 6896
  152.4922  134.4440  159.9604 H   0  0  0  0  0  0  0  0  0  0  0  0  # atno 6909 bound_to 6896
  144.8748  139.5789  143.5870 H   0  0  0  0  0  0  0  0  0  0  0  0  # atno 7974 bound_to 7965
  155.6499  140.3497  155.4744 H   0  0  0  0  0  0  0  0  0  0  0  0  # atno 8008 bound_to 7997
  155.9856  140.1183  157.0709 H   0  0  0  0  0  0  0  0  0  0  0  0  # atno 8009 bound_to 7997
  154.4204  140.1129  156.5481 H   0  0  0  0  0  0  0  0  0  0  0  0  # atno 8010 bound_to 7997
  140.6626  143.2648  151.4394 H   0  0  0  0  0  0  0  0  0  0  0  0  # atno 10167 bound_to 10162
  157.4997  131.1094  150.9444 H   0  0  0  0  0  0  0  0  0  0  0  0  # atno 10718 bound_to 10713
  154.6570  135.2919  154.9915 H   0  0  0  0  0  0  0  0  0  0  0  0  # atno 10763 bound_to 10752
  154.0988  135.6580  153.4868 H   0  0  0  0  0  0  0  0  0  0  0  0  # atno 10764 bound_to 10752
  153.0408  135.5237  154.7504 H   0  0  0  0  0  0  0  0  0  0  0  0  # atno 10765 bound_to 10752
  140.5539  134.0257  155.7947 H   0  0  0  0  0  0  0  0  0  0  0  0  # atno 11005 bound_to 11000
  146.2955  139.7266  142.9129 LP  0  0  0  0  0  0  0  0  0  0  0  0  # atno 17320 bound_to 7965
  145.4063  141.0391  143.3042 LP  0  0  0  0  0  0  0  0  0  0  0  0  # atno 17321 bound_to 7965
  139.5864  144.1595  152.2034 LP  0  0  0  0  0  0  0  0  0  0  0  0  # atno 17342 bound_to 10162
  140.0936  144.5599  150.7037 LP  0  0  0  0  0  0  0  0  0  0  0  0  # atno 17343 bound_to 10162
  157.0118  130.5640  149.5321 LP  0  0  0  0  0  0  0  0  0  0  0  0  # atno 17370 bound_to 10713
  156.0222  130.5316  150.8307 LP  0  0  0  0  0  0  0  0  0  0  0  0  # atno 17371 bound_to 10713
  141.1155  133.9547  157.2830 LP  0  0  0  0  0  0  0  0  0  0  0  0  # atno 17394 bound_to 11000
  139.9441  135.0187  156.8799 LP  0  0  0  0  0  0  0  0  0  0  0  0  # atno 17395 bound_to 11000

$$$$
