AV-unprocessed.smi:2449|AV-procd|sdf|9664|dock10
  -GOLD-   2272013303D 1   1.00000     0.00000
 Structure written by MMmdl.
 36 36  0  0  0  0  0  0  0  0  2 V2000
  153.0190  131.2252  155.2970 C   0  0  0  0  0  0  0  0  0  0  0  0
  151.6609  131.7881  154.8647 C   0  0  0  0  0  0  0  0  0  0  0  0
  151.6843  133.3229  154.7136 C   0  0  0  0  0  0  0  0  0  0  0  0
  150.3322  133.9892  154.3330 C   0  0  0  0  0  0  0  0  0  0  0  0
  149.7196  133.2682  153.1123 C   0  0  0  0  0  0  0  0  0  0  0  0
  149.3352  133.8769  155.5031 C   0  0  0  0  0  0  0  0  0  0  0  0
  150.4941  135.4197  154.0427 N   0  0  0  0  0  0  0  0  0  0  0  0
  151.3050  136.3079  154.6447 C   0  0  0  0  0  0  0  0  0  0  0  0
  152.0917  136.0193  155.5468 O   0  0  0  0  0  0  0  0  0  0  0  0
  151.2227  137.7487  154.1261 C   0  0  0  0  0  0  0  0  0  0  0  0
  151.4341  138.7398  155.1928 N   0  0  0  0  0  0  0  0  0  0  0  0
  150.3736  139.6109  155.4990 C   0  0  0  0  0  0  0  0  0  0  0  0
  150.4819  140.5532  156.4549 C   0  0  0  0  0  0  0  0  0  0  0  0
  151.7414  140.6579  157.1817 C   0  0  0  0  0  0  0  0  0  0  0  0
  151.8573  141.5103  158.0600 O   0  0  0  0  0  0  0  0  0  0  0  0
  152.7420  139.7919  156.8458 N   0  5  0  0  0  0  0  0  0  0  0  0
  152.6181  138.8394  155.8698 C   0  0  0  0  0  0  0  0  0  0  0  0
  153.5346  138.0686  155.5813 O   0  0  0  0  0  0  0  0  0  0  0  0
  152.9766  130.1399  155.3916 H   0  0  0  0  0  0  0  0  0  0  0  0
  153.3223  131.6308  156.2625 H   0  0  0  0  0  0  0  0  0  0  0  0
  153.7956  131.4666  154.5709 H   0  0  0  0  0  0  0  0  0  0  0  0
  151.3717  131.3213  153.9237 H   0  0  0  0  0  0  0  0  0  0  0  0
  150.9137  131.4902  155.6001 H   0  0  0  0  0  0  0  0  0  0  0  0
  152.0502  133.7525  155.6467 H   0  0  0  0  0  0  0  0  0  0  0  0
  152.4333  133.5890  153.9666 H   0  0  0  0  0  0  0  0  0  0  0  0
  149.5053  132.2236  153.3406 H   0  0  0  0  0  0  0  0  0  0  0  0
  150.3885  133.2749  152.2519 H   0  0  0  0  0  0  0  0  0  0  0  0
  148.7830  133.7341  152.8034 H   0  0  0  0  0  0  0  0  0  0  0  0
  149.1923  132.8388  155.8050 H   0  0  0  0  0  0  0  0  0  0  0  0
  148.3570  134.2740  155.2287 H   0  0  0  0  0  0  0  0  0  0  0  0
  149.6699  134.4314  156.3799 H   0  0  0  0  0  0  0  0  0  0  0  0
  149.8959  135.7842  153.3156 H   0  0  0  0  0  0  0  0  0  0  0  0
  151.9674  137.8677  153.3382 H   0  0  0  0  0  0  0  0  0  0  0  0
  150.2606  137.9219  153.6399 H   0  0  0  0  0  0  0  0  0  0  0  0
  149.4785  139.4714  154.9109 H   0  0  0  0  0  0  0  0  0  0  0  0
  149.6587  141.2167  156.6761 H   0  0  0  0  0  0  0  0  0  0  0  0
  1  2  1  0  0  0  0
  1 19  1  0  0  0  0
  1 20  1  0  0  0  0
  1 21  1  0  0  0  0
  2  3  1  0  0  0  0
  2 22  1  0  0  0  0
  2 23  1  0  0  0  0
  3  4  1  0  0  0  0
  3 24  1  0  0  0  0
  3 25  1  0  0  0  0
  4  5  1  0  0  0  0
  4  6  1  0  0  0  0
  4  7  1  0  0  0  0
  5 26  1  0  0  0  0
  5 27  1  0  0  0  0
  5 28  1  0  0  0  0
  6 29  1  0  0  0  0
  6 30  1  0  0  0  0
  6 31  1  0  0  0  0
  7  8  1  0  0  0  0
  7 32  1  0  0  0  0
  8  9  2  0  0  0  0
  8 10  1  0  0  0  0
 10 11  1  0  0  0  0
 10 33  1  0  0  0  0
 10 34  1  0  0  0  0
 11 17  1  0  0  0  0
 11 12  1  0  0  0  0
 12 13  2  0  0  0  0
 12 35  1  0  0  0  0
 13 14  1  0  0  0  0
 13 36  1  0  0  0  0
 14 15  2  0  0  0  0
 14 16  1  0  0  0  0
 16 17  1  0  0  0  0
 17 18  2  0  0  0  0
M  CHG  1  16  -1
M  END
> <s_m_source_file>
AV-unprocessed.smi

> <i_m_source_file_index>
2449

> <i_lp_mmshare_version>
43012

> <i_f3d_flags>
0

> <s_epik_input>
W0NIM11bQ0gyXVtDSDJdQyhbQ0gzXSkoW0NIM10pW05IXUMoPU8pW0NIMl1uMVtjSF1bY0hdYyg9TylbbkhdYzE9Tw==

> <s_epik_cmdline>
J2VwaWtfcHl0aG9uJywgJy1waCcsICc3LjAnLCAnLXRuJywgJzgnLCAnLW1hJywgJzIwMCcsICctbWV0YWxfYmluZGluZycsICctaW1hZScsICc8aW5maWxlLm1hZT4nLCAnLW9tYWUnLCAnPG91dGZpbGUubWFlPic=

> <r_lp_tautomer_probability>
0.999537

> <r_epik_Ionization_Penalty>
3.14746

> <r_epik_Ionization_Penalty_Charging>
2.94994e-08

> <r_epik_Ionization_Penalty_Neutral>
3.14746

> <r_epik_State_Penalty>
3.14658

> <r_epik_Charging_Adjusted_Penalty>
3.14658

> <i_epik_Tot_Q>
-1

> <i_epik_Tot_abs_Q>
1

> <r_epik_Metal_State_Penalty>
0.466037

> <b_epik_Metal_Only>
1

> <s_lp_Force_Field>
OPLS_2005

> <r_lp_Energy>
14.91

> <b_lp_Chiralities_Consistent>
1

> <s_lp_Variant>
AV-unprocessed.smi:2449-2

> <Gold.Version>
5.8.1

> <Gold.Id.Protein>
6NUR|6NUR_protein|mol2

> <Gold.PLP.Fitness>
39.3486

> <Gold.PLP.PLP>
-29.1070

> <Gold.PLP.part.hbond>
-4.7232

> <Gold.PLP.part.metal>
0.0000

> <Gold.PLP.part.buried>
-0.6178

> <Gold.PLP.part.nonpolar>
-23.7936

> <Gold.PLP.part.repulsive>
0.1143

> <Gold.PLP.ligand.clash>
0.0000

> <Gold.PLP.ligand.torsion>
0.9010

> <Gold.PLP.Chemscore.Hbond>
4.0000

> <Gold.PLP.Chemscore.CHOScore>
0.0000

> <Gold.PLP.Chemscore.Metal>
0.0000

> <Gold.Chemscore.Hbonds>
donor molecule, donor type, donor heavy atom, donor atom, acceptor molecule, acceptor atom, score
      L1  H     7    32       P1  7948  0.40
      P1  H  7997  8010       L1    16  1.50
      P1  H 10752 10765       L1     9  0.50

> <Gold.PLP.Chemscore.Internal.Correction>
0.0436

> <Gold.Rescore>
     Score         DG    S(hbond)    S(metal)    S(lipo)     H(rot)  DE(clash)    DE(int)     intcor
     10.96     -13.38       2.33        0.00      46.54       2.08       0.20       2.21       ----

> <Gold.Chemscore.Fitness>
10.9633

> <Gold.Chemscore.DG>
-13.3783

> <Gold.Chemscore.ZeroCoef>
-5.4800

> <Gold.Chemscore.Hbond>
2.3308

> <Gold.Chemscore.Metal>
0.0000

> <Gold.Chemscore.Lipo>
46.5400

> <Gold.Chemscore.Internal_Hbond>
0.0000

> <Gold.Chemscore.DEClash>
0.2043

> <Gold.Chemscore.DEInternal>
2.2106

> <Gold.Chemscore.Rot>
2.0828

> <Gold.Chemscore.Internal.Correction>
   9.000000E+99

> <Gold.Chemscore.Hbonds>
donor molecule, donor type, donor heavy atom, donor atom, acceptor molecule, acceptor atom, score
      L1  H     7    32       P1  7948  0.01
      P1  H  7997  8010       L1    16  0.09
      P1  H 10752 10765       L1     9  0.43

> <Gold.Chemscore.Hbond.Weighted>
-7.7850

> <Gold.Chemscore.Metal.Weighted>
-0.0000

> <Gold.Chemscore.Lipo.Weighted>
-5.4452

> <Gold.Chemscore.Internal_Hbond.Weighted>
0.0000

> <Gold.Chemscore.DEClash.Weighted>
0.2043

> <Gold.Chemscore.DEInternal.Weighted>
2.2106

> <Gold.Chemscore.Rot.Weighted>
5.3319

> <Gold.Chemscore.Internal.Correction.Weighted>
   9.000000E+99

> <Gold.Protein.RotatedTorsions>
[ 6907 6896 6895 6894 ] final -158.54 input  -60.11 | X-H torsion
[ 7974 7965 7964 7962 ] final   23.16 input  175.53 | X-H torsion
[ 8008 7997 7996 7995 ] final   64.90 input   59.86 | X-H torsion
[ 10167 10162 10161 10158 ] final   19.55 input  -65.29 | X-H torsion
[ 10718 10713 10712 10709 ] final -139.56 input   66.30 | X-H torsion
[ 10763 10752 10751 10750 ] final -141.37 input  -60.55 | X-H torsion
[ 11005 11000 10999 10996 ] final  125.28 input  -57.11 | X-H torsion

> <Gold.Protein.ActiveResidues>
 VAL166  LYS551  ARG553  GLY616  TRP617  ASP618  TYR619  PRO620  LYS621  CYS622 
 ASP623  PHE694  ASN695  SER759  ASP760  ASP761  ALA762  ILE779  LEU786  VAL792 
 PHE793  MET794  SER795  GLU796  ALA797  LYS798  CYS799  TRP800  GLU811  SER814 

> <Gold.Protein.RotatedAtoms>
  151.3198  133.4045  159.2653 H   0  0  0  0  0  0  0  0  0  0  0  0  # atno 6907 bound_to 6896
  151.0044  134.9348  159.7982 H   0  0  0  0  0  0  0  0  0  0  0  0  # atno 6908 bound_to 6896
  152.5284  134.3163  159.9184 H   0  0  0  0  0  0  0  0  0  0  0  0  # atno 6909 bound_to 6896
  146.1997  139.7784  142.8771 H   0  0  0  0  0  0  0  0  0  0  0  0  # atno 7974 bound_to 7965
  155.6533  140.3497  155.4756 H   0  0  0  0  0  0  0  0  0  0  0  0  # atno 8008 bound_to 7997
  155.9830  140.1178  157.0732 H   0  0  0  0  0  0  0  0  0  0  0  0  # atno 8009 bound_to 7997
  154.4197  140.1134  156.5447 H   0  0  0  0  0  0  0  0  0  0  0  0  # atno 8010 bound_to 7997
  140.5571  143.9405  150.6617 H   0  0  0  0  0  0  0  0  0  0  0  0  # atno 10167 bound_to 10162
  156.3122  130.7488  151.1566 H   0  0  0  0  0  0  0  0  0  0  0  0  # atno 10718 bound_to 10713
  154.8547  135.3526  154.5856 H   0  0  0  0  0  0  0  0  0  0  0  0  # atno 10763 bound_to 10752
  153.6466  135.6996  153.5228 H   0  0  0  0  0  0  0  0  0  0  0  0  # atno 10764 bound_to 10752
  153.2927  135.4230  155.1140 H   0  0  0  0  0  0  0  0  0  0  0  0  # atno 10765 bound_to 10752
  139.9399  134.9636  156.8535 H   0  0  0  0  0  0  0  0  0  0  0  0  # atno 11005 bound_to 11000
  145.3526  141.0310  143.3330 LP  0  0  0  0  0  0  0  0  0  0  0  0  # atno 17320 bound_to 7965
  144.8656  139.5113  143.6792 LP  0  0  0  0  0  0  0  0  0  0  0  0  # atno 17321 bound_to 7965
  140.2846  143.3366  152.1119 LP  0  0  0  0  0  0  0  0  0  0  0  0  # atno 17342 bound_to 10162
  139.5053  144.6792  151.6052 LP  0  0  0  0  0  0  0  0  0  0  0  0  # atno 17343 bound_to 10162
  157.7393  131.0530  150.5237 LP  0  0  0  0  0  0  0  0  0  0  0  0  # atno 17370 bound_to 10713
  156.5378  130.4200  149.6169 LP  0  0  0  0  0  0  0  0  0  0  0  0  # atno 17371 bound_to 10713
  140.5979  134.0200  155.7525 LP  0  0  0  0  0  0  0  0  0  0  0  0  # atno 17394 bound_to 11000
  141.1029  133.9740  157.3048 LP  0  0  0  0  0  0  0  0  0  0  0  0  # atno 17395 bound_to 11000

$$$$
