AV-unprocessed.smi:2911|AV-procd|sdf|11179|dock10
  -GOLD-   2272016 73D 1   1.00000     0.00000
 Structure written by MMmdl.
 41 42  0  0  0  0  0  0  0  0  1 V2000
  148.4828  126.8907  150.9144 C   0  0  0  0  0  0  0  0  0  0  0  0
  148.0233  127.8919  151.9186 C   0  0  0  0  0  0  0  0  0  0  0  0
  146.7313  128.0876  152.1518 N   0  0  0  0  0  0  0  0  0  0  0  0
  146.7281  129.0930  153.1295 O   0  0  0  0  0  0  0  0  0  0  0  0
  148.0307  129.3701  153.3784 C   0  0  0  0  0  0  0  0  0  0  0  0
  148.3661  130.4486  154.3531 C   0  0  0  0  0  0  0  0  0  0  0  0
  148.9613  131.6902  153.6701 C   0  0  0  0  0  0  0  0  0  0  0  0
  148.1199  132.1549  152.5731 N   0  0  0  0  0  0  0  0  0  0  0  0
  147.0896  133.0101  152.6900 C   0  0  0  0  0  0  0  0  0  0  0  0
  146.7469  133.4642  153.7830 O   0  0  0  0  0  0  0  0  0  0  0  0
  146.4343  133.2814  151.5293 N   0  0  0  0  0  0  0  0  0  0  0  0
  146.8469  132.7999  150.1921 C   0  0  0  0  0  0  0  0  0  0  0  0
  145.6736  132.1302  149.4631 C   0  0  0  0  0  0  0  0  0  0  0  0
  144.4888  133.0981  149.3304 C   0  0  1  0  0  0  0  0  0  0  0  0
  143.2964  132.4419  148.6204 C   0  0  0  0  0  0  0  0  0  0  0  0
  144.0995  133.6330  150.7184 C   0  0  0  0  0  0  0  0  0  0  0  0
  145.2929  134.2226  151.5023 C   0  0  2  0  0  0  0  0  0  0  0  0
  145.7230  135.6235  151.0301 C   0  0  0  0  0  0  0  0  0  0  0  0
  148.8825  128.6642  152.6385 N   0  0  0  0  0  0  0  0  0  0  0  0
  147.8753  125.9868  150.9694 H   0  0  0  0  0  0  0  0  0  0  0  0
  149.5226  126.6160  151.0937 H   0  0  0  0  0  0  0  0  0  0  0  0
  148.4023  127.3038  149.9088 H   0  0  0  0  0  0  0  0  0  0  0  0
  147.4607  130.7121  154.9009 H   0  0  0  0  0  0  0  0  0  0  0  0
  149.0689  130.0486  155.0849 H   0  0  0  0  0  0  0  0  0  0  0  0
  149.0507  132.5027  154.3916 H   0  0  0  0  0  0  0  0  0  0  0  0
  149.9705  131.4830  153.3093 H   0  0  0  0  0  0  0  0  0  0  0  0
  148.3346  131.7996  151.6527 H   0  0  0  0  0  0  0  0  0  0  0  0
  147.2065  133.6480  149.6092 H   0  0  0  0  0  0  0  0  0  0  0  0
  147.6819  132.1002  150.2075 H   0  0  0  0  0  0  0  0  0  0  0  0
  145.9960  131.7989  148.4753 H   0  0  0  0  0  0  0  0  0  0  0  0
  145.3680  131.2350  150.0069 H   0  0  0  0  0  0  0  0  0  0  0  0
  144.8093  133.9424  148.7187 H   0  0  0  0  0  0  0  0  0  0  0  0
  142.9247  131.5825  149.1794 H   0  0  0  0  0  0  0  0  0  0  0  0
  143.5745  132.0962  147.6243 H   0  0  0  0  0  0  0  0  0  0  0  0
  142.4723  133.1465  148.5060 H   0  0  0  0  0  0  0  0  0  0  0  0
  143.3095  134.3792  150.6259 H   0  0  0  0  0  0  0  0  0  0  0  0
  143.6721  132.8158  151.3019 H   0  0  0  0  0  0  0  0  0  0  0  0
  144.9089  134.3625  152.5143 H   0  0  0  0  0  0  0  0  0  0  0  0
  144.8950  136.3289  151.1039 H   0  0  0  0  0  0  0  0  0  0  0  0
  146.0587  135.6231  149.9936 H   0  0  0  0  0  0  0  0  0  0  0  0
  146.5372  136.0104  151.6435 H   0  0  0  0  0  0  0  0  0  0  0  0
  1  2  1  0  0  0  0
  1 20  1  0  0  0  0
  1 21  1  0  0  0  0
  1 22  1  0  0  0  0
  2 19  1  0  0  0  0
  2  3  2  0  0  0  0
  3  4  1  0  0  0  0
  4  5  1  0  0  0  0
  5  6  1  0  0  0  0
  5 19  2  0  0  0  0
  6  7  1  0  0  0  0
  6 23  1  0  0  0  0
  6 24  1  0  0  0  0
  7  8  1  0  0  0  0
  7 25  1  0  0  0  0
  7 26  1  0  0  0  0
  8  9  1  0  0  0  0
  8 27  1  0  0  0  0
  9 10  2  0  0  0  0
  9 11  1  0  0  0  0
 11 17  1  0  0  0  0
 11 12  1  0  0  0  0
 12 13  1  0  0  0  0
 12 28  1  0  0  0  0
 12 29  1  0  0  0  0
 13 14  1  0  0  0  0
 13 30  1  0  0  0  0
 13 31  1  0  0  0  0
 14 15  1  0  0  0  0
 14 16  1  0  0  0  0
 14 32  1  0  0  0  0
 15 33  1  0  0  0  0
 15 34  1  0  0  0  0
 15 35  1  0  0  0  0
 16 17  1  0  0  0  0
 16 36  1  0  0  0  0
 16 37  1  0  0  0  0
 17 18  1  0  0  0  0
 17 38  1  0  0  0  0
 18 39  1  0  0  0  0
 18 40  1  0  0  0  0
 18 41  1  0  0  0  0
M  END
> <s_m_source_file>
AV-unprocessed.smi

> <i_m_source_file_index>
2911

> <i_lp_mmshare_version>
43012

> <i_f3d_flags>
0

> <s_epik_input>
W0NIM11jMW5vYyhuMSlbQ0gyXVtDSDJdW05IXUMoPU8pTjJbQ0gyXVtDSDJdW0NAQEhdKFtDSDNdKVtDSDJdW0NASF0yW0NIM10=

> <s_epik_cmdline>
J2VwaWtfcHl0aG9uJywgJy1waCcsICc3LjAnLCAnLXRuJywgJzgnLCAnLW1hJywgJzIwMCcsICctbWV0YWxfYmluZGluZycsICctaW1hZScsICc8aW5maWxlLm1hZT4nLCAnLW9tYWUnLCAnPG91dGZpbGUubWFlPic=

> <r_lp_tautomer_probability>
1

> <r_epik_Ionization_Penalty>
6.61671e-05

> <r_epik_Ionization_Penalty_Charging>
0

> <r_epik_Ionization_Penalty_Neutral>
6.61671e-05

> <r_epik_State_Penalty>
-0

> <r_epik_Charging_Adjusted_Penalty>
0

> <i_epik_Tot_Q>
0

> <i_epik_Tot_abs_Q>
0

> <r_epik_Metal_State_Penalty>
-0

> <b_epik_Metal_Only>
0

> <s_lp_Force_Field>
OPLS_2005

> <r_lp_Energy>
30.51

> <b_lp_Chiralities_Consistent>
1

> <s_lp_Variant>
AV-unprocessed.smi:2911-3

> <Gold.Version>
5.8.1

> <Gold.Id.Protein>
6NUR|6NUR_protein|mol2

> <Gold.PLP.Fitness>
37.9945

> <Gold.PLP.PLP>
-35.5249

> <Gold.PLP.part.hbond>
-1.0000

> <Gold.PLP.part.metal>
0.0000

> <Gold.PLP.part.buried>
0.4627

> <Gold.PLP.part.nonpolar>
-35.2982

> <Gold.PLP.part.repulsive>
0.4382

> <Gold.PLP.ligand.clash>
0.0000

> <Gold.PLP.ligand.torsion>
0.2773

> <Gold.PLP.Chemscore.Hbond>
1.0000

> <Gold.PLP.Chemscore.CHOScore>
0.0000

> <Gold.PLP.Chemscore.Metal>
0.0000

> <Gold.Chemscore.Hbonds>
donor molecule, donor type, donor heavy atom, donor atom, acceptor molecule, acceptor atom, score
      L1  H     8    27       P1 10747  1.00

> <Gold.PLP.Chemscore.Internal.Correction>
0.0243

> <Gold.Rescore>
     Score         DG    S(hbond)    S(metal)    S(lipo)     H(rot)  DE(clash)    DE(int)     intcor
     12.86     -14.64       1.00        0.00      84.99       1.61       1.54       0.24       ----

> <Gold.Chemscore.Fitness>
12.8588

> <Gold.Chemscore.DG>
-14.6418

> <Gold.Chemscore.ZeroCoef>
-5.4800

> <Gold.Chemscore.Hbond>
0.9991

> <Gold.Chemscore.Metal>
0.0000

> <Gold.Chemscore.Lipo>
84.9871

> <Gold.Chemscore.Internal_Hbond>
0.0000

> <Gold.Chemscore.DEClash>
1.5447

> <Gold.Chemscore.DEInternal>
0.2383

> <Gold.Chemscore.Rot>
1.6088

> <Gold.Chemscore.Internal.Correction>
   9.000000E+99

> <Gold.Chemscore.Hbonds>
donor molecule, donor type, donor heavy atom, donor atom, acceptor molecule, acceptor atom, score
      L1  H     8    27       P1 10747  1.00

> <Gold.Chemscore.Hbond.Weighted>
-3.3369

> <Gold.Chemscore.Metal.Weighted>
-0.0000

> <Gold.Chemscore.Lipo.Weighted>
-9.9435

> <Gold.Chemscore.Internal_Hbond.Weighted>
0.0000

> <Gold.Chemscore.DEClash.Weighted>
1.5447

> <Gold.Chemscore.DEInternal.Weighted>
0.2383

> <Gold.Chemscore.Rot.Weighted>
4.1186

> <Gold.Chemscore.Internal.Correction.Weighted>
   9.000000E+99

> <Gold.Protein.RotatedTorsions>
[ 6907 6896 6895 6894 ] final    6.96 input  -60.11 | X-H torsion
[ 7974 7965 7964 7962 ] final  -68.23 input  175.53 | X-H torsion
[ 8008 7997 7996 7995 ] final  151.64 input   59.86 | X-H torsion
[ 10167 10162 10161 10158 ] final -139.53 input  -65.29 | X-H torsion
[ 10718 10713 10712 10709 ] final  173.64 input   66.30 | X-H torsion
[ 10763 10752 10751 10750 ] final -159.10 input  -60.55 | X-H torsion
[ 11005 11000 10999 10996 ] final  -36.30 input  -57.11 | X-H torsion

> <Gold.Protein.ActiveResidues>
 VAL166  LYS551  ARG553  GLY616  TRP617  ASP618  TYR619  PRO620  LYS621  CYS622 
 ASP623  PHE694  ASN695  SER759  ASP760  ASP761  ALA762  ILE779  LEU786  VAL792 
 PHE793  MET794  SER795  GLU796  ALA797  LYS798  CYS799  TRP800  GLU811  SER814 

> <Gold.Protein.RotatedAtoms>
  151.6821  135.0960  160.0217 H   0  0  0  0  0  0  0  0  0  0  0  0  # atno 6907 bound_to 6896
  152.3829  133.6566  159.6184 H   0  0  0  0  0  0  0  0  0  0  0  0  # atno 6908 bound_to 6896
  150.7761  133.9000  159.3380 H   0  0  0  0  0  0  0  0  0  0  0  0  # atno 6909 bound_to 6896
  145.7192  140.9046  143.0639 H   0  0  0  0  0  0  0  0  0  0  0  0  # atno 7974 bound_to 7965
  156.2665  140.2042  156.6208 H   0  0  0  0  0  0  0  0  0  0  0  0  # atno 8008 bound_to 7997
  154.6758  140.0545  157.0238 H   0  0  0  0  0  0  0  0  0  0  0  0  # atno 8009 bound_to 7997
  155.1070  140.3212  155.4534 H   0  0  0  0  0  0  0  0  0  0  0  0  # atno 8010 bound_to 7997
  139.8371  143.7371  152.2664 H   0  0  0  0  0  0  0  0  0  0  0  0  # atno 10167 bound_to 10162
  156.9613  131.0061  151.2927 H   0  0  0  0  0  0  0  0  0  0  0  0  # atno 10718 bound_to 10713
  154.7502  135.3090  154.8571 H   0  0  0  0  0  0  0  0  0  0  0  0  # atno 10763 bound_to 10752
  153.9361  135.6780  153.4749 H   0  0  0  0  0  0  0  0  0  0  0  0  # atno 10764 bound_to 10752
  153.1098  135.4872  154.8943 H   0  0  0  0  0  0  0  0  0  0  0  0  # atno 10765 bound_to 10752
  140.9864  133.7028  156.1772 H   0  0  0  0  0  0  0  0  0  0  0  0  # atno 11005 bound_to 11000
  144.6921  139.9179  143.7466 LP  0  0  0  0  0  0  0  0  0  0  0  0  # atno 17320 bound_to 7965
  146.0641  139.3633  143.0563 LP  0  0  0  0  0  0  0  0  0  0  0  0  # atno 17321 bound_to 7965
  139.7596  144.7510  151.0383 LP  0  0  0  0  0  0  0  0  0  0  0  0  # atno 17342 bound_to 10162
  140.7801  143.4766  151.0075 LP  0  0  0  0  0  0  0  0  0  0  0  0  # atno 17343 bound_to 10162
  157.5656  130.8275  149.8323 LP  0  0  0  0  0  0  0  0  0  0  0  0  # atno 17370 bound_to 10713
  156.0321  130.3761  150.1659 LP  0  0  0  0  0  0  0  0  0  0  0  0  # atno 17371 bound_to 10713
  140.7108  134.4463  157.5581 LP  0  0  0  0  0  0  0  0  0  0  0  0  # atno 17394 bound_to 11000
  139.8972  134.8641  156.2053 LP  0  0  0  0  0  0  0  0  0  0  0  0  # atno 17395 bound_to 11000

$$$$
