#       Name:                AV-unprocessed.smi:2270
#       Creating user name   scv26
#       Creation time:       Fri Mar 27 12:36:53 2020


#       File generated by GOLD software.
#

@<TRIPOS>MOLECULE
AV-unprocessed.smi:2270
    57    58     1
SMALL
NO_CHARGES


@<TRIPOS>ATOM
      1 ****        -4.1205   3.9545   4.0395 C.3            1 S1                 0.0000
      2 ****        -3.6972   4.3458   2.6395 C.ar           1 S1                 0.0000
      3 ****        -3.9467   5.6399   2.1422 C.ar           1 S1                 0.0000
      4 ****        -3.5215   5.9414   0.8360 C.ar           1 S1                 0.0000
      5 ****        -2.8673   4.9444   0.0869 C.ar           1 S1                 0.0000
      6 ****        -2.6573   3.6698   0.6602 C.ar           1 S1                 0.0000
      7 ****        -1.9823   2.7378  -0.1717 N.am           1 S1                 0.0000
      8 ****        -1.6988   1.4487   0.0858 C.2            1 S1                 0.0000
      9 ****        -2.0515   0.8301   1.0902 O.2            1 S1                 0.0000
     10 ****        -0.9727   0.9074  -0.9033 N.am           1 S1                 0.0000
     11 ****        -0.4736  -0.4646  -0.9474 C.3            1 S1                 0.0000
     12 ****         1.0553  -0.5462  -0.6794 C.3            1 S1                 0.0000
     13 ****         1.4891   0.0129   0.7112 C.3            1 S1                 0.0000
     14 ****         3.0163   0.1651   0.8135 C.3            1 S1                 0.0000
     15 ****         0.9304  -0.7147   1.9479 C.3            1 S1                 0.0000
     16 ****         1.6748  -1.8376  -1.0344 N.3            1 S1                 0.0000
     17 ****         1.0117  -3.0268  -0.4844 C.3            1 S1                 0.0000
     18 ****         1.8052  -4.3066  -0.8064 C.3            1 S1                 0.0000
     19 ****         1.9687  -4.4856  -2.2480 N.3            1 S1                 0.0000
     20 ****         2.7142  -5.6965  -2.5551 C.3            1 S1                 0.0000
     21 ****         2.6178  -3.3000  -2.8037 C.3            1 S1                 0.0000
     22 ****         1.8241  -2.0205  -2.4809 C.3            1 S1                 0.0000
     23 ****        -3.0713   3.3891   1.9210 N.ar           1 S1                 0.0000
     24 ****        -4.8095   4.6861   4.4623 H              1 S1                 0.0000
     25 ****        -3.2487   3.8890   4.6907 H              1 S1                 0.0000
     26 ****        -4.6184   2.9843   4.0323 H              1 S1                 0.0000
     27 ****        -4.4491   6.3832   2.7438 H              1 S1                 0.0000
     28 ****        -3.6925   6.9212   0.4152 H              1 S1                 0.0000
     29 ****        -2.5323   5.1602  -0.9173 H              1 S1                 0.0000
     30 ****        -1.6583   3.1011  -1.0557 H              1 S1                 0.0000
     31 ****        -0.7347   1.4955  -1.6884 H              1 S1                 0.0000
     32 ****        -1.0291  -1.1043  -0.2610 H              1 S1                 0.0000
     33 ****        -0.7021  -0.8383  -1.9448 H              1 S1                 0.0000
     34 ****         1.4835   0.1800  -1.3722 H              1 S1                 0.0000
     35 ****         1.0992   1.0289   0.7689 H              1 S1                 0.0000
     36 ****         3.5158  -0.8041   0.8105 H              1 S1                 0.0000
     37 ****         3.2981   0.6779   1.7335 H              1 S1                 0.0000
     38 ****         3.4122   0.7462  -0.0198 H              1 S1                 0.0000
     39 ****         1.4619  -1.6441   2.1470 H              1 S1                 0.0000
     40 ****        -0.1306  -0.9400   1.8537 H              1 S1                 0.0000
     41 ****         1.0476  -0.0944   2.8368 H              1 S1                 0.0000
     42 ****         0.8984  -2.9516   0.5923 H              1 S1                 0.0000
     43 ****         0.0054  -3.1216  -0.8940 H              1 S1                 0.0000
     44 ****         2.7816  -4.2628  -0.3209 H              1 S1                 0.0000
     45 ****         1.2860  -5.1683  -0.3854 H              1 S1                 0.0000
     46 ****         2.8123  -5.8263  -3.6333 H              1 S1                 0.0000
     47 ****         2.2030  -6.5750  -2.1603 H              1 S1                 0.0000
     48 ****         3.7158  -5.6633  -2.1242 H              1 S1                 0.0000
     49 ****         3.6314  -3.2089  -2.4100 H              1 S1                 0.0000
     50 ****         2.7114  -3.4040  -3.8850 H              1 S1                 0.0000
     51 ****         0.8478  -2.0684  -2.9638 H              1 S1                 0.0000
     52 ****         2.3447  -1.1649  -2.9119 H              1 S1                 0.0000
     53 ****        -2.5938   1.2879   1.7947 LP             1 S1                 0.0000
     54 ****        -1.7956  -0.1302   1.2016 LP             1 S1                 0.0000
     55 ****         2.5731  -1.7682  -0.6003 LP             1 S1                 0.0000
     56 ****         1.0681  -4.5937  -2.6689 LP             1 S1                 0.0000
     57 ****        -2.9146   2.4831   2.3143 LP             1 S1                 0.0000
@<TRIPOS>BOND
    1    1    2 1     
    2    1   24 1     
    3    1   25 1     
    4    1   26 1     
    5    2   23 ar    
    6    2    3 ar    
    7    3    4 ar    
    8    3   27 1     
    9    4    5 ar    
   10    4   28 1     
   11    5    6 ar    
   12    5   29 1     
   13    6    7 1     
   14    6   23 ar    
   15    7    8 am    
   16    7   30 1     
   17    8    9 2     
   18    8   10 am    
   19   10   11 1     
   20   10   31 1     
   21   11   12 1     
   22   11   32 1     
   23   11   33 1     
   24   12   13 1     
   25   12   16 1     
   26   12   34 1     
   27   13   14 1     
   28   13   15 1     
   29   13   35 1     
   30   14   36 1     
   31   14   37 1     
   32   14   38 1     
   33   15   39 1     
   34   15   40 1     
   35   15   41 1     
   36   16   22 1     
   37   16   17 1     
   38   17   18 1     
   39   17   42 1     
   40   17   43 1     
   41   18   19 1     
   42   18   44 1     
   43   18   45 1     
   44   19   20 1     
   45   19   21 1     
   46   20   46 1     
   47   20   47 1     
   48   20   48 1     
   49   21   22 1     
   50   21   49 1     
   51   21   50 1     
   52   22   51 1     
   53   22   52 1     
   54    9   53 1     
   55    9   54 1     
   56   16   55 1     
   57   19   56 1     
   58   23   57 1     
@<TRIPOS>SUBSTRUCTURE
      1 S1             1
@<TRIPOS>SET
LONE_PAIRS      STATIC     ATOMS    <user>   **** ""
5 53 54 55 56 57
DONOR_HYDROGENS      STATIC     ATOMS    <user>   **** ""
2 30 31
ATOM$BLUE        STATIC     ATOMS    COLORGROUP SYSTEM
5 53 54 55 56 57
ATOM$RED        STATIC     ATOMS    COLORGROUP SYSTEM
2 30 31
