AV-unprocessed.smi:3154|AV-procd|sdf|12022|dock9
  -GOLD-   2272017433D 1   1.00000     0.00000
 Structure written by MMmdl.
 35 36  0  0  0  0  0  0  0  0  2 V2000
  143.9760  135.9005  152.0902 C   0  0  0  0  0  0  0  0  0  0  0  0
  145.4920  135.6497  152.0195 C   0  0  1  0  0  0  0  0  0  0  0  0
  145.8903  134.7767  150.8068 C   0  0  0  0  0  0  0  0  0  0  0  0
  145.2317  133.4828  150.7989 N   0  0  0  0  0  0  0  0  0  0  0  0
  145.7958  132.2298  150.9180 C   0  0  0  0  0  0  0  0  0  0  0  0
  144.7786  131.3204  150.8654 C   0  0  0  0  0  0  0  0  0  0  0  0
  143.6135  132.1239  150.7187 C   0  0  0  0  0  0  0  0  0  0  0  0
  143.8879  133.4181  150.6828 N   0  0  0  0  0  0  0  0  0  0  0  0
  146.2010  136.9483  151.9997 N   0  3  0  0  0  0  0  0  0  0  0  0
  145.8538  137.8806  153.0953 C   0  0  0  0  0  0  0  0  0  0  0  0
  146.8988  138.9845  153.2695 C   0  0  0  0  0  0  0  0  0  0  0  0
  148.0713  138.7061  153.5245 O   0  0  0  0  0  0  0  0  0  0  0  0
  146.4514  140.2407  153.1278 N   0  0  0  0  0  0  0  0  0  0  0  0
  147.2447  141.4216  153.2437 C   0  0  0  0  0  0  0  0  0  0  0  0
  147.9474  141.6697  154.5611 C   0  0  0  0  0  0  0  0  0  0  0  0
  146.7572  142.5063  154.1800 C   0  0  0  0  0  0  0  0  0  0  0  0
  143.4194  134.9701  152.2062 H   0  0  0  0  0  0  0  0  0  0  0  0
  143.6131  136.3949  151.1885 H   0  0  0  0  0  0  0  0  0  0  0  0
  143.7227  136.5329  152.9417 H   0  0  0  0  0  0  0  0  0  0  0  0
  145.7762  135.1323  152.9372 H   0  0  0  0  0  0  0  0  0  0  0  0
  145.6448  135.2915  149.8766 H   0  0  0  0  0  0  0  0  0  0  0  0
  146.9655  134.5984  150.7886 H   0  0  0  0  0  0  0  0  0  0  0  0
  146.8613  132.0899  151.0268 H   0  0  0  0  0  0  0  0  0  0  0  0
  144.8545  130.2448  150.9258 H   0  0  0  0  0  0  0  0  0  0  0  0
  142.5839  131.8075  150.6395 H   0  0  0  0  0  0  0  0  0  0  0  0
  147.1976  136.7842  152.0083 H   0  0  0  0  0  0  0  0  0  0  0  0
  144.8873  138.3423  152.8886 H   0  0  0  0  0  0  0  0  0  0  0  0
  145.7642  137.3368  154.0356 H   0  0  0  0  0  0  0  0  0  0  0  0
  145.4722  140.3746  152.9201 H   0  0  0  0  0  0  0  0  0  0  0  0
  147.7683  141.7630  152.3517 H   0  0  0  0  0  0  0  0  0  0  0  0
  147.8129  140.9392  155.3568 H   0  0  0  0  0  0  0  0  0  0  0  0
  148.9261  142.1443  154.5262 H   0  0  0  0  0  0  0  0  0  0  0  0
  146.9413  143.5388  153.8892 H   0  0  0  0  0  0  0  0  0  0  0  0
  145.8292  142.3343  154.7223 H   0  0  0  0  0  0  0  0  0  0  0  0
  145.9659  137.4126  151.1340 H   0  0  0  0  0  0  0  0  0  0  0  0
  1  2  1  0  0  0  0
  1 17  1  0  0  0  0
  1 18  1  0  0  0  0
  1 19  1  0  0  0  0
  2  3  1  0  0  0  0
  2  9  1  0  0  0  0
  2 20  1  0  0  0  0
  3  4  1  0  0  0  0
  3 21  1  0  0  0  0
  3 22  1  0  0  0  0
  4  8  1  0  0  0  0
  4  5  1  0  0  0  0
  5  6  2  0  0  0  0
  5 23  1  0  0  0  0
  6  7  1  0  0  0  0
  6 24  1  0  0  0  0
  7  8  2  0  0  0  0
  7 25  1  0  0  0  0
  9 10  1  0  0  0  0
  9 26  1  0  0  0  0
  9 35  1  0  0  0  0
 10 11  1  0  0  0  0
 10 27  1  0  0  0  0
 10 28  1  0  0  0  0
 11 12  2  0  0  0  0
 11 13  1  0  0  0  0
 13 14  1  0  0  0  0
 13 29  1  0  0  0  0
 14 16  1  0  0  0  0
 14 15  1  0  0  0  0
 14 30  1  0  0  0  0
 15 16  1  0  0  0  0
 15 31  1  0  0  0  0
 15 32  1  0  0  0  0
 16 33  1  0  0  0  0
 16 34  1  0  0  0  0
M  CHG  1   9   1
M  END
> <s_m_source_file>
AV-unprocessed.smi

> <i_m_source_file_index>
3154

> <i_lp_mmshare_version>
43012

> <i_f3d_flags>
0

> <s_epik_input>
bjFbY0hdW2NIXVtjSF1uMVtDSDJdW0NAQEhdKFtDSDNdKVtOSF1bQ0gyXUMoPU8pW05IXVtDSF0yW0NIMl1bQ0gyXTI=

> <s_epik_cmdline>
J2VwaWtfcHl0aG9uJywgJy1waCcsICc3LjAnLCAnLXRuJywgJzgnLCAnLW1hJywgJzIwMCcsICctbWV0YWxfYmluZGluZycsICctaW1hZScsICc8aW5maWxlLm1hZT4nLCAnLW9tYWUnLCAnPG91dGZpbGUubWFlPic=

> <r_lp_tautomer_probability>
1

> <r_epik_Ionization_Penalty>
0.12065

> <r_epik_Ionization_Penalty_Charging>
0.120646

> <r_epik_Ionization_Penalty_Neutral>
4.1343e-06

> <r_epik_State_Penalty>
0.110186

> <r_epik_Charging_Adjusted_Penalty>
0.230832

> <i_epik_Tot_Q>
1

> <i_epik_Tot_abs_Q>
1

> <r_epik_Metal_State_Penalty>
0.110197

> <b_epik_Metal_Only>
0

> <s_lp_Force_Field>
OPLS_2005

> <r_lp_Energy>
15.3554

> <b_lp_Chiralities_Consistent>
1

> <s_lp_Variant>
AV-unprocessed.smi:3154-2

> <Gold.Version>
5.8.1

> <Gold.Id.Protein>
6NUR|6NUR_protein|mol2

> <Gold.PLP.Fitness>
46.4573

> <Gold.PLP.PLP>
-31.6599

> <Gold.PLP.part.hbond>
-2.0000

> <Gold.PLP.part.metal>
0.0000

> <Gold.PLP.part.buried>
-7.2936

> <Gold.PLP.part.nonpolar>
-23.1150

> <Gold.PLP.part.repulsive>
1.0233

> <Gold.PLP.ligand.clash>
0.0000

> <Gold.PLP.ligand.torsion>
0.1385

> <Gold.PLP.Chemscore.Hbond>
3.0000

> <Gold.PLP.Chemscore.CHOScore>
2.0000

> <Gold.PLP.Chemscore.Metal>
0.0000

> <Gold.Chemscore.Hbonds>
donor molecule, donor type, donor heavy atom, donor atom, acceptor molecule, acceptor atom, score
      L1  H     9    26       P1  7948  2.00
      L1  H    13    29       P1 10175  1.00
      L1  C     5    23       P1 10747  0.93
      L1  C     7    25       P1 10952  1.00

> <Gold.PLP.Chemscore.Internal.Correction>
0.0743

> <Gold.Rescore>
     Score         DG    S(hbond)    S(metal)    S(lipo)     H(rot)  DE(clash)    DE(int)     intcor
     13.02     -14.35       1.99        0.00      67.27       2.20       0.05       1.28       ----

> <Gold.Chemscore.Fitness>
13.0240

> <Gold.Chemscore.DG>
-14.3467

> <Gold.Chemscore.ZeroCoef>
-5.4800

> <Gold.Chemscore.Hbond>
1.9877

> <Gold.Chemscore.Metal>
0.0000

> <Gold.Chemscore.Lipo>
67.2691

> <Gold.Chemscore.Internal_Hbond>
0.0000

> <Gold.Chemscore.DEClash>
0.0472

> <Gold.Chemscore.DEInternal>
1.2756

> <Gold.Chemscore.Rot>
2.2042

> <Gold.Chemscore.Internal.Correction>
   9.000000E+99

> <Gold.Chemscore.Hbonds>
donor molecule, donor type, donor heavy atom, donor atom, acceptor molecule, acceptor atom, score
      L1  H     9    26       P1  7948  1.00
      L1  H    13    29       P1 10175  0.91

> <Gold.Chemscore.Hbond.Weighted>
-6.6389

> <Gold.Chemscore.Metal.Weighted>
-0.0000

> <Gold.Chemscore.Lipo.Weighted>
-7.8705

> <Gold.Chemscore.Internal_Hbond.Weighted>
0.0000

> <Gold.Chemscore.DEClash.Weighted>
0.0472

> <Gold.Chemscore.DEInternal.Weighted>
1.2756

> <Gold.Chemscore.Rot.Weighted>
5.6427

> <Gold.Chemscore.Internal.Correction.Weighted>
   9.000000E+99

> <Gold.Protein.RotatedTorsions>
[ 6907 6896 6895 6894 ] final   41.70 input  -60.11 | X-H torsion
[ 7974 7965 7964 7962 ] final   46.28 input  175.53 | X-H torsion
[ 8008 7997 7996 7995 ] final   22.57 input   59.86 | X-H torsion
[ 10167 10162 10161 10158 ] final -140.92 input  -65.29 | X-H torsion
[ 10718 10713 10712 10709 ] final   93.01 input   66.30 | X-H torsion
[ 10763 10752 10751 10750 ] final   53.59 input  -60.55 | X-H torsion
[ 11005 11000 10999 10996 ] final   55.02 input  -57.11 | X-H torsion

> <Gold.Protein.ActiveResidues>
 VAL166  LYS551  ARG553  GLY616  TRP617  ASP618  TYR619  PRO620  LYS621  CYS622 
 ASP623  PHE694  ASN695  SER759  ASP760  ASP761  ALA762  ILE779  LEU786  VAL792 
 PHE793  MET794  SER795  GLU796  ALA797  LYS798  CYS799  TRP800  GLU811  SER814 

> <Gold.Protein.RotatedAtoms>
  152.1985  134.8609  160.0510 H   0  0  0  0  0  0  0  0  0  0  0  0  # atno 6907 bound_to 6896
  151.9471  133.3650  159.3994 H   0  0  0  0  0  0  0  0  0  0  0  0  # atno 6908 bound_to 6896
  150.6950  134.4303  159.5289 H   0  0  0  0  0  0  0  0  0  0  0  0  # atno 6909 bound_to 6896
  146.0404  139.4873  142.9782 H   0  0  0  0  0  0  0  0  0  0  0  0  # atno 7974 bound_to 7965
  154.9677  140.3086  155.5002 H   0  0  0  0  0  0  0  0  0  0  0  0  # atno 8008 bound_to 7997
  156.2969  140.2289  156.4706 H   0  0  0  0  0  0  0  0  0  0  0  0  # atno 8009 bound_to 7997
  154.7906  140.0440  157.1186 H   0  0  0  0  0  0  0  0  0  0  0  0  # atno 8010 bound_to 7997
  139.8235  143.7542  152.2666 H   0  0  0  0  0  0  0  0  0  0  0  0  # atno 10167 bound_to 10162
  157.6956  131.0463  150.3968 H   0  0  0  0  0  0  0  0  0  0  0  0  # atno 10718 bound_to 10713
  152.9796  135.5774  154.4765 H   0  0  0  0  0  0  0  0  0  0  0  0  # atno 10763 bound_to 10752
  154.4320  135.2774  155.1908 H   0  0  0  0  0  0  0  0  0  0  0  0  # atno 10764 bound_to 10752
  154.3612  135.6188  153.5745 H   0  0  0  0  0  0  0  0  0  0  0  0  # atno 10765 bound_to 10752
  140.0640  134.5562  155.9120 H   0  0  0  0  0  0  0  0  0  0  0  0  # atno 11005 bound_to 11000
  145.6894  141.0168  143.1563 LP  0  0  0  0  0  0  0  0  0  0  0  0  # atno 17320 bound_to 7965
  144.7072  139.8515  143.7426 LP  0  0  0  0  0  0  0  0  0  0  0  0  # atno 17321 bound_to 7965
  139.7728  144.7471  151.0200 LP  0  0  0  0  0  0  0  0  0  0  0  0  # atno 17342 bound_to 10162
  140.7812  143.4627  151.0256 LP  0  0  0  0  0  0  0  0  0  0  0  0  # atno 17343 bound_to 10162
  156.4366  130.3983  149.6725 LP  0  0  0  0  0  0  0  0  0  0  0  0  # atno 17370 bound_to 10713
  156.3923  130.7633  151.2635 LP  0  0  0  0  0  0  0  0  0  0  0  0  # atno 17371 bound_to 10713
  141.1985  133.6602  156.5795 LP  0  0  0  0  0  0  0  0  0  0  0  0  # atno 17394 bound_to 11000
  140.3727  134.7592  157.4609 LP  0  0  0  0  0  0  0  0  0  0  0  0  # atno 17395 bound_to 11000

$$$$
