AV-unprocessed.smi:2492|AV-procd|sdf|9817|dock3
  -GOLD-   2272013443D 1   1.00000     0.00000
 Structure written by MMmdl.
 32 33  0  0  0  0  0  0  0  0  2 V2000
  151.6395  145.8655  159.8642 C   0  0  0  0  0  0  0  0  0  0  0  0
  151.6632  144.5537  158.6140 S   0  0  0  0  0  0  0  0  0  0  0  0
  151.7812  143.0918  159.6851 C   0  0  2  0  0  0  0  0  0  0  0  0
  153.0312  143.1080  160.5610 C   0  0  0  0  0  0  0  0  0  0  0  0
  153.2063  141.6506  160.9885 C   0  0  0  0  0  0  0  0  0  0  0  0
  152.6399  140.7981  159.8348 C   0  0  2  0  0  0  0  0  0  0  0  0
  153.6982  140.0986  159.1091 N   0  0  0  0  0  0  0  0  0  0  0  0
  153.9149  138.7753  159.1170 C   0  0  0  0  0  0  0  0  0  0  0  0
  153.1884  138.0376  159.7868 O   0  0  0  0  0  0  0  0  0  0  0  0
  154.9608  138.3898  158.3511 N   0  5  0  0  0  0  0  0  0  0  0  0
  155.0393  137.1228  157.9124 C   0  0  0  0  0  0  0  0  0  0  0  0
  154.4830  136.0568  158.4893 N   0  0  0  0  0  0  0  0  0  0  0  0
  154.8598  135.0561  157.6491 C   0  0  0  0  0  0  0  0  0  0  0  0
  154.4830  133.6306  157.8653 C   0  0  0  0  0  0  0  0  0  0  0  0
  155.5866  135.4222  156.6040 N   0  0  0  0  0  0  0  0  0  0  0  0
  155.7080  136.8088  156.7722 O   0  0  0  0  0  0  0  0  0  0  0  0
  151.8959  141.7772  158.9069 C   0  0  0  0  0  0  0  0  0  0  0  0
  151.6041  146.8423  159.3819 H   0  0  0  0  0  0  0  0  0  0  0  0
  152.5352  145.8177  160.4839 H   0  0  0  0  0  0  0  0  0  0  0  0
  150.7644  145.7682  160.5064 H   0  0  0  0  0  0  0  0  0  0  0  0
  150.9020  143.0543  160.3299 H   0  0  0  0  0  0  0  0  0  0  0  0
  153.8961  143.4205  159.9737 H   0  0  0  0  0  0  0  0  0  0  0  0
  152.9415  143.7853  161.4106 H   0  0  0  0  0  0  0  0  0  0  0  0
  154.2448  141.4206  161.2314 H   0  0  0  0  0  0  0  0  0  0  0  0
  152.6201  141.4669  161.8898 H   0  0  0  0  0  0  0  0  0  0  0  0
  151.9307  140.0709  160.2343 H   0  0  0  0  0  0  0  0  0  0  0  0
  154.3181  140.6653  158.5491 H   0  0  0  0  0  0  0  0  0  0  0  0
  153.6905  133.3428  157.1743 H   0  0  0  0  0  0  0  0  0  0  0  0
  154.1268  133.4774  158.8844 H   0  0  0  0  0  0  0  0  0  0  0  0
  155.3427  132.9802  157.7005 H   0  0  0  0  0  0  0  0  0  0  0  0
  150.9205  141.3927  158.6076 H   0  0  0  0  0  0  0  0  0  0  0  0
  152.4693  141.9448  157.9934 H   0  0  0  0  0  0  0  0  0  0  0  0
  1  2  1  0  0  0  0
  1 18  1  0  0  0  0
  1 19  1  0  0  0  0
  1 20  1  0  0  0  0
  2  3  1  0  0  0  0
  3 17  1  0  0  0  0
  3  4  1  0  0  0  0
  3 21  1  0  0  0  0
  4  5  1  0  0  0  0
  4 22  1  0  0  0  0
  4 23  1  0  0  0  0
  5  6  1  0  0  0  0
  5 24  1  0  0  0  0
  5 25  1  0  0  0  0
  6  7  1  0  0  0  0
  6 17  1  0  0  0  0
  6 26  1  0  0  0  0
  7  8  1  0  0  0  0
  7 27  1  0  0  0  0
  8  9  2  0  0  0  0
  8 10  1  0  0  0  0
 10 11  1  0  0  0  0
 11 16  1  0  0  0  0
 11 12  2  0  0  0  0
 12 13  1  0  0  0  0
 13 14  1  0  0  0  0
 13 15  2  0  0  0  0
 14 28  1  0  0  0  0
 14 29  1  0  0  0  0
 14 30  1  0  0  0  0
 15 16  1  0  0  0  0
 17 31  1  0  0  0  0
 17 32  1  0  0  0  0
M  CHG  1  10  -1
M  END
> <s_m_source_file>
AV-unprocessed.smi

> <i_m_source_file_index>
2492

> <i_lp_mmshare_version>
43012

> <i_f3d_flags>
0

> <s_epik_input>
W0NIM11TW0NAQEhdMVtDSDJdW0NIMl1bQ0BIXShbQ0gyXTEpW05IXUMoPU8pW05IXWMybmMoW0NIM10pbm8y

> <s_epik_cmdline>
J2VwaWtfcHl0aG9uJywgJy1waCcsICc3LjAnLCAnLXRuJywgJzgnLCAnLW1hJywgJzIwMCcsICctbWV0YWxfYmluZGluZycsICctaW1hZScsICc8aW5maWxlLm1hZT4nLCAnLW9tYWUnLCAnPG91dGZpbGUubWFlPic=

> <r_lp_tautomer_probability>
1

> <r_epik_Ionization_Penalty>
6.26454

> <r_epik_Ionization_Penalty_Charging>
6.26445

> <r_epik_Ionization_Penalty_Neutral>
9.05726e-05

> <r_epik_State_Penalty>
6.26444

> <r_epik_Charging_Adjusted_Penalty>
12.5289

> <i_epik_Tot_Q>
-1

> <i_epik_Tot_abs_Q>
1

> <r_epik_Metal_State_Penalty>
2.20125

> <b_epik_Metal_Only>
1

> <s_lp_Force_Field>
OPLS_2005

> <r_lp_Energy>
10.8343

> <b_lp_Chiralities_Consistent>
1

> <s_lp_Variant>
AV-unprocessed.smi:2492-7

> <Gold.Version>
5.8.1

> <Gold.Id.Protein>
6NUR|6NUR_protein|mol2

> <Gold.PLP.Fitness>
36.9440

> <Gold.PLP.PLP>
-28.6241

> <Gold.PLP.part.hbond>
-2.0000

> <Gold.PLP.part.metal>
0.0000

> <Gold.PLP.part.buried>
-3.1193

> <Gold.PLP.part.nonpolar>
-23.8903

> <Gold.PLP.part.repulsive>
0.1064

> <Gold.PLP.ligand.clash>
0.0000

> <Gold.PLP.ligand.torsion>
0.3483

> <Gold.PLP.Chemscore.Hbond>
3.0000

> <Gold.PLP.Chemscore.CHOScore>
0.0000

> <Gold.PLP.Chemscore.Metal>
0.0000

> <Gold.Chemscore.Hbonds>
donor molecule, donor type, donor heavy atom, donor atom, acceptor molecule, acceptor atom, score
      P1  H  7997  8009       L1    10  1.98
      P1  H 10752 10764       L1    15  1.00

> <Gold.PLP.Chemscore.Internal.Correction>
0.0164

> <Gold.Rescore>
     Score         DG    S(hbond)    S(metal)    S(lipo)     H(rot)  DE(clash)    DE(int)     intcor
     14.08     -16.13       1.60        0.00      73.03       1.27       0.23       1.81       ----

> <Gold.Chemscore.Fitness>
14.0816

> <Gold.Chemscore.DG>
-16.1277

> <Gold.Chemscore.ZeroCoef>
-5.4800

> <Gold.Chemscore.Hbond>
1.6041

> <Gold.Chemscore.Metal>
0.0000

> <Gold.Chemscore.Lipo>
73.0277

> <Gold.Chemscore.Internal_Hbond>
0.0000

> <Gold.Chemscore.DEClash>
0.2333

> <Gold.Chemscore.DEInternal>
1.8127

> <Gold.Chemscore.Rot>
1.2712

> <Gold.Chemscore.Internal.Correction>
   9.000000E+99

> <Gold.Chemscore.Hbonds>
donor molecule, donor type, donor heavy atom, donor atom, acceptor molecule, acceptor atom, score
      P1  H  7997  8009       L1    10  0.28
      P1  H 10752 10764       L1    15  0.22

> <Gold.Chemscore.Hbond.Weighted>
-5.3576

> <Gold.Chemscore.Metal.Weighted>
-0.0000

> <Gold.Chemscore.Lipo.Weighted>
-8.5442

> <Gold.Chemscore.Internal_Hbond.Weighted>
0.0000

> <Gold.Chemscore.DEClash.Weighted>
0.2333

> <Gold.Chemscore.DEInternal.Weighted>
1.8127

> <Gold.Chemscore.Rot.Weighted>
3.2542

> <Gold.Chemscore.Internal.Correction.Weighted>
   9.000000E+99

> <Gold.Protein.RotatedTorsions>
[ 6907 6896 6895 6894 ] final  163.42 input  -60.11 | X-H torsion
[ 7974 7965 7964 7962 ] final   -6.73 input  175.53 | X-H torsion
[ 8008 7997 7996 7995 ] final  109.18 input   59.86 | X-H torsion
[ 10167 10162 10161 10158 ] final  137.84 input  -65.29 | X-H torsion
[ 10718 10713 10712 10709 ] final -177.94 input   66.30 | X-H torsion
[ 10763 10752 10751 10750 ] final   57.28 input  -60.55 | X-H torsion
[ 11005 11000 10999 10996 ] final   56.82 input  -57.11 | X-H torsion

> <Gold.Protein.ActiveResidues>
 VAL166  LYS551  ARG553  GLY616  TRP617  ASP618  TYR619  PRO620  LYS621  CYS622 
 ASP623  PHE694  ASN695  SER759  ASP760  ASP761  ALA762  ILE779  LEU786  VAL792 
 PHE793  MET794  SER795  GLU796  ALA797  LYS798  CYS799  TRP800  GLU811  SER814 

> <Gold.Protein.RotatedAtoms>
  151.9254  133.3596  159.3911 H   0  0  0  0  0  0  0  0  0  0  0  0  # atno 6907 bound_to 6896
  150.7028  134.4592  159.5382 H   0  0  0  0  0  0  0  0  0  0  0  0  # atno 6908 bound_to 6896
  152.2223  134.8401  160.0535 H   0  0  0  0  0  0  0  0  0  0  0  0  # atno 6909 bound_to 6896
  146.2324  140.2214  142.8337 H   0  0  0  0  0  0  0  0  0  0  0  0  # atno 7974 bound_to 7965
  156.1960  140.3062  155.9428 H   0  0  0  0  0  0  0  0  0  0  0  0  # atno 8008 bound_to 7997
  155.3065  140.0449  157.3049 H   0  0  0  0  0  0  0  0  0  0  0  0  # atno 8009 bound_to 7997
  154.5510  140.2291  155.8494 H   0  0  0  0  0  0  0  0  0  0  0  0  # atno 8010 bound_to 7997
  139.5131  144.6387  151.5627 H   0  0  0  0  0  0  0  0  0  0  0  0  # atno 10167 bound_to 10162
  156.8369  130.9673  151.3103 H   0  0  0  0  0  0  0  0  0  0  0  0  # atno 10718 bound_to 10713
  152.9847  135.5647  154.5366 H   0  0  0  0  0  0  0  0  0  0  0  0  # atno 10763 bound_to 10752
  154.4828  135.2789  155.1559 H   0  0  0  0  0  0  0  0  0  0  0  0  # atno 10764 bound_to 10752
  154.3061  135.6297  153.5498 H   0  0  0  0  0  0  0  0  0  0  0  0  # atno 10765 bound_to 10752
  140.0499  134.5751  155.9276 H   0  0  0  0  0  0  0  0  0  0  0  0  # atno 11005 bound_to 11000
  144.9629  140.8293  143.5502 LP  0  0  0  0  0  0  0  0  0  0  0  0  # atno 17320 bound_to 7965
  145.2187  139.2169  143.5104 LP  0  0  0  0  0  0  0  0  0  0  0  0  # atno 17321 bound_to 7965
  140.6146  143.9373  150.6478 LP  0  0  0  0  0  0  0  0  0  0  0  0  # atno 17342 bound_to 10162
  140.2627  143.3512  152.1309 LP  0  0  0  0  0  0  0  0  0  0  0  0  # atno 17343 bound_to 10162
  157.6376  130.8780  149.9389 LP  0  0  0  0  0  0  0  0  0  0  0  0  # atno 17370 bound_to 10713
  156.0902  130.3664  150.0409 LP  0  0  0  0  0  0  0  0  0  0  0  0  # atno 17371 bound_to 10713
  141.1925  133.6575  156.5506 LP  0  0  0  0  0  0  0  0  0  0  0  0  # atno 17394 bound_to 11000
  140.3934  134.7421  157.4735 LP  0  0  0  0  0  0  0  0  0  0  0  0  # atno 17395 bound_to 11000

$$$$
