AV-unprocessed.smi:3135|AV-procd|sdf|11945|dock5
  -GOLD-   2272017333D 1   1.00000     0.00000
 Structure written by MMmdl.
 38 39  0  0  0  0  0  0  0  0  2 V2000
  152.5571  144.4559  159.6667 C   0  0  0  0  0  0  0  0  0  0  0  0
  152.0776  143.2756  158.8718 C   0  0  0  0  0  0  0  0  0  0  0  0
  151.2006  143.2764  157.7500 C   0  0  0  0  0  0  0  0  0  0  0  0
  150.9737  142.0631  157.2738 N   0  0  0  0  0  0  0  0  0  0  0  0
  151.6958  141.2464  158.0710 N   0  0  0  0  0  0  0  0  0  0  0  0
  151.6902  139.8124  157.8361 C   0  0  0  0  0  0  0  0  0  0  0  0
  151.4895  139.4722  156.3563 C   0  0  0  0  0  0  0  0  0  0  0  0
  152.1923  140.0126  155.5027 O   0  0  0  0  0  0  0  0  0  0  0  0
  150.5205  138.5907  156.0576 N   0  0  0  0  0  0  0  0  0  0  0  0
  150.1963  138.1361  154.7108 C   0  0  0  0  0  0  0  0  0  0  0  0
  148.9734  138.8815  154.1427 C   0  0  0  0  0  0  0  0  0  0  0  0
  147.8045  137.9942  153.9158 N   0  3  1  0  0  0  0  0  0  0  0  0
  147.4153  137.2922  155.1602 C   0  0  0  0  0  0  0  0  0  0  0  0
  146.6526  138.7048  153.3088 C   0  0  0  0  0  0  0  0  0  0  0  0
  145.7715  137.8278  152.4450 C   0  0  0  0  0  0  0  0  0  0  0  0
  146.7150  138.8150  151.8012 C   0  0  0  0  0  0  0  0  0  0  0  0
  152.3686  141.9523  159.0462 C   0  0  0  0  0  0  0  0  0  0  0  0
  152.7544  145.3179  159.0295 H   0  0  0  0  0  0  0  0  0  0  0  0
  153.4807  144.2357  160.2025 H   0  0  0  0  0  0  0  0  0  0  0  0
  151.8208  144.7653  160.4085 H   0  0  0  0  0  0  0  0  0  0  0  0
  150.7244  144.1190  157.2703 H   0  0  0  0  0  0  0  0  0  0  0  0
  152.6359  139.3921  158.1803 H   0  0  0  0  0  0  0  0  0  0  0  0
  150.9000  139.3584  158.4368 H   0  0  0  0  0  0  0  0  0  0  0  0
  149.9899  138.1916  156.8188 H   0  0  0  0  0  0  0  0  0  0  0  0
  151.0719  138.2674  154.0743 H   0  0  0  0  0  0  0  0  0  0  0  0
  149.9966  137.0650  154.7511 H   0  0  0  0  0  0  0  0  0  0  0  0
  148.6937  139.6639  154.8501 H   0  0  0  0  0  0  0  0  0  0  0  0
  149.2264  139.3860  153.2089 H   0  0  0  0  0  0  0  0  0  0  0  0
  147.1074  138.0033  155.9279 H   0  0  0  0  0  0  0  0  0  0  0  0
  148.2482  136.7066  155.5507 H   0  0  0  0  0  0  0  0  0  0  0  0
  146.5887  136.6039  154.9840 H   0  0  0  0  0  0  0  0  0  0  0  0
  146.2031  139.4935  153.9097 H   0  0  0  0  0  0  0  0  0  0  0  0
  146.0173  136.7716  152.3494 H   0  0  0  0  0  0  0  0  0  0  0  0
  144.7093  138.0615  152.4127 H   0  0  0  0  0  0  0  0  0  0  0  0
  146.2768  139.7007  151.3456 H   0  0  0  0  0  0  0  0  0  0  0  0
  147.5851  138.4105  151.2874 H   0  0  0  0  0  0  0  0  0  0  0  0
  152.9944  141.4597  159.7759 H   0  0  0  0  0  0  0  0  0  0  0  0
  148.0946  137.2810  153.2622 H   0  0  0  0  0  0  0  0  0  0  0  0
  1  2  1  0  0  0  0
  1 18  1  0  0  0  0
  1 19  1  0  0  0  0
  1 20  1  0  0  0  0
  2 17  2  0  0  0  0
  2  3  1  0  0  0  0
  3  4  2  0  0  0  0
  3 21  1  0  0  0  0
  4  5  1  0  0  0  0
  5  6  1  0  0  0  0
  5 17  1  0  0  0  0
  6  7  1  0  0  0  0
  6 22  1  0  0  0  0
  6 23  1  0  0  0  0
  7  8  2  0  0  0  0
  7  9  1  0  0  0  0
  9 10  1  0  0  0  0
  9 24  1  0  0  0  0
 10 11  1  0  0  0  0
 10 25  1  0  0  0  0
 10 26  1  0  0  0  0
 11 12  1  0  0  0  0
 11 27  1  0  0  0  0
 11 28  1  0  0  0  0
 12 13  1  0  0  0  0
 12 14  1  0  0  0  0
 12 38  1  0  0  0  0
 13 29  1  0  0  0  0
 13 30  1  0  0  0  0
 13 31  1  0  0  0  0
 14 16  1  0  0  0  0
 14 15  1  0  0  0  0
 14 32  1  0  0  0  0
 15 16  1  0  0  0  0
 15 33  1  0  0  0  0
 15 34  1  0  0  0  0
 16 35  1  0  0  0  0
 16 36  1  0  0  0  0
 17 37  1  0  0  0  0
M  CHG  1  12   1
M  END
> <s_m_source_file>
AV-unprocessed.smi

> <i_m_source_file_index>
3135

> <i_lp_mmshare_version>
43012

> <i_f3d_flags>
0

> <s_epik_input>
W0NIM11jMVtjSF1ubihbY0hdMSlbQ0gyXUMoPU8pW05IXVtDSDJdW0NIMl1OKFtDSDNdKVtDSF0yW0NIMl1bQ0gyXTI=

> <s_epik_cmdline>
J2VwaWtfcHl0aG9uJywgJy1waCcsICc3LjAnLCAnLXRuJywgJzgnLCAnLW1hJywgJzIwMCcsICctbWV0YWxfYmluZGluZycsICctaW1hZScsICc8aW5maWxlLm1hZT4nLCAnLW9tYWUnLCAnPG91dGZpbGUubWFlPic=

> <r_lp_tautomer_probability>
1

> <r_epik_Ionization_Penalty>
0.174318

> <r_epik_Ionization_Penalty_Charging>
0.174302

> <r_epik_Ionization_Penalty_Neutral>
1.62778e-05

> <r_epik_State_Penalty>
0.163722

> <r_epik_Charging_Adjusted_Penalty>
0.338024

> <i_epik_Tot_Q>
1

> <i_epik_Tot_abs_Q>
1

> <r_epik_Metal_State_Penalty>
0.163727

> <b_epik_Metal_Only>
0

> <s_lp_Force_Field>
OPLS_2005

> <r_lp_Energy>
17.6271

> <b_lp_Chiralities_Consistent>
1

> <s_lp_Variant>
AV-unprocessed.smi:3135-1

> <Gold.Version>
5.8.1

> <Gold.Id.Protein>
6NUR|6NUR_protein|mol2

> <Gold.PLP.Fitness>
43.6503

> <Gold.PLP.PLP>
-32.9160

> <Gold.PLP.part.hbond>
-2.5143

> <Gold.PLP.part.metal>
0.0000

> <Gold.PLP.part.buried>
-0.7016

> <Gold.PLP.part.nonpolar>
-30.1299

> <Gold.PLP.part.repulsive>
0.1207

> <Gold.PLP.ligand.clash>
0.0000

> <Gold.PLP.ligand.torsion>
1.5961

> <Gold.PLP.Chemscore.Hbond>
3.2032

> <Gold.PLP.Chemscore.CHOScore>
1.0000

> <Gold.PLP.Chemscore.Metal>
0.0000

> <Gold.Chemscore.Hbonds>
donor molecule, donor type, donor heavy atom, donor atom, acceptor molecule, acceptor atom, score
      L1  H    12    38       P1  7948  2.00
      P1  H  7989  7998       L1     8  0.36
      P1  H  7997  8009       L1     8  0.44
      L1  C     3    21       P1  8028  1.00

> <Gold.PLP.Chemscore.Internal.Correction>
1.3169

> <Gold.Rescore>
     Score         DG    S(hbond)    S(metal)    S(lipo)     H(rot)  DE(clash)    DE(int)     intcor
     15.08     -17.13       1.93        0.00      87.27       1.96       0.62       1.43       ----

> <Gold.Chemscore.Fitness>
15.0819

> <Gold.Chemscore.DG>
-17.1293

> <Gold.Chemscore.ZeroCoef>
-5.4800

> <Gold.Chemscore.Hbond>
1.9296

> <Gold.Chemscore.Metal>
0.0000

> <Gold.Chemscore.Lipo>
87.2688

> <Gold.Chemscore.Internal_Hbond>
0.0000

> <Gold.Chemscore.DEClash>
0.6195

> <Gold.Chemscore.DEInternal>
1.4278

> <Gold.Chemscore.Rot>
1.9555

> <Gold.Chemscore.Internal.Correction>
   9.000000E+99

> <Gold.Chemscore.Hbonds>
donor molecule, donor type, donor heavy atom, donor atom, acceptor molecule, acceptor atom, score
      L1  H    12    38       P1  7948  0.99
      P1  H  7989  7998       L1     8  0.37
      P1  H  7997  8009       L1     8  0.38

> <Gold.Chemscore.Hbond.Weighted>
-6.4448

> <Gold.Chemscore.Metal.Weighted>
-0.0000

> <Gold.Chemscore.Lipo.Weighted>
-10.2104

> <Gold.Chemscore.Internal_Hbond.Weighted>
0.0000

> <Gold.Chemscore.DEClash.Weighted>
0.6195

> <Gold.Chemscore.DEInternal.Weighted>
1.4278

> <Gold.Chemscore.Rot.Weighted>
5.0060

> <Gold.Chemscore.Internal.Correction.Weighted>
   9.000000E+99

> <Gold.Protein.RotatedTorsions>
[ 6907 6896 6895 6894 ] final  166.39 input  -60.11 | X-H torsion
[ 7974 7965 7964 7962 ] final   40.30 input  175.53 | X-H torsion
[ 8008 7997 7996 7995 ] final -146.64 input   59.86 | X-H torsion
[ 10167 10162 10161 10158 ] final  -84.46 input  -65.29 | X-H torsion
[ 10718 10713 10712 10709 ] final  109.54 input   66.30 | X-H torsion
[ 10763 10752 10751 10750 ] final  102.73 input  -60.55 | X-H torsion
[ 11005 11000 10999 10996 ] final -157.33 input  -57.11 | X-H torsion

> <Gold.Protein.ActiveResidues>
 VAL166  LYS551  ARG553  GLY616  TRP617  ASP618  TYR619  PRO620  LYS621  CYS622 
 ASP623  PHE694  ASN695  SER759  ASP760  ASP761  ALA762  ILE779  LEU786  VAL792 
 PHE793  MET794  SER795  GLU796  ALA797  LYS798  CYS799  TRP800  GLU811  SER814 

> <Gold.Protein.RotatedAtoms>
  151.8796  133.3492  159.3761 H   0  0  0  0  0  0  0  0  0  0  0  0  # atno 6907 bound_to 6896
  150.7131  134.5031  159.5580 H   0  0  0  0  0  0  0  0  0  0  0  0  # atno 6908 bound_to 6896
  152.2580  134.8064  160.0486 H   0  0  0  0  0  0  0  0  0  0  0  0  # atno 6909 bound_to 6896
  146.0916  139.5550  142.9472 H   0  0  0  0  0  0  0  0  0  0  0  0  # atno 7974 bound_to 7965
  155.5627  140.0627  157.2825 H   0  0  0  0  0  0  0  0  0  0  0  0  # atno 8008 bound_to 7997
  154.4385  140.1883  156.0844 H   0  0  0  0  0  0  0  0  0  0  0  0  # atno 8009 bound_to 7997
  156.0435  140.3293  155.7274 H   0  0  0  0  0  0  0  0  0  0  0  0  # atno 8010 bound_to 7997
  140.4130  143.2615  151.8992 H   0  0  0  0  0  0  0  0  0  0  0  0  # atno 10167 bound_to 10162
  157.6536  131.0915  150.6469 H   0  0  0  0  0  0  0  0  0  0  0  0  # atno 10718 bound_to 10713
  153.3435  135.4000  155.1590 H   0  0  0  0  0  0  0  0  0  0  0  0  # atno 10763 bound_to 10752
  154.8648  135.3639  154.5315 H   0  0  0  0  0  0  0  0  0  0  0  0  # atno 10764 bound_to 10752
  153.5762  135.7077  153.5543 H   0  0  0  0  0  0  0  0  0  0  0  0  # atno 10765 bound_to 10752
  140.6658  134.4301  157.5233 H   0  0  0  0  0  0  0  0  0  0  0  0  # atno 11005 bound_to 11000
  145.6028  141.0352  143.2009 LP  0  0  0  0  0  0  0  0  0  0  0  0  # atno 17320 bound_to 7965
  144.7364  139.7573  143.7327 LP  0  0  0  0  0  0  0  0  0  0  0  0  # atno 17321 bound_to 7965
  139.4782  144.5517  151.8376 LP  0  0  0  0  0  0  0  0  0  0  0  0  # atno 17342 bound_to 10162
  140.4617  144.1713  150.5907 LP  0  0  0  0  0  0  0  0  0  0  0  0  # atno 17343 bound_to 10162
  156.6778  130.4558  149.5637 LP  0  0  0  0  0  0  0  0  0  0  0  0  # atno 17370 bound_to 10713
  156.1951  130.6584  151.1105 LP  0  0  0  0  0  0  0  0  0  0  0  0  # atno 17371 bound_to 10713
  139.8998  134.8583  156.1946 LP  0  0  0  0  0  0  0  0  0  0  0  0  # atno 17394 bound_to 11000
  141.0430  133.6928  156.1633 LP  0  0  0  0  0  0  0  0  0  0  0  0  # atno 17395 bound_to 11000

$$$$
