AV-unprocessed.smi:1999|AV-procd|sdf|8093|dock3
  -GOLD-   2272010313D 1   1.00000     0.00000
 Structure written by MMmdl.
 38 39  0  0  0  0  0  0  0  0  1 V2000
  144.0422  143.6309  162.4352 C   0  0  0  0  0  0  0  0  0  0  0  0
  145.1791  143.5310  161.4769 C   0  0  0  0  0  0  0  0  0  0  0  0
  146.4570  143.6438  161.8582 N   0  0  0  0  0  0  0  0  0  0  0  0
  147.3376  143.5133  160.7932 N   0  0  0  0  0  0  0  0  0  0  0  0
  146.6947  143.3030  159.6363 C   0  0  0  0  0  0  0  0  0  0  0  0
  147.3503  143.1356  158.3879 N   0  0  0  0  0  0  0  0  0  0  0  0
  147.2431  142.1139  157.5200 C   0  0  0  0  0  0  0  0  0  0  0  0
  146.5238  141.1257  157.6688 O   0  0  0  0  0  0  0  0  0  0  0  0
  148.0273  142.3053  156.4488 N   0  0  0  0  0  0  0  0  0  0  0  0
  148.1540  141.3940  155.3148 C   0  0  1  0  0  0  0  0  0  0  0  0
  147.4157  141.9779  154.0978 C   0  0  0  0  0  0  0  0  0  0  0  0
  149.6534  141.1636  155.0344 C   0  0  0  0  0  0  0  0  0  0  0  0
  150.3502  140.2837  155.9735 N   0  0  0  0  0  0  0  0  0  0  0  0
  151.0154  141.0160  157.0498 C   0  0  0  0  0  0  0  0  0  0  0  0
  151.7681  140.0739  158.0060 C   0  0  0  0  0  0  0  0  0  0  0  0
  152.7012  139.2885  157.2715 O   0  0  0  0  0  0  0  0  0  0  0  0
  152.0822  138.5217  156.2443 C   0  0  0  0  0  0  0  0  0  0  0  0
  151.3365  139.4611  155.2812 C   0  0  0  0  0  0  0  0  0  0  0  0
  144.9442  143.2489  159.7561 S   0  0  0  0  0  0  0  0  0  0  0  0
  144.2783  144.3359  163.2328 H   0  0  0  0  0  0  0  0  0  0  0  0
  143.8411  142.6550  162.8770 H   0  0  0  0  0  0  0  0  0  0  0  0
  143.1446  143.9752  161.9214 H   0  0  0  0  0  0  0  0  0  0  0  0
  147.9762  143.8824  158.1251 H   0  0  0  0  0  0  0  0  0  0  0  0
  148.5814  143.1482  156.4129 H   0  0  0  0  0  0  0  0  0  0  0  0
  147.6910  140.4449  155.5862 H   0  0  0  0  0  0  0  0  0  0  0  0
  147.4648  141.3013  153.2443 H   0  0  0  0  0  0  0  0  0  0  0  0
  147.8469  142.9314  153.7913 H   0  0  0  0  0  0  0  0  0  0  0  0
  146.3608  142.1444  154.3181 H   0  0  0  0  0  0  0  0  0  0  0  0
  149.7437  140.7472  154.0300 H   0  0  0  0  0  0  0  0  0  0  0  0
  150.1645  142.1273  155.0012 H   0  0  0  0  0  0  0  0  0  0  0  0
  151.7160  141.7385  156.6286 H   0  0  0  0  0  0  0  0  0  0  0  0
  150.2887  141.5841  157.6289 H   0  0  0  0  0  0  0  0  0  0  0  0
  152.3030  140.6487  158.7620 H   0  0  0  0  0  0  0  0  0  0  0  0
  151.0698  139.4220  158.5333 H   0  0  0  0  0  0  0  0  0  0  0  0
  152.8475  137.9589  155.7093 H   0  0  0  0  0  0  0  0  0  0  0  0
  151.3973  137.7950  156.6842 H   0  0  0  0  0  0  0  0  0  0  0  0
  150.8471  138.8676  154.5083 H   0  0  0  0  0  0  0  0  0  0  0  0
  152.0593  140.1007  154.7722 H   0  0  0  0  0  0  0  0  0  0  0  0
  1  2  1  0  0  0  0
  1 20  1  0  0  0  0
  1 21  1  0  0  0  0
  1 22  1  0  0  0  0
  2 19  1  0  0  0  0
  2  3  2  0  0  0  0
  3  4  1  0  0  0  0
  4  5  2  0  0  0  0
  5  6  1  0  0  0  0
  5 19  1  0  0  0  0
  6  7  1  0  0  0  0
  6 23  1  0  0  0  0
  7  8  2  0  0  0  0
  7  9  1  0  0  0  0
  9 10  1  0  0  0  0
  9 24  1  0  0  0  0
 10 11  1  0  0  0  0
 10 12  1  0  0  0  0
 10 25  1  0  0  0  0
 11 26  1  0  0  0  0
 11 27  1  0  0  0  0
 11 28  1  0  0  0  0
 12 13  1  0  0  0  0
 12 29  1  0  0  0  0
 12 30  1  0  0  0  0
 13 18  1  0  0  0  0
 13 14  1  0  0  0  0
 14 15  1  0  0  0  0
 14 31  1  0  0  0  0
 14 32  1  0  0  0  0
 15 16  1  0  0  0  0
 15 33  1  0  0  0  0
 15 34  1  0  0  0  0
 16 17  1  0  0  0  0
 17 18  1  0  0  0  0
 17 35  1  0  0  0  0
 17 36  1  0  0  0  0
 18 37  1  0  0  0  0
 18 38  1  0  0  0  0
M  END
> <s_m_source_file>
AV-unprocessed.smi

> <i_m_source_file_index>
1999

> <i_lp_mmshare_version>
43012

> <i_f3d_flags>
0

> <s_epik_input>
W0NIM11jMW5uYyhzMSlbTkhdQyg9TylbTkhdW0NASF0oW0NIM10pW0NIMl1OMltDSDJdW0NIMl1PW0NIMl1bQ0gyXTI=

> <s_epik_cmdline>
J2VwaWtfcHl0aG9uJywgJy1waCcsICc3LjAnLCAnLXRuJywgJzgnLCAnLW1hJywgJzIwMCcsICctbWV0YWxfYmluZGluZycsICctaW1hZScsICc8aW5maWxlLm1hZT4nLCAnLW9tYWUnLCAnPG91dGZpbGUubWFlPic=

> <r_lp_tautomer_probability>
1

> <r_epik_Ionization_Penalty>
0.221412

> <r_epik_Ionization_Penalty_Charging>
0

> <r_epik_Ionization_Penalty_Neutral>
0.221412

> <r_epik_State_Penalty>
0.209349

> <r_epik_Charging_Adjusted_Penalty>
0.209349

> <i_epik_Tot_Q>
0

> <i_epik_Tot_abs_Q>
0

> <r_epik_Metal_State_Penalty>
0.56886

> <b_epik_Metal_Only>
0

> <s_lp_Force_Field>
OPLS_2005

> <r_lp_Energy>
22.0732

> <b_lp_Chiralities_Consistent>
1

> <s_lp_Variant>
AV-unprocessed.smi:1999-2

> <Gold.Version>
5.8.1

> <Gold.Id.Protein>
6NUR|6NUR_protein|mol2

> <Gold.PLP.Fitness>
41.2570

> <Gold.PLP.PLP>
-32.5549

> <Gold.PLP.part.hbond>
-4.0000

> <Gold.PLP.part.metal>
0.0000

> <Gold.PLP.part.buried>
-4.7101

> <Gold.PLP.part.nonpolar>
-24.4292

> <Gold.PLP.part.repulsive>
0.2888

> <Gold.PLP.ligand.clash>
0.0000

> <Gold.PLP.ligand.torsion>
1.2544

> <Gold.PLP.Chemscore.Hbond>
3.7203

> <Gold.PLP.Chemscore.CHOScore>
0.0000

> <Gold.PLP.Chemscore.Metal>
0.0000

> <Gold.Chemscore.Hbonds>
donor molecule, donor type, donor heavy atom, donor atom, acceptor molecule, acceptor atom, score
      L1  H     6    23       P1  8029  0.35
      L1  H     9    24       P1  8028  0.96
      P1  H  6933  6944       L1     4  1.00
      P1  H  7997  8008       L1    16  1.00

> <Gold.PLP.Chemscore.Internal.Correction>
0.0502

> <Gold.Rescore>
     Score         DG    S(hbond)    S(metal)    S(lipo)     H(rot)  DE(clash)    DE(int)     intcor
     13.77     -15.25       1.93        0.00      63.14       1.58       0.24       1.25       ----

> <Gold.Chemscore.Fitness>
13.7690

> <Gold.Chemscore.DG>
-15.2542

> <Gold.Chemscore.ZeroCoef>
-5.4800

> <Gold.Chemscore.Hbond>
1.9285

> <Gold.Chemscore.Metal>
0.0000

> <Gold.Chemscore.Lipo>
63.1372

> <Gold.Chemscore.Internal_Hbond>
0.0000

> <Gold.Chemscore.DEClash>
0.2357

> <Gold.Chemscore.DEInternal>
1.2494

> <Gold.Chemscore.Rot>
1.5837

> <Gold.Chemscore.Internal.Correction>
   9.000000E+99

> <Gold.Chemscore.Hbonds>
donor molecule, donor type, donor heavy atom, donor atom, acceptor molecule, acceptor atom, score
      L1  H     6    23       P1  8029  0.06
      L1  H     9    24       P1  8028  0.79
      P1  H  6933  6944       L1     4  0.30
      P1  H  7997  8008       L1    16  0.63

> <Gold.Chemscore.Hbond.Weighted>
-6.4413

> <Gold.Chemscore.Metal.Weighted>
-0.0000

> <Gold.Chemscore.Lipo.Weighted>
-7.3871

> <Gold.Chemscore.Internal_Hbond.Weighted>
0.0000

> <Gold.Chemscore.DEClash.Weighted>
0.2357

> <Gold.Chemscore.DEInternal.Weighted>
1.2494

> <Gold.Chemscore.Rot.Weighted>
4.0542

> <Gold.Chemscore.Internal.Correction.Weighted>
   9.000000E+99

> <Gold.Protein.RotatedTorsions>
[ 6907 6896 6895 6894 ] final  -91.29 input  -60.11 | X-H torsion
[ 7974 7965 7964 7962 ] final -130.08 input  175.53 | X-H torsion
[ 8008 7997 7996 7995 ] final  -53.18 input   59.86 | X-H torsion
[ 10167 10162 10161 10158 ] final   44.69 input  -65.29 | X-H torsion
[ 10718 10713 10712 10709 ] final  -57.29 input   66.30 | X-H torsion
[ 10763 10752 10751 10750 ] final   10.38 input  -60.55 | X-H torsion
[ 11005 11000 10999 10996 ] final -127.82 input  -57.11 | X-H torsion

> <Gold.Protein.ActiveResidues>
 VAL166  LYS551  ARG553  GLY616  TRP617  ASP618  TYR619  PRO620  LYS621  CYS622 
 ASP623  PHE694  ASN695  SER759  ASP760  ASP761  ALA762  ILE779  LEU786  VAL792 
 PHE793  MET794  SER795  GLU796  ALA797  LYS798  CYS799  TRP800  GLU811  SER814 

> <Gold.Protein.RotatedAtoms>
  150.6891  134.2300  159.4430 H   0  0  0  0  0  0  0  0  0  0  0  0  # atno 6907 bound_to 6896
  152.0251  134.9798  160.0580 H   0  0  0  0  0  0  0  0  0  0  0  0  # atno 6908 bound_to 6896
  152.1359  133.4400  159.4780 H   0  0  0  0  0  0  0  0  0  0  0  0  # atno 6909 bound_to 6896
  144.9510  140.7344  143.4788 H   0  0  0  0  0  0  0  0  0  0  0  0  # atno 7974 bound_to 7965
  154.4126  140.1206  156.5113 H   0  0  0  0  0  0  0  0  0  0  0  0  # atno 8008 bound_to 7997
  155.6796  140.3496  155.4831 H   0  0  0  0  0  0  0  0  0  0  0  0  # atno 8009 bound_to 7997
  155.9562  140.1114  157.0924 H   0  0  0  0  0  0  0  0  0  0  0  0  # atno 8010 bound_to 7997
  140.3317  144.2580  150.6167 H   0  0  0  0  0  0  0  0  0  0  0  0  # atno 10167 bound_to 10162
  156.1222  130.4165  150.0420 H   0  0  0  0  0  0  0  0  0  0  0  0  # atno 10718 bound_to 10713
  153.2038  135.6859  153.8198 H   0  0  0  0  0  0  0  0  0  0  0  0  # atno 10763 bound_to 10752
  153.7455  135.3231  155.3313 H   0  0  0  0  0  0  0  0  0  0  0  0  # atno 10764 bound_to 10752
  154.8186  135.4668  154.0816 H   0  0  0  0  0  0  0  0  0  0  0  0  # atno 10765 bound_to 10752
  140.9568  134.0991  157.4008 H   0  0  0  0  0  0  0  0  0  0  0  0  # atno 11005 bound_to 11000
  145.2845  139.1906  143.4773 LP  0  0  0  0  0  0  0  0  0  0  0  0  # atno 17320 bound_to 7965
  146.3321  140.2812  142.8610 LP  0  0  0  0  0  0  0  0  0  0  0  0  # atno 17321 bound_to 7965
  140.5391  143.2227  151.8114 LP  0  0  0  0  0  0  0  0  0  0  0  0  # atno 17342 bound_to 10162
  139.4855  144.4623  151.9526 LP  0  0  0  0  0  0  0  0  0  0  0  0  # atno 17343 bound_to 10162
  156.8355  130.9407  151.3635 LP  0  0  0  0  0  0  0  0  0  0  0  0  # atno 17370 bound_to 10713
  157.6405  130.8802  149.9440 LP  0  0  0  0  0  0  0  0  0  0  0  0  # atno 17371 bound_to 10713
  139.8865  135.0081  156.6501 LP  0  0  0  0  0  0  0  0  0  0  0  0  # atno 17394 bound_to 11000
  140.7525  133.8885  155.8357 LP  0  0  0  0  0  0  0  0  0  0  0  0  # atno 17395 bound_to 11000

$$$$
