AV-unprocessed.smi:2331|AV-procd|sdf|9316|dock9
  -GOLD-   2272012533D 1   1.00000     0.00000
 Structure written by MMmdl.
 50 51  0  0  0  0  0  0  0  0  2 V2000
  151.8951  140.6381  156.8444 C   0  0  0  0  0  0  0  0  0  0  0  0
  151.1962  141.6932  157.7364 C   0  0  0  0  0  0  0  0  0  0  0  0
  151.0752  142.9783  156.8894 C   0  0  0  0  0  0  0  0  0  0  0  0
  149.7679  141.1917  158.0864 C   0  0  0  0  0  0  0  0  0  0  0  0
  148.9784  140.8480  156.9052 N   0  0  0  0  0  0  0  0  0  0  0  0
  148.3148  139.6967  156.7061 C   0  0  0  0  0  0  0  0  0  0  0  0
  148.3780  138.7489  157.4881 O   0  0  0  0  0  0  0  0  0  0  0  0
  147.6487  139.6589  155.5290 N   0  0  0  0  0  0  0  0  0  0  0  0
  147.6076  138.4572  154.6865 C   0  0  0  0  0  0  0  0  0  0  0  0
  147.6480  138.9634  153.2513 C   0  0  0  0  0  0  0  0  0  0  0  0
  146.9449  140.3045  153.3398 C   0  0  0  0  0  0  0  0  0  0  0  0
  147.3046  140.8561  154.7334 C   0  0  1  0  0  0  0  0  0  0  0  0
  146.1715  141.7442  155.3497 C   0  0  0  0  0  0  0  0  0  0  0  0
  145.8142  142.9355  154.4368 C   0  0  0  0  0  0  0  0  0  0  0  0
  144.9026  140.9577  155.7370 C   0  0  0  0  0  0  0  0  0  0  0  0
  146.6684  142.3643  156.5192 O   0  0  0  0  0  0  0  0  0  0  0  0
  151.9873  141.9967  159.0254 C   0  0  0  0  0  0  0  0  0  0  0  0
  151.6002  143.0108  159.9400 C   0  0  0  0  0  0  0  0  0  0  0  0
  152.3797  143.2536  161.0890 C   0  0  0  0  0  0  0  0  0  0  0  0
  153.4899  142.5220  161.3179 N   0  3  0  0  0  0  0  0  0  0  0  0
  153.9025  141.5465  160.4828 C   0  0  0  0  0  0  0  0  0  0  0  0
  153.1634  141.2616  159.3171 C   0  0  0  0  0  0  0  0  0  0  0  0
  151.3141  140.4378  155.9435 H   0  0  0  0  0  0  0  0  0  0  0  0
  152.0236  139.6833  157.3536 H   0  0  0  0  0  0  0  0  0  0  0  0
  152.8802  140.9757  156.5200 H   0  0  0  0  0  0  0  0  0  0  0  0
  150.5389  142.7895  155.9585 H   0  0  0  0  0  0  0  0  0  0  0  0
  152.0574  143.3722  156.6258 H   0  0  0  0  0  0  0  0  0  0  0  0
  150.5350  143.7682  157.4110 H   0  0  0  0  0  0  0  0  0  0  0  0
  149.8294  140.2847  158.6886 H   0  0  0  0  0  0  0  0  0  0  0  0
  149.2444  141.9181  158.7107 H   0  0  0  0  0  0  0  0  0  0  0  0
  148.9079  141.5544  156.1875 H   0  0  0  0  0  0  0  0  0  0  0  0
  148.4343  137.7681  154.8694 H   0  0  0  0  0  0  0  0  0  0  0  0
  146.6750  137.9258  154.8810 H   0  0  0  0  0  0  0  0  0  0  0  0
  148.6830  139.1095  152.9387 H   0  0  0  0  0  0  0  0  0  0  0  0
  147.1746  138.2798  152.5460 H   0  0  0  0  0  0  0  0  0  0  0  0
  147.2322  140.9799  152.5333 H   0  0  0  0  0  0  0  0  0  0  0  0
  145.8717  140.1310  153.2574 H   0  0  0  0  0  0  0  0  0  0  0  0
  148.2112  141.4542  154.6170 H   0  0  0  0  0  0  0  0  0  0  0  0
  145.3261  142.6140  153.5168 H   0  0  0  0  0  0  0  0  0  0  0  0
  146.7031  143.5032  154.1582 H   0  0  0  0  0  0  0  0  0  0  0  0
  145.1282  143.6249  154.9311 H   0  0  0  0  0  0  0  0  0  0  0  0
  144.4728  140.4472  154.8755 H   0  0  0  0  0  0  0  0  0  0  0  0
  144.1349  141.6201  156.1385 H   0  0  0  0  0  0  0  0  0  0  0  0
  145.1047  140.2051  156.4991 H   0  0  0  0  0  0  0  0  0  0  0  0
  147.3686  142.9503  156.2760 H   0  0  0  0  0  0  0  0  0  0  0  0
  150.7206  143.6163  159.7850 H   0  0  0  0  0  0  0  0  0  0  0  0
  152.1491  144.0083  161.8268 H   0  0  0  0  0  0  0  0  0  0  0  0
  154.8065  141.0281  160.7678 H   0  0  0  0  0  0  0  0  0  0  0  0
  153.5080  140.4841  158.6517 H   0  0  0  0  0  0  0  0  0  0  0  0
  154.0392  142.7143  162.1561 H   0  0  0  0  0  0  0  0  0  0  0  0
  1  2  1  0  0  0  0
  1 23  1  0  0  0  0
  1 24  1  0  0  0  0
  1 25  1  0  0  0  0
  2  3  1  0  0  0  0
  2  4  1  0  0  0  0
  2 17  1  0  0  0  0
  3 26  1  0  0  0  0
  3 27  1  0  0  0  0
  3 28  1  0  0  0  0
  4  5  1  0  0  0  0
  4 29  1  0  0  0  0
  4 30  1  0  0  0  0
  5  6  1  0  0  0  0
  5 31  1  0  0  0  0
  6  7  2  0  0  0  0
  6  8  1  0  0  0  0
  8 12  1  0  0  0  0
  8  9  1  0  0  0  0
  9 10  1  0  0  0  0
  9 32  1  0  0  0  0
  9 33  1  0  0  0  0
 10 11  1  0  0  0  0
 10 34  1  0  0  0  0
 10 35  1  0  0  0  0
 11 12  1  0  0  0  0
 11 36  1  0  0  0  0
 11 37  1  0  0  0  0
 12 13  1  0  0  0  0
 12 38  1  0  0  0  0
 13 14  1  0  0  0  0
 13 15  1  0  0  0  0
 13 16  1  0  0  0  0
 14 39  1  0  0  0  0
 14 40  1  0  0  0  0
 14 41  1  0  0  0  0
 15 42  1  0  0  0  0
 15 43  1  0  0  0  0
 15 44  1  0  0  0  0
 16 45  1  0  0  0  0
 17 22  1  0  0  0  0
 17 18  2  0  0  0  0
 18 19  1  0  0  0  0
 18 46  1  0  0  0  0
 19 20  2  0  0  0  0
 19 47  1  0  0  0  0
 20 21  1  0  0  0  0
 20 50  1  0  0  0  0
 21 22  2  0  0  0  0
 21 48  1  0  0  0  0
 22 49  1  0  0  0  0
M  CHG  1  20   1
M  END
> <s_m_source_file>
AV-unprocessed.smi

> <i_m_source_file_index>
2331

> <i_lp_mmshare_version>
43012

> <i_f3d_flags>
0

> <s_epik_input>
W2NIXTFbY0hdbltjSF1bY0hdYzFDKFtDSDNdKShbQ0gzXSlbQ0gyXVtOSF1DKD1PKU4yW0NIMl1bQ0gyXVtDSDJdW0NASF0yQyhbQ0gzXSkoW0NIM10pW09IXQ==

> <s_epik_cmdline>
J2VwaWtfcHl0aG9uJywgJy1waCcsICc3LjAnLCAnLXRuJywgJzgnLCAnLW1hJywgJzIwMCcsICctbWV0YWxfYmluZGluZycsICctaW1hZScsICc8aW5maWxlLm1hZT4nLCAnLW9tYWUnLCAnPG91dGZpbGUubWFlPic=

> <r_epik_Ionization_Penalty>
1.40501

> <r_epik_Ionization_Penalty_Charging>
1.40494

> <r_epik_Ionization_Penalty_Neutral>
7.00889e-05

> <r_epik_State_Penalty>
1.48741

> <r_epik_Charging_Adjusted_Penalty>
2.89235

> <i_epik_Tot_Q>
1

> <i_epik_Tot_abs_Q>
1

> <r_epik_Metal_State_Penalty>
1.54092

> <b_epik_Metal_Only>
0

> <s_lp_Force_Field>
OPLS_2005

> <r_lp_Energy>
55.517

> <b_lp_Chiralities_Consistent>
1

> <s_lp_Variant>
AV-unprocessed.smi:2331-3

> <Gold.Version>
5.8.1

> <Gold.Id.Protein>
6NUR|6NUR_protein|mol2

> <Gold.PLP.Fitness>
36.4196

> <Gold.PLP.PLP>
-34.3612

> <Gold.PLP.part.hbond>
-1.0000

> <Gold.PLP.part.metal>
0.0000

> <Gold.PLP.part.buried>
-1.9750

> <Gold.PLP.part.nonpolar>
-29.5863

> <Gold.PLP.part.repulsive>
0.0555

> <Gold.PLP.ligand.clash>
0.2904

> <Gold.PLP.ligand.torsion>
0.5339

> <Gold.PLP.Chemscore.Hbond>
1.0000

> <Gold.PLP.Chemscore.CHOScore>
0.0000

> <Gold.PLP.Chemscore.Metal>
0.0000

> <Gold.Chemscore.Hbonds>
donor molecule, donor type, donor heavy atom, donor atom, acceptor molecule, acceptor atom, score
      L1  H    16    45       P1  8028  0.08

> <Gold.PLP.Chemscore.Internal.Correction>
0.4166

> <Gold.Rescore>
     Score         DG    S(hbond)    S(metal)    S(lipo)     H(rot)  DE(clash)    DE(int)     intcor
     12.01     -14.17       0.45        0.00     105.47       2.02       0.17       1.99       ----

> <Gold.Chemscore.Fitness>
12.0050

> <Gold.Chemscore.DG>
-14.1687

> <Gold.Chemscore.ZeroCoef>
-5.4800

> <Gold.Chemscore.Hbond>
0.4544

> <Gold.Chemscore.Metal>
0.0000

> <Gold.Chemscore.Lipo>
105.4712

> <Gold.Chemscore.Internal_Hbond>
0.0000

> <Gold.Chemscore.DEClash>
0.1690

> <Gold.Chemscore.DEInternal>
1.9947

> <Gold.Chemscore.Rot>
2.0192

> <Gold.Chemscore.Internal.Correction>
   9.000000E+99

> <Gold.Chemscore.Hbonds>
donor molecule, donor type, donor heavy atom, donor atom, acceptor molecule, acceptor atom, score
      L1  H    16    45       P1  8028  0.01

> <Gold.Chemscore.Hbond.Weighted>
-1.5177

> <Gold.Chemscore.Metal.Weighted>
-0.0000

> <Gold.Chemscore.Lipo.Weighted>
-12.3401

> <Gold.Chemscore.Internal_Hbond.Weighted>
0.0000

> <Gold.Chemscore.DEClash.Weighted>
0.1690

> <Gold.Chemscore.DEInternal.Weighted>
1.9947

> <Gold.Chemscore.Rot.Weighted>
5.1691

> <Gold.Chemscore.Internal.Correction.Weighted>
   9.000000E+99

> <Gold.Protein.RotatedTorsions>
[ 6907 6896 6895 6894 ] final  124.85 input  -60.11 | X-H torsion
[ 7974 7965 7964 7962 ] final -151.58 input  175.53 | X-H torsion
[ 8008 7997 7996 7995 ] final   18.98 input   59.86 | X-H torsion
[ 10167 10162 10161 10158 ] final  -89.70 input  -65.29 | X-H torsion
[ 10718 10713 10712 10709 ] final  143.82 input   66.30 | X-H torsion
[ 10763 10752 10751 10750 ] final -125.69 input  -60.55 | X-H torsion
[ 11005 11000 10999 10996 ] final   86.19 input  -57.11 | X-H torsion

> <Gold.Protein.ActiveResidues>
 VAL166  LYS551  ARG553  GLY616  TRP617  ASP618  TYR619  PRO620  LYS621  CYS622 
 ASP623  PHE694  ASN695  SER759  ASP760  ASP761  ALA762  ILE779  LEU786  VAL792 
 PHE793  MET794  SER795  GLU796  ALA797  LYS798  CYS799  TRP800  GLU811  SER814 

> <Gold.Protein.RotatedAtoms>
  152.4043  133.6864  159.6342 H   0  0  0  0  0  0  0  0  0  0  0  0  # atno 6907 bound_to 6896
  150.7929  133.8737  159.3275 H   0  0  0  0  0  0  0  0  0  0  0  0  # atno 6908 bound_to 6896
  151.6495  135.1005  160.0209 H   0  0  0  0  0  0  0  0  0  0  0  0  # atno 6909 bound_to 6896
  144.7842  140.4778  143.5818 H   0  0  0  0  0  0  0  0  0  0  0  0  # atno 7974 bound_to 7965
  154.9139  140.3018  155.5251 H   0  0  0  0  0  0  0  0  0  0  0  0  # atno 8008 bound_to 7997
  156.3013  140.2384  156.4117 H   0  0  0  0  0  0  0  0  0  0  0  0  # atno 8009 bound_to 7997
  154.8398  140.0414  157.1522 H   0  0  0  0  0  0  0  0  0  0  0  0  # atno 8010 bound_to 7997
  140.3622  143.2836  151.9601 H   0  0  0  0  0  0  0  0  0  0  0  0  # atno 10167 bound_to 10162
  157.3644  131.0970  151.0886 H   0  0  0  0  0  0  0  0  0  0  0  0  # atno 10718 bound_to 10713
  154.8738  135.4021  154.3309 H   0  0  0  0  0  0  0  0  0  0  0  0  # atno 10763 bound_to 10752
  153.4122  135.7021  153.6356 H   0  0  0  0  0  0  0  0  0  0  0  0  # atno 10764 bound_to 10752
  153.5054  135.3718  155.2531 H   0  0  0  0  0  0  0  0  0  0  0  0  # atno 10765 bound_to 10752
  139.8951  134.8338  156.2686 H   0  0  0  0  0  0  0  0  0  0  0  0  # atno 11005 bound_to 11000
  145.5968  139.1500  143.3151 LP  0  0  0  0  0  0  0  0  0  0  0  0  # atno 17320 bound_to 7965
  146.2065  140.6091  142.9079 LP  0  0  0  0  0  0  0  0  0  0  0  0  # atno 17321 bound_to 7965
  139.4813  144.5982  151.7652 LP  0  0  0  0  0  0  0  0  0  0  0  0  # atno 17342 bound_to 10162
  140.5116  144.1016  150.5997 LP  0  0  0  0  0  0  0  0  0  0  0  0  # atno 17343 bound_to 10162
  157.2013  130.6396  149.5740 LP  0  0  0  0  0  0  0  0  0  0  0  0  # atno 17370 bound_to 10713
  155.9743  130.4690  150.6379 LP  0  0  0  0  0  0  0  0  0  0  0  0  # atno 17371 bound_to 10713
  141.0115  133.7093  156.1120 LP  0  0  0  0  0  0  0  0  0  0  0  0  # atno 17394 bound_to 11000
  140.7360  134.4202  157.5560 LP  0  0  0  0  0  0  0  0  0  0  0  0  # atno 17395 bound_to 11000

$$$$
