#       Name:                AV-unprocessed.smi:1410
#       Creating user name   scv26
#       Creation time:       Fri Mar 27 05:36:24 2020


#       File generated by GOLD software.
#

@<TRIPOS>MOLECULE
AV-unprocessed.smi:1410
    45    46     1
SMALL
NO_CHARGES


@<TRIPOS>ATOM
      1 ****        -5.9175   1.9812   0.8402 N.am           1 S1                 0.0000
      2 ****        -5.0024   2.4250  -0.0250 C.2            1 S1                 0.0000
      3 ****        -4.6368   3.5983  -0.0497 O.2            1 S1                 0.0000
      4 ****        -4.4039   1.4027  -0.9991 C.3            1 S1                 0.0000
      5 ****        -2.9367   1.2366  -0.8878 N.3            1 S1                 0.0000
      6 ****        -2.4702   0.3342  -1.9459 C.3            1 S1                 0.0000
      7 ****        -0.9341   0.2441  -1.9436 C.3            1 S1                 0.0000
      8 ****        -0.4119  -0.2470  -0.5865 C.3            1 S1                 0.0000
      9 ****         1.0476  -0.2157  -0.5728 N.am           1 S1                 0.0000
     10 ****         1.8282  -0.9478   0.2351 C.2            1 S1                 0.0000
     11 ****         1.3869  -1.7406   1.0671 O.2            1 S1                 0.0000
     12 ****         3.1291  -0.6811   0.0245 N.am           1 S1                 0.0000
     13 ****         4.2685  -1.2438   0.6620 C.ar           1 S1                 0.0000
     14 ****         5.4844  -0.5343   0.5767 C.ar           1 S1                 0.0000
     15 ****         6.6330  -1.0781   1.1859 C.ar           1 S1                 0.0000
     16 ****         6.6359  -2.2557   1.8449 N.ar           1 S1                 0.0000
     17 ****         5.4748  -2.9407   1.9136 C.ar           1 S1                 0.0000
     18 ****         4.2701  -2.4868   1.3401 C.ar           1 S1                 0.0000
     19 ****        -0.9905   0.6466   0.5227 C.3            1 S1                 0.0000
     20 ****        -2.5242   0.7315   0.4302 C.3            1 S1                 0.0000
     21 ****        -6.3329   2.6221   1.5005 H              1 S1                 0.0000
     22 ****        -6.1884   1.0086   0.8347 H              1 S1                 0.0000
     23 ****        -4.8944   0.4360  -0.8678 H              1 S1                 0.0000
     24 ****        -4.6540   1.7407  -2.0060 H              1 S1                 0.0000
     25 ****        -2.9075  -0.6581  -1.8202 H              1 S1                 0.0000
     26 ****        -2.7982   0.7041  -2.9182 H              1 S1                 0.0000
     27 ****        -0.6034  -0.4279  -2.7363 H              1 S1                 0.0000
     28 ****        -0.5144   1.2249  -2.1739 H              1 S1                 0.0000
     29 ****        -0.7540  -1.2730  -0.4363 H              1 S1                 0.0000
     30 ****         1.4935   0.4152  -1.2228 H              1 S1                 0.0000
     31 ****         3.3271   0.0535  -0.6390 H              1 S1                 0.0000
     32 ****         5.5403   0.4124   0.0593 H              1 S1                 0.0000
     33 ****         7.5757  -0.5531   1.1400 H              1 S1                 0.0000
     34 ****         5.5073  -3.8847   2.4372 H              1 S1                 0.0000
     35 ****         3.3871  -3.1015   1.4217 H              1 S1                 0.0000
     36 ****        -0.7053   0.2621   1.5026 H              1 S1                 0.0000
     37 ****        -0.5686   1.6503   0.4507 H              1 S1                 0.0000
     38 ****        -2.8718   1.3892   1.2267 H              1 S1                 0.0000
     39 ****        -2.9688  -0.2482   0.6136 H              1 S1                 0.0000
     40 ****        -5.0274   4.2573   0.5930 LP             1 S1                 0.0000
     41 ****        -3.9488   3.8937  -0.7125 LP             1 S1                 0.0000
     42 ****        -2.5186   2.1387  -0.9941 LP             1 S1                 0.0000
     43 ****         0.3994  -1.8638   1.1658 LP             1 S1                 0.0000
     44 ****         2.0159  -2.2614   1.6443 LP             1 S1                 0.0000
     45 ****         7.4702  -2.6090   2.2682 LP             1 S1                 0.0000
@<TRIPOS>BOND
    1    1    2 am    
    2    1   21 1     
    3    1   22 1     
    4    2    3 2     
    5    2    4 1     
    6    4    5 1     
    7    4   23 1     
    8    4   24 1     
    9    5   20 1     
   10    5    6 1     
   11    6    7 1     
   12    6   25 1     
   13    6   26 1     
   14    7    8 1     
   15    7   27 1     
   16    7   28 1     
   17    8    9 1     
   18    8   19 1     
   19    8   29 1     
   20    9   10 am    
   21    9   30 1     
   22   10   11 2     
   23   10   12 am    
   24   12   13 1     
   25   12   31 1     
   26   13   18 ar    
   27   13   14 ar    
   28   14   15 ar    
   29   14   32 1     
   30   15   16 ar    
   31   15   33 1     
   32   16   17 ar    
   33   17   18 ar    
   34   17   34 1     
   35   18   35 1     
   36   19   20 1     
   37   19   36 1     
   38   19   37 1     
   39   20   38 1     
   40   20   39 1     
   41    3   40 1     
   42    3   41 1     
   43    5   42 1     
   44   11   43 1     
   45   11   44 1     
   46   16   45 1     
@<TRIPOS>SUBSTRUCTURE
      1 S1             1
@<TRIPOS>SET
LONE_PAIRS      STATIC     ATOMS    <user>   **** ""
6 40 41 42 43 44 45
DONOR_HYDROGENS      STATIC     ATOMS    <user>   **** ""
4 21 22 30 31
ATOM$BLUE        STATIC     ATOMS    COLORGROUP SYSTEM
6 40 41 42 43 44 45
ATOM$RED        STATIC     ATOMS    COLORGROUP SYSTEM
4 21 22 30 31
