AV-unprocessed.smi:1473|AV-procd|sdf|5967|dock5
  -GOLD-   22720 6 53D 1   1.00000     0.00000
 Structure written by MMmdl.
 33 34  0  0  0  0  0  0  0  0  2 V2000
  151.6733  137.0997  156.3107 N   0  0  0  0  0  0  0  0  0  0  0  0
  153.3490  137.4522  156.4452 S   0  0  0  0  0  0  0  0  0  0  0  0
  153.9657  136.2548  157.0382 O   0  0  0  0  0  0  0  0  0  0  0  0
  153.7813  137.8741  155.1030 O   0  0  0  0  0  0  0  0  0  0  0  0
  153.1816  138.6809  157.4884 N   0  5  0  0  0  0  0  0  0  0  0  0
  153.1287  138.4078  158.9159 C   0  0  0  0  0  0  0  0  0  0  0  0
  153.3543  139.6569  159.7599 C   0  0  0  0  0  0  0  0  0  0  0  0
  154.3359  139.6743  160.7739 C   0  0  0  0  0  0  0  0  0  0  0  0
  154.5108  140.8582  161.5118 C   0  0  0  0  0  0  0  0  0  0  0  0
  153.7886  141.9774  161.3007 N   0  0  0  0  0  0  0  0  0  0  0  0
  152.8436  141.9807  160.3291 C   0  0  0  0  0  0  0  0  0  0  0  0
  152.1221  143.1846  160.1535 N   0  0  0  0  0  0  0  0  0  0  0  0
  152.0681  143.7802  158.8207 C   0  0  0  0  0  0  0  0  0  0  0  0
  150.9950  144.8802  158.7603 C   0  0  0  0  0  0  0  0  0  0  0  0
  151.2257  145.8377  159.7873 O   0  0  0  0  0  0  0  0  0  0  0  0
  151.1382  145.2500  161.0804 C   0  0  0  0  0  0  0  0  0  0  0  0
  152.2172  144.1649  161.2354 C   0  0  0  0  0  0  0  0  0  0  0  0
  152.5935  140.8287  159.5398 C   0  0  0  0  0  0  0  0  0  0  0  0
  151.2062  137.0907  157.2166 H   0  0  0  0  0  0  0  0  0  0  0  0
  151.4974  136.2693  155.7466 H   0  0  0  0  0  0  0  0  0  0  0  0
  152.1790  137.9563  159.2059 H   0  0  0  0  0  0  0  0  0  0  0  0
  153.8869  137.6780  159.2016 H   0  0  0  0  0  0  0  0  0  0  0  0
  154.9523  138.8119  160.9876 H   0  0  0  0  0  0  0  0  0  0  0  0
  155.2534  140.9086  162.2943 H   0  0  0  0  0  0  0  0  0  0  0  0
  153.0460  144.1948  158.5721 H   0  0  0  0  0  0  0  0  0  0  0  0
  151.8307  143.0213  158.0748 H   0  0  0  0  0  0  0  0  0  0  0  0
  151.0279  145.3818  157.7929 H   0  0  0  0  0  0  0  0  0  0  0  0
  149.9957  144.4543  158.8636 H   0  0  0  0  0  0  0  0  0  0  0  0
  151.2774  146.0263  161.8327 H   0  0  0  0  0  0  0  0  0  0  0  0
  150.1422  144.8320  161.2364 H   0  0  0  0  0  0  0  0  0  0  0  0
  152.1024  143.6994  162.2141 H   0  0  0  0  0  0  0  0  0  0  0  0
  153.2092  144.6176  161.2119 H   0  0  0  0  0  0  0  0  0  0  0  0
  151.8486  140.8399  158.7568 H   0  0  0  0  0  0  0  0  0  0  0  0
  1  2  1  0  0  0  0
  1 19  1  0  0  0  0
  1 20  1  0  0  0  0
  2  3  2  0  0  0  0
  2  4  2  0  0  0  0
  2  5  1  0  0  0  0
  5  6  1  0  0  0  0
  6  7  1  0  0  0  0
  6 21  1  0  0  0  0
  6 22  1  0  0  0  0
  7 18  1  0  0  0  0
  7  8  2  0  0  0  0
  8  9  1  0  0  0  0
  8 23  1  0  0  0  0
  9 10  2  0  0  0  0
  9 24  1  0  0  0  0
 10 11  1  0  0  0  0
 11 12  1  0  0  0  0
 11 18  2  0  0  0  0
 12 17  1  0  0  0  0
 12 13  1  0  0  0  0
 13 14  1  0  0  0  0
 13 25  1  0  0  0  0
 13 26  1  0  0  0  0
 14 15  1  0  0  0  0
 14 27  1  0  0  0  0
 14 28  1  0  0  0  0
 15 16  1  0  0  0  0
 16 17  1  0  0  0  0
 16 29  1  0  0  0  0
 16 30  1  0  0  0  0
 17 31  1  0  0  0  0
 17 32  1  0  0  0  0
 18 33  1  0  0  0  0
M  CHG  1   5  -1
M  END
> <s_m_source_file>
AV-unprocessed.smi

> <i_m_source_file_index>
1473

> <i_lp_mmshare_version>
43012

> <i_f3d_flags>
0

> <s_epik_input>
W05IMl1TKD1PKSg9TylbTkhdW0NIMl1jMVtjSF1bY0hdbmMoW2NIXTEpTjJbQ0gyXVtDSDJdT1tDSDJdW0NIMl0y

> <s_epik_cmdline>
J2VwaWtfcHl0aG9uJywgJy1waCcsICc3LjAnLCAnLXRuJywgJzgnLCAnLW1hJywgJzIwMCcsICctbWV0YWxfYmluZGluZycsICctaW1hZScsICc8aW5maWxlLm1hZT4nLCAnLW9tYWUnLCAnPG91dGZpbGUubWFlPic=

> <r_lp_tautomer_probability>
1

> <r_epik_Ionization_Penalty>
1.02326

> <r_epik_Ionization_Penalty_Charging>
0.789613

> <r_epik_Ionization_Penalty_Neutral>
0.233646

> <r_epik_State_Penalty>
0.93706

> <r_epik_Charging_Adjusted_Penalty>
1.72667

> <i_epik_Tot_Q>
-1

> <i_epik_Tot_abs_Q>
1

> <r_epik_Metal_State_Penalty>
0.736197

> <b_epik_Metal_Only>
0

> <s_lp_Force_Field>
OPLS_2005

> <r_lp_Energy>
11.8177

> <b_lp_Chiralities_Consistent>
1

> <s_lp_Variant>
AV-unprocessed.smi:1473-2

> <Gold.Version>
5.8.1

> <Gold.Id.Protein>
6NUR|6NUR_protein|mol2

> <Gold.PLP.Fitness>
42.2632

> <Gold.PLP.PLP>
-33.6772

> <Gold.PLP.part.hbond>
-6.3267

> <Gold.PLP.part.metal>
0.0000

> <Gold.PLP.part.buried>
-0.5956

> <Gold.PLP.part.nonpolar>
-27.5193

> <Gold.PLP.part.repulsive>
0.2155

> <Gold.PLP.ligand.clash>
0.0000

> <Gold.PLP.ligand.torsion>
0.8576

> <Gold.PLP.Chemscore.Hbond>
2.9748

> <Gold.PLP.Chemscore.CHOScore>
0.0000

> <Gold.PLP.Chemscore.Metal>
0.0000

> <Gold.Chemscore.Hbonds>
donor molecule, donor type, donor heavy atom, donor atom, acceptor molecule, acceptor atom, score
      P1  H  7997  8008       L1     5  1.98
      P1  H 10752 10764       L1     3  0.73

> <Gold.PLP.Chemscore.Internal.Correction>
1.3768

> <Gold.Rescore>
     Score         DG    S(hbond)    S(metal)    S(lipo)     H(rot)  DE(clash)    DE(int)     intcor
     12.01     -14.63       1.27        0.00      83.12       1.88       1.80       0.83       ----

> <Gold.Chemscore.Fitness>
12.0050

> <Gold.Chemscore.DG>
-14.6331

> <Gold.Chemscore.ZeroCoef>
-5.4800

> <Gold.Chemscore.Hbond>
1.2709

> <Gold.Chemscore.Metal>
0.0000

> <Gold.Chemscore.Lipo>
83.1188

> <Gold.Chemscore.Internal_Hbond>
0.0000

> <Gold.Chemscore.DEClash>
1.7981

> <Gold.Chemscore.DEInternal>
0.8299

> <Gold.Chemscore.Rot>
1.8814

> <Gold.Chemscore.Internal.Correction>
   9.000000E+99

> <Gold.Chemscore.Hbonds>
donor molecule, donor type, donor heavy atom, donor atom, acceptor molecule, acceptor atom, score
      P1  H  7997  8008       L1     5  0.43
      P1  H 10752 10764       L1     3  0.09

> <Gold.Chemscore.Hbond.Weighted>
-4.2446

> <Gold.Chemscore.Metal.Weighted>
-0.0000

> <Gold.Chemscore.Lipo.Weighted>
-9.7249

> <Gold.Chemscore.Internal_Hbond.Weighted>
0.0000

> <Gold.Chemscore.DEClash.Weighted>
1.7981

> <Gold.Chemscore.DEInternal.Weighted>
0.8299

> <Gold.Chemscore.Rot.Weighted>
4.8165

> <Gold.Chemscore.Internal.Correction.Weighted>
   9.000000E+99

> <Gold.Protein.RotatedTorsions>
[ 6907 6896 6895 6894 ] final   29.29 input  -60.11 | X-H torsion
[ 7974 7965 7964 7962 ] final  146.96 input  175.53 | X-H torsion
[ 8008 7997 7996 7995 ] final  -91.69 input   59.86 | X-H torsion
[ 10167 10162 10161 10158 ] final  145.59 input  -65.29 | X-H torsion
[ 10718 10713 10712 10709 ] final  -40.97 input   66.30 | X-H torsion
[ 10763 10752 10751 10750 ] final   36.42 input  -60.55 | X-H torsion
[ 11005 11000 10999 10996 ] final -124.57 input  -57.11 | X-H torsion

> <Gold.Protein.ActiveResidues>
 VAL166  LYS551  ARG553  GLY616  TRP617  ASP618  TYR619  PRO620  LYS621  CYS622 
 ASP623  PHE694  ASN695  SER759  ASP760  ASP761  ALA762  ILE779  LEU786  VAL792 
 PHE793  MET794  SER795  GLU796  ALA797  LYS798  CYS799  TRP800  GLU811  SER814 

> <Gold.Protein.RotatedAtoms>
  152.0293  134.9777  160.0572 H   0  0  0  0  0  0  0  0  0  0  0  0  # atno 6907 bound_to 6896
  152.1260  133.4375  159.4706 H   0  0  0  0  0  0  0  0  0  0  0  0  # atno 6908 bound_to 6896
  150.6852  134.2397  159.4510 H   0  0  0  0  0  0  0  0  0  0  0  0  # atno 6909 bound_to 6896
  144.8630  139.5969  143.5922 H   0  0  0  0  0  0  0  0  0  0  0  0  # atno 7974 bound_to 7965
  154.7138  140.0517  157.0575 H   0  0  0  0  0  0  0  0  0  0  0  0  # atno 8008 bound_to 7997
  155.0518  140.3180  155.4670 H   0  0  0  0  0  0  0  0  0  0  0  0  # atno 8009 bound_to 7997
  156.2797  140.2114  156.5644 H   0  0  0  0  0  0  0  0  0  0  0  0  # atno 8010 bound_to 7997
  139.4923  144.5891  151.6718 H   0  0  0  0  0  0  0  0  0  0  0  0  # atno 10167 bound_to 10162
  156.2754  130.4211  149.8393 H   0  0  0  0  0  0  0  0  0  0  0  0  # atno 10718 bound_to 10713
  153.0078  135.6306  154.1982 H   0  0  0  0  0  0  0  0  0  0  0  0  # atno 10763 bound_to 10752
  154.1725  135.2817  155.3078 H   0  0  0  0  0  0  0  0  0  0  0  0  # atno 10764 bound_to 10752
  154.5897  135.5621  153.7326 H   0  0  0  0  0  0  0  0  0  0  0  0  # atno 10765 bound_to 10752
  140.9831  134.0645  157.3742 H   0  0  0  0  0  0  0  0  0  0  0  0  # atno 11005 bound_to 11000
  146.2874  139.7043  142.9185 LP  0  0  0  0  0  0  0  0  0  0  0  0  # atno 17320 bound_to 7965
  145.4276  141.0412  143.2928 LP  0  0  0  0  0  0  0  0  0  0  0  0  # atno 17321 bound_to 7965
  140.5513  144.0420  150.6128 LP  0  0  0  0  0  0  0  0  0  0  0  0  # atno 17342 bound_to 10162
  140.3475  143.2983  152.0523 LP  0  0  0  0  0  0  0  0  0  0  0  0  # atno 17343 bound_to 10162
  156.5859  130.8485  151.3395 LP  0  0  0  0  0  0  0  0  0  0  0  0  # atno 17370 bound_to 10713
  157.7298  130.9676  150.1802 LP  0  0  0  0  0  0  0  0  0  0  0  0  # atno 17371 bound_to 10713
  139.8959  135.0143  156.7023 LP  0  0  0  0  0  0  0  0  0  0  0  0  # atno 17394 bound_to 11000
  140.7156  133.9185  155.8113 LP  0  0  0  0  0  0  0  0  0  0  0  0  # atno 17395 bound_to 11000

$$$$
