AV-unprocessed.smi:3231|AV-procd|sdf|12333|dock2
  -GOLD-   2272018183D 1   1.00000     0.00000
 Structure written by MMmdl.
 41 42  0  0  0  0  0  0  0  0  2 V2000
  146.7817  138.6419  150.9054 O   0  0  0  0  0  0  0  0  0  0  0  0
  146.7966  137.9050  152.1118 C   0  0  2  0  0  0  0  0  0  0  0  0
  145.3456  137.4942  152.4127 C   0  0  0  0  0  0  0  0  0  0  0  0
  144.8641  136.5097  151.4496 N   0  0  0  0  0  0  0  0  0  0  0  0
  143.7669  135.6885  151.9530 C   0  0  0  0  0  0  0  0  0  0  0  0
  144.2779  134.3663  152.5470 C   0  0  0  0  0  0  0  0  0  0  0  0
  144.6735  133.4195  151.5190 N   0  0  0  0  0  0  0  0  0  0  0  0
  143.8912  132.8403  150.5423 C   0  0  0  0  0  0  0  0  0  0  0  0
  144.7009  132.0275  149.8021 C   0  0  0  0  0  0  0  0  0  0  0  0
  145.9778  132.1761  150.4119 C   0  0  0  0  0  0  0  0  0  0  0  0
  145.9590  133.0120  151.4375 N   0  0  0  0  0  0  0  0  0  0  0  0
  147.3987  138.7928  153.2235 C   0  0  0  0  0  0  0  0  0  0  0  0
  148.5544  138.1600  153.9087 N   0  3  0  0  0  0  0  0  0  0  0  0
  149.5468  139.1563  154.3775 C   0  0  0  0  0  0  0  0  0  0  0  0
  150.7492  138.4546  155.0313 C   0  0  0  0  0  0  0  0  0  0  0  0
  150.2992  137.6334  156.1012 O   0  0  0  0  0  0  0  0  0  0  0  0
  149.4127  136.6157  155.6536 C   0  0  0  0  0  0  0  0  0  0  0  0
  148.1660  137.2570  155.0211 C   0  0  0  0  0  0  0  0  0  0  0  0
  145.9155  138.5997  150.5310 H   0  0  0  0  0  0  0  0  0  0  0  0
  147.3906  137.0053  151.9524 H   0  0  0  0  0  0  0  0  0  0  0  0
  145.2668  137.1027  153.4279 H   0  0  0  0  0  0  0  0  0  0  0  0
  144.7073  138.3781  152.3705 H   0  0  0  0  0  0  0  0  0  0  0  0
  144.5711  136.9765  150.5966 H   0  0  0  0  0  0  0  0  0  0  0  0
  143.2166  136.2389  152.7168 H   0  0  0  0  0  0  0  0  0  0  0  0
  143.0574  135.4756  151.1523 H   0  0  0  0  0  0  0  0  0  0  0  0
  145.1185  134.5444  153.2198 H   0  0  0  0  0  0  0  0  0  0  0  0
  143.4927  133.9042  153.1463 H   0  0  0  0  0  0  0  0  0  0  0  0
  142.8364  133.0550  150.4546 H   0  0  0  0  0  0  0  0  0  0  0  0
  144.4236  131.4194  148.9541 H   0  0  0  0  0  0  0  0  0  0  0  0
  146.9115  131.7061  150.1405 H   0  0  0  0  0  0  0  0  0  0  0  0
  147.7069  139.7411  152.7803 H   0  0  0  0  0  0  0  0  0  0  0  0
  146.6442  139.0427  153.9709 H   0  0  0  0  0  0  0  0  0  0  0  0
  149.8901  139.7611  153.5372 H   0  0  0  0  0  0  0  0  0  0  0  0
  149.0761  139.8345  155.0909 H   0  0  0  0  0  0  0  0  0  0  0  0
  151.2959  137.8554  154.3012 H   0  0  0  0  0  0  0  0  0  0  0  0
  151.4477  139.1937  155.4236 H   0  0  0  0  0  0  0  0  0  0  0  0
  149.9191  135.9614  154.9420 H   0  0  0  0  0  0  0  0  0  0  0  0
  149.1263  135.9982  156.5050 H   0  0  0  0  0  0  0  0  0  0  0  0
  147.6168  137.8215  155.7762 H   0  0  0  0  0  0  0  0  0  0  0  0
  147.5010  136.4716  154.6649 H   0  0  0  0  0  0  0  0  0  0  0  0
  149.0270  137.5962  153.2168 H   0  0  0  0  0  0  0  0  0  0  0  0
  1  2  1  0  0  0  0
  1 19  1  0  0  0  0
  2  3  1  0  0  0  0
  2 12  1  0  0  0  0
  2 20  1  0  0  0  0
  3  4  1  0  0  0  0
  3 21  1  0  0  0  0
  3 22  1  0  0  0  0
  4  5  1  0  0  0  0
  4 23  1  0  0  0  0
  5  6  1  0  0  0  0
  5 24  1  0  0  0  0
  5 25  1  0  0  0  0
  6  7  1  0  0  0  0
  6 26  1  0  0  0  0
  6 27  1  0  0  0  0
  7 11  1  0  0  0  0
  7  8  1  0  0  0  0
  8  9  2  0  0  0  0
  8 28  1  0  0  0  0
  9 10  1  0  0  0  0
  9 29  1  0  0  0  0
 10 11  2  0  0  0  0
 10 30  1  0  0  0  0
 12 13  1  0  0  0  0
 12 31  1  0  0  0  0
 12 32  1  0  0  0  0
 13 18  1  0  0  0  0
 13 14  1  0  0  0  0
 13 41  1  0  0  0  0
 14 15  1  0  0  0  0
 14 33  1  0  0  0  0
 14 34  1  0  0  0  0
 15 16  1  0  0  0  0
 15 35  1  0  0  0  0
 15 36  1  0  0  0  0
 16 17  1  0  0  0  0
 17 18  1  0  0  0  0
 17 37  1  0  0  0  0
 17 38  1  0  0  0  0
 18 39  1  0  0  0  0
 18 40  1  0  0  0  0
M  CHG  1  13   1
M  END
> <s_m_source_file>
AV-unprocessed.smi

> <i_m_source_file_index>
3231

> <i_lp_mmshare_version>
43012

> <i_f3d_flags>
0

> <s_epik_input>
W0NIMl0xW0NIMl1PW0NIMl1bQ0gyXU4xW0NIMl1bQ0BIXShbT0hdKVtDSDJdW05IXVtDSDJdW0NIMl1uMltjSF1bY0hdW2NIXW4y

> <s_epik_cmdline>
J2VwaWtfcHl0aG9uJywgJy1waCcsICc3LjAnLCAnLXRuJywgJzgnLCAnLW1hJywgJzIwMCcsICctbWV0YWxfYmluZGluZycsICctaW1hZScsICc8aW5maWxlLm1hZT4nLCAnLW9tYWUnLCAnPG91dGZpbGUubWFlPic=

> <r_epik_Ionization_Penalty>
0.33973

> <r_epik_Ionization_Penalty_Charging>
0.202493

> <r_epik_Ionization_Penalty_Neutral>
0.137237

> <r_epik_State_Penalty>
0.943915

> <r_epik_Charging_Adjusted_Penalty>
1.14641

> <i_epik_Tot_Q>
1

> <i_epik_Tot_abs_Q>
1

> <r_epik_Metal_State_Penalty>
0.94313

> <b_epik_Metal_Only>
0

> <s_lp_Force_Field>
OPLS_2005

> <r_lp_Energy>
21.8008

> <b_lp_Chiralities_Consistent>
1

> <s_lp_Variant>
AV-unprocessed.smi:3231-3

> <Gold.Version>
5.8.1

> <Gold.Id.Protein>
6NUR|6NUR_protein|mol2

> <Gold.PLP.Fitness>
47.9741

> <Gold.PLP.PLP>
-30.5224

> <Gold.PLP.part.hbond>
-4.4759

> <Gold.PLP.part.metal>
0.0000

> <Gold.PLP.part.buried>
-1.2265

> <Gold.PLP.part.nonpolar>
-25.9520

> <Gold.PLP.part.repulsive>
0.1936

> <Gold.PLP.ligand.clash>
0.0000

> <Gold.PLP.ligand.torsion>
1.5459

> <Gold.PLP.Chemscore.Hbond>
4.8064

> <Gold.PLP.Chemscore.CHOScore>
2.0000

> <Gold.PLP.Chemscore.Metal>
0.0000

> <Gold.Chemscore.Hbonds>
donor molecule, donor type, donor heavy atom, donor atom, acceptor molecule, acceptor atom, score
      L1  H     1    19       P1 10171  0.71
      L1  H     4    23       P1 10171  0.94
      L1  H    13    41       P1  7948  2.00
      P1  H  7954  7966       L1     1  0.94
      L1  C     8    28       P1 10186  1.00
      L1  C    10    30       P1 10747  1.00

> <Gold.PLP.Chemscore.Internal.Correction>
0.1243

> <Gold.Rescore>
     Score         DG    S(hbond)    S(metal)    S(lipo)     H(rot)  DE(clash)    DE(int)     intcor
     15.46     -17.23       2.97        0.00      77.88       2.84       0.36       1.41       ----

> <Gold.Chemscore.Fitness>
15.4585

> <Gold.Chemscore.DG>
-17.2318

> <Gold.Chemscore.ZeroCoef>
-5.4800

> <Gold.Chemscore.Hbond>
2.9668

> <Gold.Chemscore.Metal>
0.0000

> <Gold.Chemscore.Lipo>
77.8816

> <Gold.Chemscore.Internal_Hbond>
0.0000

> <Gold.Chemscore.DEClash>
0.3631

> <Gold.Chemscore.DEInternal>
1.4102

> <Gold.Chemscore.Rot>
2.8397

> <Gold.Chemscore.Internal.Correction>
   9.000000E+99

> <Gold.Chemscore.Hbonds>
donor molecule, donor type, donor heavy atom, donor atom, acceptor molecule, acceptor atom, score
      L1  H     1    19       P1 10171  0.71
      L1  H     4    23       P1 10171  0.91
      L1  H    13    41       P1  7948  0.95
      P1  H  7954  7966       L1     1  0.38

> <Gold.Chemscore.Hbond.Weighted>
-9.9092

> <Gold.Chemscore.Metal.Weighted>
-0.0000

> <Gold.Chemscore.Lipo.Weighted>
-9.1122

> <Gold.Chemscore.Internal_Hbond.Weighted>
0.0000

> <Gold.Chemscore.DEClash.Weighted>
0.3631

> <Gold.Chemscore.DEInternal.Weighted>
1.4102

> <Gold.Chemscore.Rot.Weighted>
7.2696

> <Gold.Chemscore.Internal.Correction.Weighted>
   9.000000E+99

> <Gold.Protein.RotatedTorsions>
[ 6907 6896 6895 6894 ] final -156.01 input  -60.11 | X-H torsion
[ 7974 7965 7964 7962 ] final  -43.89 input  175.53 | X-H torsion
[ 8008 7997 7996 7995 ] final  166.09 input   59.86 | X-H torsion
[ 10167 10162 10161 10158 ] final  161.69 input  -65.29 | X-H torsion
[ 10718 10713 10712 10709 ] final  -67.35 input   66.30 | X-H torsion
[ 10763 10752 10751 10750 ] final  -93.24 input  -60.55 | X-H torsion
[ 11005 11000 10999 10996 ] final  -65.60 input  -57.11 | X-H torsion

> <Gold.Protein.ActiveResidues>
 VAL166  LYS551  ARG553  GLY616  TRP617  ASP618  TYR619  PRO620  LYS621  CYS622 
 ASP623  PHE694  ASN695  SER759  ASP760  ASP761  ALA762  ILE779  LEU786  VAL792 
 PHE793  MET794  SER795  GLU796  ALA797  LYS798  CYS799  TRP800  GLU811  SER814 

> <Gold.Protein.RotatedAtoms>
  151.2812  133.4209  159.2626 H   0  0  0  0  0  0  0  0  0  0  0  0  # atno 6907 bound_to 6896
  151.0359  134.9573  159.8146 H   0  0  0  0  0  0  0  0  0  0  0  0  # atno 6908 bound_to 6896
  152.5355  134.2772  159.9046 H   0  0  0  0  0  0  0  0  0  0  0  0  # atno 6909 bound_to 6896
  145.9975  140.7112  142.9287 H   0  0  0  0  0  0  0  0  0  0  0  0  # atno 7974 bound_to 7965
  156.1747  140.1652  156.8384 H   0  0  0  0  0  0  0  0  0  0  0  0  # atno 8008 bound_to 7997
  154.5294  140.0760  156.8351 H   0  0  0  0  0  0  0  0  0  0  0  0  # atno 8009 bound_to 7997
  155.3439  140.3386  155.4241 H   0  0  0  0  0  0  0  0  0  0  0  0  # atno 8010 bound_to 7997
  139.4852  144.4511  151.8828 H   0  0  0  0  0  0  0  0  0  0  0  0  # atno 10167 bound_to 10162
  156.0562  130.4276  150.1842 H   0  0  0  0  0  0  0  0  0  0  0  0  # atno 10718 bound_to 10713
  154.6940  135.5201  153.8432 H   0  0  0  0  0  0  0  0  0  0  0  0  # atno 10763 bound_to 10752
  153.0653  135.6583  154.0377 H   0  0  0  0  0  0  0  0  0  0  0  0  # atno 10764 bound_to 10752
  154.0247  135.2990  155.3356 H   0  0  0  0  0  0  0  0  0  0  0  0  # atno 10765 bound_to 10752
  141.1459  133.6684  156.6010 H   0  0  0  0  0  0  0  0  0  0  0  0  # atno 11005 bound_to 11000
  144.6908  140.3175  143.7238 LP  0  0  0  0  0  0  0  0  0  0  0  0  # atno 17320 bound_to 7965
  145.7538  139.1802  143.2306 LP  0  0  0  0  0  0  0  0  0  0  0  0  # atno 17321 bound_to 7965
  140.3968  144.2545  150.5895 LP  0  0  0  0  0  0  0  0  0  0  0  0  # atno 17342 bound_to 10162
  140.5095  143.2295  151.8557 LP  0  0  0  0  0  0  0  0  0  0  0  0  # atno 17343 bound_to 10162
  156.9918  130.9895  151.3413 LP  0  0  0  0  0  0  0  0  0  0  0  0  # atno 17370 bound_to 10713
  157.5534  130.8197  149.8173 LP  0  0  0  0  0  0  0  0  0  0  0  0  # atno 17371 bound_to 10713
  140.3688  134.7623  157.4584 LP  0  0  0  0  0  0  0  0  0  0  0  0  # atno 17394 bound_to 11000
  140.0727  134.5841  155.8625 LP  0  0  0  0  0  0  0  0  0  0  0  0  # atno 17395 bound_to 11000

$$$$
