#       Name:                AV-unprocessed.smi:198
#       Creating user name   scv26
#       Creation time:       Thu Mar 26 19:42:03 2020


#       File generated by GOLD software.
#

@<TRIPOS>MOLECULE
AV-unprocessed.smi:198
    67    71     1
SMALL
NO_CHARGES


@<TRIPOS>ATOM
      1 ****        -5.8972   1.6757  -3.2647 C.3            1 S1                 0.0000
      2 ****        -4.9311   0.9570  -2.4066 N.4            1 S1                 1.0000
      3 ****        -3.5857   1.5808  -2.4240 C.3            1 S1                 0.0000
      4 ****        -2.5778   0.7491  -1.6141 C.3            1 S1                 0.0000
      5 ****        -3.0590   0.5539  -0.1565 C.3            1 S1                 0.0000
      6 ****        -4.4620  -0.0995  -0.2007 C.3            1 S1                 0.0000
      7 ****        -4.9887  -0.3629   1.2193 C.3            1 S1                 0.0000
      8 ****        -3.9864  -1.2273   1.9937 C.3            1 S1                 0.0000
      9 ****        -2.6006  -0.5668   2.0075 C.3            1 S1                 0.0000
     10 ****        -2.1385  -0.2602   0.6534 N.3            1 S1                 0.0000
     11 ****        -0.8393   0.1219   0.6847 C.ar           1 S1                 0.0000
     12 ****        -0.5132   1.4364   0.8043 N.ar           1 S1                 0.0000
     13 ****         0.7710   1.8041   0.8440 C.ar           1 S1                 0.0000
     14 ****         1.8609   1.0358   0.7870 N.ar           1 S1                 0.0000
     15 ****         1.5367  -0.2857   0.6821 C.ar           1 S1                 0.0000
     16 ****         0.2198  -0.8220   0.6287 C.ar           1 S1                 0.0000
     17 ****         0.2691  -2.2052   0.5229 N.2            1 S1                 0.0000
     18 ****         1.5462  -2.4742   0.5115 C.2            1 S1                 0.0000
     19 ****         2.3814  -1.3819   0.6022 N.pl3          1 S1                 0.0000
     20 ****         3.8176  -1.4073   0.6010 C.3            1 S1                 0.0000
     21 ****         4.6363  -0.6923   1.6782 C.3            1 S1                 0.0000
     22 ****         5.7454  -0.4143   0.6365 C.3            1 S1                 0.0000
     23 ****         6.3635   0.9919   0.7271 C.3            1 S1                 0.0000
     24 ****         6.9691   1.3845  -0.4875 O.3            1 S1                 0.0000
     25 ****         6.8725  -1.4690   0.6347 C.3            1 S1                 0.0000
     26 ****         7.5535  -1.5258  -0.6019 O.3            1 S1                 0.0000
     27 ****         4.6254  -0.5990  -0.4144 C.3            1 S1                 0.0000
     28 ****        -5.4361   0.7622  -1.0255 C.3            1 S1                 0.0000
     29 ****        -6.0665   2.6896  -2.9000 H              1 S1                 0.0000
     30 ****        -6.8553   1.1552  -3.2862 H              1 S1                 0.0000
     31 ****        -5.5303   1.7368  -4.2897 H              1 S1                 0.0000
     32 ****        -3.2387   1.6697  -3.4542 H              1 S1                 0.0000
     33 ****        -3.6459   2.5931  -2.0208 H              1 S1                 0.0000
     34 ****        -2.4357  -0.2218  -2.0911 H              1 S1                 0.0000
     35 ****        -1.6110   1.2506  -1.6490 H              1 S1                 0.0000
     36 ****        -3.1486   1.5324   0.3189 H              1 S1                 0.0000
     37 ****        -4.3723  -1.0667  -0.6990 H              1 S1                 0.0000
     38 ****        -5.1451   0.5812   1.7428 H              1 S1                 0.0000
     39 ****        -5.9562  -0.8643   1.1786 H              1 S1                 0.0000
     40 ****        -4.3356  -1.3847   3.0144 H              1 S1                 0.0000
     41 ****        -3.9170  -2.2137   1.5331 H              1 S1                 0.0000
     42 ****        -2.6374   0.3549   2.5905 H              1 S1                 0.0000
     43 ****        -1.8917  -1.2287   2.5075 H              1 S1                 0.0000
     44 ****         0.9519   2.8652   0.9339 H              1 S1                 0.0000
     45 ****         1.9153  -3.4867   0.4336 H              1 S1                 0.0000
     46 ****         4.1082  -2.4582   0.5507 H              1 S1                 0.0000
     47 ****         4.1559   0.2154   2.0460 H              1 S1                 0.0000
     48 ****         4.9371  -1.3307   2.5095 H              1 S1                 0.0000
     49 ****         5.6001   1.7345   0.9615 H              1 S1                 0.0000
     50 ****         7.1022   1.0496   1.5270 H              1 S1                 0.0000
     51 ****         7.3156   2.2574  -0.3836 H              1 S1                 0.0000
     52 ****         7.5982  -1.2698   1.4239 H              1 S1                 0.0000
     53 ****         6.4780  -2.4656   0.8342 H              1 S1                 0.0000
     54 ****         8.2326  -2.1800  -0.5423 H              1 S1                 0.0000
     55 ****         4.9144  -1.1574  -1.3050 H              1 S1                 0.0000
     56 ****         4.1454   0.3418  -0.6881 H              1 S1                 0.0000
     57 ****        -5.5855   1.7321  -0.5478 H              1 S1                 0.0000
     58 ****        -6.4110   0.2744  -1.0664 H              1 S1                 0.0000
     59 ****        -4.8245   0.0349  -2.8052 H              1 S1                 0.0000
     60 ****        -2.1626  -1.1036   0.1166 LP             1 S1                 0.0000
     61 ****        -1.2336   2.1274   0.8625 LP             1 S1                 0.0000
     62 ****         2.7976   1.3847   0.8173 LP             1 S1                 0.0000
     63 ****        -0.4961  -2.8466   0.4681 LP             1 S1                 0.0000
     64 ****         6.2891   1.3771  -1.2207 LP             1 S1                 0.0000
     65 ****         7.7104   0.7526  -0.7140 LP             1 S1                 0.0000
     66 ****         7.9607  -0.6350  -0.8035 LP             1 S1                 0.0000
     67 ****         6.9121  -1.7713  -1.3288 LP             1 S1                 0.0000
@<TRIPOS>BOND
    1    1    2 1     
    2    1   29 1     
    3    1   30 1     
    4    1   31 1     
    5    2   28 1     
    6    2    3 1     
    7    2   59 1     
    8    3    4 1     
    9    3   32 1     
   10    3   33 1     
   11    4    5 1     
   12    4   34 1     
   13    4   35 1     
   14    5   10 1     
   15    5    6 1     
   16    5   36 1     
   17    6    7 1     
   18    6   28 1     
   19    6   37 1     
   20    7    8 1     
   21    7   38 1     
   22    7   39 1     
   23    8    9 1     
   24    8   40 1     
   25    8   41 1     
   26    9   10 1     
   27    9   42 1     
   28    9   43 1     
   29   10   11 1     
   30   11   16 ar    
   31   11   12 ar    
   32   12   13 ar    
   33   13   14 ar    
   34   13   44 1     
   35   14   15 ar    
   36   15   19 1     
   37   15   16 ar    
   38   16   17 1     
   39   17   18 2     
   40   18   19 1     
   41   18   45 1     
   42   19   20 1     
   43   20   27 1     
   44   20   21 1     
   45   20   46 1     
   46   21   22 1     
   47   21   47 1     
   48   21   48 1     
   49   22   23 1     
   50   22   25 1     
   51   22   27 1     
   52   23   24 1     
   53   23   49 1     
   54   23   50 1     
   55   24   51 1     
   56   25   26 1     
   57   25   52 1     
   58   25   53 1     
   59   26   54 1     
   60   27   55 1     
   61   27   56 1     
   62   28   57 1     
   63   28   58 1     
   64   10   60 1     
   65   12   61 1     
   66   14   62 1     
   67   17   63 1     
   68   24   64 1     
   69   24   65 1     
   70   26   66 1     
   71   26   67 1     
@<TRIPOS>SUBSTRUCTURE
      1 S1             1
@<TRIPOS>SET
LONE_PAIRS      STATIC     ATOMS    <user>   **** ""
8 60 61 62 63 64 65 66 67
DONOR_HYDROGENS      STATIC     ATOMS    <user>   **** ""
3 59 51 54
ATOM$BLUE        STATIC     ATOMS    COLORGROUP SYSTEM
8 60 61 62 63 64 65 66 67
ATOM$RED        STATIC     ATOMS    COLORGROUP SYSTEM
3 59 51 54
