AV-unprocessed.smi:1244|AV-procd|sdf|5223|dock6
  -GOLD-   22720 4323D 1   1.00000     0.00000
 Structure written by MMmdl.
 54 56  0  0  0  0  0  0  0  0  1 V2000
  142.9312  134.9503  163.3617 C   0  0  0  0  0  0  0  0  0  0  0  0
  144.1799  134.6326  162.5325 C   0  0  1  0  0  0  0  0  0  0  0  0
  144.9140  135.9072  162.0800 C   0  0  0  0  0  0  0  0  0  0  0  0
  146.1416  135.6011  161.3570 N   0  0  0  0  0  0  0  0  0  0  0  0
  146.7956  136.8236  160.8956 C   0  0  0  0  0  0  0  0  0  0  0  0
  148.2751  136.6564  160.5007 C   0  0  0  0  0  0  0  0  0  0  0  0
  148.5842  137.3849  159.2762 N   0  0  0  0  0  0  0  0  0  0  0  0
  149.7760  137.3873  158.6627 C   0  0  0  0  0  0  0  0  0  0  0  0
  150.7564  136.7700  159.0788 O   0  0  0  0  0  0  0  0  0  0  0  0
  149.7536  138.1572  157.5617 N   0  0  0  0  0  0  0  0  0  0  0  0
  150.8099  138.4176  156.6425 C   0  0  0  0  0  0  0  0  0  0  0  0
  152.0919  137.8352  156.7991 C   0  0  0  0  0  0  0  0  0  0  0  0
  153.1065  138.1388  155.8752 C   0  0  0  0  0  0  0  0  0  0  0  0
  152.8030  139.0148  154.8203 C   0  0  0  0  0  0  0  0  0  0  0  0
  151.5833  139.5609  154.6448 N   0  0  0  0  0  0  0  0  0  0  0  0
  150.5893  139.2655  155.5185 C   0  0  0  0  0  0  0  0  0  0  0  0
  149.3277  139.8536  155.2681 N   0  0  0  0  0  0  0  0  0  0  0  0
  149.1511  141.2987  155.3674 C   0  0  0  0  0  0  0  0  0  0  0  0
  147.8187  141.5818  154.6798 C   0  0  0  0  0  0  0  0  0  0  0  0
  147.8118  140.5570  153.5495 C   0  0  0  0  0  0  0  0  0  0  0  0
  148.5345  139.3475  154.1520 C   0  0  0  0  0  0  0  0  0  0  0  0
  147.0055  134.7895  162.2117 C   0  0  0  0  0  0  0  0  0  0  0  0
  146.3069  133.5140  162.7251 C   0  0  2  0  0  0  0  0  0  0  0  0
  146.1491  132.4310  161.6442 C   0  0  0  0  0  0  0  0  0  0  0  0
  145.0563  133.8420  163.3334 O   0  0  0  0  0  0  0  0  0  0  0  0
  142.2206  135.5455  162.7876 H   0  0  0  0  0  0  0  0  0  0  0  0
  143.1867  135.5098  164.2621 H   0  0  0  0  0  0  0  0  0  0  0  0
  142.4252  134.0354  163.6703 H   0  0  0  0  0  0  0  0  0  0  0  0
  143.8727  134.0592  161.6573 H   0  0  0  0  0  0  0  0  0  0  0  0
  144.2499  136.4949  161.4449 H   0  0  0  0  0  0  0  0  0  0  0  0
  145.1422  136.5266  162.9490 H   0  0  0  0  0  0  0  0  0  0  0  0
  146.2570  137.1956  160.0231 H   0  0  0  0  0  0  0  0  0  0  0  0
  146.7041  137.6008  161.6559 H   0  0  0  0  0  0  0  0  0  0  0  0
  148.9305  137.0422  161.2806 H   0  0  0  0  0  0  0  0  0  0  0  0
  148.5213  135.6002  160.3789 H   0  0  0  0  0  0  0  0  0  0  0  0
  147.8362  137.9254  158.8671 H   0  0  0  0  0  0  0  0  0  0  0  0
  148.9089  138.6878  157.4084 H   0  0  0  0  0  0  0  0  0  0  0  0
  152.3124  137.1550  157.6075 H   0  0  0  0  0  0  0  0  0  0  0  0
  154.0931  137.7115  155.9751 H   0  0  0  0  0  0  0  0  0  0  0  0
  153.5563  139.2777  154.0925 H   0  0  0  0  0  0  0  0  0  0  0  0
  149.1500  141.6289  156.4067 H   0  0  0  0  0  0  0  0  0  0  0  0
  149.9493  141.8236  154.8406 H   0  0  0  0  0  0  0  0  0  0  0  0
  146.9940  141.3855  155.3664 H   0  0  0  0  0  0  0  0  0  0  0  0
  147.7321  142.6099  154.3274 H   0  0  0  0  0  0  0  0  0  0  0  0
  146.8082  140.3177  153.1967 H   0  0  0  0  0  0  0  0  0  0  0  0
  148.3826  140.9421  152.7034 H   0  0  0  0  0  0  0  0  0  0  0  0
  149.1481  138.8381  153.4077 H   0  0  0  0  0  0  0  0  0  0  0  0
  147.8042  138.6352  154.5361 H   0  0  0  0  0  0  0  0  0  0  0  0
  147.9125  134.5039  161.6801 H   0  0  0  0  0  0  0  0  0  0  0  0
  147.3257  135.3841  163.0690 H   0  0  0  0  0  0  0  0  0  0  0  0
  146.9272  133.0868  163.5135 H   0  0  0  0  0  0  0  0  0  0  0  0
  147.1226  132.1091  161.2740 H   0  0  0  0  0  0  0  0  0  0  0  0
  145.5776  132.7874  160.7876 H   0  0  0  0  0  0  0  0  0  0  0  0
  145.6409  131.5535  162.0440 H   0  0  0  0  0  0  0  0  0  0  0  0
  1  2  1  0  0  0  0
  1 26  1  0  0  0  0
  1 27  1  0  0  0  0
  1 28  1  0  0  0  0
  2 25  1  0  0  0  0
  2  3  1  0  0  0  0
  2 29  1  0  0  0  0
  3  4  1  0  0  0  0
  3 30  1  0  0  0  0
  3 31  1  0  0  0  0
  4  5  1  0  0  0  0
  4 22  1  0  0  0  0
  5  6  1  0  0  0  0
  5 32  1  0  0  0  0
  5 33  1  0  0  0  0
  6  7  1  0  0  0  0
  6 34  1  0  0  0  0
  6 35  1  0  0  0  0
  7  8  1  0  0  0  0
  7 36  1  0  0  0  0
  8  9  2  0  0  0  0
  8 10  1  0  0  0  0
 10 11  1  0  0  0  0
 10 37  1  0  0  0  0
 11 16  1  0  0  0  0
 11 12  2  0  0  0  0
 12 13  1  0  0  0  0
 12 38  1  0  0  0  0
 13 14  2  0  0  0  0
 13 39  1  0  0  0  0
 14 15  1  0  0  0  0
 14 40  1  0  0  0  0
 15 16  2  0  0  0  0
 16 17  1  0  0  0  0
 17 21  1  0  0  0  0
 17 18  1  0  0  0  0
 18 19  1  0  0  0  0
 18 41  1  0  0  0  0
 18 42  1  0  0  0  0
 19 20  1  0  0  0  0
 19 43  1  0  0  0  0
 19 44  1  0  0  0  0
 20 21  1  0  0  0  0
 20 45  1  0  0  0  0
 20 46  1  0  0  0  0
 21 47  1  0  0  0  0
 21 48  1  0  0  0  0
 22 23  1  0  0  0  0
 22 49  1  0  0  0  0
 22 50  1  0  0  0  0
 23 24  1  0  0  0  0
 23 25  1  0  0  0  0
 23 51  1  0  0  0  0
 24 52  1  0  0  0  0
 24 53  1  0  0  0  0
 24 54  1  0  0  0  0
M  END
> <s_m_source_file>
AV-unprocessed.smi

> <i_m_source_file_index>
1244

> <i_lp_mmshare_version>
43012

> <i_f3d_flags>
0

> <s_epik_input>
W0NIM11bQ0BASF0xW0NIMl1OKFtDSDJdW0NASF0oTzEpW0NIM10pW0NIMl1bQ0gyXVtOSF1DKD1PKVtOSF1jMltjSF1bY0hdW2NIXW5jMk4zW0NIMl1bQ0gyXVtDSDJdW0NIMl0z

> <s_epik_cmdline>
J2VwaWtfcHl0aG9uJywgJy1waCcsICc3LjAnLCAnLXRuJywgJzgnLCAnLW1hJywgJzIwMCcsICctbWV0YWxfYmluZGluZycsICctaW1hZScsICc8aW5maWxlLm1hZT4nLCAnLW9tYWUnLCAnPG91dGZpbGUubWFlPic=

> <r_lp_tautomer_probability>
1

> <r_epik_Ionization_Penalty>
0.363951

> <r_epik_Ionization_Penalty_Charging>
0

> <r_epik_Ionization_Penalty_Neutral>
0.363951

> <r_epik_State_Penalty>
0.349372

> <r_epik_Charging_Adjusted_Penalty>
0.349372

> <i_epik_Tot_Q>
0

> <i_epik_Tot_abs_Q>
0

> <r_epik_Metal_State_Penalty>
0.333054

> <b_epik_Metal_Only>
0

> <s_lp_Force_Field>
OPLS_2005

> <r_lp_Energy>
51.4551

> <b_lp_Chiralities_Consistent>
1

> <s_lp_Variant>
AV-unprocessed.smi:1244-3

> <Gold.Version>
5.8.1

> <Gold.Id.Protein>
6NUR|6NUR_protein|mol2

> <Gold.PLP.Fitness>
44.3920

> <Gold.PLP.PLP>
-39.2896

> <Gold.PLP.part.hbond>
-3.0000

> <Gold.PLP.part.metal>
0.0000

> <Gold.PLP.part.buried>
-3.9792

> <Gold.PLP.part.nonpolar>
-33.0306

> <Gold.PLP.part.repulsive>
0.4428

> <Gold.PLP.ligand.clash>
0.0000

> <Gold.PLP.ligand.torsion>
0.6457

> <Gold.PLP.Chemscore.Hbond>
2.0000

> <Gold.PLP.Chemscore.CHOScore>
0.0000

> <Gold.PLP.Chemscore.Metal>
0.0000

> <Gold.Chemscore.Hbonds>
donor molecule, donor type, donor heavy atom, donor atom, acceptor molecule, acceptor atom, score
      P1  H  6896  6907       L1     9  1.00
      P1  H  7989  7998       L1    15  1.00

> <Gold.PLP.Chemscore.Internal.Correction>
0.3939

> <Gold.Rescore>
     Score         DG    S(hbond)    S(metal)    S(lipo)     H(rot)  DE(clash)    DE(int)     intcor
     17.43     -19.51       1.89        0.00      99.84       1.55       0.19       1.89       ----

> <Gold.Chemscore.Fitness>
17.4321

> <Gold.Chemscore.DG>
-19.5111

> <Gold.Chemscore.ZeroCoef>
-5.4800

> <Gold.Chemscore.Hbond>
1.8899

> <Gold.Chemscore.Metal>
0.0000

> <Gold.Chemscore.Lipo>
99.8433

> <Gold.Chemscore.Internal_Hbond>
0.0000

> <Gold.Chemscore.DEClash>
0.1884

> <Gold.Chemscore.DEInternal>
1.8906

> <Gold.Chemscore.Rot>
1.5479

> <Gold.Chemscore.Internal.Correction>
   9.000000E+99

> <Gold.Chemscore.Hbonds>
donor molecule, donor type, donor heavy atom, donor atom, acceptor molecule, acceptor atom, score
      P1  H  6896  6907       L1     9  0.96
      P1  H  7989  7998       L1    15  0.74

> <Gold.Chemscore.Hbond.Weighted>
-6.3121

> <Gold.Chemscore.Metal.Weighted>
-0.0000

> <Gold.Chemscore.Lipo.Weighted>
-11.6817

> <Gold.Chemscore.Internal_Hbond.Weighted>
0.0000

> <Gold.Chemscore.DEClash.Weighted>
0.1884

> <Gold.Chemscore.DEInternal.Weighted>
1.8906

> <Gold.Chemscore.Rot.Weighted>
3.9627

> <Gold.Chemscore.Internal.Correction.Weighted>
   9.000000E+99

> <Gold.Protein.RotatedTorsions>
[ 6907 6896 6895 6894 ] final  -39.82 input  -60.11 | X-H torsion
[ 7974 7965 7964 7962 ] final  164.25 input  175.53 | X-H torsion
[ 8008 7997 7996 7995 ] final -171.05 input   59.86 | X-H torsion
[ 10167 10162 10161 10158 ] final -176.64 input  -65.29 | X-H torsion
[ 10718 10713 10712 10709 ] final  101.06 input   66.30 | X-H torsion
[ 10763 10752 10751 10750 ] final  -76.72 input  -60.55 | X-H torsion
[ 11005 11000 10999 10996 ] final -159.31 input  -57.11 | X-H torsion

> <Gold.Protein.ActiveResidues>
 VAL166  LYS551  ARG553  GLY616  TRP617  ASP618  TYR619  PRO620  LYS621  CYS622 
 ASP623  PHE694  ASN695  SER759  ASP760  ASP761  ALA762  ILE779  LEU786  VAL792 
 PHE793  MET794  SER795  GLU796  ALA797  LYS798  CYS799  TRP800  GLU811  SER814 

> <Gold.Protein.RotatedAtoms>
  150.9858  134.9203  159.7870 H   0  0  0  0  0  0  0  0  0  0  0  0  # atno 6907 bound_to 6896
  152.5236  134.3349  159.9206 H   0  0  0  0  0  0  0  0  0  0  0  0  # atno 6908 bound_to 6896
  151.3355  133.3942  159.2701 H   0  0  0  0  0  0  0  0  0  0  0  0  # atno 6909 bound_to 6896
  144.7553  139.8298  143.6352 H   0  0  0  0  0  0  0  0  0  0  0  0  # atno 7974 bound_to 7965
  155.9265  140.1083  157.1166 H   0  0  0  0  0  0  0  0  0  0  0  0  # atno 8008 bound_to 7997
  154.4063  140.1246  156.4812 H   0  0  0  0  0  0  0  0  0  0  0  0  # atno 8009 bound_to 7997
  155.7133  140.3470  155.4985 H   0  0  0  0  0  0  0  0  0  0  0  0  # atno 8010 bound_to 7997
  139.5520  144.2086  152.1093 H   0  0  0  0  0  0  0  0  0  0  0  0  # atno 10167 bound_to 10162
  157.6839  131.0716  150.5195 H   0  0  0  0  0  0  0  0  0  0  0  0  # atno 10718 bound_to 10713
  154.5036  135.5788  153.6550 H   0  0  0  0  0  0  0  0  0  0  0  0  # atno 10763 bound_to 10752
  152.9883  135.6141  154.2971 H   0  0  0  0  0  0  0  0  0  0  0  0  # atno 10764 bound_to 10752
  154.2880  135.2849  155.2647 H   0  0  0  0  0  0  0  0  0  0  0  0  # atno 10765 bound_to 10752
  140.6440  134.4521  157.5234 H   0  0  0  0  0  0  0  0  0  0  0  0  # atno 11005 bound_to 11000
  146.1556  139.4653  143.0021 LP  0  0  0  0  0  0  0  0  0  0  0  0  # atno 17320 bound_to 7965
  145.6799  141.0194  143.1612 LP  0  0  0  0  0  0  0  0  0  0  0  0  # atno 17321 bound_to 7965
  140.1583  144.5050  150.6647 LP  0  0  0  0  0  0  0  0  0  0  0  0  # atno 17342 bound_to 10162
  140.6784  143.2315  151.5447 LP  0  0  0  0  0  0  0  0  0  0  0  0  # atno 17343 bound_to 10162
  156.5509  130.4231  149.6108 LP  0  0  0  0  0  0  0  0  0  0  0  0  # atno 17370 bound_to 10713
  156.2903  130.7120  151.1968 LP  0  0  0  0  0  0  0  0  0  0  0  0  # atno 17371 bound_to 10713
  139.9070  134.8428  156.1670 LP  0  0  0  0  0  0  0  0  0  0  0  0  # atno 17394 bound_to 11000
  141.0586  133.6853  156.1908 LP  0  0  0  0  0  0  0  0  0  0  0  0  # atno 17395 bound_to 11000

$$$$
