AV-unprocessed.smi:1610|AV-procd|sdf|6471|dock5
  -GOLD-   22720 7123D 1   1.00000     0.00000
 Structure written by MMmdl.
 45 46  0  0  0  0  0  0  0  0  2 V2000
  145.3188  135.4542  150.8260 C   0  0  0  0  0  0  0  0  0  0  0  0
  145.3339  135.3152  152.6599 S   0  0  0  0  0  0  0  0  0  0  0  0
  144.1146  135.9427  153.1920 O   0  0  0  0  0  0  0  0  0  0  0  0
  145.6718  133.9288  153.0147 O   0  0  0  0  0  0  0  0  0  0  0  0
  146.6769  136.2999  153.1127 N   0  0  0  0  0  0  0  0  0  0  0  0
  146.4847  137.6392  153.6727 C   0  0  0  0  0  0  0  0  0  0  0  0
  146.8938  138.7113  152.6407 C   0  0  0  0  0  0  0  0  0  0  0  0
  146.8792  140.1140  153.2731 C   0  0  0  0  0  0  0  0  0  0  0  0
  147.7690  140.1124  154.4470 N   0  0  0  0  0  0  0  0  0  0  0  0
  148.9908  140.6977  154.5325 C   0  0  0  0  0  0  0  0  0  0  0  0
  149.4843  141.3695  153.6256 O   0  0  0  0  0  0  0  0  0  0  0  0
  149.6339  140.4919  155.6935 N   0  0  0  0  0  0  0  0  0  0  0  0
  150.9523  141.0191  156.0154 C   0  0  0  0  0  0  0  0  0  0  0  0
  151.1701  141.0365  157.5341 C   0  0  0  0  0  0  0  0  0  0  0  0
  151.2894  142.4475  158.0762 C   0  0  0  0  0  0  0  0  0  0  0  0
  152.4232  142.8375  158.8230 C   0  0  0  0  0  0  0  0  0  0  0  0
  152.5041  144.1552  159.3195 C   0  0  0  0  0  0  0  0  0  0  0  0
  151.4489  145.0534  159.0586 C   0  0  0  0  0  0  0  0  0  0  0  0
  150.3797  144.6441  158.3410 N   0  3  0  0  0  0  0  0  0  0  0  0
  150.2643  143.3911  157.8485 C   0  0  0  0  0  0  0  0  0  0  0  0
  147.2534  139.2287  155.5007 C   0  0  0  0  0  0  0  0  0  0  0  0
  147.2801  137.7770  154.9875 C   0  0  0  0  0  0  0  0  0  0  0  0
  144.5313  134.8179  150.4234 H   0  0  0  0  0  0  0  0  0  0  0  0
  146.2810  135.1352  150.4265 H   0  0  0  0  0  0  0  0  0  0  0  0
  145.1266  136.4872  150.5374 H   0  0  0  0  0  0  0  0  0  0  0  0
  147.5081  136.1778  152.5346 H   0  0  0  0  0  0  0  0  0  0  0  0
  145.4279  137.7739  153.9071 H   0  0  0  0  0  0  0  0  0  0  0  0
  147.8944  138.4998  152.2603 H   0  0  0  0  0  0  0  0  0  0  0  0
  146.2243  138.6855  151.7810 H   0  0  0  0  0  0  0  0  0  0  0  0
  147.1342  140.8629  152.5232 H   0  0  0  0  0  0  0  0  0  0  0  0
  145.8665  140.3646  153.5929 H   0  0  0  0  0  0  0  0  0  0  0  0
  149.1751  139.9328  156.3981 H   0  0  0  0  0  0  0  0  0  0  0  0
  151.7098  140.4010  155.5314 H   0  0  0  0  0  0  0  0  0  0  0  0
  151.0530  142.0289  155.6131 H   0  0  0  0  0  0  0  0  0  0  0  0
  150.3434  140.5323  158.0367 H   0  0  0  0  0  0  0  0  0  0  0  0
  152.0720  140.4788  157.7902 H   0  0  0  0  0  0  0  0  0  0  0  0
  153.2215  142.1353  159.0159 H   0  0  0  0  0  0  0  0  0  0  0  0
  153.3629  144.4718  159.8932 H   0  0  0  0  0  0  0  0  0  0  0  0
  151.4274  146.0783  159.3999 H   0  0  0  0  0  0  0  0  0  0  0  0
  149.3611  143.1837  157.2929 H   0  0  0  0  0  0  0  0  0  0  0  0
  147.8186  139.3036  156.4308 H   0  0  0  0  0  0  0  0  0  0  0  0
  146.2324  139.5195  155.7525 H   0  0  0  0  0  0  0  0  0  0  0  0
  146.8718  137.1057  155.7440 H   0  0  0  0  0  0  0  0  0  0  0  0
  148.3160  137.4724  154.8299 H   0  0  0  0  0  0  0  0  0  0  0  0
  149.6266  145.3096  158.1640 H   0  0  0  0  0  0  0  0  0  0  0  0
  1  2  1  0  0  0  0
  1 23  1  0  0  0  0
  1 24  1  0  0  0  0
  1 25  1  0  0  0  0
  2  3  2  0  0  0  0
  2  4  2  0  0  0  0
  2  5  1  0  0  0  0
  5  6  1  0  0  0  0
  5 26  1  0  0  0  0
  6 22  1  0  0  0  0
  6  7  1  0  0  0  0
  6 27  1  0  0  0  0
  7  8  1  0  0  0  0
  7 28  1  0  0  0  0
  7 29  1  0  0  0  0
  8  9  1  0  0  0  0
  8 30  1  0  0  0  0
  8 31  1  0  0  0  0
  9 10  1  0  0  0  0
  9 21  1  0  0  0  0
 10 11  2  0  0  0  0
 10 12  1  0  0  0  0
 12 13  1  0  0  0  0
 12 32  1  0  0  0  0
 13 14  1  0  0  0  0
 13 33  1  0  0  0  0
 13 34  1  0  0  0  0
 14 15  1  0  0  0  0
 14 35  1  0  0  0  0
 14 36  1  0  0  0  0
 15 20  1  0  0  0  0
 15 16  2  0  0  0  0
 16 17  1  0  0  0  0
 16 37  1  0  0  0  0
 17 18  2  0  0  0  0
 17 38  1  0  0  0  0
 18 19  1  0  0  0  0
 18 39  1  0  0  0  0
 19 20  2  0  0  0  0
 19 45  1  0  0  0  0
 20 40  1  0  0  0  0
 21 22  1  0  0  0  0
 21 41  1  0  0  0  0
 21 42  1  0  0  0  0
 22 43  1  0  0  0  0
 22 44  1  0  0  0  0
M  CHG  1  19   1
M  END
> <s_m_source_file>
AV-unprocessed.smi

> <i_m_source_file_index>
1610

> <i_lp_mmshare_version>
43012

> <i_f3d_flags>
0

> <s_epik_input>
W0NIM11TKD1PKSg9TylbTkhdW0NIXTFbQ0gyXVtDSDJdTihbQ0gyXVtDSDJdMSlDKD1PKVtOSF1bQ0gyXVtDSDJdYzJbY0hdW2NIXVtjSF1uW2NIXTI=

> <s_epik_cmdline>
J2VwaWtfcHl0aG9uJywgJy1waCcsICc3LjAnLCAnLXRuJywgJzgnLCAnLW1hJywgJzIwMCcsICctbWV0YWxfYmluZGluZycsICctaW1hZScsICc8aW5maWxlLm1hZT4nLCAnLW9tYWUnLCAnPG91dGZpbGUubWFlPic=

> <r_epik_Ionization_Penalty>
2.20747

> <r_epik_Ionization_Penalty_Charging>
2.20741

> <r_epik_Ionization_Penalty_Neutral>
6.06433e-05

> <r_epik_State_Penalty>
2.35137

> <r_epik_Charging_Adjusted_Penalty>
4.55877

> <i_epik_Tot_Q>
1

> <i_epik_Tot_abs_Q>
1

> <r_epik_Metal_State_Penalty>
2.37242

> <b_epik_Metal_Only>
0

> <s_lp_Force_Field>
OPLS_2005

> <r_lp_Energy>
29.2562

> <b_lp_Chiralities_Consistent>
1

> <s_lp_Variant>
AV-unprocessed.smi:1610-2

> <Gold.Version>
5.8.1

> <Gold.Id.Protein>
6NUR|6NUR_protein|mol2

> <Gold.PLP.Fitness>
44.3370

> <Gold.PLP.PLP>
-35.3337

> <Gold.PLP.part.hbond>
-5.0000

> <Gold.PLP.part.metal>
0.0000

> <Gold.PLP.part.buried>
-2.2519

> <Gold.PLP.part.nonpolar>
-32.0000

> <Gold.PLP.part.repulsive>
2.7504

> <Gold.PLP.ligand.clash>
1.7396

> <Gold.PLP.ligand.torsion>
1.1437

> <Gold.PLP.Chemscore.Hbond>
3.9918

> <Gold.PLP.Chemscore.CHOScore>
0.0000

> <Gold.PLP.Chemscore.Metal>
0.0000

> <Gold.Chemscore.Hbonds>
donor molecule, donor type, donor heavy atom, donor atom, acceptor molecule, acceptor atom, score
      L1  H     5    26       P1  7948  1.00
      L1  H    19    45       P1  8029  1.98
      P1  H  7989  7998       L1    11  0.11
      P1  H  8011  8017       L1    11  0.86

> <Gold.PLP.Chemscore.Internal.Correction>
1.0548

> <Gold.Rescore>
     Score         DG    S(hbond)    S(metal)    S(lipo)     H(rot)  DE(clash)    DE(int)     intcor
     18.15     -19.32       2.66        0.00      81.91       1.81       0.11       1.06       ----

> <Gold.Chemscore.Fitness>
18.1543

> <Gold.Chemscore.DG>
-19.3229

> <Gold.Chemscore.ZeroCoef>
-5.4800

> <Gold.Chemscore.Hbond>
2.6645

> <Gold.Chemscore.Metal>
0.0000

> <Gold.Chemscore.Lipo>
81.9068

> <Gold.Chemscore.Internal_Hbond>
0.0000

> <Gold.Chemscore.DEClash>
0.1115

> <Gold.Chemscore.DEInternal>
1.0571

> <Gold.Chemscore.Rot>
1.8123

> <Gold.Chemscore.Internal.Correction>
   9.000000E+99

> <Gold.Chemscore.Hbonds>
donor molecule, donor type, donor heavy atom, donor atom, acceptor molecule, acceptor atom, score
      L1  H     5    26       P1  7948  0.98
      L1  H    19    45       P1  8029  0.36
      P1  H  7989  7998       L1    11  0.08
      P1  H  8011  8017       L1    11  0.86

> <Gold.Chemscore.Hbond.Weighted>
-8.8993

> <Gold.Chemscore.Metal.Weighted>
-0.0000

> <Gold.Chemscore.Lipo.Weighted>
-9.5831

> <Gold.Chemscore.Internal_Hbond.Weighted>
0.0000

> <Gold.Chemscore.DEClash.Weighted>
0.1115

> <Gold.Chemscore.DEInternal.Weighted>
1.0571

> <Gold.Chemscore.Rot.Weighted>
4.6395

> <Gold.Chemscore.Internal.Correction.Weighted>
   9.000000E+99

> <Gold.Protein.RotatedTorsions>
[ 6907 6896 6895 6894 ] final  -56.18 input  -60.11 | X-H torsion
[ 7974 7965 7964 7962 ] final  115.65 input  175.53 | X-H torsion
[ 8008 7997 7996 7995 ] final  -13.72 input   59.86 | X-H torsion
[ 10167 10162 10161 10158 ] final  -77.54 input  -65.29 | X-H torsion
[ 10718 10713 10712 10709 ] final   -4.57 input   66.30 | X-H torsion
[ 10763 10752 10751 10750 ] final   58.35 input  -60.55 | X-H torsion
[ 11005 11000 10999 10996 ] final   12.93 input  -57.11 | X-H torsion

> <Gold.Protein.ActiveResidues>
 VAL166  LYS551  ARG553  GLY616  TRP617  ASP618  TYR619  PRO620  LYS621  CYS622 
 ASP623  PHE694  ASN695  SER759  ASP760  ASP761  ALA762  ILE779  LEU786  VAL792 
 PHE793  MET794  SER795  GLU796  ALA797  LYS798  CYS799  TRP800  GLU811  SER814 

> <Gold.Protein.RotatedAtoms>
  150.8189  134.7386  159.6754 H   0  0  0  0  0  0  0  0  0  0  0  0  # atno 6907 bound_to 6896
  152.4306  134.5782  159.9950 H   0  0  0  0  0  0  0  0  0  0  0  0  # atno 6908 bound_to 6896
  151.5971  133.3323  159.3075 H   0  0  0  0  0  0  0  0  0  0  0  0  # atno 6909 bound_to 6896
  145.1893  139.3008  143.4377 H   0  0  0  0  0  0  0  0  0  0  0  0  # atno 7974 bound_to 7965
  154.5269  140.2242  155.8874 H   0  0  0  0  0  0  0  0  0  0  0  0  # atno 8008 bound_to 7997
  156.1723  140.3119  155.8960 H   0  0  0  0  0  0  0  0  0  0  0  0  # atno 8009 bound_to 7997
  155.3533  140.0457  157.3037 H   0  0  0  0  0  0  0  0  0  0  0  0  # atno 8010 bound_to 7997
  140.4761  143.2414  151.8130 H   0  0  0  0  0  0  0  0  0  0  0  0  # atno 10167 bound_to 10162
  156.7593  130.5264  149.5788 H   0  0  0  0  0  0  0  0  0  0  0  0  # atno 10718 bound_to 10713
  152.9869  135.5610  154.5538 H   0  0  0  0  0  0  0  0  0  0  0  0  # atno 10763 bound_to 10752
  154.4970  135.2795  155.1453 H   0  0  0  0  0  0  0  0  0  0  0  0  # atno 10764 bound_to 10752
  154.2900  135.6328  153.5434 H   0  0  0  0  0  0  0  0  0  0  0  0  # atno 10765 bound_to 10752
  140.4864  134.0884  155.7762 H   0  0  0  0  0  0  0  0  0  0  0  0  # atno 11005 bound_to 11000
  146.3439  140.2100  142.8590 LP  0  0  0  0  0  0  0  0  0  0  0  0  # atno 17320 bound_to 7965
  145.0057  140.8671  143.5254 LP  0  0  0  0  0  0  0  0  0  0  0  0  # atno 17321 bound_to 7965
  139.4826  144.4831  151.9281 LP  0  0  0  0  0  0  0  0  0  0  0  0  # atno 17342 bound_to 10162
  140.3916  144.2608  150.5899 LP  0  0  0  0  0  0  0  0  0  0  0  0  # atno 17343 bound_to 10162
  156.1349  130.6204  151.0387 LP  0  0  0  0  0  0  0  0  0  0  0  0  # atno 17370 bound_to 10713
  157.6742  131.0854  150.7537 LP  0  0  0  0  0  0  0  0  0  0  0  0  # atno 17371 bound_to 10713
  141.1506  133.8976  157.2108 LP  0  0  0  0  0  0  0  0  0  0  0  0  # atno 17394 bound_to 11000
  139.9795  135.0103  156.9715 LP  0  0  0  0  0  0  0  0  0  0  0  0  # atno 17395 bound_to 11000

$$$$
