AV-unprocessed.smi:3324|AV-procd|sdf|12782|dock4
  -GOLD-   2272019123D 1   1.00000     0.00000
 Structure written by MMmdl.
 30 30  0  0  0  0  0  0  0  0  1 V2000
  153.7449  138.7099  157.2136 O   0  0  0  0  0  0  0  0  0  0  0  0
  152.9021  139.1402  158.0002 C   0  0  0  0  0  0  0  0  0  0  0  0
  153.3302  139.6549  159.3733 C   0  0  0  0  0  0  0  0  0  0  0  0
  152.9176  141.0467  159.5792 N   0  0  0  0  0  0  0  0  0  0  0  0
  153.6094  141.6239  160.7212 C   0  0  0  0  0  0  0  0  0  0  0  0
  152.7104  142.6803  161.3791 C   0  0  0  0  0  0  0  0  0  0  0  0
  152.3740  143.7442  160.4536 N   0  0  0  0  0  0  0  0  0  0  0  0
  151.6827  144.9105  160.7046 C   0  0  0  0  0  0  0  0  0  0  0  0
  151.6074  145.5988  159.5277 C   0  0  0  0  0  0  0  0  0  0  0  0
  152.2894  144.7604  158.6018 C   0  0  0  0  0  0  0  0  0  0  0  0
  152.7440  143.6493  159.1584 N   0  0  0  0  0  0  0  0  0  0  0  0
  151.5902  139.1940  157.7245 N   0  0  0  0  0  0  0  0  0  0  0  0
  150.9732  138.7627  156.4743 C   0  0  0  0  0  0  0  0  0  0  0  0
  151.2671  139.7352  155.3197 C   0  0  0  0  0  0  0  0  0  0  0  0
  152.5761  139.7342  155.0714 F   0  0  0  0  0  0  0  0  0  0  0  0
  150.6232  139.3504  154.2174 F   0  0  0  0  0  0  0  0  0  0  0  0
  150.8953  140.9759  155.6352 F   0  0  0  0  0  0  0  0  0  0  0  0
  152.8969  139.0223  160.1500 H   0  0  0  0  0  0  0  0  0  0  0  0
  154.4152  139.5706  159.4544 H   0  0  0  0  0  0  0  0  0  0  0  0
  151.9208  141.1139  159.7300 H   0  0  0  0  0  0  0  0  0  0  0  0
  153.8563  140.8399  161.4392 H   0  0  0  0  0  0  0  0  0  0  0  0
  154.5458  142.0806  160.3969 H   0  0  0  0  0  0  0  0  0  0  0  0
  151.7828  142.2264  161.7309 H   0  0  0  0  0  0  0  0  0  0  0  0
  153.2010  143.1148  162.2518 H   0  0  0  0  0  0  0  0  0  0  0  0
  151.3061  145.1498  161.6881 H   0  0  0  0  0  0  0  0  0  0  0  0
  151.1370  146.5554  159.3545 H   0  0  0  0  0  0  0  0  0  0  0  0
  152.4657  144.9246  157.5488 H   0  0  0  0  0  0  0  0  0  0  0  0
  150.9741  139.5636  158.4339 H   0  0  0  0  0  0  0  0  0  0  0  0
  151.2981  137.7540  156.2139 H   0  0  0  0  0  0  0  0  0  0  0  0
  149.8968  138.7038  156.6377 H   0  0  0  0  0  0  0  0  0  0  0  0
  1  2  2  0  0  0  0
  2  3  1  0  0  0  0
  2 12  1  0  0  0  0
  3  4  1  0  0  0  0
  3 18  1  0  0  0  0
  3 19  1  0  0  0  0
  4  5  1  0  0  0  0
  4 20  1  0  0  0  0
  5  6  1  0  0  0  0
  5 21  1  0  0  0  0
  5 22  1  0  0  0  0
  6  7  1  0  0  0  0
  6 23  1  0  0  0  0
  6 24  1  0  0  0  0
  7 11  1  0  0  0  0
  7  8  1  0  0  0  0
  8  9  2  0  0  0  0
  8 25  1  0  0  0  0
  9 10  1  0  0  0  0
  9 26  1  0  0  0  0
 10 11  2  0  0  0  0
 10 27  1  0  0  0  0
 12 13  1  0  0  0  0
 12 28  1  0  0  0  0
 13 14  1  0  0  0  0
 13 29  1  0  0  0  0
 13 30  1  0  0  0  0
 14 15  1  0  0  0  0
 14 16  1  0  0  0  0
 14 17  1  0  0  0  0
M  END
> <s_m_source_file>
AV-unprocessed.smi

> <i_m_source_file_index>
3324

> <i_lp_mmshare_version>
43012

> <i_f3d_flags>
0

> <s_epik_input>
RkMoRikoRilbQ0gyXVtOSF1DKD1PKVtDSDJdW05IXVtDSDJdW0NIMl1uMVtjSF1bY0hdW2NIXW4x

> <s_epik_cmdline>
J2VwaWtfcHl0aG9uJywgJy1waCcsICc3LjAnLCAnLXRuJywgJzgnLCAnLW1hJywgJzIwMCcsICctbWV0YWxfYmluZGluZycsICctaW1hZScsICc8aW5maWxlLm1hZT4nLCAnLW9tYWUnLCAnPG91dGZpbGUubWFlPic=

> <r_lp_tautomer_probability>
1

> <r_epik_Ionization_Penalty>
0.533356

> <r_epik_Ionization_Penalty_Charging>
0

> <r_epik_Ionization_Penalty_Neutral>
0.533356

> <r_epik_State_Penalty>
0.540813

> <r_epik_Charging_Adjusted_Penalty>
0.540813

> <i_epik_Tot_Q>
0

> <i_epik_Tot_abs_Q>
0

> <r_epik_Metal_State_Penalty>
0.549553

> <b_epik_Metal_Only>
0

> <s_lp_Force_Field>
OPLS_2005

> <r_lp_Energy>
3.03628

> <b_lp_Chiralities_Consistent>
1

> <s_lp_Variant>
AV-unprocessed.smi:3324-2

> <Gold.Version>
5.8.1

> <Gold.Id.Protein>
6NUR|6NUR_protein|mol2

> <Gold.PLP.Fitness>
45.2408

> <Gold.PLP.PLP>
-43.0719

> <Gold.PLP.part.hbond>
-1.0000

> <Gold.PLP.part.metal>
0.0000

> <Gold.PLP.part.buried>
-3.0636

> <Gold.PLP.part.nonpolar>
-37.8464

> <Gold.PLP.part.repulsive>
0.0575

> <Gold.PLP.ligand.clash>
0.0000

> <Gold.PLP.ligand.torsion>
0.3693

> <Gold.PLP.Chemscore.Hbond>
0.9000

> <Gold.PLP.Chemscore.CHOScore>
0.0000

> <Gold.PLP.Chemscore.Metal>
0.0000

> <Gold.Chemscore.Hbonds>
donor molecule, donor type, donor heavy atom, donor atom, acceptor molecule, acceptor atom, score
      P1  H  7997  8009       L1     1  0.96

> <Gold.PLP.Chemscore.Internal.Correction>
0.2076

> <Gold.Rescore>
     Score         DG    S(hbond)    S(metal)    S(lipo)     H(rot)  DE(clash)    DE(int)     intcor
      7.96     -10.23       0.93        0.00      75.98       2.83       0.01       2.26       ----

> <Gold.Chemscore.Fitness>
7.9561

> <Gold.Chemscore.DG>
-10.2288

> <Gold.Chemscore.ZeroCoef>
-5.4800

> <Gold.Chemscore.Hbond>
0.9296

> <Gold.Chemscore.Metal>
0.0000

> <Gold.Chemscore.Lipo>
75.9830

> <Gold.Chemscore.Internal_Hbond>
0.0000

> <Gold.Chemscore.DEClash>
0.0089

> <Gold.Chemscore.DEInternal>
2.2638

> <Gold.Chemscore.Rot>
2.8305

> <Gold.Chemscore.Internal.Correction>
   9.000000E+99

> <Gold.Chemscore.Hbonds>
donor molecule, donor type, donor heavy atom, donor atom, acceptor molecule, acceptor atom, score
      P1  H  7997  8009       L1     1  0.22

> <Gold.Chemscore.Hbond.Weighted>
-3.1049

> <Gold.Chemscore.Metal.Weighted>
-0.0000

> <Gold.Chemscore.Lipo.Weighted>
-8.8900

> <Gold.Chemscore.Internal_Hbond.Weighted>
0.0000

> <Gold.Chemscore.DEClash.Weighted>
0.0089

> <Gold.Chemscore.DEInternal.Weighted>
2.2638

> <Gold.Chemscore.Rot.Weighted>
7.2461

> <Gold.Chemscore.Internal.Correction.Weighted>
   9.000000E+99

> <Gold.Protein.RotatedTorsions>
[ 6907 6896 6895 6894 ] final  -24.89 input  -60.11 | X-H torsion
[ 7974 7965 7964 7962 ] final   52.75 input  175.53 | X-H torsion
[ 8008 7997 7996 7995 ] final  159.03 input   59.86 | X-H torsion
[ 10167 10162 10161 10158 ] final  -56.34 input  -65.29 | X-H torsion
[ 10718 10713 10712 10709 ] final   49.06 input   66.30 | X-H torsion
[ 10763 10752 10751 10750 ] final  -50.24 input  -60.55 | X-H torsion
[ 11005 11000 10999 10996 ] final -111.56 input  -57.11 | X-H torsion

> <Gold.Protein.ActiveResidues>
 VAL166  LYS551  ARG553  GLY616  TRP617  ASP618  TYR619  PRO620  LYS621  CYS622 
 ASP623  PHE694  ASN695  SER759  ASP760  ASP761  ALA762  ILE779  LEU786  VAL792 
 PHE793  MET794  SER795  GLU796  ALA797  LYS798  CYS799  TRP800  GLU811  SER814 

> <Gold.Protein.RotatedAtoms>
  151.1831  135.0369  159.8800 H   0  0  0  0  0  0  0  0  0  0  0  0  # atno 6907 bound_to 6896
  152.5443  134.1040  159.8340 H   0  0  0  0  0  0  0  0  0  0  0  0  # atno 6908 bound_to 6896
  151.1160  133.5091  159.2636 H   0  0  0  0  0  0  0  0  0  0  0  0  # atno 6909 bound_to 6896
  145.9781  139.4215  143.0148 H   0  0  0  0  0  0  0  0  0  0  0  0  # atno 7974 bound_to 7965
  156.2265  140.1842  156.7350 H   0  0  0  0  0  0  0  0  0  0  0  0  # atno 8008 bound_to 7997
  154.5950  140.0645  156.9319 H   0  0  0  0  0  0  0  0  0  0  0  0  # atno 8009 bound_to 7997
  155.2271  140.3312  155.4310 H   0  0  0  0  0  0  0  0  0  0  0  0  # atno 8010 bound_to 7997
  140.6322  143.2465  151.5210 H   0  0  0  0  0  0  0  0  0  0  0  0  # atno 10167 bound_to 10162
  157.4749  130.8278  149.8028 H   0  0  0  0  0  0  0  0  0  0  0  0  # atno 10718 bound_to 10713
  154.1072  135.6554  153.4878 H   0  0  0  0  0  0  0  0  0  0  0  0  # atno 10763 bound_to 10752
  153.0269  135.5239  154.7228 H   0  0  0  0  0  0  0  0  0  0  0  0  # atno 10764 bound_to 10752
  154.6397  135.2987  155.0087 H   0  0  0  0  0  0  0  0  0  0  0  0  # atno 10765 bound_to 10752
  141.0727  133.9353  157.2453 H   0  0  0  0  0  0  0  0  0  0  0  0  # atno 11005 bound_to 11000
  145.7809  140.9857  143.1100 LP  0  0  0  0  0  0  0  0  0  0  0  0  # atno 17320 bound_to 7965
  144.6854  139.9563  143.7479 LP  0  0  0  0  0  0  0  0  0  0  0  0  # atno 17321 bound_to 7965
  139.5536  144.2333  152.1573 LP  0  0  0  0  0  0  0  0  0  0  0  0  # atno 17342 bound_to 10162
  140.1580  144.5052  150.6649 LP  0  0  0  0  0  0  0  0  0  0  0  0  # atno 17343 bound_to 10162
  156.0092  130.3841  150.2325 LP  0  0  0  0  0  0  0  0  0  0  0  0  # atno 17370 bound_to 10713
  157.0508  131.0062  151.3254 LP  0  0  0  0  0  0  0  0  0  0  0  0  # atno 17371 bound_to 10713
  139.9540  135.0169  156.9074 LP  0  0  0  0  0  0  0  0  0  0  0  0  # atno 17394 bound_to 11000
  140.5639  134.0508  155.7408 LP  0  0  0  0  0  0  0  0  0  0  0  0  # atno 17395 bound_to 11000

$$$$
