AV-unprocessed.smi:2973|AV-procd|sdf|11344|dock10
  -GOLD-   2272016253D 1   1.00000     0.00000
 Structure written by MMmdl.
 50 52  0  0  0  0  0  0  0  0  2 V2000
  145.6320  130.0953  152.2176 C   0  0  0  0  0  0  0  0  0  0  0  0
  145.7147  131.3850  151.3742 C   0  0  1  0  0  0  0  0  0  0  0  0
  144.3027  131.8832  150.9966 C   0  0  0  0  0  0  0  0  0  0  0  0
  144.3620  133.1099  150.0729 C   0  0  0  0  0  0  0  0  0  0  0  0
  145.1784  134.2478  150.7015 C   0  0  0  0  0  0  0  0  0  0  0  0
  146.5909  133.7727  151.0863 C   0  0  0  0  0  0  0  0  0  0  0  0
  146.5839  132.5213  152.0006 C   0  0  2  0  0  0  0  0  0  0  0  0
  147.9483  132.0761  152.2259 N   0  0  0  0  0  0  0  0  0  0  0  0
  148.3259  132.1573  153.5074 C   0  0  0  0  0  0  0  0  0  0  0  0
  149.4372  131.8563  153.9402 O   0  0  0  0  0  0  0  0  0  0  0  0
  147.2879  132.6212  154.2249 N   0  0  0  0  0  0  0  0  0  0  0  0
  147.3335  132.8678  155.6718 C   0  0  0  0  0  0  0  0  0  0  0  0
  147.1641  131.5896  156.5048 C   0  0  0  0  0  0  0  0  0  0  0  0
  148.0218  131.2454  157.3194 O   0  0  0  0  0  0  0  0  0  0  0  0
  146.0351  130.8970  156.2930 N   0  0  0  0  0  0  0  0  0  0  0  0
  145.6737  129.6577  156.9705 C   0  0  0  0  0  0  0  0  0  0  0  0
  145.3734  129.8902  158.4612 C   0  0  0  0  0  0  0  0  0  0  0  0
  143.9021  129.7190  158.7834 C   0  0  0  0  0  0  0  0  0  0  0  0
  143.3992  129.8654  160.0944 C   0  0  0  0  0  0  0  0  0  0  0  0
  142.0175  129.6998  160.3246 C   0  0  0  0  0  0  0  0  0  0  0  0
  141.1690  129.3930  159.2403 C   0  0  0  0  0  0  0  0  0  0  0  0
  141.7244  129.2608  157.9513 C   0  0  0  0  0  0  0  0  0  0  0  0
  143.0530  129.4280  157.7712 N   0  3  0  0  0  0  0  0  0  0  0  0
  146.2257  132.8704  153.4471 C   0  0  0  0  0  0  0  0  0  0  0  0
  145.1352  133.3104  153.8115 O   0  0  0  0  0  0  0  0  0  0  0  0
  145.1129  130.2608  153.1620 H   0  0  0  0  0  0  0  0  0  0  0  0
  146.6210  129.6977  152.4446 H   0  0  0  0  0  0  0  0  0  0  0  0
  145.0890  129.3171  151.6809 H   0  0  0  0  0  0  0  0  0  0  0  0
  146.2030  131.0998  150.4408 H   0  0  0  0  0  0  0  0  0  0  0  0
  143.7515  131.0867  150.4960 H   0  0  0  0  0  0  0  0  0  0  0  0
  143.7322  132.1253  151.8934 H   0  0  0  0  0  0  0  0  0  0  0  0
  144.8075  132.8265  149.1184 H   0  0  0  0  0  0  0  0  0  0  0  0
  143.3526  133.4568  149.8507 H   0  0  0  0  0  0  0  0  0  0  0  0
  145.2487  135.0805  150.0013 H   0  0  0  0  0  0  0  0  0  0  0  0
  144.6570  134.6342  151.5771 H   0  0  0  0  0  0  0  0  0  0  0  0
  147.1461  133.5478  150.1746 H   0  0  0  0  0  0  0  0  0  0  0  0
  147.1278  134.5931  151.5659 H   0  0  0  0  0  0  0  0  0  0  0  0
  148.5469  131.7563  151.4784 H   0  0  0  0  0  0  0  0  0  0  0  0
  148.2785  133.3379  155.9490 H   0  0  0  0  0  0  0  0  0  0  0  0
  146.5560  133.5840  155.9439 H   0  0  0  0  0  0  0  0  0  0  0  0
  145.3808  131.2552  155.6120 H   0  0  0  0  0  0  0  0  0  0  0  0
  144.8157  129.2006  156.4746 H   0  0  0  0  0  0  0  0  0  0  0  0
  146.5044  128.9603  156.8605 H   0  0  0  0  0  0  0  0  0  0  0  0
  145.9527  129.1967  159.0724 H   0  0  0  0  0  0  0  0  0  0  0  0
  145.6824  130.8931  158.7594 H   0  0  0  0  0  0  0  0  0  0  0  0
  144.0619  130.1033  160.9141 H   0  0  0  0  0  0  0  0  0  0  0  0
  141.6133  129.8074  161.3205 H   0  0  0  0  0  0  0  0  0  0  0  0
  140.1080  129.2622  159.3955 H   0  0  0  0  0  0  0  0  0  0  0  0
  141.1513  129.0283  157.0656 H   0  0  0  0  0  0  0  0  0  0  0  0
  143.4330  129.3274  156.8297 H   0  0  0  0  0  0  0  0  0  0  0  0
  1  2  1  0  0  0  0
  1 26  1  0  0  0  0
  1 27  1  0  0  0  0
  1 28  1  0  0  0  0
  2  7  1  0  0  0  0
  2  3  1  0  0  0  0
  2 29  1  0  0  0  0
  3  4  1  0  0  0  0
  3 30  1  0  0  0  0
  3 31  1  0  0  0  0
  4  5  1  0  0  0  0
  4 32  1  0  0  0  0
  4 33  1  0  0  0  0
  5  6  1  0  0  0  0
  5 34  1  0  0  0  0
  5 35  1  0  0  0  0
  6  7  1  0  0  0  0
  6 36  1  0  0  0  0
  6 37  1  0  0  0  0
  7 24  1  0  0  0  0
  7  8  1  0  0  0  0
  8  9  1  0  0  0  0
  8 38  1  0  0  0  0
  9 10  2  0  0  0  0
  9 11  1  0  0  0  0
 11 12  1  0  0  0  0
 11 24  1  0  0  0  0
 12 13  1  0  0  0  0
 12 39  1  0  0  0  0
 12 40  1  0  0  0  0
 13 14  2  0  0  0  0
 13 15  1  0  0  0  0
 15 16  1  0  0  0  0
 15 41  1  0  0  0  0
 16 17  1  0  0  0  0
 16 42  1  0  0  0  0
 16 43  1  0  0  0  0
 17 18  1  0  0  0  0
 17 44  1  0  0  0  0
 17 45  1  0  0  0  0
 18 23  1  0  0  0  0
 18 19  2  0  0  0  0
 19 20  1  0  0  0  0
 19 46  1  0  0  0  0
 20 21  2  0  0  0  0
 20 47  1  0  0  0  0
 21 22  1  0  0  0  0
 21 48  1  0  0  0  0
 22 23  2  0  0  0  0
 22 49  1  0  0  0  0
 23 50  1  0  0  0  0
 24 25  2  0  0  0  0
M  CHG  1  23   1
M  END
> <s_m_source_file>
AV-unprocessed.smi

> <i_m_source_file_index>
2973

> <i_lp_mmshare_version>
43012

> <i_f3d_flags>
0

> <s_epik_input>
W0NIMl0xW0NIMl1bQ0gyXVtDSDJdW0NAQEhdKFtDSDNdKVtDQF0xMltOSF1DKD1PKU4oQzI9TylbQ0gyXUMoPU8pW05IXVtDSDJdW0NIMl1jM1tjSF1bY0hdW2NIXVtjSF1uMw==

> <s_epik_cmdline>
J2VwaWtfcHl0aG9uJywgJy1waCcsICc3LjAnLCAnLXRuJywgJzgnLCAnLW1hJywgJzIwMCcsICctbWV0YWxfYmluZGluZycsICctaW1hZScsICc8aW5maWxlLm1hZT4nLCAnLW9tYWUnLCAnPG91dGZpbGUubWFlPic=

> <r_lp_tautomer_probability>
1

> <r_epik_Ionization_Penalty>
1.90043

> <r_epik_Ionization_Penalty_Charging>
1.90039

> <r_epik_Ionization_Penalty_Neutral>
4.65525e-05

> <r_epik_State_Penalty>
2.02162

> <r_epik_Charging_Adjusted_Penalty>
3.922

> <i_epik_Tot_Q>
1

> <i_epik_Tot_abs_Q>
1

> <r_epik_Metal_State_Penalty>
2.06631

> <b_epik_Metal_Only>
0

> <s_lp_Force_Field>
OPLS_2005

> <r_lp_Energy>
22.9905

> <b_lp_Chiralities_Consistent>
1

> <s_lp_Variant>
AV-unprocessed.smi:2973-8

> <Gold.Version>
5.8.1

> <Gold.Id.Protein>
6NUR|6NUR_protein|mol2

> <Gold.PLP.Fitness>
43.1099

> <Gold.PLP.PLP>
-35.4369

> <Gold.PLP.part.hbond>
-1.9413

> <Gold.PLP.part.metal>
0.0000

> <Gold.PLP.part.buried>
-6.9195

> <Gold.PLP.part.nonpolar>
-28.5213

> <Gold.PLP.part.repulsive>
0.6387

> <Gold.PLP.ligand.clash>
0.0043

> <Gold.PLP.ligand.torsion>
0.6539

> <Gold.PLP.Chemscore.Hbond>
2.9840

> <Gold.PLP.Chemscore.CHOScore>
0.0000

> <Gold.PLP.Chemscore.Metal>
0.0000

> <Gold.Chemscore.Hbonds>
donor molecule, donor type, donor heavy atom, donor atom, acceptor molecule, acceptor atom, score
      L1  H     8    38       P1 10747  1.00
      L1  H    23    50       P1 10956  1.98

> <Gold.PLP.Chemscore.Internal.Correction>
0.0331

> <Gold.Rescore>
     Score         DG    S(hbond)    S(metal)    S(lipo)     H(rot)  DE(clash)    DE(int)     intcor
     15.88     -16.71       1.89        0.00      85.01       1.96       0.15       0.68       ----

> <Gold.Chemscore.Fitness>
15.8783

> <Gold.Chemscore.DG>
-16.7089

> <Gold.Chemscore.ZeroCoef>
-5.4800

> <Gold.Chemscore.Hbond>
1.8892

> <Gold.Chemscore.Metal>
0.0000

> <Gold.Chemscore.Lipo>
85.0126

> <Gold.Chemscore.Internal_Hbond>
0.0000

> <Gold.Chemscore.DEClash>
0.1500

> <Gold.Chemscore.DEInternal>
0.6806

> <Gold.Chemscore.Rot>
1.9638

> <Gold.Chemscore.Internal.Correction>
   9.000000E+99

> <Gold.Chemscore.Hbonds>
donor molecule, donor type, donor heavy atom, donor atom, acceptor molecule, acceptor atom, score
      L1  H     8    38       P1 10747  0.94
      L1  H    23    50       P1 10956  0.87

> <Gold.Chemscore.Hbond.Weighted>
-6.3099

> <Gold.Chemscore.Metal.Weighted>
-0.0000

> <Gold.Chemscore.Lipo.Weighted>
-9.9465

> <Gold.Chemscore.Internal_Hbond.Weighted>
0.0000

> <Gold.Chemscore.DEClash.Weighted>
0.1500

> <Gold.Chemscore.DEInternal.Weighted>
0.6806

> <Gold.Chemscore.Rot.Weighted>
5.0274

> <Gold.Chemscore.Internal.Correction.Weighted>
   9.000000E+99

> <Gold.Protein.RotatedTorsions>
[ 6907 6896 6895 6894 ] final  118.80 input  -60.11 | X-H torsion
[ 7974 7965 7964 7962 ] final  128.58 input  175.53 | X-H torsion
[ 8008 7997 7996 7995 ] final -109.79 input   59.86 | X-H torsion
[ 10167 10162 10161 10158 ] final   17.90 input  -65.29 | X-H torsion
[ 10718 10713 10712 10709 ] final -111.63 input   66.30 | X-H torsion
[ 10763 10752 10751 10750 ] final   29.00 input  -60.55 | X-H torsion
[ 11005 11000 10999 10996 ] final  118.69 input  -57.11 | X-H torsion

> <Gold.Protein.ActiveResidues>
 VAL166  LYS551  ARG553  GLY616  TRP617  ASP618  TYR619  PRO620  LYS621  CYS622 
 ASP623  PHE694  ASN695  SER759  ASP760  ASP761  ALA762  ILE779  LEU786  VAL792 
 PHE793  MET794  SER795  GLU796  ALA797  LYS798  CYS799  TRP800  GLU811  SER814 

> <Gold.Protein.RotatedAtoms>
  152.4517  133.7642  159.6763 H   0  0  0  0  0  0  0  0  0  0  0  0  # atno 6907 bound_to 6896
  150.8431  133.7894  159.3059 H   0  0  0  0  0  0  0  0  0  0  0  0  # atno 6908 bound_to 6896
  151.5513  135.1070  160.0002 H   0  0  0  0  0  0  0  0  0  0  0  0  # atno 6909 bound_to 6896
  145.0380  139.3988  143.5116 H   0  0  0  0  0  0  0  0  0  0  0  0  # atno 7974 bound_to 7965
  154.9647  140.0398  157.2206 H   0  0  0  0  0  0  0  0  0  0  0  0  # atno 8008 bound_to 7997
  154.7857  140.2826  155.6008 H   0  0  0  0  0  0  0  0  0  0  0  0  # atno 8009 bound_to 7997
  156.2942  140.2583  156.2692 H   0  0  0  0  0  0  0  0  0  0  0  0  # atno 8010 bound_to 7997
  140.5692  143.9192  150.6700 H   0  0  0  0  0  0  0  0  0  0  0  0  # atno 10167 bound_to 10162
  156.0658  130.5878  150.8400 H   0  0  0  0  0  0  0  0  0  0  0  0  # atno 10718 bound_to 10713
  153.0457  135.6499  154.0824 H   0  0  0  0  0  0  0  0  0  0  0  0  # atno 10763 bound_to 10752
  154.0522  135.2894  155.3340 H   0  0  0  0  0  0  0  0  0  0  0  0  # atno 10764 bound_to 10752
  154.6712  135.5355  153.8207 H   0  0  0  0  0  0  0  0  0  0  0  0  # atno 10765 bound_to 10752
  139.9119  134.9622  156.7541 H   0  0  0  0  0  0  0  0  0  0  0  0  # atno 11005 bound_to 11000
  146.3506  139.9966  142.8680 LP  0  0  0  0  0  0  0  0  0  0  0  0  # atno 17320 bound_to 7965
  145.1684  140.9708  143.4336 LP  0  0  0  0  0  0  0  0  0  0  0  0  # atno 17321 bound_to 7965
  140.2663  143.3487  152.1278 LP  0  0  0  0  0  0  0  0  0  0  0  0  # atno 17342 bound_to 10162
  139.5109  144.6891  151.5807 LP  0  0  0  0  0  0  0  0  0  0  0  0  # atno 17343 bound_to 10162
  157.5699  131.0946  150.9433 LP  0  0  0  0  0  0  0  0  0  0  0  0  # atno 17370 bound_to 10713
  156.9652  130.5470  149.5288 LP  0  0  0  0  0  0  0  0  0  0  0  0  # atno 17371 bound_to 10713
  140.6750  133.9526  155.7877 LP  0  0  0  0  0  0  0  0  0  0  0  0  # atno 17394 bound_to 11000
  141.0551  134.0428  157.3733 LP  0  0  0  0  0  0  0  0  0  0  0  0  # atno 17395 bound_to 11000

$$$$
