AV-unprocessed.smi:2675|AV-procd|sdf|10360|dock7
  -GOLD-   2272014383D 1   1.00000     0.00000
 Structure written by MMmdl.
 37 38  0  0  0  0  0  0  0  0  2 V2000
  151.6776  145.2839  158.9794 C   0  0  0  0  0  0  0  0  0  0  0  0
  151.5370  143.8723  158.5168 C   0  0  0  0  0  0  0  0  0  0  0  0
  150.7107  143.5345  157.4779 N   0  3  0  0  0  0  0  0  0  0  0  0
  150.7528  142.2210  157.2522 C   0  0  0  0  0  0  0  0  0  0  0  0
  151.6044  141.7026  158.1442 N   0  0  0  0  0  0  0  0  0  0  0  0
  151.8807  140.2599  158.1981 C   0  0  0  0  0  0  0  0  0  0  0  0
  151.7134  139.6260  156.8178 C   0  0  0  0  0  0  0  0  0  0  0  0
  152.6169  139.7230  155.9893 O   0  0  0  0  0  0  0  0  0  0  0  0
  150.5689  138.9521  156.6107 N   0  0  0  0  0  0  0  0  0  0  0  0
  150.1736  138.1629  155.4370 C   0  0  1  0  0  0  0  0  0  0  0  0
  150.1693  139.1395  154.2495 C   0  0  0  0  0  0  0  0  0  0  0  0
  151.1479  137.0949  155.1374 C   0  0  0  0  0  0  0  0  0  0  0  0
  151.9137  136.2591  154.9041 N   0  0  0  0  0  0  0  0  0  0  0  0
  148.7908  137.5139  155.5360 C   0  0  0  0  0  0  0  0  0  0  0  0
  147.6175  138.2088  156.1913 C   0  0  0  0  0  0  0  0  0  0  0  0
  148.2008  136.9605  156.8152 C   0  0  0  0  0  0  0  0  0  0  0  0
  152.1138  142.6987  158.9484 C   0  0  0  0  0  0  0  0  0  0  0  0
  153.0925  142.4357  160.0475 C   0  0  0  0  0  0  0  0  0  0  0  0
  152.3496  145.3476  159.8348 H   0  0  0  0  0  0  0  0  0  0  0  0
  150.7065  145.6817  159.2747 H   0  0  0  0  0  0  0  0  0  0  0  0
  152.0795  145.9040  158.1778 H   0  0  0  0  0  0  0  0  0  0  0  0
  150.2008  141.6843  156.5012 H   0  0  0  0  0  0  0  0  0  0  0  0
  152.8936  140.1104  158.5757 H   0  0  0  0  0  0  0  0  0  0  0  0
  151.2005  139.7952  158.9122 H   0  0  0  0  0  0  0  0  0  0  0  0
  149.8997  138.9595  157.3665 H   0  0  0  0  0  0  0  0  0  0  0  0
  149.9080  138.6321  153.3200 H   0  0  0  0  0  0  0  0  0  0  0  0
  151.1503  139.5944  154.1059 H   0  0  0  0  0  0  0  0  0  0  0  0
  149.4486  139.9450  154.3973 H   0  0  0  0  0  0  0  0  0  0  0  0
  148.5447  136.9337  154.6479 H   0  0  0  0  0  0  0  0  0  0  0  0
  147.7944  139.1521  156.7035 H   0  0  0  0  0  0  0  0  0  0  0  0
  146.6491  138.1219  155.7029 H   0  0  0  0  0  0  0  0  0  0  0  0
  147.6184  136.0447  156.7386 H   0  0  0  0  0  0  0  0  0  0  0  0
  148.7428  137.0810  157.7486 H   0  0  0  0  0  0  0  0  0  0  0  0
  153.3931  143.3652  160.5298 H   0  0  0  0  0  0  0  0  0  0  0  0
  153.9865  141.9535  159.6523 H   0  0  0  0  0  0  0  0  0  0  0  0
  152.6486  141.7870  160.8028 H   0  0  0  0  0  0  0  0  0  0  0  0
  150.1437  144.1889  156.9536 H   0  0  0  0  0  0  0  0  0  0  0  0
  1  2  1  0  0  0  0
  1 19  1  0  0  0  0
  1 20  1  0  0  0  0
  1 21  1  0  0  0  0
  2 17  2  0  0  0  0
  2  3  1  0  0  0  0
  3  4  2  0  0  0  0
  3 37  1  0  0  0  0
  4  5  1  0  0  0  0
  4 22  1  0  0  0  0
  5  6  1  0  0  0  0
  5 17  1  0  0  0  0
  6  7  1  0  0  0  0
  6 23  1  0  0  0  0
  6 24  1  0  0  0  0
  7  8  2  0  0  0  0
  7  9  1  0  0  0  0
  9 10  1  0  0  0  0
  9 25  1  0  0  0  0
 10 11  1  0  0  0  0
 10 12  1  0  0  0  0
 10 14  1  0  0  0  0
 11 26  1  0  0  0  0
 11 27  1  0  0  0  0
 11 28  1  0  0  0  0
 12 13  3  0  0  0  0
 14 16  1  0  0  0  0
 14 15  1  0  0  0  0
 14 29  1  0  0  0  0
 15 16  1  0  0  0  0
 15 30  1  0  0  0  0
 15 31  1  0  0  0  0
 16 32  1  0  0  0  0
 16 33  1  0  0  0  0
 17 18  1  0  0  0  0
 18 34  1  0  0  0  0
 18 35  1  0  0  0  0
 18 36  1  0  0  0  0
M  CHG  1   3   1
M  END
> <s_m_source_file>
AV-unprocessed.smi

> <i_m_source_file_index>
2675

> <i_lp_mmshare_version>
43012

> <i_f3d_flags>
0

> <s_epik_input>
W0NIM11jMW5bY0hdbihjMVtDSDNdKVtDSDJdQyg9TylbTkhdW0NAQF0oW0NIM10pKEMjTilbQ0hdMltDSDJdW0NIMl0y

> <s_epik_cmdline>
J2VwaWtfcHl0aG9uJywgJy1waCcsICc3LjAnLCAnLXRuJywgJzgnLCAnLW1hJywgJzIwMCcsICctbWV0YWxfYmluZGluZycsICctaW1hZScsICc8aW5maWxlLm1hZT4nLCAnLW9tYWUnLCAnPG91dGZpbGUubWFlPic=

> <r_lp_tautomer_probability>
1

> <r_epik_Ionization_Penalty>
0.153253

> <r_epik_Ionization_Penalty_Charging>
0

> <r_epik_Ionization_Penalty_Neutral>
0.153253

> <r_epik_State_Penalty>
0.14254

> <r_epik_Charging_Adjusted_Penalty>
0.14254

> <i_epik_Tot_Q>
1

> <i_epik_Tot_abs_Q>
1

> <r_epik_Metal_State_Penalty>
0.466899

> <b_epik_Metal_Only>
0

> <s_lp_Force_Field>
OPLS_2005

> <r_lp_Energy>
18.2007

> <b_lp_Chiralities_Consistent>
1

> <s_lp_Variant>
AV-unprocessed.smi:2675-1

> <Gold.Version>
5.8.1

> <Gold.Id.Protein>
6NUR|6NUR_protein|mol2

> <Gold.PLP.Fitness>
44.0880

> <Gold.PLP.PLP>
-33.4245

> <Gold.PLP.part.hbond>
-3.0000

> <Gold.PLP.part.metal>
0.0000

> <Gold.PLP.part.buried>
-5.2199

> <Gold.PLP.part.nonpolar>
-26.5067

> <Gold.PLP.part.repulsive>
0.1369

> <Gold.PLP.ligand.clash>
0.0000

> <Gold.PLP.ligand.torsion>
1.3954

> <Gold.PLP.Chemscore.Hbond>
3.9840

> <Gold.PLP.Chemscore.CHOScore>
0.0000

> <Gold.PLP.Chemscore.Metal>
0.0000

> <Gold.Chemscore.Hbonds>
donor molecule, donor type, donor heavy atom, donor atom, acceptor molecule, acceptor atom, score
      L1  H     3    37       P1  8028  2.00
      P1  H  7997  8008       L1     8  1.00
      P1  H 10752 10763       L1    13  0.36

> <Gold.PLP.Chemscore.Internal.Correction>
1.5022

> <Gold.Rescore>
     Score         DG    S(hbond)    S(metal)    S(lipo)     H(rot)  DE(clash)    DE(int)     intcor
     16.39     -18.39       2.91        0.00      66.61       1.80       0.03       1.97       ----

> <Gold.Chemscore.Fitness>
16.3922

> <Gold.Chemscore.DG>
-18.3939

> <Gold.Chemscore.ZeroCoef>
-5.4800

> <Gold.Chemscore.Hbond>
2.9094

> <Gold.Chemscore.Metal>
0.0000

> <Gold.Chemscore.Lipo>
66.6079

> <Gold.Chemscore.Internal_Hbond>
0.0000

> <Gold.Chemscore.DEClash>
0.0295

> <Gold.Chemscore.DEInternal>
1.9722

> <Gold.Chemscore.Rot>
1.7955

> <Gold.Chemscore.Internal.Correction>
   9.000000E+99

> <Gold.Chemscore.Hbonds>
donor molecule, donor type, donor heavy atom, donor atom, acceptor molecule, acceptor atom, score
      L1  H     3    37       P1  8028  0.92
      P1  H  7997  8008       L1     8  1.00
      P1  H 10752 10763       L1    13  0.35

> <Gold.Chemscore.Hbond.Weighted>
-9.7173

> <Gold.Chemscore.Metal.Weighted>
-0.0000

> <Gold.Chemscore.Lipo.Weighted>
-7.7931

> <Gold.Chemscore.Internal_Hbond.Weighted>
0.0000

> <Gold.Chemscore.DEClash.Weighted>
0.0295

> <Gold.Chemscore.DEInternal.Weighted>
1.9722

> <Gold.Chemscore.Rot.Weighted>
4.5965

> <Gold.Chemscore.Internal.Correction.Weighted>
   9.000000E+99

> <Gold.Protein.RotatedTorsions>
[ 6907 6896 6895 6894 ] final -143.08 input  -60.11 | X-H torsion
[ 7974 7965 7964 7962 ] final -167.72 input  175.53 | X-H torsion
[ 8008 7997 7996 7995 ] final  -43.23 input   59.86 | X-H torsion
[ 10167 10162 10161 10158 ] final  -33.57 input  -65.29 | X-H torsion
[ 10718 10713 10712 10709 ] final  143.91 input   66.30 | X-H torsion
[ 10763 10752 10751 10750 ] final   67.43 input  -60.55 | X-H torsion
[ 11005 11000 10999 10996 ] final -143.92 input  -57.11 | X-H torsion

> <Gold.Protein.ActiveResidues>
 VAL166  LYS551  ARG553  GLY616  TRP617  ASP618  TYR619  PRO620  LYS621  CYS622 
 ASP623  PHE694  ASN695  SER759  ASP760  ASP761  ALA762  ILE779  LEU786  VAL792 
 PHE793  MET794  SER795  GLU796  ALA797  LYS798  CYS799  TRP800  GLU811  SER814 

> <Gold.Protein.RotatedAtoms>
  151.0956  133.5282  159.2612 H   0  0  0  0  0  0  0  0  0  0  0  0  # atno 6907 bound_to 6896
  151.2133  135.0489  159.8930 H   0  0  0  0  0  0  0  0  0  0  0  0  # atno 6908 bound_to 6896
  152.5438  134.0769  159.8272 H   0  0  0  0  0  0  0  0  0  0  0  0  # atno 6909 bound_to 6896
  144.7217  140.2477  143.6283 H   0  0  0  0  0  0  0  0  0  0  0  0  # atno 7974 bound_to 7965
  154.3997  140.1453  156.3485 H   0  0  0  0  0  0  0  0  0  0  0  0  # atno 8008 bound_to 7997
  155.8291  140.3466  155.5540 H   0  0  0  0  0  0  0  0  0  0  0  0  # atno 8009 bound_to 7997
  155.8207  140.0897  157.1841 H   0  0  0  0  0  0  0  0  0  0  0  0  # atno 8010 bound_to 7997
  140.7202  143.3610  151.1962 H   0  0  0  0  0  0  0  0  0  0  0  0  # atno 10167 bound_to 10162
  157.3634  131.0968  151.0894 H   0  0  0  0  0  0  0  0  0  0  0  0  # atno 10718 bound_to 10713
  153.0186  135.5284  154.6978 H   0  0  0  0  0  0  0  0  0  0  0  0  # atno 10763 bound_to 10752
  154.6095  135.2877  155.0450 H   0  0  0  0  0  0  0  0  0  0  0  0  # atno 10764 bound_to 10752
  154.1477  135.6568  153.5009 H   0  0  0  0  0  0  0  0  0  0  0  0  # atno 10765 bound_to 10752
  140.8077  134.2782  157.4954 H   0  0  0  0  0  0  0  0  0  0  0  0  # atno 11005 bound_to 11000
  145.8259  139.2064  143.1911 LP  0  0  0  0  0  0  0  0  0  0  0  0  # atno 17320 bound_to 7965
  146.0474  140.8104  142.9799 LP  0  0  0  0  0  0  0  0  0  0  0  0  # atno 17321 bound_to 7965
  139.7162  143.9296  152.2967 LP  0  0  0  0  0  0  0  0  0  0  0  0  # atno 17342 bound_to 10162
  139.9038  144.6896  150.8636 LP  0  0  0  0  0  0  0  0  0  0  0  0  # atno 17343 bound_to 10162
  157.2026  130.6401  149.5744 LP  0  0  0  0  0  0  0  0  0  0  0  0  # atno 17370 bound_to 10713
  155.9741  130.4686  150.6366 LP  0  0  0  0  0  0  0  0  0  0  0  0  # atno 17371 bound_to 10713
  139.8716  134.9465  156.3941 LP  0  0  0  0  0  0  0  0  0  0  0  0  # atno 17394 bound_to 11000
  140.9230  133.7631  155.9930 LP  0  0  0  0  0  0  0  0  0  0  0  0  # atno 17395 bound_to 11000

$$$$
