AV-unprocessed.smi:48|AV-procd|sdf|460|dock3
  -GOLD-   2262016333D 1   1.00000     0.00000
 Structure written by MMmdl.
 30 32  0  0  0  0  0  0  0  0  1 V2000
  143.4472  134.1678  147.8237 O   0  0  0  0  0  0  0  0  0  0  0  0
  143.2941  133.1553  148.7953 C   0  0  0  0  0  0  0  0  0  0  0  0
  144.5149  133.1284  149.7272 C   0  0  2  0  0  0  0  0  0  0  0  0
  144.3295  132.1324  150.7330 O   0  0  0  0  0  0  0  0  0  0  0  0
  144.9649  132.5053  151.9209 C   0  0  1  0  0  0  0  0  0  0  0  0
  146.0186  131.4926  152.2590 N   0  0  0  0  0  0  0  0  0  0  0  0
  146.2199  130.3050  151.6523 C   0  0  0  0  0  0  0  0  0  0  0  0
  147.2134  129.5419  152.1048 N   0  0  0  0  0  0  0  0  0  0  0  0
  147.7221  130.3287  153.1247 C   0  0  0  0  0  0  0  0  0  0  0  0
  148.7892  130.1420  154.0370 C   0  0  0  0  0  0  0  0  0  0  0  0
  149.7445  128.7052  154.0054 Cl  0  0  0  0  0  0  0  0  0  0  0  0
  149.0447  131.1181  154.9400 N   0  0  0  0  0  0  0  0  0  0  0  0
  148.2877  132.2219  154.9430 C   0  0  0  0  0  0  0  0  0  0  0  0
  147.2569  132.5349  154.1504 N   0  0  0  0  0  0  0  0  0  0  0  0
  146.9986  131.5505  153.2399 C   0  0  0  0  0  0  0  0  0  0  0  0
  145.5206  133.9306  151.7298 C   0  0  1  0  0  0  0  0  0  0  0  0
  146.9160  133.9725  151.4735 O   0  0  0  0  0  0  0  0  0  0  0  0
  144.6874  134.4078  150.5476 C   0  0  1  0  0  0  0  0  0  0  0  0
  145.2973  135.4593  149.8229 O   0  0  0  0  0  0  0  0  0  0  0  0
  145.4308  132.9285  149.1692 H   0  0  0  0  0  0  0  0  0  0  0  0
  144.2452  132.4390  152.7379 H   0  0  0  0  0  0  0  0  0  0  0  0
  145.3215  134.5223  152.6240 H   0  0  0  0  0  0  0  0  0  0  0  0
  143.7147  134.7447  150.9096 H   0  0  0  0  0  0  0  0  0  0  0  0
  144.3644  134.3853  147.7579 H   0  0  0  0  0  0  0  0  0  0  0  0
  142.3926  133.3836  149.3645 H   0  0  0  0  0  0  0  0  0  0  0  0
  143.1386  132.1882  148.3161 H   0  0  0  0  0  0  0  0  0  0  0  0
  145.5982  129.9795  150.8309 H   0  0  0  0  0  0  0  0  0  0  0  0
  148.5437  132.9610  155.6875 H   0  0  0  0  0  0  0  0  0  0  0  0
  147.2432  134.8227  151.7242 H   0  0  0  0  0  0  0  0  0  0  0  0
  145.3401  135.2109  148.9123 H   0  0  0  0  0  0  0  0  0  0  0  0
  1  2  1  0  0  0  0
  1 24  1  0  0  0  0
  2  3  1  0  0  0  0
  2 25  1  0  0  0  0
  2 26  1  0  0  0  0
  3 20  1  0  0  0  0
  3 18  1  0  0  0  0
  3  4  1  0  0  0  0
  4  5  1  0  0  0  0
  5 21  1  0  0  0  0
  5  6  1  0  0  0  0
  5 16  1  0  0  0  0
  6 15  1  0  0  0  0
  6  7  1  0  0  0  0
  7  8  2  0  0  0  0
  7 27  1  0  0  0  0
  8  9  1  0  0  0  0
  9 15  2  0  0  0  0
  9 10  1  0  0  0  0
 10 11  1  0  0  0  0
 10 12  2  0  0  0  0
 12 13  1  0  0  0  0
 13 14  2  0  0  0  0
 13 28  1  0  0  0  0
 14 15  1  0  0  0  0
 16 22  1  0  0  0  0
 16 17  1  0  0  0  0
 16 18  1  0  0  0  0
 17 29  1  0  0  0  0
 18 23  1  0  0  0  0
 18 19  1  0  0  0  0
 19 30  1  0  0  0  0
M  END
> <s_m_source_file>
AV-unprocessed.smi

> <i_m_source_file_index>
48

> <i_lp_mmshare_version>
43012

> <i_f3d_flags>
0

> <s_epik_input>
W09IXVtDSDJdW0NASF0xT1tDQEhdKFtDQEhdKFtPSF0pW0NAQEhdMVtPSF0pbihbY0hdbjIpYyhjMjMpbltjSF1uYzNDbA==

> <s_epik_cmdline>
J2VwaWtfcHl0aG9uJywgJy1waCcsICc3LjAnLCAnLXRuJywgJzgnLCAnLW1hJywgJzIwMCcsICctbWV0YWxfYmluZGluZycsICctaW1hZScsICc8aW5maWxlLm1hZT4nLCAnLW9tYWUnLCAnPG91dGZpbGUubWFlPic=

> <r_lp_tautomer_probability>
1

> <r_epik_Ionization_Penalty>
3.45505e-06

> <r_epik_Ionization_Penalty_Charging>
0

> <r_epik_Ionization_Penalty_Neutral>
3.45505e-06

> <r_epik_State_Penalty>
-0

> <r_epik_Charging_Adjusted_Penalty>
0

> <i_epik_Tot_Q>
0

> <i_epik_Tot_abs_Q>
0

> <r_epik_Metal_State_Penalty>
-0

> <b_epik_Metal_Only>
0

> <s_epik_Chemistry_Notes>
This compound contains an acetal/aminal-like group ( X-CH(R)-Y where X, Y are N, S, or O) that may be acid/base labile, releasing an aldehyde.

> <s_lp_Force_Field>
OPLS_2005

> <r_lp_Energy>
44.1755

> <b_lp_Chiralities_Consistent>
1

> <s_lp_Variant>
AV-unprocessed.smi:48-14

> <Gold.Version>
5.8.1

> <Gold.Id.Protein>
6NUR|6NUR_protein|mol2

> <Gold.PLP.Fitness>
39.9497

> <Gold.PLP.PLP>
-29.6527

> <Gold.PLP.part.hbond>
-5.6106

> <Gold.PLP.part.metal>
0.0000

> <Gold.PLP.part.buried>
-1.1543

> <Gold.PLP.part.nonpolar>
-22.5394

> <Gold.PLP.part.repulsive>
1.6916

> <Gold.PLP.ligand.clash>
0.0393

> <Gold.PLP.ligand.torsion>
0.1731

> <Gold.PLP.Chemscore.Hbond>
3.5580

> <Gold.PLP.Chemscore.CHOScore>
0.0000

> <Gold.PLP.Chemscore.Metal>
0.0000

> <Gold.Chemscore.Hbonds>
donor molecule, donor type, donor heavy atom, donor atom, acceptor molecule, acceptor atom, score
      L1  H     1    24       P1  7921  1.00
      L1  H    17    29       P1  7948  0.61
      L1  H    19    30       P1  7921  1.00
      P1  H 10192 10197       L1     1  1.00

> <Gold.PLP.Chemscore.Internal.Correction>
0.0086

> <Gold.Rescore>
     Score         DG    S(hbond)    S(metal)    S(lipo)     H(rot)  DE(clash)    DE(int)     intcor
     10.00     -13.51       3.70        0.00      46.17       3.80       2.55       0.96       ----

> <Gold.Chemscore.Fitness>
9.9989

> <Gold.Chemscore.DG>
-13.5085

> <Gold.Chemscore.ZeroCoef>
-5.4800

> <Gold.Chemscore.Hbond>
3.7004

> <Gold.Chemscore.Metal>
0.0000

> <Gold.Chemscore.Lipo>
46.1658

> <Gold.Chemscore.Internal_Hbond>
0.0000

> <Gold.Chemscore.DEClash>
2.5496

> <Gold.Chemscore.DEInternal>
0.9599

> <Gold.Chemscore.Rot>
3.8017

> <Gold.Chemscore.Internal.Correction>
   9.000000E+99

> <Gold.Chemscore.Hbonds>
donor molecule, donor type, donor heavy atom, donor atom, acceptor molecule, acceptor atom, score
      L1  H     1    24       P1  7921  1.00
      L1  H    17    29       P1  7948  0.46
      L1  H    19    30       P1  7921  0.92
      P1  H 10192 10197       L1     1  0.99

> <Gold.Chemscore.Hbond.Weighted>
-12.3595

> <Gold.Chemscore.Metal.Weighted>
-0.0000

> <Gold.Chemscore.Lipo.Weighted>
-5.4014

> <Gold.Chemscore.Internal_Hbond.Weighted>
0.0000

> <Gold.Chemscore.DEClash.Weighted>
2.5496

> <Gold.Chemscore.DEInternal.Weighted>
0.9599

> <Gold.Chemscore.Rot.Weighted>
9.7324

> <Gold.Chemscore.Internal.Correction.Weighted>
   9.000000E+99

> <Gold.Protein.RotatedTorsions>
[ 6907 6896 6895 6894 ] final  -99.77 input  -60.11 | X-H torsion
[ 7974 7965 7964 7962 ] final -108.02 input  175.53 | X-H torsion
[ 8008 7997 7996 7995 ] final  -75.80 input   59.86 | X-H torsion
[ 10167 10162 10161 10158 ] final  109.16 input  -65.29 | X-H torsion
[ 10718 10713 10712 10709 ] final  -83.02 input   66.30 | X-H torsion
[ 10763 10752 10751 10750 ] final   64.93 input  -60.55 | X-H torsion
[ 11005 11000 10999 10996 ] final  171.68 input  -57.11 | X-H torsion

> <Gold.Protein.ActiveResidues>
 VAL166  LYS551  ARG553  GLY616  TRP617  ASP618  TYR619  PRO620  LYS621  CYS622 
 ASP623  PHE694  ASN695  SER759  ASP760  ASP761  ALA762  ILE779  LEU786  VAL792 
 PHE793  MET794  SER795  GLU796  ALA797  LYS798  CYS799  TRP800  GLU811  SER814 

> <Gold.Protein.RotatedAtoms>
  150.7092  134.0989  159.3958 H   0  0  0  0  0  0  0  0  0  0  0  0  # atno 6907 bound_to 6896
  151.8975  135.0389  160.0513 H   0  0  0  0  0  0  0  0  0  0  0  0  # atno 6908 bound_to 6896
  152.2441  133.5124  159.5324 H   0  0  0  0  0  0  0  0  0  0  0  0  # atno 6909 bound_to 6896
  145.1981  140.9044  143.3385 H   0  0  0  0  0  0  0  0  0  0  0  0  # atno 7974 bound_to 7965
  154.5449  140.0738  156.8572 H   0  0  0  0  0  0  0  0  0  0  0  0  # atno 8008 bound_to 7997
  155.3107  140.3390  155.4226 H   0  0  0  0  0  0  0  0  0  0  0  0  # atno 8009 bound_to 7997
  156.1908  140.1685  156.8081 H   0  0  0  0  0  0  0  0  0  0  0  0  # atno 8010 bound_to 7997
  139.6788  144.7120  151.1553 H   0  0  0  0  0  0  0  0  0  0  0  0  # atno 10167 bound_to 10162
  156.0024  130.4652  150.4194 H   0  0  0  0  0  0  0  0  0  0  0  0  # atno 10718 bound_to 10713
  153.0075  135.5375  154.6587 H   0  0  0  0  0  0  0  0  0  0  0  0  # atno 10763 bound_to 10752
  154.5801  135.2849  155.0743 H   0  0  0  0  0  0  0  0  0  0  0  0  # atno 10764 bound_to 10752
  154.1875  135.6506  153.5103 H   0  0  0  0  0  0  0  0  0  0  0  0  # atno 10765 bound_to 10752
  140.3216  134.7432  157.4068 H   0  0  0  0  0  0  0  0  0  0  0  0  # atno 11005 bound_to 11000
  144.9975  139.3630  143.6184 LP  0  0  0  0  0  0  0  0  0  0  0  0  # atno 17320 bound_to 7965
  146.3423  139.9184  142.8770 LP  0  0  0  0  0  0  0  0  0  0  0  0  # atno 17321 bound_to 7965
  140.7645  143.5730  150.8975 LP  0  0  0  0  0  0  0  0  0  0  0  0  # atno 17342 bound_to 10162
  139.9401  143.6392  152.3056 LP  0  0  0  0  0  0  0  0  0  0  0  0  # atno 17343 bound_to 10162
  157.2251  131.0491  151.2524 LP  0  0  0  0  0  0  0  0  0  0  0  0  # atno 17370 bound_to 10713
  157.3763  130.7208  149.6599 LP  0  0  0  0  0  0  0  0  0  0  0  0  # atno 17371 bound_to 10713
  140.0937  134.5567  155.8419 LP  0  0  0  0  0  0  0  0  0  0  0  0  # atno 17394 bound_to 11000
  141.2085  133.6674  156.6376 LP  0  0  0  0  0  0  0  0  0  0  0  0  # atno 17395 bound_to 11000

$$$$
