AV-unprocessed.smi:716|AV-procd|sdf|3489|dock1
  -GOLD-   22720 0483D 1   1.00000     0.00000
 Structure written by MMmdl.
 48 50  0  0  0  0  0  0  0  0  1 V2000
  143.2176  142.0615  155.8335 C   0  0  0  0  0  0  0  0  0  0  0  0
  143.9348  141.0725  156.7549 C   0  0  0  0  0  0  0  0  0  0  0  0
  144.8982  140.3587  155.9979 O   0  0  0  0  0  0  0  0  0  0  0  0
  145.7948  141.2079  155.2929 C   0  0  1  0  0  0  0  0  0  0  0  0
  146.6839  142.0190  156.2453 C   0  0  0  0  0  0  0  0  0  0  0  0
  147.6534  140.8358  156.2055 C   0  0  2  0  0  0  0  0  0  0  0  0
  149.0484  141.2579  156.1900 N   0  0  0  0  0  0  0  0  0  0  0  0
  149.7743  141.5142  157.2874 C   0  0  0  0  0  0  0  0  0  0  0  0
  149.3038  141.5078  158.4253 O   0  0  0  0  0  0  0  0  0  0  0  0
  151.2604  141.8150  157.0602 C   0  0  0  0  0  0  0  0  0  0  0  0
  151.9827  141.9485  158.3322 N   0  0  0  0  0  0  0  0  0  0  0  0
  151.7083  143.1294  159.0042 N   0  0  0  0  0  0  0  0  0  0  0  0
  152.3060  143.4220  160.1117 C   0  0  0  0  0  0  0  0  0  0  0  0
  151.9623  144.7309  160.7592 C   0  0  0  0  0  0  0  0  0  0  0  0
  153.2665  142.4906  160.6717 C   0  0  0  0  0  0  0  0  0  0  0  0
  153.5292  141.3385  160.0183 C   0  0  0  0  0  0  0  0  0  0  0  0
  152.8733  141.0030  158.7559 C   0  0  0  0  0  0  0  0  0  0  0  0
  153.1064  139.9697  158.1296 O   0  0  0  0  0  0  0  0  0  0  0  0
  147.0721  140.4711  154.8147 C   0  0  0  0  0  0  0  0  0  0  0  0
  147.7243  141.0380  153.5459 C   0  0  0  0  0  0  0  0  0  0  0  0
  147.1295  140.2744  152.3599 C   0  0  0  0  0  0  0  0  0  0  0  0
  146.6191  138.9503  152.9374 C   0  0  0  0  0  0  0  0  0  0  0  0
  146.9478  138.9975  154.4318 C   0  0  0  0  0  0  0  0  0  0  0  0
  142.4692  142.6332  156.3827 H   0  0  0  0  0  0  0  0  0  0  0  0
  142.7110  141.5415  155.0200 H   0  0  0  0  0  0  0  0  0  0  0  0
  143.9218  142.7680  155.3934 H   0  0  0  0  0  0  0  0  0  0  0  0
  144.4235  141.6093  157.5693 H   0  0  0  0  0  0  0  0  0  0  0  0
  143.2109  140.3881  157.1989 H   0  0  0  0  0  0  0  0  0  0  0  0
  145.3112  141.7943  154.5094 H   0  0  0  0  0  0  0  0  0  0  0  0
  147.0785  142.9262  155.7836 H   0  0  0  0  0  0  0  0  0  0  0  0
  146.2573  142.2215  157.2279 H   0  0  0  0  0  0  0  0  0  0  0  0
  147.4181  140.0902  156.9689 H   0  0  0  0  0  0  0  0  0  0  0  0
  149.5074  141.2984  155.2914 H   0  0  0  0  0  0  0  0  0  0  0  0
  151.7155  141.0163  156.4708 H   0  0  0  0  0  0  0  0  0  0  0  0
  151.3466  142.7131  156.4469 H   0  0  0  0  0  0  0  0  0  0  0  0
  152.6062  144.9288  161.6164 H   0  0  0  0  0  0  0  0  0  0  0  0
  150.9295  144.7302  161.1088 H   0  0  0  0  0  0  0  0  0  0  0  0
  152.0814  145.5562  160.0561 H   0  0  0  0  0  0  0  0  0  0  0  0
  153.7618  142.7236  161.6029 H   0  0  0  0  0  0  0  0  0  0  0  0
  154.2446  140.6459  160.4363 H   0  0  0  0  0  0  0  0  0  0  0  0
  147.5771  142.1132  153.4391 H   0  0  0  0  0  0  0  0  0  0  0  0
  148.8015  140.8685  153.5576 H   0  0  0  0  0  0  0  0  0  0  0  0
  146.2996  140.8341  151.9270 H   0  0  0  0  0  0  0  0  0  0  0  0
  147.8692  140.1212  151.5732 H   0  0  0  0  0  0  0  0  0  0  0  0
  145.5406  138.8757  152.7926 H   0  0  0  0  0  0  0  0  0  0  0  0
  147.0772  138.0868  152.4541 H   0  0  0  0  0  0  0  0  0  0  0  0
  147.8981  138.4911  154.6047 H   0  0  0  0  0  0  0  0  0  0  0  0
  146.2036  138.4612  155.0204 H   0  0  0  0  0  0  0  0  0  0  0  0
  1  2  1  0  0  0  0
  1 24  1  0  0  0  0
  1 25  1  0  0  0  0
  1 26  1  0  0  0  0
  2  3  1  0  0  0  0
  2 27  1  0  0  0  0
  2 28  1  0  0  0  0
  3  4  1  0  0  0  0
  4 19  1  0  0  0  0
  4  5  1  0  0  0  0
  4 29  1  0  0  0  0
  5  6  1  0  0  0  0
  5 30  1  0  0  0  0
  5 31  1  0  0  0  0
  6  7  1  0  0  0  0
  6 19  1  0  0  0  0
  6 32  1  0  0  0  0
  7  8  1  0  0  0  0
  7 33  1  0  0  0  0
  8  9  2  0  0  0  0
  8 10  1  0  0  0  0
 10 11  1  0  0  0  0
 10 34  1  0  0  0  0
 10 35  1  0  0  0  0
 11 17  1  0  0  0  0
 11 12  1  0  0  0  0
 12 13  2  0  0  0  0
 13 14  1  0  0  0  0
 13 15  1  0  0  0  0
 14 36  1  0  0  0  0
 14 37  1  0  0  0  0
 14 38  1  0  0  0  0
 15 16  2  0  0  0  0
 15 39  1  0  0  0  0
 16 17  1  0  0  0  0
 16 40  1  0  0  0  0
 17 18  2  0  0  0  0
 19 23  1  0  0  0  0
 19 20  1  0  0  0  0
 20 21  1  0  0  0  0
 20 41  1  0  0  0  0
 20 42  1  0  0  0  0
 21 22  1  0  0  0  0
 21 43  1  0  0  0  0
 21 44  1  0  0  0  0
 22 23  1  0  0  0  0
 22 45  1  0  0  0  0
 22 46  1  0  0  0  0
 23 47  1  0  0  0  0
 23 48  1  0  0  0  0
M  END
> <s_m_source_file>
AV-unprocessed.smi

> <i_m_source_file_index>
716

> <i_lp_mmshare_version>
43012

> <i_f3d_flags>
0

> <s_epik_input>
W0NIMl0xW0NIMl1bQ0gyXVtDSDJdQzEyW0NASF0oT1tDSDJdW0NIM10pW0NIMl1bQ0BIXTJbTkhdQyg9TylbQ0gyXW4zbmMoW0NIM10pW2NIXVtjSF1jMz1P

> <s_epik_cmdline>
J2VwaWtfcHl0aG9uJywgJy1waCcsICc3LjAnLCAnLXRuJywgJzgnLCAnLW1hJywgJzIwMCcsICctbWV0YWxfYmluZGluZycsICctaW1hZScsICc8aW5maWxlLm1hZT4nLCAnLW9tYWUnLCAnPG91dGZpbGUubWFlPic=

> <r_lp_tautomer_probability>
1

> <r_epik_Ionization_Penalty>
4.75561e-08

> <r_epik_Ionization_Penalty_Charging>
2.86617e-08

> <r_epik_Ionization_Penalty_Neutral>
1.88944e-08

> <r_epik_State_Penalty>
-0

> <r_epik_Charging_Adjusted_Penalty>
2.86617e-08

> <i_epik_Tot_Q>
0

> <i_epik_Tot_abs_Q>
0

> <r_epik_Metal_State_Penalty>
-0

> <b_epik_Metal_Only>
0

> <s_lp_Force_Field>
OPLS_2005

> <r_lp_Energy>
50.6956

> <b_lp_Chiralities_Consistent>
1

> <s_lp_Variant>
AV-unprocessed.smi:716-4

> <Gold.Version>
5.8.1

> <Gold.Id.Protein>
6NUR|6NUR_protein|mol2

> <Gold.PLP.Fitness>
37.3900

> <Gold.PLP.PLP>
-34.9505

> <Gold.PLP.part.hbond>
-1.0000

> <Gold.PLP.part.metal>
0.0000

> <Gold.PLP.part.buried>
-1.9692

> <Gold.PLP.part.nonpolar>
-31.3812

> <Gold.PLP.part.repulsive>
0.2295

> <Gold.PLP.ligand.clash>
0.0000

> <Gold.PLP.ligand.torsion>
0.4487

> <Gold.PLP.Chemscore.Hbond>
0.9760

> <Gold.PLP.Chemscore.CHOScore>
0.0000

> <Gold.PLP.Chemscore.Metal>
0.0000

> <Gold.Chemscore.Hbonds>
donor molecule, donor type, donor heavy atom, donor atom, acceptor molecule, acceptor atom, score
      P1  H  7997  8009       L1    18  1.00

> <Gold.PLP.Chemscore.Internal.Correction>
0.4089

> <Gold.Rescore>
     Score         DG    S(hbond)    S(metal)    S(lipo)     H(rot)  DE(clash)    DE(int)     intcor
     12.27     -14.56       0.88        0.00      90.60       1.73       0.76       1.54       ----

> <Gold.Chemscore.Fitness>
12.2655

> <Gold.Chemscore.DG>
-14.5630

> <Gold.Chemscore.ZeroCoef>
-5.4800

> <Gold.Chemscore.Hbond>
0.8753

> <Gold.Chemscore.Metal>
0.0000

> <Gold.Chemscore.Lipo>
90.6048

> <Gold.Chemscore.Internal_Hbond>
0.0000

> <Gold.Chemscore.DEClash>
0.7555

> <Gold.Chemscore.DEInternal>
1.5420

> <Gold.Chemscore.Rot>
1.7348

> <Gold.Chemscore.Internal.Correction>
   9.000000E+99

> <Gold.Chemscore.Hbonds>
donor molecule, donor type, donor heavy atom, donor atom, acceptor molecule, acceptor atom, score
      P1  H  7997  8009       L1    18  0.85

> <Gold.Chemscore.Hbond.Weighted>
-2.9234

> <Gold.Chemscore.Metal.Weighted>
-0.0000

> <Gold.Chemscore.Lipo.Weighted>
-10.6008

> <Gold.Chemscore.Internal_Hbond.Weighted>
0.0000

> <Gold.Chemscore.DEClash.Weighted>
0.7555

> <Gold.Chemscore.DEInternal.Weighted>
1.5420

> <Gold.Chemscore.Rot.Weighted>
4.4411

> <Gold.Chemscore.Internal.Correction.Weighted>
   9.000000E+99

> <Gold.Protein.RotatedTorsions>
[ 6907 6896 6895 6894 ] final  130.33 input  -60.11 | X-H torsion
[ 7974 7965 7964 7962 ] final   10.19 input  175.53 | X-H torsion
[ 8008 7997 7996 7995 ] final  150.84 input   59.86 | X-H torsion
[ 10167 10162 10161 10158 ] final -113.11 input  -65.29 | X-H torsion
[ 10718 10713 10712 10709 ] final  -70.52 input   66.30 | X-H torsion
[ 10763 10752 10751 10750 ] final  -66.79 input  -60.55 | X-H torsion
[ 11005 11000 10999 10996 ] final  127.86 input  -57.11 | X-H torsion

> <Gold.Protein.ActiveResidues>
 VAL166  LYS551  ARG553  GLY616  TRP617  ASP618  TYR619  PRO620  LYS621  CYS622 
 ASP623  PHE694  ASN695  SER759  ASP760  ASP761  ALA762  ILE779  LEU786  VAL792 
 PHE793  MET794  SER795  GLU796  ALA797  LYS798  CYS799  TRP800  GLU811  SER814 

> <Gold.Protein.RotatedAtoms>
  152.3536  133.6210  159.5962 H   0  0  0  0  0  0  0  0  0  0  0  0  # atno 6907 bound_to 6896
  150.7554  133.9535  159.3502 H   0  0  0  0  0  0  0  0  0  0  0  0  # atno 6908 bound_to 6896
  151.7383  135.0861  160.0362 H   0  0  0  0  0  0  0  0  0  0  0  0  # atno 6909 bound_to 6896
  146.2392  139.9671  142.8451 H   0  0  0  0  0  0  0  0  0  0  0  0  # atno 7974 bound_to 7965
  156.2699  140.2064  156.6081 H   0  0  0  0  0  0  0  0  0  0  0  0  # atno 8008 bound_to 7997
  154.6853  140.0536  157.0332 H   0  0  0  0  0  0  0  0  0  0  0  0  # atno 8009 bound_to 7997
  155.0942  140.3199  155.4568 H   0  0  0  0  0  0  0  0  0  0  0  0  # atno 8010 bound_to 7997
  140.1154  143.4490  152.1725 H   0  0  0  0  0  0  0  0  0  0  0  0  # atno 10167 bound_to 10162
  156.0404  130.4333  150.2308 H   0  0  0  0  0  0  0  0  0  0  0  0  # atno 10718 bound_to 10713
  154.3650  135.6107  153.5710 H   0  0  0  0  0  0  0  0  0  0  0  0  # atno 10763 bound_to 10752
  152.9792  135.5824  154.4589 H   0  0  0  0  0  0  0  0  0  0  0  0  # atno 10764 bound_to 10752
  154.4333  135.2848  155.1875 H   0  0  0  0  0  0  0  0  0  0  0  0  # atno 10765 bound_to 10752
  139.9530  134.9618  156.8917 H   0  0  0  0  0  0  0  0  0  0  0  0  # atno 11005 bound_to 11000
  145.1716  140.9723  143.4318 LP  0  0  0  0  0  0  0  0  0  0  0  0  # atno 17320 bound_to 7965
  145.0023  139.3586  143.6161 LP  0  0  0  0  0  0  0  0  0  0  0  0  # atno 17321 bound_to 7965
  139.5597  144.7397  151.4191 LP  0  0  0  0  0  0  0  0  0  0  0  0  # atno 17342 bound_to 10162
  140.6902  143.7879  150.7244 LP  0  0  0  0  0  0  0  0  0  0  0  0  # atno 17343 bound_to 10162
  157.0403  131.0033  151.3285 LP  0  0  0  0  0  0  0  0  0  0  0  0  # atno 17370 bound_to 10713
  157.5214  130.8000  149.7813 LP  0  0  0  0  0  0  0  0  0  0  0  0  # atno 17371 bound_to 10713
  140.5675  134.0475  155.7419 LP  0  0  0  0  0  0  0  0  0  0  0  0  # atno 17394 bound_to 11000
  141.1196  133.9483  157.2755 LP  0  0  0  0  0  0  0  0  0  0  0  0  # atno 17395 bound_to 11000

$$$$
