#       Name:                AV-unprocessed.smi:1507
#       Creating user name   scv26
#       Creation time:       Fri Mar 27 06:20:50 2020


#       File generated by GOLD software.
#

@<TRIPOS>MOLECULE
AV-unprocessed.smi:1507
    38    39     1
SMALL
NO_CHARGES


@<TRIPOS>ATOM
      1 ****        -2.5489   2.7316   1.7401 N.pl3          1 S1                -1.0000
      2 ****        -2.0524   4.1914   1.2457 S.o2           1 S1                 0.0000
      3 ****        -2.9610   5.2240   1.7654 O.2            1 S1                 0.0000
      4 ****        -0.6245   4.3992   1.5456 O.2            1 S1                 0.0000
      5 ****        -2.3455   3.9426  -0.3420 N.pl3          1 S1                -1.0000
      6 ****        -1.3167   3.4915  -1.2776 C.3            1 S1                 0.0000
      7 ****        -0.8151   2.0876  -0.9671 C.ar           1 S1                 0.0000
      8 ****        -1.6086   0.9539  -1.2534 C.ar           1 S1                 0.0000
      9 ****        -1.1312  -0.3306  -0.9200 C.ar           1 S1                 0.0000
     10 ****         0.1351  -0.4767  -0.3033 C.ar           1 S1                 0.0000
     11 ****         0.6584  -1.7363   0.0624 N.3            1 S1                 0.0000
     12 ****         1.9094  -1.7623   0.8183 C.3            1 S1                 0.0000
     13 ****         2.1698  -3.1700   1.3791 C.3            1 S1                 0.0000
     14 ****         2.1442  -4.1189   0.3187 O.3            1 S1                 0.0000
     15 ****         0.8740  -4.1609  -0.3219 C.3            1 S1                 0.0000
     16 ****         0.5587  -2.7900  -0.9446 C.3            1 S1                 0.0000
     17 ****         0.8576   0.6427  -0.0499 N.pl3          1 S1                 1.0000
     18 ****         0.4405   1.8916  -0.3520 C.ar           1 S1                 0.0000
     19 ****        -1.7208   2.1765   1.9859 H              1 S1                 0.0000
     20 ****        -1.6963   3.4793  -2.2999 H              1 S1                 0.0000
     21 ****        -0.4639   4.1708  -1.3018 H              1 S1                 0.0000
     22 ****        -2.5852   1.0530  -1.7074 H              1 S1                 0.0000
     23 ****        -1.7592  -1.1848  -1.1211 H              1 S1                 0.0000
     24 ****         2.7306  -1.4613   0.1664 H              1 S1                 0.0000
     25 ****         1.8690  -1.0511   1.6443 H              1 S1                 0.0000
     26 ****         3.1446  -3.2058   1.8653 H              1 S1                 0.0000
     27 ****         1.4276  -3.4317   2.1351 H              1 S1                 0.0000
     28 ****         0.8925  -4.9284  -1.0956 H              1 S1                 0.0000
     29 ****         0.1025  -4.4497   0.3937 H              1 S1                 0.0000
     30 ****        -0.4327  -2.8301  -1.3926 H              1 S1                 0.0000
     31 ****         1.2634  -2.5748  -1.7489 H              1 S1                 0.0000
     32 ****         1.1180   2.6870  -0.0722 H              1 S1                 0.0000
     33 ****         1.7650   0.5405   0.4040 H              1 S1                 0.0000
     34 ****        -3.4986   2.4237   1.7964 LP             1 S1                 0.0000
     35 ****        -3.2690   4.1060  -0.6891 LP             1 S1                 0.0000
     36 ****        -0.0152  -1.9834   0.7590 LP             1 S1                 0.0000
     37 ****         2.3499  -5.0245   0.6896 LP             1 S1                 0.0000
     38 ****         2.8390  -3.8694  -0.3559 LP             1 S1                 0.0000
@<TRIPOS>BOND
    1    1    2 1     
    2    1   19 1     
    3    2    3 2     
    4    2    4 2     
    5    2    5 1     
    6    5    6 1     
    7    6    7 1     
    8    6   20 1     
    9    6   21 1     
   10    7   18 ar    
   11    7    8 ar    
   12    8    9 ar    
   13    8   22 1     
   14    9   10 ar    
   15    9   23 1     
   16   10   11 1     
   17   10   17 ar    
   18   11   16 1     
   19   11   12 1     
   20   12   13 1     
   21   12   24 1     
   22   12   25 1     
   23   13   14 1     
   24   13   26 1     
   25   13   27 1     
   26   14   15 1     
   27   15   16 1     
   28   15   28 1     
   29   15   29 1     
   30   16   30 1     
   31   16   31 1     
   32   17   18 ar    
   33   17   33 1     
   34   18   32 1     
   35    1   34 1     
   36    5   35 1     
   37   11   36 1     
   38   14   37 1     
   39   14   38 1     
@<TRIPOS>SUBSTRUCTURE
      1 S1             1
@<TRIPOS>SET
LONE_PAIRS      STATIC     ATOMS    <user>   **** ""
7 34 3 4 35 36 37 38
DONOR_HYDROGENS      STATIC     ATOMS    <user>   **** ""
2 19 33
ATOM$BLUE        STATIC     ATOMS    COLORGROUP SYSTEM
7 34 3 4 35 36 37 38
ATOM$RED        STATIC     ATOMS    COLORGROUP SYSTEM
2 19 33
