AV-unprocessed.smi:1667|AV-procd|sdf|6680|dock7
  -GOLD-   22720 7393D 1   1.00000     0.00000
 Structure written by MMmdl.
 46 48  0  0  0  0  0  0  0  0  2 V2000
  148.0222  132.8102  152.4007 C   0  0  0  0  0  0  0  0  0  0  0  0
  147.9314  133.2771  153.8490 C   0  0  0  0  0  0  0  0  0  0  0  0
  147.8896  132.4540  154.7612 O   0  0  0  0  0  0  0  0  0  0  0  0
  147.9075  134.6039  154.0471 N   0  0  0  0  0  0  0  0  0  0  0  0
  147.7784  135.2676  155.3433 C   0  0  2  0  0  0  0  0  0  0  0  0
  146.3760  135.8827  155.4536 C   0  0  0  0  0  0  0  0  0  0  0  0
  148.8291  136.3159  155.5849 C   0  0  0  0  0  0  0  0  0  0  0  0
  149.6335  136.8837  154.6396 N   0  3  0  0  0  0  0  0  0  0  0  0
  150.4628  137.8365  155.2291 C   0  0  0  0  0  0  0  0  0  0  0  0
  151.4393  138.6603  154.6781 C   0  0  0  0  0  0  0  0  0  0  0  0
  152.1006  139.5367  155.5634 C   0  0  0  0  0  0  0  0  0  0  0  0
  151.7805  139.5727  156.9361 C   0  0  0  0  0  0  0  0  0  0  0  0
  150.7885  138.7317  157.4825 C   0  0  0  0  0  0  0  0  0  0  0  0
  150.1440  137.8636  156.6013 C   0  0  0  0  0  0  0  0  0  0  0  0
  149.1385  136.9060  156.7778 N   0  0  0  0  0  0  0  0  0  0  0  0
  148.5766  136.7028  158.1235 C   0  0  0  0  0  0  0  0  0  0  0  0
  148.3953  135.2161  158.4943 C   0  0  1  0  0  0  0  0  0  0  0  0
  149.6050  134.5477  158.2053 O   0  0  0  0  0  0  0  0  0  0  0  0
  147.9644  135.0123  159.9393 C   0  0  0  0  0  0  0  0  0  0  0  0
  147.7673  133.7122  160.4549 C   0  0  0  0  0  0  0  0  0  0  0  0
  147.3564  133.5330  161.7901 C   0  0  0  0  0  0  0  0  0  0  0  0
  147.1347  134.6521  162.6152 C   0  0  0  0  0  0  0  0  0  0  0  0
  147.3322  135.9506  162.1072 C   0  0  0  0  0  0  0  0  0  0  0  0
  147.1260  137.0275  162.9017 F   0  0  0  0  0  0  0  0  0  0  0  0
  147.7499  136.1298  160.7743 C   0  0  0  0  0  0  0  0  0  0  0  0
  147.8770  134.5030  156.1145 H   0  0  0  0  0  0  0  0  0  0  0  0
  148.8001  133.3568  151.8669 H   0  0  0  0  0  0  0  0  0  0  0  0
  147.0722  132.9733  151.8913 H   0  0  0  0  0  0  0  0  0  0  0  0
  148.2589  131.7466  152.3513 H   0  0  0  0  0  0  0  0  0  0  0  0
  147.9473  135.2017  153.2342 H   0  0  0  0  0  0  0  0  0  0  0  0
  146.2155  136.3336  156.4330 H   0  0  0  0  0  0  0  0  0  0  0  0
  145.6029  135.1267  155.3121 H   0  0  0  0  0  0  0  0  0  0  0  0
  146.2234  136.6597  154.7037 H   0  0  0  0  0  0  0  0  0  0  0  0
  151.6828  138.6374  153.6259 H   0  0  0  0  0  0  0  0  0  0  0  0
  152.8662  140.1964  155.1814 H   0  0  0  0  0  0  0  0  0  0  0  0
  152.3056  140.2600  157.5834 H   0  0  0  0  0  0  0  0  0  0  0  0
  150.5497  138.7690  158.5352 H   0  0  0  0  0  0  0  0  0  0  0  0
  149.2394  137.1983  158.8347 H   0  0  0  0  0  0  0  0  0  0  0  0
  147.6235  137.2284  158.1806 H   0  0  0  0  0  0  0  0  0  0  0  0
  147.6423  134.7692  157.8451 H   0  0  0  0  0  0  0  0  0  0  0  0
  149.7685  134.6120  157.2765 H   0  0  0  0  0  0  0  0  0  0  0  0
  147.9317  132.8484  159.8273 H   0  0  0  0  0  0  0  0  0  0  0  0
  147.2087  132.5370  162.1809 H   0  0  0  0  0  0  0  0  0  0  0  0
  146.8186  134.5146  163.6389 H   0  0  0  0  0  0  0  0  0  0  0  0
  147.9017  137.1296  160.3949 H   0  0  0  0  0  0  0  0  0  0  0  0
  149.6150  136.6289  153.6606 H   0  0  0  0  0  0  0  0  0  0  0  0
  1  2  1  0  0  0  0
  1 27  1  0  0  0  0
  1 28  1  0  0  0  0
  1 29  1  0  0  0  0
  2  3  2  0  0  0  0
  2  4  1  0  0  0  0
  4  5  1  0  0  0  0
  4 30  1  0  0  0  0
  5 26  1  0  0  0  0
  5  6  1  0  0  0  0
  5  7  1  0  0  0  0
  6 31  1  0  0  0  0
  6 32  1  0  0  0  0
  6 33  1  0  0  0  0
  7 15  1  0  0  0  0
  7  8  2  0  0  0  0
  8  9  1  0  0  0  0
  8 46  1  0  0  0  0
  9 14  2  0  0  0  0
  9 10  1  0  0  0  0
 10 11  2  0  0  0  0
 10 34  1  0  0  0  0
 11 12  1  0  0  0  0
 11 35  1  0  0  0  0
 12 13  2  0  0  0  0
 12 36  1  0  0  0  0
 13 14  1  0  0  0  0
 13 37  1  0  0  0  0
 14 15  1  0  0  0  0
 15 16  1  0  0  0  0
 16 17  1  0  0  0  0
 16 38  1  0  0  0  0
 16 39  1  0  0  0  0
 17 18  1  0  0  0  0
 17 19  1  0  0  0  0
 17 40  1  0  0  0  0
 18 41  1  0  0  0  0
 19 25  1  0  0  0  0
 19 20  2  0  0  0  0
 20 21  1  0  0  0  0
 20 42  1  0  0  0  0
 21 22  2  0  0  0  0
 21 43  1  0  0  0  0
 22 23  1  0  0  0  0
 22 44  1  0  0  0  0
 23 24  1  0  0  0  0
 23 25  2  0  0  0  0
 25 45  1  0  0  0  0
M  CHG  1   8   1
M  END
> <s_m_source_file>
AV-unprocessed.smi

> <i_m_source_file_index>
1667

> <i_lp_mmshare_version>
43012

> <i_f3d_flags>
0

> <s_epik_input>
W0NIM11DKD1PKVtOSF1bQ0BASF0oW0NIM10pYyhuMSluKGMoYzEyKVtjSF1bY0hdW2NIXVtjSF0yKVtDSDJdW0NASF0oW09IXSljM1tjSF1bY0hdW2NIXWMoRilbY0hdMw==

> <s_epik_cmdline>
J2VwaWtfcHl0aG9uJywgJy1waCcsICc3LjAnLCAnLXRuJywgJzgnLCAnLW1hJywgJzIwMCcsICctbWV0YWxfYmluZGluZycsICctaW1hZScsICc8aW5maWxlLm1hZT4nLCAnLW9tYWUnLCAnPG91dGZpbGUubWFlPic=

> <r_epik_Ionization_Penalty>
0.950383

> <r_epik_Ionization_Penalty_Charging>
0.950379

> <r_epik_Ionization_Penalty_Neutral>
3.60962e-06

> <r_epik_State_Penalty>
0.994584

> <r_epik_Charging_Adjusted_Penalty>
1.94496

> <i_epik_Tot_Q>
1

> <i_epik_Tot_abs_Q>
1

> <r_epik_Metal_State_Penalty>
1.10485

> <b_epik_Metal_Only>
0

> <s_lp_Force_Field>
OPLS_2005

> <r_lp_Energy>
10.8153

> <b_lp_Chiralities_Consistent>
1

> <s_lp_Variant>
AV-unprocessed.smi:1667-8

> <Gold.Version>
5.8.1

> <Gold.Id.Protein>
6NUR|6NUR_protein|mol2

> <Gold.PLP.Fitness>
51.1311

> <Gold.PLP.PLP>
-40.4874

> <Gold.PLP.part.hbond>
-2.8832

> <Gold.PLP.part.metal>
0.0000

> <Gold.PLP.part.buried>
-3.7152

> <Gold.PLP.part.nonpolar>
-34.1788

> <Gold.PLP.part.repulsive>
0.0360

> <Gold.PLP.ligand.clash>
0.0000

> <Gold.PLP.ligand.torsion>
0.6882

> <Gold.PLP.Chemscore.Hbond>
3.9920

> <Gold.PLP.Chemscore.CHOScore>
0.0000

> <Gold.PLP.Chemscore.Metal>
0.0000

> <Gold.Chemscore.Hbonds>
donor molecule, donor type, donor heavy atom, donor atom, acceptor molecule, acceptor atom, score
      L1  H     4    30       P1  7948  1.00
      L1  H     8    46       P1  7948  2.00
      P1  H  6896  6909       L1    18  1.00

> <Gold.PLP.Chemscore.Internal.Correction>
0.0442

> <Gold.Rescore>
     Score         DG    S(hbond)    S(metal)    S(lipo)     H(rot)  DE(clash)    DE(int)     intcor
     17.87     -18.78       2.84        0.00      87.94       2.53       0.03       0.88       ----

> <Gold.Chemscore.Fitness>
17.8667

> <Gold.Chemscore.DG>
-18.7784

> <Gold.Chemscore.ZeroCoef>
-5.4800

> <Gold.Chemscore.Hbond>
2.8428

> <Gold.Chemscore.Metal>
0.0000

> <Gold.Chemscore.Lipo>
87.9392

> <Gold.Chemscore.Internal_Hbond>
0.0000

> <Gold.Chemscore.DEClash>
0.0317

> <Gold.Chemscore.DEInternal>
0.8800

> <Gold.Chemscore.Rot>
2.5335

> <Gold.Chemscore.Internal.Correction>
   9.000000E+99

> <Gold.Chemscore.Hbonds>
donor molecule, donor type, donor heavy atom, donor atom, acceptor molecule, acceptor atom, score
      L1  H     4    30       P1  7948  0.93
      L1  H     8    46       P1  7948  0.65
      P1  H  6896  6909       L1    18  0.97

> <Gold.Chemscore.Hbond.Weighted>
-9.4951

> <Gold.Chemscore.Metal.Weighted>
-0.0000

> <Gold.Chemscore.Lipo.Weighted>
-10.2889

> <Gold.Chemscore.Internal_Hbond.Weighted>
0.0000

> <Gold.Chemscore.DEClash.Weighted>
0.0317

> <Gold.Chemscore.DEInternal.Weighted>
0.8800

> <Gold.Chemscore.Rot.Weighted>
6.4856

> <Gold.Chemscore.Internal.Correction.Weighted>
   9.000000E+99

> <Gold.Protein.RotatedTorsions>
[ 6907 6896 6895 6894 ] final   22.08 input  -60.11 | X-H torsion
[ 7974 7965 7964 7962 ] final  106.19 input  175.53 | X-H torsion
[ 8008 7997 7996 7995 ] final  -59.37 input   59.86 | X-H torsion
[ 10167 10162 10161 10158 ] final  -37.84 input  -65.29 | X-H torsion
[ 10718 10713 10712 10709 ] final  -99.94 input   66.30 | X-H torsion
[ 10763 10752 10751 10750 ] final   91.80 input  -60.55 | X-H torsion
[ 11005 11000 10999 10996 ] final  176.75 input  -57.11 | X-H torsion

> <Gold.Protein.ActiveResidues>
 VAL166  LYS551  ARG553  GLY616  TRP617  ASP618  TYR619  PRO620  LYS621  CYS622 
 ASP623  PHE694  ASN695  SER759  ASP760  ASP761  ALA762  ILE779  LEU786  VAL792 
 PHE793  MET794  SER795  GLU796  ALA797  LYS798  CYS799  TRP800  GLU811  SER814 

> <Gold.Protein.RotatedAtoms>
  151.9216  135.0295  160.0522 H   0  0  0  0  0  0  0  0  0  0  0  0  # atno 6907 bound_to 6896
  152.2194  133.4967  159.5162 H   0  0  0  0  0  0  0  0  0  0  0  0  # atno 6908 bound_to 6896
  150.6996  134.1279  159.4101 H   0  0  0  0  0  0  0  0  0  0  0  0  # atno 6909 bound_to 6896
  145.3098  139.2544  143.3769 H   0  0  0  0  0  0  0  0  0  0  0  0  # atno 7974 bound_to 7965
  154.4349  140.1063  156.6105 H   0  0  0  0  0  0  0  0  0  0  0  0  # atno 8008 bound_to 7997
  155.5815  140.3491  155.4523 H   0  0  0  0  0  0  0  0  0  0  0  0  # atno 8009 bound_to 7997
  156.0315  140.1261  157.0242 H   0  0  0  0  0  0  0  0  0  0  0  0  # atno 8010 bound_to 7997
  140.7108  143.3316  151.2556 H   0  0  0  0  0  0  0  0  0  0  0  0  # atno 10167 bound_to 10162
  156.0148  130.5305  150.6744 H   0  0  0  0  0  0  0  0  0  0  0  0  # atno 10718 bound_to 10713
  153.2122  135.4384  155.0392 H   0  0  0  0  0  0  0  0  0  0  0  0  # atno 10763 bound_to 10752
  154.8206  135.3336  154.7052 H   0  0  0  0  0  0  0  0  0  0  0  0  # atno 10764 bound_to 10752
  153.7489  135.6999  153.5006 H   0  0  0  0  0  0  0  0  0  0  0  0  # atno 10765 bound_to 10752
  140.3766  134.6983  157.4425 H   0  0  0  0  0  0  0  0  0  0  0  0  # atno 11005 bound_to 11000
  146.3122  140.3631  142.8667 LP  0  0  0  0  0  0  0  0  0  0  0  0  # atno 17320 bound_to 7965
  144.9025  140.7660  143.5858 LP  0  0  0  0  0  0  0  0  0  0  0  0  # atno 17321 bound_to 7965
  139.6799  143.9872  152.2803 LP  0  0  0  0  0  0  0  0  0  0  0  0  # atno 17342 bound_to 10162
  139.9498  144.6627  150.8183 LP  0  0  0  0  0  0  0  0  0  0  0  0  # atno 17343 bound_to 10162
  157.4460  131.0867  151.0895 LP  0  0  0  0  0  0  0  0  0  0  0  0  # atno 17370 bound_to 10713
  157.1425  130.6149  149.5559 LP  0  0  0  0  0  0  0  0  0  0  0  0  # atno 17371 bound_to 10713
  140.0511  134.6130  155.8861 LP  0  0  0  0  0  0  0  0  0  0  0  0  # atno 17394 bound_to 11000
  141.1937  133.6580  156.5562 LP  0  0  0  0  0  0  0  0  0  0  0  0  # atno 17395 bound_to 11000

$$$$
