AV-unprocessed.smi:1870|AV-procd|sdf|7596|dock7
  -GOLD-   22720 9313D 1   1.00000     0.00000
 Structure written by MMmdl.
 48 50  0  0  0  0  0  0  0  0  2 V2000
  150.6628  144.9774  159.9886 C   0  0  0  0  0  0  0  0  0  0  0  0
  151.2792  143.6935  159.5024 C   0  0  0  0  0  0  0  0  0  0  0  0
  150.9212  143.2848  158.3294 N   0  0  0  0  0  0  0  0  0  0  0  0
  151.4403  142.1280  157.7804 N   0  0  0  0  0  0  0  0  0  0  0  0
  150.9895  141.8608  156.4068 C   0  0  0  0  0  0  0  0  0  0  0  0
  149.6729  141.0515  156.3648 C   0  0  1  0  0  0  0  0  0  0  0  0
  149.6282  140.2174  157.5044 O   0  0  0  0  0  0  0  0  0  0  0  0
  148.4119  141.9451  156.3552 C   0  0  0  0  0  0  0  0  0  0  0  0
  147.1456  141.2036  156.0989 N   0  3  2  0  0  0  0  0  0  0  0  0
  146.9508  140.7309  154.7022 C   0  0  0  0  0  0  0  0  0  0  0  0
  146.8653  141.9060  153.7120 C   0  0  0  0  0  0  0  0  0  0  0  0
  145.9626  143.0240  154.2108 C   0  0  0  0  0  0  0  0  0  0  0  0
  145.5730  144.0502  153.3262 C   0  0  0  0  0  0  0  0  0  0  0  0
  144.7782  145.1174  153.7858 C   0  0  0  0  0  0  0  0  0  0  0  0
  144.3731  145.1644  155.1332 C   0  0  0  0  0  0  0  0  0  0  0  0
  144.7605  144.1430  156.0216 C   0  0  0  0  0  0  0  0  0  0  0  0
  145.5553  143.0699  155.5683 C   0  0  0  0  0  0  0  0  0  0  0  0
  145.9496  141.9638  156.5433 C   0  0  0  0  0  0  0  0  0  0  0  0
  152.3215  141.2989  158.4098 C   0  0  0  0  0  0  0  0  0  0  0  0
  152.7430  140.2645  157.8910 O   0  0  0  0  0  0  0  0  0  0  0  0
  152.7247  141.7688  159.7367 C   0  0  0  0  0  0  0  0  0  0  0  0
  153.6716  140.9459  160.4178 C   0  0  0  0  0  0  0  0  0  0  0  0
  154.4437  140.2955  160.9840 N   0  0  0  0  0  0  0  0  0  0  0  0
  152.2397  142.9146  160.2766 C   0  0  0  0  0  0  0  0  0  0  0  0
  152.6321  143.4484  161.6473 C   0  0  0  0  0  0  0  0  0  0  0  0
  150.0363  144.7984  160.8624 H   0  0  0  0  0  0  0  0  0  0  0  0
  150.0388  145.4442  159.2251 H   0  0  0  0  0  0  0  0  0  0  0  0
  151.4335  145.6971  160.2653 H   0  0  0  0  0  0  0  0  0  0  0  0
  150.8634  142.8073  155.8778 H   0  0  0  0  0  0  0  0  0  0  0  0
  151.7656  141.3240  155.8573 H   0  0  0  0  0  0  0  0  0  0  0  0
  149.7001  140.4069  155.4889 H   0  0  0  0  0  0  0  0  0  0  0  0
  150.2232  140.5589  158.1548 H   0  0  0  0  0  0  0  0  0  0  0  0
  148.3427  142.4578  157.3159 H   0  0  0  0  0  0  0  0  0  0  0  0
  148.5047  142.7365  155.6135 H   0  0  0  0  0  0  0  0  0  0  0  0
  147.7228  140.0254  154.3995 H   0  0  0  0  0  0  0  0  0  0  0  0
  146.0175  140.1666  154.6680 H   0  0  0  0  0  0  0  0  0  0  0  0
  147.8579  142.3203  153.5295 H   0  0  0  0  0  0  0  0  0  0  0  0
  146.5010  141.5494  152.7481 H   0  0  0  0  0  0  0  0  0  0  0  0
  145.8898  144.0257  152.2935 H   0  0  0  0  0  0  0  0  0  0  0  0
  144.4829  145.9027  153.1054 H   0  0  0  0  0  0  0  0  0  0  0  0
  143.7640  145.9841  155.4852 H   0  0  0  0  0  0  0  0  0  0  0  0
  144.4408  144.1839  157.0528 H   0  0  0  0  0  0  0  0  0  0  0  0
  145.1081  141.2753  156.6311 H   0  0  0  0  0  0  0  0  0  0  0  0
  146.1111  142.3784  157.5394 H   0  0  0  0  0  0  0  0  0  0  0  0
  153.2669  142.7521  162.1947 H   0  0  0  0  0  0  0  0  0  0  0  0
  151.7484  143.6298  162.2597 H   0  0  0  0  0  0  0  0  0  0  0  0
  153.1800  144.3859  161.5465 H   0  0  0  0  0  0  0  0  0  0  0  0
  147.1892  140.3793  156.6812 H   0  0  0  0  0  0  0  0  0  0  0  0
  1  2  1  0  0  0  0
  1 26  1  0  0  0  0
  1 27  1  0  0  0  0
  1 28  1  0  0  0  0
  2 24  1  0  0  0  0
  2  3  2  0  0  0  0
  3  4  1  0  0  0  0
  4  5  1  0  0  0  0
  4 19  1  0  0  0  0
  5  6  1  0  0  0  0
  5 29  1  0  0  0  0
  5 30  1  0  0  0  0
  6  7  1  0  0  0  0
  6  8  1  0  0  0  0
  6 31  1  0  0  0  0
  7 32  1  0  0  0  0
  8  9  1  0  0  0  0
  8 33  1  0  0  0  0
  8 34  1  0  0  0  0
  9 18  1  0  0  0  0
  9 10  1  0  0  0  0
  9 48  1  0  0  0  0
 10 11  1  0  0  0  0
 10 35  1  0  0  0  0
 10 36  1  0  0  0  0
 11 12  1  0  0  0  0
 11 37  1  0  0  0  0
 11 38  1  0  0  0  0
 12 17  2  0  0  0  0
 12 13  1  0  0  0  0
 13 14  2  0  0  0  0
 13 39  1  0  0  0  0
 14 15  1  0  0  0  0
 14 40  1  0  0  0  0
 15 16  2  0  0  0  0
 15 41  1  0  0  0  0
 16 17  1  0  0  0  0
 16 42  1  0  0  0  0
 17 18  1  0  0  0  0
 18 43  1  0  0  0  0
 18 44  1  0  0  0  0
 19 20  2  0  0  0  0
 19 21  1  0  0  0  0
 21 22  1  0  0  0  0
 21 24  2  0  0  0  0
 22 23  3  0  0  0  0
 24 25  1  0  0  0  0
 25 45  1  0  0  0  0
 25 46  1  0  0  0  0
 25 47  1  0  0  0  0
M  CHG  1   9   1
M  END
> <s_m_source_file>
AV-unprocessed.smi

> <i_m_source_file_index>
1870

> <i_lp_mmshare_version>
43012

> <i_f3d_flags>
0

> <s_epik_input>
TiNDYyhjMVtDSDNdKWMoPU8pbihuYzFbQ0gzXSlbQ0gyXVtDQEhdKFtPSF0pW0NIMl1OKFtDSDJdW0NIMl0yKVtDSDJdYyhjMjMpW2NIXVtjSF1bY0hdW2NIXTM=

> <s_epik_cmdline>
J2VwaWtfcHl0aG9uJywgJy1waCcsICc3LjAnLCAnLXRuJywgJzgnLCAnLW1hJywgJzIwMCcsICctbWV0YWxfYmluZGluZycsICctaW1hZScsICc8aW5maWxlLm1hZT4nLCAnLW9tYWUnLCAnPG91dGZpbGUubWFlPic=

> <r_epik_Ionization_Penalty>
0.0122865

> <r_epik_Ionization_Penalty_Charging>
0.0122864

> <r_epik_Ionization_Penalty_Neutral>
1.48087e-07

> <r_epik_State_Penalty>
0.00950248

> <r_epik_Charging_Adjusted_Penalty>
0.0217889

> <i_epik_Tot_Q>
1

> <i_epik_Tot_abs_Q>
1

> <r_epik_Metal_State_Penalty>
0.00950248

> <b_epik_Metal_Only>
0

> <s_lp_Force_Field>
OPLS_2005

> <r_lp_Energy>
37.2352

> <b_lp_Chiralities_Consistent>
1

> <s_lp_Variant>
AV-unprocessed.smi:1870-4

> <Gold.Version>
5.8.1

> <Gold.Id.Protein>
6NUR|6NUR_protein|mol2

> <Gold.PLP.Fitness>
49.8797

> <Gold.PLP.PLP>
-48.9988

> <Gold.PLP.part.hbond>
-1.0000

> <Gold.PLP.part.metal>
0.0000

> <Gold.PLP.part.buried>
-7.1498

> <Gold.PLP.part.nonpolar>
-39.2374

> <Gold.PLP.part.repulsive>
0.1217

> <Gold.PLP.ligand.clash>
0.0000

> <Gold.PLP.ligand.torsion>
0.9104

> <Gold.PLP.Chemscore.Hbond>
0.8882

> <Gold.PLP.Chemscore.CHOScore>
0.0000

> <Gold.PLP.Chemscore.Metal>
0.0000

> <Gold.Chemscore.Hbonds>
donor molecule, donor type, donor heavy atom, donor atom, acceptor molecule, acceptor atom, score
      P1  H  7997  8009       L1    20  0.93

> <Gold.PLP.Chemscore.Internal.Correction>
0.0373

> <Gold.Rescore>
     Score         DG    S(hbond)    S(metal)    S(lipo)     H(rot)  DE(clash)    DE(int)     intcor
     15.33     -16.48       0.88        0.00     116.32       2.16       0.27       0.88       ----

> <Gold.Chemscore.Fitness>
15.3316

> <Gold.Chemscore.DG>
-16.4792

> <Gold.Chemscore.ZeroCoef>
-5.4800

> <Gold.Chemscore.Hbond>
0.8763

> <Gold.Chemscore.Metal>
0.0000

> <Gold.Chemscore.Lipo>
116.3167

> <Gold.Chemscore.Internal_Hbond>
0.0000

> <Gold.Chemscore.DEClash>
0.2663

> <Gold.Chemscore.DEInternal>
0.8813

> <Gold.Chemscore.Rot>
2.1628

> <Gold.Chemscore.Internal.Correction>
   9.000000E+99

> <Gold.Chemscore.Hbonds>
donor molecule, donor type, donor heavy atom, donor atom, acceptor molecule, acceptor atom, score
      P1  H  7997  8009       L1    20  0.83

> <Gold.Chemscore.Hbond.Weighted>
-2.9268

> <Gold.Chemscore.Metal.Weighted>
-0.0000

> <Gold.Chemscore.Lipo.Weighted>
-13.6091

> <Gold.Chemscore.Internal_Hbond.Weighted>
0.0000

> <Gold.Chemscore.DEClash.Weighted>
0.2663

> <Gold.Chemscore.DEInternal.Weighted>
0.8813

> <Gold.Chemscore.Rot.Weighted>
5.5367

> <Gold.Chemscore.Internal.Correction.Weighted>
   9.000000E+99

> <Gold.Protein.RotatedTorsions>
[ 6907 6896 6895 6894 ] final -119.86 input  -60.11 | X-H torsion
[ 7974 7965 7964 7962 ] final  -71.61 input  175.53 | X-H torsion
[ 8008 7997 7996 7995 ] final  158.71 input   59.86 | X-H torsion
[ 10167 10162 10161 10158 ] final   98.17 input  -65.29 | X-H torsion
[ 10718 10713 10712 10709 ] final  150.13 input   66.30 | X-H torsion
[ 10763 10752 10751 10750 ] final  142.69 input  -60.55 | X-H torsion
[ 11005 11000 10999 10996 ] final   59.44 input  -57.11 | X-H torsion

> <Gold.Protein.ActiveResidues>
 VAL166  LYS551  ARG553  GLY616  TRP617  ASP618  TYR619  PRO620  LYS621  CYS622 
 ASP623  PHE694  ASN695  SER759  ASP760  ASP761  ALA762  ILE779  LEU786  VAL792 
 PHE793  MET794  SER795  GLU796  ALA797  LYS798  CYS799  TRP800  GLU811  SER814 

> <Gold.Protein.RotatedAtoms>
  150.8342  133.8041  159.3086 H   0  0  0  0  0  0  0  0  0  0  0  0  # atno 6907 bound_to 6896
  151.5762  135.1059  160.0016 H   0  0  0  0  0  0  0  0  0  0  0  0  # atno 6908 bound_to 6896
  152.4417  133.7419  159.6702 H   0  0  0  0  0  0  0  0  0  0  0  0  # atno 6909 bound_to 6896
  145.6759  140.9205  143.0858 H   0  0  0  0  0  0  0  0  0  0  0  0  # atno 7974 bound_to 7965
  156.2285  140.1851  156.7302 H   0  0  0  0  0  0  0  0  0  0  0  0  # atno 8008 bound_to 7997
  154.5982  140.0640  156.9360 H   0  0  0  0  0  0  0  0  0  0  0  0  # atno 8009 bound_to 7997
  155.2219  140.3308  155.4317 H   0  0  0  0  0  0  0  0  0  0  0  0  # atno 8010 bound_to 7997
  139.7733  144.6914  151.0124 H   0  0  0  0  0  0  0  0  0  0  0  0  # atno 10167 bound_to 10162
  157.2873  131.0847  151.1488 H   0  0  0  0  0  0  0  0  0  0  0  0  # atno 10718 bound_to 10713
  153.9599  135.2961  155.3434 H   0  0  0  0  0  0  0  0  0  0  0  0  # atno 10763 bound_to 10752
  154.7380  135.5037  153.9078 H   0  0  0  0  0  0  0  0  0  0  0  0  # atno 10764 bound_to 10752
  153.0952  135.6719  153.9888 H   0  0  0  0  0  0  0  0  0  0  0  0  # atno 10765 bound_to 10752
  140.0304  134.6020  155.9515 H   0  0  0  0  0  0  0  0  0  0  0  0  # atno 11005 bound_to 11000
  144.7042  139.8633  143.7435 LP  0  0  0  0  0  0  0  0  0  0  0  0  # atno 17320 bound_to 7965
  146.1006  139.4001  143.0349 LP  0  0  0  0  0  0  0  0  0  0  0  0  # atno 17321 bound_to 7965
  140.7815  143.4564  151.0340 LP  0  0  0  0  0  0  0  0  0  0  0  0  # atno 17342 bound_to 10162
  139.8247  143.7773  152.3178 LP  0  0  0  0  0  0  0  0  0  0  0  0  # atno 17343 bound_to 10162
  157.2898  130.6790  149.6108 LP  0  0  0  0  0  0  0  0  0  0  0  0  # atno 17370 bound_to 10713
  155.9666  130.4424  150.5380 LP  0  0  0  0  0  0  0  0  0  0  0  0  # atno 17371 bound_to 10713
  141.1827  133.6549  156.5089 LP  0  0  0  0  0  0  0  0  0  0  0  0  # atno 17394 bound_to 11000
  140.4235  134.7166  157.4903 LP  0  0  0  0  0  0  0  0  0  0  0  0  # atno 17395 bound_to 11000

$$$$
