AV-unprocessed.smi:1099|AV-procd|sdf|4757|dock6
  -GOLD-   22720 3293D 1   1.00000     0.00000
 Structure written by MMmdl.
 41 43  0  0  0  0  0  0  0  0  1 V2000
  149.4935  141.5445  157.2640 C   0  0  0  0  0  0  0  0  0  0  0  0
  149.6919  141.4163  155.7501 C   0  0  0  0  0  0  0  0  0  0  0  0
  148.4115  141.1765  155.0224 C   0  0  0  0  0  0  0  0  0  0  0  0
  148.2361  140.1851  154.1444 N   0  0  0  0  0  0  0  0  0  0  0  0
  146.9597  140.1911  153.5733 C   0  0  0  0  0  0  0  0  0  0  0  0
  146.5792  139.1403  152.5746 C   0  0  0  0  0  0  0  0  0  0  0  0
  146.2192  137.8059  153.2421 C   0  0  0  0  0  0  0  0  0  0  0  0
  146.3111  136.7115  152.2852 N   0  0  0  0  0  0  0  0  0  0  0  0
  145.2568  136.0565  151.7780 C   0  0  0  0  0  0  0  0  0  0  0  0
  144.0941  136.3220  152.0854 O   0  0  0  0  0  0  0  0  0  0  0  0
  145.5755  134.9580  150.7477 C   0  0  2  0  0  0  0  0  0  0  0  0
  144.3376  134.2043  150.2012 C   0  0  0  0  0  0  0  0  0  0  0  0
  144.7009  132.7259  150.4363 C   0  0  2  0  0  0  0  0  0  0  0  0
  144.6051  132.4055  151.9396 C   0  0  0  0  0  0  0  0  0  0  0  0
  145.8551  133.0976  152.5133 C   0  0  0  0  0  0  0  0  0  0  0  0
  146.4580  133.7949  151.2738 C   0  0  1  0  0  0  0  0  0  0  0  0
  146.2081  132.7330  150.2068 C   0  0  0  0  0  0  0  0  0  0  0  0
  146.1687  141.2168  154.0274 C   0  0  0  0  0  0  0  0  0  0  0  0
  147.0008  142.2156  155.1866 S   0  0  0  0  0  0  0  0  0  0  0  0
  150.4455  141.7143  157.7670 H   0  0  0  0  0  0  0  0  0  0  0  0
  149.0530  140.6383  157.6813 H   0  0  0  0  0  0  0  0  0  0  0  0
  148.8351  142.3797  157.5050 H   0  0  0  0  0  0  0  0  0  0  0  0
  150.1575  142.3210  155.3573 H   0  0  0  0  0  0  0  0  0  0  0  0
  150.3751  140.5944  155.5337 H   0  0  0  0  0  0  0  0  0  0  0  0
  145.7339  139.4874  151.9789 H   0  0  0  0  0  0  0  0  0  0  0  0
  147.3975  138.9856  151.8701 H   0  0  0  0  0  0  0  0  0  0  0  0
  146.8884  137.6116  154.0818 H   0  0  0  0  0  0  0  0  0  0  0  0
  145.2045  137.8509  153.6409 H   0  0  0  0  0  0  0  0  0  0  0  0
  147.2349  136.4398  151.9818 H   0  0  0  0  0  0  0  0  0  0  0  0
  146.0869  135.4246  149.9032 H   0  0  0  0  0  0  0  0  0  0  0  0
  143.3966  134.4726  150.6829 H   0  0  0  0  0  0  0  0  0  0  0  0
  144.2199  134.4016  149.1351 H   0  0  0  0  0  0  0  0  0  0  0  0
  144.1408  132.0339  149.8068 H   0  0  0  0  0  0  0  0  0  0  0  0
  143.6823  132.7821  152.3825 H   0  0  0  0  0  0  0  0  0  0  0  0
  144.6471  131.3299  152.1153 H   0  0  0  0  0  0  0  0  0  0  0  0
  145.6270  133.7736  153.3364 H   0  0  0  0  0  0  0  0  0  0  0  0
  146.5509  132.3517  152.8999 H   0  0  0  0  0  0  0  0  0  0  0  0
  147.5070  134.0673  151.3944 H   0  0  0  0  0  0  0  0  0  0  0  0
  146.6841  131.7753  150.4256 H   0  0  0  0  0  0  0  0  0  0  0  0
  146.4920  133.0503  149.2016 H   0  0  0  0  0  0  0  0  0  0  0  0
  145.1507  141.4459  153.7494 H   0  0  0  0  0  0  0  0  0  0  0  0
  1  2  1  0  0  0  0
  1 20  1  0  0  0  0
  1 21  1  0  0  0  0
  1 22  1  0  0  0  0
  2  3  1  0  0  0  0
  2 23  1  0  0  0  0
  2 24  1  0  0  0  0
  3 19  1  0  0  0  0
  3  4  2  0  0  0  0
  4  5  1  0  0  0  0
  5  6  1  0  0  0  0
  5 18  2  0  0  0  0
  6  7  1  0  0  0  0
  6 25  1  0  0  0  0
  6 26  1  0  0  0  0
  7  8  1  0  0  0  0
  7 27  1  0  0  0  0
  7 28  1  0  0  0  0
  8  9  1  0  0  0  0
  8 29  1  0  0  0  0
  9 10  2  0  0  0  0
  9 11  1  0  0  0  0
 11 16  1  0  0  0  0
 11 12  1  0  0  0  0
 11 30  1  0  0  0  0
 12 13  1  0  0  0  0
 12 31  1  0  0  0  0
 12 32  1  0  0  0  0
 13 17  1  0  0  0  0
 13 14  1  0  0  0  0
 13 33  1  0  0  0  0
 14 15  1  0  0  0  0
 14 34  1  0  0  0  0
 14 35  1  0  0  0  0
 15 16  1  0  0  0  0
 15 36  1  0  0  0  0
 15 37  1  0  0  0  0
 16 17  1  0  0  0  0
 16 38  1  0  0  0  0
 17 39  1  0  0  0  0
 17 40  1  0  0  0  0
 18 19  1  0  0  0  0
 18 41  1  0  0  0  0
M  END
> <s_m_source_file>
AV-unprocessed.smi

> <i_m_source_file_index>
1099

> <i_lp_mmshare_version>
43012

> <i_f3d_flags>
0

> <s_epik_input>
W0NIM11bQ0gyXWMxbmMoW2NIXXMxKVtDSDJdW0NIMl1bTkhdQyg9TylbQ0BIXShbQ0gyXVtDQEBIXTIzKVtDQEBIXShbQ0gyXTMpW0NIMl1bQ0gyXTI=

> <s_epik_cmdline>
J2VwaWtfcHl0aG9uJywgJy1waCcsICc3LjAnLCAnLXRuJywgJzgnLCAnLW1hJywgJzIwMCcsICctbWV0YWxfYmluZGluZycsICctaW1hZScsICc8aW5maWxlLm1hZT4nLCAnLW9tYWUnLCAnPG91dGZpbGUubWFlPic=

> <r_epik_Ionization_Penalty>
0.00110131

> <r_epik_Ionization_Penalty_Charging>
0

> <r_epik_Ionization_Penalty_Neutral>
0.00110131

> <r_epik_State_Penalty>
0.00072257

> <r_epik_Charging_Adjusted_Penalty>
0.00072257

> <i_epik_Tot_Q>
0

> <i_epik_Tot_abs_Q>
0

> <r_epik_Metal_State_Penalty>
-0

> <b_epik_Metal_Only>
0

> <s_lp_Force_Field>
OPLS_2005

> <r_lp_Energy>
38.6178

> <b_lp_Chiralities_Consistent>
1

> <s_lp_Variant>
AV-unprocessed.smi:1099-3

> <Gold.Version>
5.8.1

> <Gold.Id.Protein>
6NUR|6NUR_protein|mol2

> <Gold.PLP.Fitness>
39.9922

> <Gold.PLP.PLP>
-34.8836

> <Gold.PLP.part.hbond>
-0.9635

> <Gold.PLP.part.metal>
0.0000

> <Gold.PLP.part.buried>
-1.4004

> <Gold.PLP.part.nonpolar>
-33.0156

> <Gold.PLP.part.repulsive>
1.2629

> <Gold.PLP.ligand.clash>
0.0000

> <Gold.PLP.ligand.torsion>
0.4714

> <Gold.PLP.Chemscore.Hbond>
1.0000

> <Gold.PLP.Chemscore.CHOScore>
1.0000

> <Gold.PLP.Chemscore.Metal>
0.0000

> <Gold.Chemscore.Hbonds>
donor molecule, donor type, donor heavy atom, donor atom, acceptor molecule, acceptor atom, score
      L1  H     8    29       P1  7948  1.00
      L1  C    18    41       P1 10175  1.00

> <Gold.PLP.Chemscore.Internal.Correction>
0.0514

> <Gold.Rescore>
     Score         DG    S(hbond)    S(metal)    S(lipo)     H(rot)  DE(clash)    DE(int)     intcor
     15.84     -16.37       0.98        0.00      96.00       1.42       0.18       0.34       ----

> <Gold.Chemscore.Fitness>
15.8416

> <Gold.Chemscore.DG>
-16.3671

> <Gold.Chemscore.ZeroCoef>
-5.4800

> <Gold.Chemscore.Hbond>
0.9824

> <Gold.Chemscore.Metal>
0.0000

> <Gold.Chemscore.Lipo>
96.0002

> <Gold.Chemscore.Internal_Hbond>
0.0000

> <Gold.Chemscore.DEClash>
0.1812

> <Gold.Chemscore.DEInternal>
0.3444

> <Gold.Chemscore.Rot>
1.4165

> <Gold.Chemscore.Internal.Correction>
   9.000000E+99

> <Gold.Chemscore.Hbonds>
donor molecule, donor type, donor heavy atom, donor atom, acceptor molecule, acceptor atom, score
      L1  H     8    29       P1  7948  1.00

> <Gold.Chemscore.Hbond.Weighted>
-3.2813

> <Gold.Chemscore.Metal.Weighted>
-0.0000

> <Gold.Chemscore.Lipo.Weighted>
-11.2320

> <Gold.Chemscore.Internal_Hbond.Weighted>
0.0000

> <Gold.Chemscore.DEClash.Weighted>
0.1812

> <Gold.Chemscore.DEInternal.Weighted>
0.3444

> <Gold.Chemscore.Rot.Weighted>
3.6262

> <Gold.Chemscore.Internal.Correction.Weighted>
   9.000000E+99

> <Gold.Protein.RotatedTorsions>
[ 6907 6896 6895 6894 ] final    7.76 input  -60.11 | X-H torsion
[ 7974 7965 7964 7962 ] final    2.45 input  175.53 | X-H torsion
[ 8008 7997 7996 7995 ] final  118.17 input   59.86 | X-H torsion
[ 10167 10162 10161 10158 ] final -164.49 input  -65.29 | X-H torsion
[ 10718 10713 10712 10709 ] final  157.73 input   66.30 | X-H torsion
[ 10763 10752 10751 10750 ] final  177.60 input  -60.55 | X-H torsion
[ 11005 11000 10999 10996 ] final   52.86 input  -57.11 | X-H torsion

> <Gold.Protein.ActiveResidues>
 VAL166  LYS551  ARG553  GLY616  TRP617  ASP618  TYR619  PRO620  LYS621  CYS622 
 ASP623  PHE694  ASN695  SER759  ASP760  ASP761  ALA762  ILE779  LEU786  VAL792 
 PHE793  MET794  SER795  GLU796  ALA797  LYS798  CYS799  TRP800  GLU811  SER814 

> <Gold.Protein.RotatedAtoms>
  151.6951  135.0940  160.0240 H   0  0  0  0  0  0  0  0  0  0  0  0  # atno 6907 bound_to 6896
  152.3755  133.6471  159.6128 H   0  0  0  0  0  0  0  0  0  0  0  0  # atno 6908 bound_to 6896
  150.7706  133.9117  159.3413 H   0  0  0  0  0  0  0  0  0  0  0  0  # atno 6909 bound_to 6896
  146.2444  140.0834  142.8356 H   0  0  0  0  0  0  0  0  0  0  0  0  # atno 7974 bound_to 7965
  156.2532  140.2880  156.0792 H   0  0  0  0  0  0  0  0  0  0  0  0  # atno 8008 bound_to 7997
  155.1585  140.0399  157.2854 H   0  0  0  0  0  0  0  0  0  0  0  0  # atno 8009 bound_to 7997
  154.6410  140.2522  155.7329 H   0  0  0  0  0  0  0  0  0  0  0  0  # atno 8010 bound_to 7997
  139.6247  144.0556  152.1964 H   0  0  0  0  0  0  0  0  0  0  0  0  # atno 10167 bound_to 10162
  157.1875  131.0647  151.2098 H   0  0  0  0  0  0  0  0  0  0  0  0  # atno 10718 bound_to 10713
  154.4966  135.2781  155.1454 H   0  0  0  0  0  0  0  0  0  0  0  0  # atno 10763 bound_to 10752
  154.3104  135.6230  153.5467 H   0  0  0  0  0  0  0  0  0  0  0  0  # atno 10764 bound_to 10752
  152.9896  135.5718  154.5399 H   0  0  0  0  0  0  0  0  0  0  0  0  # atno 10765 bound_to 10752
  140.0814  134.5333  155.8942 H   0  0  0  0  0  0  0  0  0  0  0  0  # atno 11005 bound_to 11000
  145.0713  140.9157  143.4880 LP  0  0  0  0  0  0  0  0  0  0  0  0  # atno 17320 bound_to 7965
  145.0968  139.2851  143.5707 LP  0  0  0  0  0  0  0  0  0  0  0  0  # atno 17321 bound_to 7965
  140.0206  144.6156  150.7570 LP  0  0  0  0  0  0  0  0  0  0  0  0  # atno 17342 bound_to 10162
  140.7403  143.2803  151.3618 LP  0  0  0  0  0  0  0  0  0  0  0  0  # atno 17343 bound_to 10162
  157.3893  130.7273  149.6686 LP  0  0  0  0  0  0  0  0  0  0  0  0  # atno 17370 bound_to 10713
  155.9716  130.4151  150.4164 LP  0  0  0  0  0  0  0  0  0  0  0  0  # atno 17371 bound_to 10713
  141.2048  133.6642  156.6142 LP  0  0  0  0  0  0  0  0  0  0  0  0  # atno 17394 bound_to 11000
  140.3482  134.7791  157.4447 LP  0  0  0  0  0  0  0  0  0  0  0  0  # atno 17395 bound_to 11000

$$$$
