AV-unprocessed.smi:1205|AV-procd|sdf|5043|dock10
  -GOLD-   22720 4 63D 1   1.00000     0.00000
 Structure written by MMmdl.
 49 50  0  0  0  0  0  0  0  0  2 V2000
  150.6835  142.0512  156.2460 C   0  0  0  0  0  0  0  0  0  0  0  0
  150.3583  140.8125  155.4647 C   0  0  0  0  0  0  0  0  0  0  0  0
  149.1106  140.4432  154.8831 C   0  0  0  0  0  0  0  0  0  0  0  0
  149.3939  139.2369  154.3031 C   0  0  0  0  0  0  0  0  0  0  0  0
  148.5749  138.4170  153.5919 N   0  0  0  0  0  0  0  0  0  0  0  0
  147.2388  138.4771  153.4563 C   0  0  0  0  0  0  0  0  0  0  0  0
  146.5044  139.3165  153.9777 O   0  0  0  0  0  0  0  0  0  0  0  0
  146.7870  137.4939  152.6635 N   0  0  0  0  0  0  0  0  0  0  0  0
  145.3856  137.2562  152.3257 C   0  0  0  0  0  0  0  0  0  0  0  0
  144.7929  136.0279  153.0558 C   0  0  2  0  0  0  0  0  0  0  0  0
  145.3237  135.8470  154.4954 C   0  0  0  0  0  0  0  0  0  0  0  0
  144.9568  134.7995  152.2237 N   0  3  1  0  0  0  0  0  0  0  0  0
  144.4396  134.9003  150.8312 C   0  0  0  0  0  0  0  0  0  0  0  0
  144.4213  133.5199  150.1574 C   0  0  0  0  0  0  0  0  0  0  0  0
  145.8175  132.8805  150.1804 C   0  0  0  0  0  0  0  0  0  0  0  0
  146.3921  132.8381  151.6092 C   0  0  2  0  0  0  0  0  0  0  0  0
  145.7282  131.7614  152.4856 C   0  0  0  0  0  0  0  0  0  0  0  0
  146.3339  134.2362  152.2604 C   0  0  0  0  0  0  0  0  0  0  0  0
  150.7172  138.9325  154.5332 N   0  0  0  0  0  0  0  0  0  0  0  0
  151.4830  137.7732  154.1187 C   0  0  0  0  0  0  0  0  0  0  0  0
  151.3098  139.9105  155.2515 N   0  0  0  0  0  0  0  0  0  0  0  0
  149.7934  142.6587  156.4107 H   0  0  0  0  0  0  0  0  0  0  0  0
  151.4124  142.6671  155.7187 H   0  0  0  0  0  0  0  0  0  0  0  0
  151.0998  141.8024  157.2227 H   0  0  0  0  0  0  0  0  0  0  0  0
  148.1790  140.9884  154.8996 H   0  0  0  0  0  0  0  0  0  0  0  0
  149.0382  137.6587  153.1131 H   0  0  0  0  0  0  0  0  0  0  0  0
  147.4624  136.8504  152.2769 H   0  0  0  0  0  0  0  0  0  0  0  0
  144.8277  138.1498  152.6077 H   0  0  0  0  0  0  0  0  0  0  0  0
  145.2737  137.1647  151.2449 H   0  0  0  0  0  0  0  0  0  0  0  0
  143.7215  136.2184  153.1340 H   0  0  0  0  0  0  0  0  0  0  0  0
  145.0301  136.6814  155.1318 H   0  0  0  0  0  0  0  0  0  0  0  0
  146.4120  135.7885  154.5206 H   0  0  0  0  0  0  0  0  0  0  0  0
  144.9280  134.9451  154.9617 H   0  0  0  0  0  0  0  0  0  0  0  0
  143.4309  135.3109  150.8242 H   0  0  0  0  0  0  0  0  0  0  0  0
  145.0626  135.5805  150.2490 H   0  0  0  0  0  0  0  0  0  0  0  0
  143.7040  132.8720  150.6619 H   0  0  0  0  0  0  0  0  0  0  0  0
  144.0751  133.6142  149.1277 H   0  0  0  0  0  0  0  0  0  0  0  0
  145.7837  131.8793  149.7498 H   0  0  0  0  0  0  0  0  0  0  0  0
  146.4846  133.4632  149.5434 H   0  0  0  0  0  0  0  0  0  0  0  0
  147.4435  132.5598  151.5268 H   0  0  0  0  0  0  0  0  0  0  0  0
  144.6714  131.9676  152.6552 H   0  0  0  0  0  0  0  0  0  0  0  0
  146.2115  131.6996  153.4611 H   0  0  0  0  0  0  0  0  0  0  0  0
  145.8035  130.7776  152.0217 H   0  0  0  0  0  0  0  0  0  0  0  0
  147.0151  134.9111  151.7407 H   0  0  0  0  0  0  0  0  0  0  0  0
  146.6878  134.1695  153.2902 H   0  0  0  0  0  0  0  0  0  0  0  0
  150.9138  136.8644  154.3165 H   0  0  0  0  0  0  0  0  0  0  0  0
  152.4259  137.7221  154.6651 H   0  0  0  0  0  0  0  0  0  0  0  0
  151.6938  137.8378  153.0511 H   0  0  0  0  0  0  0  0  0  0  0  0
  144.3832  134.1032  152.6778 H   0  0  0  0  0  0  0  0  0  0  0  0
  1  2  1  0  0  0  0
  1 22  1  0  0  0  0
  1 23  1  0  0  0  0
  1 24  1  0  0  0  0
  2 21  2  0  0  0  0
  2  3  1  0  0  0  0
  3  4  2  0  0  0  0
  3 25  1  0  0  0  0
  4  5  1  0  0  0  0
  4 19  1  0  0  0  0
  5  6  1  0  0  0  0
  5 26  1  0  0  0  0
  6  7  2  0  0  0  0
  6  8  1  0  0  0  0
  8  9  1  0  0  0  0
  8 27  1  0  0  0  0
  9 10  1  0  0  0  0
  9 28  1  0  0  0  0
  9 29  1  0  0  0  0
 10 11  1  0  0  0  0
 10 12  1  0  0  0  0
 10 30  1  0  0  0  0
 11 31  1  0  0  0  0
 11 32  1  0  0  0  0
 11 33  1  0  0  0  0
 12 18  1  0  0  0  0
 12 13  1  0  0  0  0
 12 49  1  0  0  0  0
 13 14  1  0  0  0  0
 13 34  1  0  0  0  0
 13 35  1  0  0  0  0
 14 15  1  0  0  0  0
 14 36  1  0  0  0  0
 14 37  1  0  0  0  0
 15 16  1  0  0  0  0
 15 38  1  0  0  0  0
 15 39  1  0  0  0  0
 16 17  1  0  0  0  0
 16 18  1  0  0  0  0
 16 40  1  0  0  0  0
 17 41  1  0  0  0  0
 17 42  1  0  0  0  0
 17 43  1  0  0  0  0
 18 44  1  0  0  0  0
 18 45  1  0  0  0  0
 19 20  1  0  0  0  0
 19 21  1  0  0  0  0
 20 46  1  0  0  0  0
 20 47  1  0  0  0  0
 20 48  1  0  0  0  0
M  CHG  1  12   1
M  END
> <s_m_source_file>
AV-unprocessed.smi

> <i_m_source_file_index>
1205

> <i_lp_mmshare_version>
43012

> <i_f3d_flags>
0

> <s_epik_input>
W0NIM11jMVtjSF1jKG4objEpW0NIM10pW05IXUMoPU8pW05IXVtDSDJdW0NASF0oW0NIM10pTjJbQ0gyXVtDSDJdW0NIMl1bQ0BASF0oW0NIM10pW0NIMl0y

> <s_epik_cmdline>
J2VwaWtfcHl0aG9uJywgJy1waCcsICc3LjAnLCAnLXRuJywgJzgnLCAnLW1hJywgJzIwMCcsICctbWV0YWxfYmluZGluZycsICctaW1hZScsICc8aW5maWxlLm1hZT4nLCAnLW9tYWUnLCAnPG91dGZpbGUubWFlPic=

> <r_lp_tautomer_probability>
1

> <r_epik_Ionization_Penalty>
0.0020309

> <r_epik_Ionization_Penalty_Charging>
0.00195276

> <r_epik_Ionization_Penalty_Neutral>
7.81448e-05

> <r_epik_State_Penalty>
0.00133177

> <r_epik_Charging_Adjusted_Penalty>
0.00328452

> <i_epik_Tot_Q>
1

> <i_epik_Tot_abs_Q>
1

> <r_epik_Metal_State_Penalty>
-0

> <b_epik_Metal_Only>
0

> <s_lp_Force_Field>
OPLS_2005

> <r_lp_Energy>
25.0457

> <b_lp_Chiralities_Consistent>
1

> <s_lp_Variant>
AV-unprocessed.smi:1205-5

> <Gold.Version>
5.8.1

> <Gold.Id.Protein>
6NUR|6NUR_protein|mol2

> <Gold.PLP.Fitness>
41.9222

> <Gold.PLP.PLP>
-36.5034

> <Gold.PLP.part.hbond>
-3.8623

> <Gold.PLP.part.metal>
0.0000

> <Gold.PLP.part.buried>
-3.2618

> <Gold.PLP.part.nonpolar>
-29.8602

> <Gold.PLP.part.repulsive>
0.2635

> <Gold.PLP.ligand.clash>
0.0000

> <Gold.PLP.ligand.torsion>
0.5536

> <Gold.PLP.Chemscore.Hbond>
2.1320

> <Gold.PLP.Chemscore.CHOScore>
0.0000

> <Gold.PLP.Chemscore.Metal>
0.0000

> <Gold.Chemscore.Hbonds>
donor molecule, donor type, donor heavy atom, donor atom, acceptor molecule, acceptor atom, score
      L1  H     5    26       P1  7948  0.99
      L1  H     8    27       P1  7948  1.00
      P1  H  7989  7998       L1    21  0.12

> <Gold.PLP.Chemscore.Internal.Correction>
0.1299

> <Gold.Rescore>
     Score         DG    S(hbond)    S(metal)    S(lipo)     H(rot)  DE(clash)    DE(int)     intcor
     15.68     -17.33       1.96        0.00      77.33       1.47       0.01       1.63       ----

> <Gold.Chemscore.Fitness>
15.6805

> <Gold.Chemscore.DG>
-17.3257

> <Gold.Chemscore.ZeroCoef>
-5.4800

> <Gold.Chemscore.Hbond>
1.9612

> <Gold.Chemscore.Metal>
0.0000

> <Gold.Chemscore.Lipo>
77.3316

> <Gold.Chemscore.Internal_Hbond>
0.0000

> <Gold.Chemscore.DEClash>
0.0149

> <Gold.Chemscore.DEInternal>
1.6304

> <Gold.Chemscore.Rot>
1.4658

> <Gold.Chemscore.Internal.Correction>
   9.000000E+99

> <Gold.Chemscore.Hbonds>
donor molecule, donor type, donor heavy atom, donor atom, acceptor molecule, acceptor atom, score
      L1  H     5    26       P1  7948  0.94
      L1  H     8    27       P1  7948  0.99

> <Gold.Chemscore.Hbond.Weighted>
-6.5505

> <Gold.Chemscore.Metal.Weighted>
-0.0000

> <Gold.Chemscore.Lipo.Weighted>
-9.0478

> <Gold.Chemscore.Internal_Hbond.Weighted>
0.0000

> <Gold.Chemscore.DEClash.Weighted>
0.0149

> <Gold.Chemscore.DEInternal.Weighted>
1.6304

> <Gold.Chemscore.Rot.Weighted>
3.7526

> <Gold.Chemscore.Internal.Correction.Weighted>
   9.000000E+99

> <Gold.Protein.RotatedTorsions>
[ 6907 6896 6895 6894 ] final  -54.42 input  -60.11 | X-H torsion
[ 7974 7965 7964 7962 ] final    9.47 input  175.53 | X-H torsion
[ 8008 7997 7996 7995 ] final    7.01 input   59.86 | X-H torsion
[ 10167 10162 10161 10158 ] final  -33.26 input  -65.29 | X-H torsion
[ 10718 10713 10712 10709 ] final   94.98 input   66.30 | X-H torsion
[ 10763 10752 10751 10750 ] final  126.68 input  -60.55 | X-H torsion
[ 11005 11000 10999 10996 ] final  -51.06 input  -57.11 | X-H torsion

> <Gold.Protein.ActiveResidues>
 VAL166  LYS551  ARG553  GLY616  TRP617  ASP618  TYR619  PRO620  LYS621  CYS622 
 ASP623  PHE694  ASN695  SER759  ASP760  ASP761  ALA762  ILE779  LEU786  VAL792 
 PHE793  MET794  SER795  GLU796  ALA797  LYS798  CYS799  TRP800  GLU811  SER814 

> <Gold.Protein.RotatedAtoms>
  150.8340  134.7605  159.6876 H   0  0  0  0  0  0  0  0  0  0  0  0  # atno 6907 bound_to 6896
  152.4440  134.5530  159.9882 H   0  0  0  0  0  0  0  0  0  0  0  0  # atno 6908 bound_to 6896
  151.5685  133.3355  159.3020 H   0  0  0  0  0  0  0  0  0  0  0  0  # atno 6909 bound_to 6896
  146.2403  139.9778  142.8439 H   0  0  0  0  0  0  0  0  0  0  0  0  # atno 7974 bound_to 7965
  154.7483  140.2762  155.6314 H   0  0  0  0  0  0  0  0  0  0  0  0  # atno 8008 bound_to 7997
  156.2890  140.2683  156.2156 H   0  0  0  0  0  0  0  0  0  0  0  0  # atno 8009 bound_to 7997
  155.0169  140.0372  157.2411 H   0  0  0  0  0  0  0  0  0  0  0  0  # atno 8010 bound_to 7997
  140.7207  143.3633  151.1919 H   0  0  0  0  0  0  0  0  0  0  0  0  # atno 10167 bound_to 10162
  157.6943  131.0530  150.4268 H   0  0  0  0  0  0  0  0  0  0  0  0  # atno 10718 bound_to 10713
  153.6973  135.3289  155.3216 H   0  0  0  0  0  0  0  0  0  0  0  0  # atno 10763 bound_to 10752
  154.8423  135.4446  154.1447 H   0  0  0  0  0  0  0  0  0  0  0  0  # atno 10764 bound_to 10752
  153.2505  135.6981  153.7763 H   0  0  0  0  0  0  0  0  0  0  0  0  # atno 10765 bound_to 10752
  141.0850  133.6644  156.3822 H   0  0  0  0  0  0  0  0  0  0  0  0  # atno 11005 bound_to 11000
  145.1620  140.9677  143.4371 LP  0  0  0  0  0  0  0  0  0  0  0  0  # atno 17320 bound_to 7965
  145.0107  139.3512  143.6121 LP  0  0  0  0  0  0  0  0  0  0  0  0  # atno 17321 bound_to 7965
  139.7190  143.9254  152.2978 LP  0  0  0  0  0  0  0  0  0  0  0  0  # atno 17342 bound_to 10162
  139.9004  144.6915  150.8671 LP  0  0  0  0  0  0  0  0  0  0  0  0  # atno 17343 bound_to 10162
  156.4638  130.4038  149.6559 LP  0  0  0  0  0  0  0  0  0  0  0  0  # atno 17370 bound_to 10713
  156.3665  130.7508  151.2486 LP  0  0  0  0  0  0  0  0  0  0  0  0  # atno 17371 bound_to 10713
  140.5383  134.6145  157.5372 LP  0  0  0  0  0  0  0  0  0  0  0  0  # atno 17394 bound_to 11000
  139.9668  134.7360  156.0123 LP  0  0  0  0  0  0  0  0  0  0  0  0  # atno 17395 bound_to 11000

$$$$
