#       Name:                AV-unprocessed.smi:3287
#       Creating user name   scv26
#       Creation time:       Fri Mar 27 18:51:40 2020


#       File generated by GOLD software.
#

@<TRIPOS>MOLECULE
AV-unprocessed.smi:3287
    46    47     1
SMALL
NO_CHARGES


@<TRIPOS>ATOM
      1 ****        -3.4707   3.8382  -0.9908 C.3            1 S1                 0.0000
      2 ****        -2.8103   2.4516  -0.9192 C.3            1 S1                 0.0000
      3 ****        -1.3002   2.5194  -1.2192 C.3            1 S1                 0.0000
      4 ****        -0.6626   1.1206  -1.2301 C.3            1 S1                 0.0000
      5 ****        -0.9253   0.3603   0.0864 C.3            1 S1                 0.0000
      6 ****        -0.3811  -1.0147   0.0363 N.4            1 S1                 1.0000
      7 ****         1.0872  -1.1209   0.1763 C.3            1 S1                 0.0000
      8 ****         1.5466  -2.5894   0.1731 C.3            1 S1                 0.0000
      9 ****         0.9737  -3.2511   1.2845 O.3            1 S1                 0.0000
     10 ****         3.0636  -2.6884   0.1801 C.ar           1 S1                 0.0000
     11 ****         3.7647  -3.0134  -1.0001 C.ar           1 S1                 0.0000
     12 ****         5.1712  -3.0865  -0.9498 C.ar           1 S1                 0.0000
     13 ****         5.8857  -2.8590   0.1730 N.ar           1 S1                 0.0000
     14 ****         5.2106  -2.5464   1.2995 C.ar           1 S1                 0.0000
     15 ****         3.8060  -2.4470   1.3566 C.ar           1 S1                 0.0000
     16 ****        -2.4382   0.3063   0.3785 C.3            1 S1                 0.0000
     17 ****        -3.0927   1.7037   0.4087 C.3            1 S1                 0.0000
     18 ****        -2.6998   2.4916   1.6750 C.3            1 S1                 0.0000
     19 ****        -3.0191   4.5386  -0.2882 H              1 S1                 0.0000
     20 ****        -4.5365   3.7791  -0.7688 H              1 S1                 0.0000
     21 ****        -3.3673   4.2669  -1.9880 H              1 S1                 0.0000
     22 ****        -3.2639   1.8589  -1.7154 H              1 S1                 0.0000
     23 ****        -1.1370   2.9960  -2.1865 H              1 S1                 0.0000
     24 ****        -0.7973   3.1483  -0.4842 H              1 S1                 0.0000
     25 ****        -1.0633   0.5504  -2.0694 H              1 S1                 0.0000
     26 ****         0.4074   1.2229  -1.4100 H              1 S1                 0.0000
     27 ****        -0.4349   0.8843   0.9077 H              1 S1                 0.0000
     28 ****        -0.7861  -1.5334   0.8030 H              1 S1                 0.0000
     29 ****         1.5637  -0.5939  -0.6505 H              1 S1                 0.0000
     30 ****         1.4043  -0.6271   1.0961 H              1 S1                 0.0000
     31 ****         1.1733  -3.0812  -0.7264 H              1 S1                 0.0000
     32 ****         1.2286  -4.1612   1.2551 H              1 S1                 0.0000
     33 ****         3.2424  -3.2034  -1.9264 H              1 S1                 0.0000
     34 ****         5.7374  -3.3324  -1.8362 H              1 S1                 0.0000
     35 ****         5.8072  -2.3678   2.1818 H              1 S1                 0.0000
     36 ****         3.3152  -2.1902   2.2839 H              1 S1                 0.0000
     37 ****        -2.9298  -0.2959  -0.3874 H              1 S1                 0.0000
     38 ****        -2.6185  -0.2072   1.3239 H              1 S1                 0.0000
     39 ****        -4.1704   1.5459   0.4705 H              1 S1                 0.0000
     40 ****        -1.6460   2.7683   1.6795 H              1 S1                 0.0000
     41 ****        -2.8871   1.9025   2.5731 H              1 S1                 0.0000
     42 ****        -3.2820   3.4078   1.7713 H              1 S1                 0.0000
     43 ****        -0.6673  -1.4502  -0.8288 H              1 S1                 0.0000
     44 ****        -0.0228  -3.1783   1.2438 LP             1 S1                 0.0000
     45 ****         1.3039  -2.8353   2.1319 LP             1 S1                 0.0000
     46 ****         6.8838  -2.9202   0.1703 LP             1 S1                 0.0000
@<TRIPOS>BOND
    1    1    2 1     
    2    1   19 1     
    3    1   20 1     
    4    1   21 1     
    5    2   17 1     
    6    2    3 1     
    7    2   22 1     
    8    3    4 1     
    9    3   23 1     
   10    3   24 1     
   11    4    5 1     
   12    4   25 1     
   13    4   26 1     
   14    5    6 1     
   15    5   16 1     
   16    5   27 1     
   17    6    7 1     
   18    6   28 1     
   19    6   43 1     
   20    7    8 1     
   21    7   29 1     
   22    7   30 1     
   23    8    9 1     
   24    8   10 1     
   25    8   31 1     
   26    9   32 1     
   27   10   15 ar    
   28   10   11 ar    
   29   11   12 ar    
   30   11   33 1     
   31   12   13 ar    
   32   12   34 1     
   33   13   14 ar    
   34   14   15 ar    
   35   14   35 1     
   36   15   36 1     
   37   16   17 1     
   38   16   37 1     
   39   16   38 1     
   40   17   18 1     
   41   17   39 1     
   42   18   40 1     
   43   18   41 1     
   44   18   42 1     
   45    9   44 1     
   46    9   45 1     
   47   13   46 1     
@<TRIPOS>SUBSTRUCTURE
      1 S1             1
@<TRIPOS>SET
LONE_PAIRS      STATIC     ATOMS    <user>   **** ""
3 44 45 46
DONOR_HYDROGENS      STATIC     ATOMS    <user>   **** ""
3 28 43 32
ATOM$BLUE        STATIC     ATOMS    COLORGROUP SYSTEM
3 44 45 46
ATOM$RED        STATIC     ATOMS    COLORGROUP SYSTEM
3 28 43 32
