AV-unprocessed.smi:110|AV-procd|sdf|1067|dock2
  -GOLD-   2262018143D 1   1.00000     0.00000
 Structure written by MMmdl.
 46 50  0  0  0  0  0  0  0  0  1 V2000
  150.0983  132.6340  158.0857 O   0  0  0  0  0  0  0  0  0  0  0  0
  150.4959  133.0673  156.8027 C   0  0  0  0  0  0  0  0  0  0  0  0
  149.5829  134.2080  156.3259 C   0  0  1  0  0  0  0  0  0  0  0  0
  149.7156  135.2995  157.2335 O   0  0  0  0  0  0  0  0  0  0  0  0
  149.6629  136.4907  156.5248 C   0  0  1  0  0  0  0  0  0  0  0  0
  150.3151  137.5654  157.3296 N   0  0  0  0  0  0  0  0  0  0  0  0
  150.9105  137.4859  158.5690 C   0  0  0  0  0  0  0  0  0  0  0  0
  151.4053  138.6076  159.0188 N   0  0  0  0  0  0  0  0  0  0  0  0
  151.1214  139.5343  158.0212 C   0  0  0  0  0  0  0  0  0  0  0  0
  151.3668  140.9265  157.8451 C   0  0  0  0  0  0  0  0  0  0  0  0
  152.0026  141.7168  158.7417 N   0  0  0  0  0  0  0  0  0  0  0  0
  152.8954  141.1103  159.7394 C   0  0  0  0  0  0  0  0  0  0  0  0
  153.1060  142.1435  160.8621 C   0  0  0  0  0  0  0  0  0  0  0  0
  152.4025  143.3320  160.2904 C   0  0  0  0  0  0  0  0  0  0  0  0
  152.3363  144.6259  160.8358 C   0  0  0  0  0  0  0  0  0  0  0  0
  151.6369  145.6165  160.1139 C   0  0  0  0  0  0  0  0  0  0  0  0
  151.0332  145.3045  158.8736 C   0  0  0  0  0  0  0  0  0  0  0  0
  151.1142  143.9977  158.3443 C   0  0  0  0  0  0  0  0  0  0  0  0
  151.7960  143.0071  159.0808 C   0  0  0  0  0  0  0  0  0  0  0  0
  150.9795  141.4882  156.6709 N   0  0  0  0  0  0  0  0  0  0  0  0
  150.3570  140.7529  155.7454 C   0  0  0  0  0  0  0  0  0  0  0  0
  150.0400  139.4574  155.7836 N   0  0  0  0  0  0  0  0  0  0  0  0
  150.4516  138.8804  156.9489 C   0  0  0  0  0  0  0  0  0  0  0  0
  150.3832  136.2163  155.2044 C   0  0  1  0  0  0  0  0  0  0  0  0
  151.7899  136.3475  155.3049 O   0  0  0  0  0  0  0  0  0  0  0  0
  149.9870  134.7676  154.9426 C   0  0  2  0  0  0  0  0  0  0  0  0
  148.8693  134.7264  154.0759 O   0  0  0  0  0  0  0  0  0  0  0  0
  148.5415  133.8796  156.3134 H   0  0  0  0  0  0  0  0  0  0  0  0
  148.6262  136.8056  156.3954 H   0  0  0  0  0  0  0  0  0  0  0  0
  150.0283  136.9055  154.4368 H   0  0  0  0  0  0  0  0  0  0  0  0
  150.7961  134.2032  154.4761 H   0  0  0  0  0  0  0  0  0  0  0  0
  149.4313  131.9720  157.9866 H   0  0  0  0  0  0  0  0  0  0  0  0
  151.5431  133.3717  156.8095 H   0  0  0  0  0  0  0  0  0  0  0  0
  150.4103  132.2111  156.1329 H   0  0  0  0  0  0  0  0  0  0  0  0
  150.9717  136.5656  159.1315 H   0  0  0  0  0  0  0  0  0  0  0  0
  152.4731  140.1841  160.1316 H   0  0  0  0  0  0  0  0  0  0  0  0
  153.8465  140.8684  159.2633 H   0  0  0  0  0  0  0  0  0  0  0  0
  152.6308  141.8355  161.7940 H   0  0  0  0  0  0  0  0  0  0  0  0
  154.1606  142.3524  161.0433 H   0  0  0  0  0  0  0  0  0  0  0  0
  152.8119  144.8570  161.7773 H   0  0  0  0  0  0  0  0  0  0  0  0
  151.5702  146.6204  160.5067 H   0  0  0  0  0  0  0  0  0  0  0  0
  150.5108  146.0731  158.3234 H   0  0  0  0  0  0  0  0  0  0  0  0
  150.6659  143.7726  157.3882 H   0  0  0  0  0  0  0  0  0  0  0  0
  150.0721  141.2777  154.8456 H   0  0  0  0  0  0  0  0  0  0  0  0
  151.9821  137.0993  155.8441 H   0  0  0  0  0  0  0  0  0  0  0  0
  149.0750  135.2156  153.2939 H   0  0  0  0  0  0  0  0  0  0  0  0
  1  2  1  0  0  0  0
  1 32  1  0  0  0  0
  2  3  1  0  0  0  0
  2 33  1  0  0  0  0
  2 34  1  0  0  0  0
  3 28  1  0  0  0  0
  3 26  1  0  0  0  0
  3  4  1  0  0  0  0
  4  5  1  0  0  0  0
  5 29  1  0  0  0  0
  5  6  1  0  0  0  0
  5 24  1  0  0  0  0
  6 23  1  0  0  0  0
  6  7  1  0  0  0  0
  7  8  2  0  0  0  0
  7 35  1  0  0  0  0
  8  9  1  0  0  0  0
  9 23  2  0  0  0  0
  9 10  1  0  0  0  0
 10 11  1  0  0  0  0
 10 20  2  0  0  0  0
 11 19  1  0  0  0  0
 11 12  1  0  0  0  0
 12 13  1  0  0  0  0
 12 36  1  0  0  0  0
 12 37  1  0  0  0  0
 13 14  1  0  0  0  0
 13 38  1  0  0  0  0
 13 39  1  0  0  0  0
 14 19  2  0  0  0  0
 14 15  1  0  0  0  0
 15 16  2  0  0  0  0
 15 40  1  0  0  0  0
 16 17  1  0  0  0  0
 16 41  1  0  0  0  0
 17 18  2  0  0  0  0
 17 42  1  0  0  0  0
 18 19  1  0  0  0  0
 18 43  1  0  0  0  0
 20 21  1  0  0  0  0
 21 22  2  0  0  0  0
 21 44  1  0  0  0  0
 22 23  1  0  0  0  0
 24 30  1  0  0  0  0
 24 25  1  0  0  0  0
 24 26  1  0  0  0  0
 25 45  1  0  0  0  0
 26 31  1  0  0  0  0
 26 27  1  0  0  0  0
 27 46  1  0  0  0  0
M  END
> <s_m_source_file>
AV-unprocessed.smi

> <i_m_source_file_index>
110

> <i_lp_mmshare_version>
43012

> <i_f3d_flags>
0

> <s_epik_input>
W09IXVtDSDJdW0NASF0xT1tDQEhdKFtDQEhdKFtPSF0pW0NAQEhdMVtPSF0pbihbY0hdbjIpYyhjMjMpbltjSF1uYzNOKFtDSDJdW0NIMl00KWMoYzQ1KVtjSF1bY0hdW2NIXVtjSF01

> <s_epik_cmdline>
J2VwaWtfcHl0aG9uJywgJy1waCcsICc3LjAnLCAnLXRuJywgJzgnLCAnLW1hJywgJzIwMCcsICctbWV0YWxfYmluZGluZycsICctaW1hZScsICc8aW5maWxlLm1hZT4nLCAnLW9tYWUnLCAnPG91dGZpbGUubWFlPic=

> <r_lp_tautomer_probability>
1

> <r_epik_Ionization_Penalty>
0.00068475

> <r_epik_Ionization_Penalty_Charging>
0

> <r_epik_Ionization_Penalty_Neutral>
0.00068475

> <r_epik_State_Penalty>
0.000417442

> <r_epik_Charging_Adjusted_Penalty>
0.000417442

> <i_epik_Tot_Q>
0

> <i_epik_Tot_abs_Q>
0

> <r_epik_Metal_State_Penalty>
-0

> <b_epik_Metal_Only>
0

> <s_epik_Chemistry_Notes>
This compound contains an acetal/aminal-like group ( X-CH(R)-Y where X, Y are N, S, or O) that may be acid/base labile, releasing an aldehyde.

> <s_lp_Force_Field>
OPLS_2005

> <r_lp_Energy>
58.5768

> <b_lp_Chiralities_Consistent>
1

> <s_lp_Variant>
AV-unprocessed.smi:110-5

> <Gold.Version>
5.8.1

> <Gold.Id.Protein>
6NUR|6NUR_protein|mol2

> <Gold.PLP.Fitness>
56.1756

> <Gold.PLP.PLP>
-47.9203

> <Gold.PLP.part.hbond>
-2.8741

> <Gold.PLP.part.metal>
0.0000

> <Gold.PLP.part.buried>
-7.4900

> <Gold.PLP.part.nonpolar>
-37.3760

> <Gold.PLP.part.repulsive>
0.0663

> <Gold.PLP.ligand.clash>
0.0000

> <Gold.PLP.ligand.torsion>
0.4004

> <Gold.PLP.Chemscore.Hbond>
2.9920

> <Gold.PLP.Chemscore.CHOScore>
0.0000

> <Gold.PLP.Chemscore.Metal>
0.0000

> <Gold.Chemscore.Hbonds>
donor molecule, donor type, donor heavy atom, donor atom, acceptor molecule, acceptor atom, score
      L1  H    27    46       P1  7948  1.00
      P1  H  6896  6909       L1     1  1.00
      P1  H 10752 10763       L1    25  0.99

> <Gold.PLP.Chemscore.Internal.Correction>
0.0800

> <Gold.Rescore>
     Score         DG    S(hbond)    S(metal)    S(lipo)     H(rot)  DE(clash)    DE(int)     intcor
     17.56     -19.01       2.87        0.00     107.89       3.38       0.23       1.22       ----

> <Gold.Chemscore.Fitness>
17.5591

> <Gold.Chemscore.DG>
-19.0111

> <Gold.Chemscore.ZeroCoef>
-5.4800

> <Gold.Chemscore.Hbond>
2.8655

> <Gold.Chemscore.Metal>
0.0000

> <Gold.Chemscore.Lipo>
107.8859

> <Gold.Chemscore.Internal_Hbond>
0.0000

> <Gold.Chemscore.DEClash>
0.2319

> <Gold.Chemscore.DEInternal>
1.2201

> <Gold.Chemscore.Rot>
3.3837

> <Gold.Chemscore.Internal.Correction>
   9.000000E+99

> <Gold.Chemscore.Hbonds>
donor molecule, donor type, donor heavy atom, donor atom, acceptor molecule, acceptor atom, score
      L1  H    27    46       P1  7948  0.30
      P1  H  6896  6909       L1     1  0.54
      P1  H 10752 10763       L1    25  0.92

> <Gold.Chemscore.Hbond.Weighted>
-9.5706

> <Gold.Chemscore.Metal.Weighted>
-0.0000

> <Gold.Chemscore.Lipo.Weighted>
-12.6227

> <Gold.Chemscore.Internal_Hbond.Weighted>
0.0000

> <Gold.Chemscore.DEClash.Weighted>
0.2319

> <Gold.Chemscore.DEInternal.Weighted>
1.2201

> <Gold.Chemscore.Rot.Weighted>
8.6622

> <Gold.Chemscore.Internal.Correction.Weighted>
   9.000000E+99

> <Gold.Protein.RotatedTorsions>
[ 6907 6896 6895 6894 ] final  -35.61 input  -60.11 | X-H torsion
[ 7974 7965 7964 7962 ] final   95.21 input  175.53 | X-H torsion
[ 8008 7997 7996 7995 ] final  152.43 input   59.86 | X-H torsion
[ 10167 10162 10161 10158 ] final   17.98 input  -65.29 | X-H torsion
[ 10718 10713 10712 10709 ] final -177.11 input   66.30 | X-H torsion
[ 10763 10752 10751 10750 ] final   48.99 input  -60.55 | X-H torsion
[ 11005 11000 10999 10996 ] final    9.77 input  -57.11 | X-H torsion

> <Gold.Protein.ActiveResidues>
 VAL166  LYS551  ARG553  GLY616  TRP617  ASP618  TYR619  PRO620  LYS621  CYS622 
 ASP623  PHE694  ASN695  SER759  ASP760  ASP761  ALA762  ILE779  LEU786  VAL792 
 PHE793  MET794  SER795  GLU796  ALA797  LYS798  CYS799  TRP800  GLU811  SER814 

> <Gold.Protein.RotatedAtoms>
  151.0376  134.9584  159.8144 H   0  0  0  0  0  0  0  0  0  0  0  0  # atno 6907 bound_to 6896
  152.5358  134.2699  159.8977 H   0  0  0  0  0  0  0  0  0  0  0  0  # atno 6908 bound_to 6896
  151.2710  133.4212  159.2655 H   0  0  0  0  0  0  0  0  0  0  0  0  # atno 6909 bound_to 6896
  145.4552  139.2290  143.3018 H   0  0  0  0  0  0  0  0  0  0  0  0  # atno 7974 bound_to 7965
  156.2629  140.2021  156.6332 H   0  0  0  0  0  0  0  0  0  0  0  0  # atno 8008 bound_to 7997
  154.6667  140.0554  157.0145 H   0  0  0  0  0  0  0  0  0  0  0  0  # atno 8009 bound_to 7997
  155.1197  140.3223  155.4503 H   0  0  0  0  0  0  0  0  0  0  0  0  # atno 8010 bound_to 7997
  140.5687  143.9202  150.6696 H   0  0  0  0  0  0  0  0  0  0  0  0  # atno 10167 bound_to 10162
  156.8246  130.9632  151.3110 H   0  0  0  0  0  0  0  0  0  0  0  0  # atno 10718 bound_to 10713
  152.9789  135.5926  154.4016 H   0  0  0  0  0  0  0  0  0  0  0  0  # atno 10763 bound_to 10752
  154.3661  135.2767  155.2295 H   0  0  0  0  0  0  0  0  0  0  0  0  # atno 10764 bound_to 10752
  154.4271  135.6045  153.6100 H   0  0  0  0  0  0  0  0  0  0  0  0  # atno 10765 bound_to 10752
  140.5220  134.0549  155.7847 H   0  0  0  0  0  0  0  0  0  0  0  0  # atno 11005 bound_to 11000
  146.2482  140.5315  142.8905 LP  0  0  0  0  0  0  0  0  0  0  0  0  # atno 17320 bound_to 7965
  144.8037  140.6260  143.6461 LP  0  0  0  0  0  0  0  0  0  0  0  0  # atno 17321 bound_to 7965
  140.2672  143.3482  152.1270 LP  0  0  0  0  0  0  0  0  0  0  0  0  # atno 17342 bound_to 10162
  139.5106  144.6887  151.5819 LP  0  0  0  0  0  0  0  0  0  0  0  0  # atno 17343 bound_to 10162
  157.6439  130.8828  149.9500 LP  0  0  0  0  0  0  0  0  0  0  0  0  # atno 17370 bound_to 10713
  156.0969  130.3658  150.0290 LP  0  0  0  0  0  0  0  0  0  0  0  0  # atno 17371 bound_to 10713
  141.1329  133.9272  157.2497 LP  0  0  0  0  0  0  0  0  0  0  0  0  # atno 17394 bound_to 11000
  139.9600  135.0156  156.9236 LP  0  0  0  0  0  0  0  0  0  0  0  0  # atno 17395 bound_to 11000

$$$$
