AV-unprocessed.smi:1588|AV-procd|sdf|6390|dock1
  -GOLD-   22720 7 23D 1   1.00000     0.00000
 Structure written by MMmdl.
 37 38  0  0  0  0  0  0  0  0  2 V2000
  144.6893  131.6678  150.8347 C   0  0  0  0  0  0  0  0  0  0  0  0
  143.3397  132.3903  150.9441 C   0  0  0  0  0  0  0  0  0  0  0  0
  143.4929  133.8632  150.8983 N   0  3  2  0  0  0  0  0  0  0  0  0
  144.5251  134.3340  149.9499 C   0  0  0  0  0  0  0  0  0  0  0  0
  145.0338  135.6517  150.5278 C   0  0  0  0  0  0  0  0  0  0  0  0
  145.0098  135.3842  152.0299 C   0  0  1  0  0  0  0  0  0  0  0  0
  145.0490  136.6603  152.8925 C   0  0  0  0  0  0  0  0  0  0  0  0
  146.3973  137.2111  152.9961 N   0  0  0  0  0  0  0  0  0  0  0  0
  146.7320  138.3400  153.6374 C   0  0  0  0  0  0  0  0  0  0  0  0
  145.9221  139.0503  154.2335 O   0  0  0  0  0  0  0  0  0  0  0  0
  148.0500  138.5807  153.5465 N   0  0  0  0  0  0  0  0  0  0  0  0
  148.7672  139.6674  154.1080 C   0  0  0  0  0  0  0  0  0  0  0  0
  150.0702  139.5735  154.6684 C   0  0  0  0  0  0  0  0  0  0  0  0
  150.4893  140.7481  155.1170 N   0  0  0  0  0  0  0  0  0  0  0  0
  149.4665  141.5908  154.8482 N   0  0  0  0  0  0  0  0  0  0  0  0
  148.3970  140.9771  154.2343 C   0  0  0  0  0  0  0  0  0  0  0  0
  143.7563  134.5113  152.2063 C   0  0  0  0  0  0  0  0  0  0  0  0
  149.5130  142.5714  155.0869 H   0  0  0  0  0  0  0  0  0  0  0  0
  144.5561  130.5886  150.9127 H   0  0  0  0  0  0  0  0  0  0  0  0
  145.3659  131.9756  151.6323 H   0  0  0  0  0  0  0  0  0  0  0  0
  145.1802  131.8692  149.8825 H   0  0  0  0  0  0  0  0  0  0  0  0
  142.6620  132.0608  150.1549 H   0  0  0  0  0  0  0  0  0  0  0  0
  142.8747  132.1157  151.8921 H   0  0  0  0  0  0  0  0  0  0  0  0
  145.3463  133.6160  149.9089 H   0  0  0  0  0  0  0  0  0  0  0  0
  144.1243  134.4438  148.9420 H   0  0  0  0  0  0  0  0  0  0  0  0
  146.0250  135.9192  150.1601 H   0  0  0  0  0  0  0  0  0  0  0  0
  144.3476  136.4610  150.2730 H   0  0  0  0  0  0  0  0  0  0  0  0
  145.8830  134.7735  152.2673 H   0  0  0  0  0  0  0  0  0  0  0  0
  144.4186  137.4246  152.4374 H   0  0  0  0  0  0  0  0  0  0  0  0
  144.6295  136.4711  153.8823 H   0  0  0  0  0  0  0  0  0  0  0  0
  147.1321  136.6970  152.5321 H   0  0  0  0  0  0  0  0  0  0  0  0
  148.6003  137.9167  153.0216 H   0  0  0  0  0  0  0  0  0  0  0  0
  150.7124  138.7100  154.7627 H   0  0  0  0  0  0  0  0  0  0  0  0
  147.5037  141.5161  153.9551 H   0  0  0  0  0  0  0  0  0  0  0  0
  142.8854  135.1212  152.4471 H   0  0  0  0  0  0  0  0  0  0  0  0
  143.8908  133.7946  153.0177 H   0  0  0  0  0  0  0  0  0  0  0  0
  142.6162  134.2419  150.5685 H   0  0  0  0  0  0  0  0  0  0  0  0
  1  2  1  0  0  0  0
  1 19  1  0  0  0  0
  1 20  1  0  0  0  0
  1 21  1  0  0  0  0
  2  3  1  0  0  0  0
  2 22  1  0  0  0  0
  2 23  1  0  0  0  0
  3 17  1  0  0  0  0
  3  4  1  0  0  0  0
  3 37  1  0  0  0  0
  4  5  1  0  0  0  0
  4 24  1  0  0  0  0
  4 25  1  0  0  0  0
  5  6  1  0  0  0  0
  5 26  1  0  0  0  0
  5 27  1  0  0  0  0
  6  7  1  0  0  0  0
  6 17  1  0  0  0  0
  6 28  1  0  0  0  0
  7  8  1  0  0  0  0
  7 29  1  0  0  0  0
  7 30  1  0  0  0  0
  8  9  1  0  0  0  0
  8 31  1  0  0  0  0
  9 10  2  0  0  0  0
  9 11  1  0  0  0  0
 11 12  1  0  0  0  0
 11 32  1  0  0  0  0
 12 16  2  0  0  0  0
 12 13  1  0  0  0  0
 13 14  2  0  0  0  0
 13 33  1  0  0  0  0
 14 15  1  0  0  0  0
 15 18  1  0  0  0  0
 15 16  1  0  0  0  0
 16 34  1  0  0  0  0
 17 35  1  0  0  0  0
 17 36  1  0  0  0  0
M  CHG  1   3   1
M  END
> <s_m_source_file>
AV-unprocessed.smi

> <i_m_source_file_index>
1588

> <i_lp_mmshare_version>
43012

> <i_f3d_flags>
0

> <s_epik_input>
W0NIM11bQ0gyXU4xW0NIMl1bQ0gyXVtDQEhdKFtDSDJdMSlbQ0gyXVtOSF1DKD1PKVtOSF1jMltjSF1uW25IXVtjSF0y

> <s_epik_cmdline>
J2VwaWtfcHl0aG9uJywgJy1waCcsICc3LjAnLCAnLXRuJywgJzgnLCAnLW1hJywgJzIwMCcsICctbWV0YWxfYmluZGluZycsICctaW1hZScsICc8aW5maWxlLm1hZT4nLCAnLW9tYWUnLCAnPG91dGZpbGUubWFlPic=

> <r_lp_tautomer_probability>
0.5

> <r_epik_Ionization_Penalty>
0.000628417

> <r_epik_Ionization_Penalty_Charging>
0.000582718

> <r_epik_Ionization_Penalty_Neutral>
4.56984e-05

> <r_epik_State_Penalty>
0.000366292

> <r_epik_Charging_Adjusted_Penalty>
0.00094901

> <i_epik_Tot_Q>
1

> <i_epik_Tot_abs_Q>
1

> <r_epik_Metal_State_Penalty>
-0

> <b_epik_Metal_Only>
0

> <s_lp_Force_Field>
OPLS_2005

> <r_lp_Energy>
30.8561

> <b_lp_Chiralities_Consistent>
1

> <s_lp_Variant>
AV-unprocessed.smi:1588-2

> <Gold.Version>
5.8.1

> <Gold.Id.Protein>
6NUR|6NUR_protein|mol2

> <Gold.PLP.Fitness>
41.3900

> <Gold.PLP.PLP>
-28.7415

> <Gold.PLP.part.hbond>
-4.9765

> <Gold.PLP.part.metal>
0.0000

> <Gold.PLP.part.buried>
0.7483

> <Gold.PLP.part.nonpolar>
-24.0479

> <Gold.PLP.part.repulsive>
0.4716

> <Gold.PLP.ligand.clash>
0.0000

> <Gold.PLP.ligand.torsion>
0.7084

> <Gold.PLP.Chemscore.Hbond>
4.6816

> <Gold.PLP.Chemscore.CHOScore>
0.0000

> <Gold.PLP.Chemscore.Metal>
0.0000

> <Gold.Chemscore.Hbonds>
donor molecule, donor type, donor heavy atom, donor atom, acceptor molecule, acceptor atom, score
      L1  H     3    37       P1 10186  2.00
      L1  H     8    31       P1  7948  1.00
      L1  H    11    32       P1  7948  0.94
      L1  H    15    18       P1  8028  0.32
      P1  H  7989  7998       L1    14  0.35

> <Gold.PLP.Chemscore.Internal.Correction>
0.0206

> <Gold.Rescore>
     Score         DG    S(hbond)    S(metal)    S(lipo)     H(rot)  DE(clash)    DE(int)     intcor
     17.90     -19.93       3.22        0.00      66.07       1.58       1.34       0.69       ----

> <Gold.Chemscore.Fitness>
17.8975

> <Gold.Chemscore.DG>
-19.9314

> <Gold.Chemscore.ZeroCoef>
-5.4800

> <Gold.Chemscore.Hbond>
3.2197

> <Gold.Chemscore.Metal>
0.0000

> <Gold.Chemscore.Lipo>
66.0729

> <Gold.Chemscore.Internal_Hbond>
0.0000

> <Gold.Chemscore.DEClash>
1.3423

> <Gold.Chemscore.DEInternal>
0.6917

> <Gold.Chemscore.Rot>
1.5753

> <Gold.Chemscore.Internal.Correction>
   9.000000E+99

> <Gold.Chemscore.Hbonds>
donor molecule, donor type, donor heavy atom, donor atom, acceptor molecule, acceptor atom, score
      L1  H     3    37       P1 10186  0.60
      L1  H     8    31       P1  7948  0.97
      L1  H    11    32       P1  7948  0.89
      L1  H    15    18       P1  8028  0.33

> <Gold.Chemscore.Hbond.Weighted>
-10.7537

> <Gold.Chemscore.Metal.Weighted>
-0.0000

> <Gold.Chemscore.Lipo.Weighted>
-7.7305

> <Gold.Chemscore.Internal_Hbond.Weighted>
0.0000

> <Gold.Chemscore.DEClash.Weighted>
1.3423

> <Gold.Chemscore.DEInternal.Weighted>
0.6917

> <Gold.Chemscore.Rot.Weighted>
4.0328

> <Gold.Chemscore.Internal.Correction.Weighted>
   9.000000E+99

> <Gold.Protein.RotatedTorsions>
[ 6907 6896 6895 6894 ] final  148.82 input  -60.11 | X-H torsion
[ 7974 7965 7964 7962 ] final  171.41 input  175.53 | X-H torsion
[ 8008 7997 7996 7995 ] final   37.47 input   59.86 | X-H torsion
[ 10167 10162 10161 10158 ] final  -70.12 input  -65.29 | X-H torsion
[ 10718 10713 10712 10709 ] final   71.76 input   66.30 | X-H torsion
[ 10763 10752 10751 10750 ] final   65.22 input  -60.55 | X-H torsion
[ 11005 11000 10999 10996 ] final   71.12 input  -57.11 | X-H torsion

> <Gold.Protein.ActiveResidues>
 VAL166  LYS551  ARG553  GLY616  TRP617  ASP618  TYR619  PRO620  LYS621  CYS622 
 ASP623  PHE694  ASN695  SER759  ASP760  ASP761  ALA762  ILE779  LEU786  VAL792 
 PHE793  MET794  SER795  GLU796  ALA797  LYS798  CYS799  TRP800  GLU811  SER814 

> <Gold.Protein.RotatedAtoms>
  152.1363  133.4437  159.4744 H   0  0  0  0  0  0  0  0  0  0  0  0  # atno 6907 bound_to 6896
  150.6882  134.2360  159.4462 H   0  0  0  0  0  0  0  0  0  0  0  0  # atno 6908 bound_to 6896
  152.0247  134.9802  160.0622 H   0  0  0  0  0  0  0  0  0  0  0  0  # atno 6909 bound_to 6896
  144.7295  139.9346  143.6426 H   0  0  0  0  0  0  0  0  0  0  0  0  # atno 7974 bound_to 7965
  155.2042  140.3318  155.4338 H   0  0  0  0  0  0  0  0  0  0  0  0  # atno 8008 bound_to 7997
  156.2395  140.1888  156.7077 H   0  0  0  0  0  0  0  0  0  0  0  0  # atno 8009 bound_to 7997
  154.6121  140.0607  156.9493 H   0  0  0  0  0  0  0  0  0  0  0  0  # atno 8010 bound_to 7997
  140.5377  143.2317  151.7147 H   0  0  0  0  0  0  0  0  0  0  0  0  # atno 10167 bound_to 10162
  157.6468  130.9545  150.0834 H   0  0  0  0  0  0  0  0  0  0  0  0  # atno 10718 bound_to 10713
  153.0087  135.5364  154.6634 H   0  0  0  0  0  0  0  0  0  0  0  0  # atno 10763 bound_to 10752
  154.5837  135.2852  155.0709 H   0  0  0  0  0  0  0  0  0  0  0  0  # atno 10764 bound_to 10752
  154.1829  135.6513  153.5091 H   0  0  0  0  0  0  0  0  0  0  0  0  # atno 10765 bound_to 10752
  139.9560  134.7143  156.0751 H   0  0  0  0  0  0  0  0  0  0  0  0  # atno 11005 bound_to 11000
  146.0831  139.3819  143.0452 LP  0  0  0  0  0  0  0  0  0  0  0  0  # atno 17320 bound_to 7965
  145.7813  140.9855  143.1097 LP  0  0  0  0  0  0  0  0  0  0  0  0  # atno 17321 bound_to 7965
  139.4977  144.4017  152.0174 LP  0  0  0  0  0  0  0  0  0  0  0  0  # atno 17342 bound_to 10162
  140.3124  144.3523  150.6030 LP  0  0  0  0  0  0  0  0  0  0  0  0  # atno 17343 bound_to 10162
  156.1804  130.3650  149.9043 LP  0  0  0  0  0  0  0  0  0  0  0  0  # atno 17370 bound_to 10713
  156.6997  130.8928  151.3598 LP  0  0  0  0  0  0  0  0  0  0  0  0  # atno 17371 bound_to 10713
  141.1232  133.6607  156.3268 LP  0  0  0  0  0  0  0  0  0  0  0  0  # atno 17394 bound_to 11000
  140.5607  134.5936  157.5433 LP  0  0  0  0  0  0  0  0  0  0  0  0  # atno 17395 bound_to 11000

$$$$
