AV-unprocessed.smi:2262|AV-procd|sdf|9139|dock6
  -GOLD-   2272012343D 1   1.00000     0.00000
 Structure written by MMmdl.
 43 44  0  0  0  0  0  0  0  0  2 V2000
  146.2409  131.3225  151.9772 C   0  0  0  0  0  0  0  0  0  0  0  0
  145.4659  132.5779  151.8764 N   0  3  2  0  0  0  0  0  0  0  0  0
  145.9793  133.4754  150.8119 C   0  0  0  0  0  0  0  0  0  0  0  0
  145.0729  134.7083  150.6408 C   0  0  0  0  0  0  0  0  0  0  0  0
  144.8759  135.4721  151.9627 C   0  0  2  0  0  0  0  0  0  0  0  0
  146.0974  136.1883  152.3315 N   0  0  0  0  0  0  0  0  0  0  0  0
  146.1409  137.4362  152.8223 C   0  0  0  0  0  0  0  0  0  0  0  0
  145.1342  138.1080  153.0494 O   0  0  0  0  0  0  0  0  0  0  0  0
  147.4079  137.8382  153.0281 N   0  0  0  0  0  0  0  0  0  0  0  0
  147.8584  139.0972  153.5084 C   0  0  0  0  0  0  0  0  0  0  0  0
  146.9382  140.1598  153.3699 C   0  0  0  0  0  0  0  0  0  0  0  0
  147.2950  141.4457  153.8184 C   0  0  0  0  0  0  0  0  0  0  0  0
  148.5631  141.6367  154.3954 C   0  0  0  0  0  0  0  0  0  0  0  0
  149.4254  140.5293  154.5032 C   0  0  0  0  0  0  0  0  0  0  0  0
  150.6688  140.7102  155.0730 O   0  0  0  0  0  0  0  0  0  0  0  0
  151.2748  139.6088  155.7443 C   0  0  0  0  0  0  0  0  0  0  0  0
  150.9396  139.6940  157.2366 C   0  0  0  0  0  0  0  0  0  0  0  0
  151.5711  138.7341  157.9117 F   0  0  0  0  0  0  0  0  0  0  0  0
  151.3047  140.8808  157.7203 F   0  0  0  0  0  0  0  0  0  0  0  0
  149.0774  139.2934  154.0680 N   0  0  0  0  0  0  0  0  0  0  0  0
  144.4206  134.4991  153.0696 C   0  0  0  0  0  0  0  0  0  0  0  0
  145.3461  133.2747  153.1808 C   0  0  0  0  0  0  0  0  0  0  0  0
  147.2721  131.5209  152.2721 H   0  0  0  0  0  0  0  0  0  0  0  0
  146.2526  130.7996  151.0204 H   0  0  0  0  0  0  0  0  0  0  0  0
  145.7961  130.6536  152.7148 H   0  0  0  0  0  0  0  0  0  0  0  0
  146.9979  133.7832  151.0524 H   0  0  0  0  0  0  0  0  0  0  0  0
  146.0289  132.9303  149.8686 H   0  0  0  0  0  0  0  0  0  0  0  0
  145.4796  135.3713  149.8761 H   0  0  0  0  0  0  0  0  0  0  0  0
  144.0999  134.3831  150.2706 H   0  0  0  0  0  0  0  0  0  0  0  0
  144.0905  136.2138  151.8051 H   0  0  0  0  0  0  0  0  0  0  0  0
  146.9728  135.7105  152.1750 H   0  0  0  0  0  0  0  0  0  0  0  0
  148.1343  137.1744  152.8052 H   0  0  0  0  0  0  0  0  0  0  0  0
  145.9670  139.9963  152.9255 H   0  0  0  0  0  0  0  0  0  0  0  0
  146.6062  142.2719  153.7221 H   0  0  0  0  0  0  0  0  0  0  0  0
  148.8670  142.6104  154.7504 H   0  0  0  0  0  0  0  0  0  0  0  0
  150.9230  138.6597  155.3359 H   0  0  0  0  0  0  0  0  0  0  0  0
  152.3577  139.6499  155.6143 H   0  0  0  0  0  0  0  0  0  0  0  0
  149.8699  139.5851  157.4163 H   0  0  0  0  0  0  0  0  0  0  0  0
  144.3581  135.0097  154.0313 H   0  0  0  0  0  0  0  0  0  0  0  0
  143.4087  134.1576  152.8470 H   0  0  0  0  0  0  0  0  0  0  0  0
  144.9462  132.5865  153.9265 H   0  0  0  0  0  0  0  0  0  0  0  0
  146.3352  133.5772  153.5286 H   0  0  0  0  0  0  0  0  0  0  0  0
  144.5293  132.3144  151.6044 H   0  0  0  0  0  0  0  0  0  0  0  0
  1  2  1  0  0  0  0
  1 23  1  0  0  0  0
  1 24  1  0  0  0  0
  1 25  1  0  0  0  0
  2 22  1  0  0  0  0
  2  3  1  0  0  0  0
  2 43  1  0  0  0  0
  3  4  1  0  0  0  0
  3 26  1  0  0  0  0
  3 27  1  0  0  0  0
  4  5  1  0  0  0  0
  4 28  1  0  0  0  0
  4 29  1  0  0  0  0
  5  6  1  0  0  0  0
  5 21  1  0  0  0  0
  5 30  1  0  0  0  0
  6  7  1  0  0  0  0
  6 31  1  0  0  0  0
  7  8  2  0  0  0  0
  7  9  1  0  0  0  0
  9 10  1  0  0  0  0
  9 32  1  0  0  0  0
 10 20  1  0  0  0  0
 10 11  2  0  0  0  0
 11 12  1  0  0  0  0
 11 33  1  0  0  0  0
 12 13  2  0  0  0  0
 12 34  1  0  0  0  0
 13 14  1  0  0  0  0
 13 35  1  0  0  0  0
 14 15  1  0  0  0  0
 14 20  2  0  0  0  0
 15 16  1  0  0  0  0
 16 17  1  0  0  0  0
 16 36  1  0  0  0  0
 16 37  1  0  0  0  0
 17 18  1  0  0  0  0
 17 19  1  0  0  0  0
 17 38  1  0  0  0  0
 21 22  1  0  0  0  0
 21 39  1  0  0  0  0
 21 40  1  0  0  0  0
 22 41  1  0  0  0  0
 22 42  1  0  0  0  0
M  CHG  1   2   1
M  END
> <s_m_source_file>
AV-unprocessed.smi

> <i_m_source_file_index>
2262

> <i_lp_mmshare_version>
43012

> <i_f3d_flags>
0

> <s_epik_input>
W0NIM11OMVtDSDJdW0NIMl1bQ0hdKFtDSDJdW0NIMl0xKVtOSF1DKD1PKVtOSF1jMltjSF1bY0hdW2NIXWMobjIpT1tDSDJdW0NIXShGKUY=

> <s_epik_cmdline>
J2VwaWtfcHl0aG9uJywgJy1waCcsICc3LjAnLCAnLXRuJywgJzgnLCAnLW1hJywgJzIwMCcsICctbWV0YWxfYmluZGluZycsICctaW1hZScsICc8aW5maWxlLm1hZT4nLCAnLW9tYWUnLCAnPG91dGZpbGUubWFlPic=

> <r_lp_tautomer_probability>
1

> <r_epik_Ionization_Penalty>
0.00369782

> <r_epik_Ionization_Penalty_Charging>
0.00366825

> <r_epik_Ionization_Penalty_Neutral>
2.95729e-05

> <r_epik_State_Penalty>
0.00261101

> <r_epik_Charging_Adjusted_Penalty>
0.00627926

> <i_epik_Tot_Q>
1

> <i_epik_Tot_abs_Q>
1

> <r_epik_Metal_State_Penalty>
-0

> <b_epik_Metal_Only>
0

> <s_lp_Force_Field>
OPLS_2005

> <r_lp_Energy>
16.3431

> <b_lp_Chiralities_Consistent>
1

> <s_lp_Variant>
AV-unprocessed.smi:2262-2

> <Gold.Version>
5.8.1

> <Gold.Id.Protein>
6NUR|6NUR_protein|mol2

> <Gold.PLP.Fitness>
38.5423

> <Gold.PLP.PLP>
-32.7828

> <Gold.PLP.part.hbond>
-2.9106

> <Gold.PLP.part.metal>
0.0000

> <Gold.PLP.part.buried>
-2.2853

> <Gold.PLP.part.nonpolar>
-29.4543

> <Gold.PLP.part.repulsive>
2.9997

> <Gold.PLP.ligand.clash>
0.0000

> <Gold.PLP.ligand.torsion>
0.9797

> <Gold.PLP.Chemscore.Hbond>
2.5677

> <Gold.PLP.Chemscore.CHOScore>
0.0000

> <Gold.PLP.Chemscore.Metal>
0.0000

> <Gold.Chemscore.Hbonds>
donor molecule, donor type, donor heavy atom, donor atom, acceptor molecule, acceptor atom, score
      L1  H     6    31       P1  7948  0.72
      L1  H     9    32       P1  7948  1.00
      P1  H  7989  7998       L1    15  0.81

> <Gold.PLP.Chemscore.Internal.Correction>
0.0158

> <Gold.Rescore>
     Score         DG    S(hbond)    S(metal)    S(lipo)     H(rot)  DE(clash)    DE(int)     intcor
     11.62     -14.46       1.74        0.00      62.94       1.64       0.57       2.27       ----

> <Gold.Chemscore.Fitness>
11.6227

> <Gold.Chemscore.DG>
-14.4557

> <Gold.Chemscore.ZeroCoef>
-5.4800

> <Gold.Chemscore.Hbond>
1.7421

> <Gold.Chemscore.Metal>
0.0000

> <Gold.Chemscore.Lipo>
62.9406

> <Gold.Chemscore.Internal_Hbond>
0.0000

> <Gold.Chemscore.DEClash>
0.5662

> <Gold.Chemscore.DEInternal>
2.2668

> <Gold.Chemscore.Rot>
1.6434

> <Gold.Chemscore.Internal.Correction>
   9.000000E+99

> <Gold.Chemscore.Hbonds>
donor molecule, donor type, donor heavy atom, donor atom, acceptor molecule, acceptor atom, score
      L1  H     6    31       P1  7948  0.69
      L1  H     9    32       P1  7948  0.94
      P1  H  7989  7998       L1    15  0.08

> <Gold.Chemscore.Hbond.Weighted>
-5.8186

> <Gold.Chemscore.Metal.Weighted>
-0.0000

> <Gold.Chemscore.Lipo.Weighted>
-7.3641

> <Gold.Chemscore.Internal_Hbond.Weighted>
0.0000

> <Gold.Chemscore.DEClash.Weighted>
0.5662

> <Gold.Chemscore.DEInternal.Weighted>
2.2668

> <Gold.Chemscore.Rot.Weighted>
4.2070

> <Gold.Chemscore.Internal.Correction.Weighted>
   9.000000E+99

> <Gold.Protein.RotatedTorsions>
[ 6907 6896 6895 6894 ] final   64.80 input  -60.11 | X-H torsion
[ 7974 7965 7964 7962 ] final  140.79 input  175.53 | X-H torsion
[ 8008 7997 7996 7995 ] final  -47.92 input   59.86 | X-H torsion
[ 10167 10162 10161 10158 ] final   49.10 input  -65.29 | X-H torsion
[ 10718 10713 10712 10709 ] final  -35.31 input   66.30 | X-H torsion
[ 10763 10752 10751 10750 ] final  169.80 input  -60.55 | X-H torsion
[ 11005 11000 10999 10996 ] final  -16.94 input  -57.11 | X-H torsion

> <Gold.Protein.ActiveResidues>
 VAL166  LYS551  ARG553  GLY616  TRP617  ASP618  TYR619  PRO620  LYS621  CYS622 
 ASP623  PHE694  ASN695  SER759  ASP760  ASP761  ALA762  ILE779  LEU786  VAL792 
 PHE793  MET794  SER795  GLU796  ALA797  LYS798  CYS799  TRP800  GLU811  SER814 

> <Gold.Protein.RotatedAtoms>
  152.4359  134.5687  159.9914 H   0  0  0  0  0  0  0  0  0  0  0  0  # atno 6907 bound_to 6896
  151.5797  133.3373  159.3014 H   0  0  0  0  0  0  0  0  0  0  0  0  # atno 6908 bound_to 6896
  150.8258  134.7522  159.6876 H   0  0  0  0  0  0  0  0  0  0  0  0  # atno 6909 bound_to 6896
  144.9155  139.5236  143.5688 H   0  0  0  0  0  0  0  0  0  0  0  0  # atno 7974 bound_to 7965
  154.4022  140.1334  156.4255 H   0  0  0  0  0  0  0  0  0  0  0  0  # atno 8008 bound_to 7997
  155.7602  140.3486  155.5174 H   0  0  0  0  0  0  0  0  0  0  0  0  # atno 8009 bound_to 7997
  155.8866  140.0996  157.1438 H   0  0  0  0  0  0  0  0  0  0  0  0  # atno 8010 bound_to 7997
  140.2864  144.3097  150.6251 H   0  0  0  0  0  0  0  0  0  0  0  0  # atno 10167 bound_to 10162
  156.3401  130.4292  149.7795 H   0  0  0  0  0  0  0  0  0  0  0  0  # atno 10718 bound_to 10713
  154.3883  135.2754  155.2170 H   0  0  0  0  0  0  0  0  0  0  0  0  # atno 10763 bound_to 10752
  154.4247  135.5992  153.6035 H   0  0  0  0  0  0  0  0  0  0  0  0  # atno 10764 bound_to 10752
  152.9832  135.5981  154.4135 H   0  0  0  0  0  0  0  0  0  0  0  0  # atno 10765 bound_to 10752
  140.8118  133.8135  155.9571 H   0  0  0  0  0  0  0  0  0  0  0  0  # atno 11005 bound_to 11000
  146.3179  139.7994  142.8968 LP  0  0  0  0  0  0  0  0  0  0  0  0  # atno 17320 bound_to 7965
  145.3383  141.0282  143.3407 LP  0  0  0  0  0  0  0  0  0  0  0  0  # atno 17321 bound_to 7965
  140.5769  143.2176  151.7499 LP  0  0  0  0  0  0  0  0  0  0  0  0  # atno 17342 bound_to 10162
  139.4949  144.4137  152.0053 LP  0  0  0  0  0  0  0  0  0  0  0  0  # atno 17343 bound_to 10162
  156.5034  130.8139  151.3141 LP  0  0  0  0  0  0  0  0  0  0  0  0  # atno 17370 bound_to 10713
  157.7445  130.9937  150.2682 LP  0  0  0  0  0  0  0  0  0  0  0  0  # atno 17371 bound_to 10713
  140.9190  134.2165  157.4938 LP  0  0  0  0  0  0  0  0  0  0  0  0  # atno 17394 bound_to 11000
  139.8713  134.9784  156.4995 LP  0  0  0  0  0  0  0  0  0  0  0  0  # atno 17395 bound_to 11000

$$$$
