AV-unprocessed.smi:1841|AV-procd|sdf|7497|dock6
  -GOLD-   22720 9203D 1   1.00000     0.00000
 Structure written by MMmdl.
 40 41  0  0  0  0  0  0  0  0  1 V2000
  146.8694  136.3571  162.0269 C   0  0  0  0  0  0  0  0  0  0  0  0
  147.8042  137.0442  161.2138 O   0  0  0  0  0  0  0  0  0  0  0  0
  148.1903  136.2926  160.0752 C   0  0  0  0  0  0  0  0  0  0  0  0
  149.1118  137.1471  159.1998 C   0  0  0  0  0  0  0  0  0  0  0  0
  150.0723  136.2965  158.5810 O   0  0  0  0  0  0  0  0  0  0  0  0
  149.7512  135.7045  157.3770 C   0  0  0  0  0  0  0  0  0  0  0  0
  150.7935  135.3936  156.4814 C   0  0  0  0  0  0  0  0  0  0  0  0
  150.4759  134.7954  155.2471 C   0  0  0  0  0  0  0  0  0  0  0  0
  149.1187  134.5339  154.9427 C   0  0  0  0  0  0  0  0  0  0  0  0
  148.6712  133.9241  153.7396 N   0  0  0  0  0  0  0  0  0  0  0  0
  147.4466  133.4495  153.4450 C   0  0  0  0  0  0  0  0  0  0  0  0
  146.4876  133.4646  154.2168 O   0  0  0  0  0  0  0  0  0  0  0  0
  147.2848  132.8336  152.0455 C   0  0  1  0  0  0  0  0  0  0  0  0
  146.8574  131.3536  152.1270 C   0  0  0  0  0  0  0  0  0  0  0  0
  145.4425  131.3473  151.5729 C   0  0  0  0  0  0  0  0  0  0  0  0
  144.7294  130.3450  151.5732 O   0  0  0  0  0  0  0  0  0  0  0  0
  145.1033  132.5553  151.1145 N   0  0  0  0  0  0  0  0  0  0  0  0
  143.8138  132.9201  150.5436 C   0  0  0  0  0  0  0  0  0  0  0  0
  146.1778  133.5273  151.2205 C   0  0  0  0  0  0  0  0  0  0  0  0
  148.1529  134.8663  155.9153 C   0  0  0  0  0  0  0  0  0  0  0  0
  148.4504  135.4401  157.1001 N   0  0  0  0  0  0  0  0  0  0  0  0
  146.6018  136.9778  162.8820 H   0  0  0  0  0  0  0  0  0  0  0  0
  147.2886  135.4242  162.4064 H   0  0  0  0  0  0  0  0  0  0  0  0
  145.9560  136.1321  161.4748 H   0  0  0  0  0  0  0  0  0  0  0  0
  148.6901  135.3674  160.3662 H   0  0  0  0  0  0  0  0  0  0  0  0
  147.2993  136.0200  159.5078 H   0  0  0  0  0  0  0  0  0  0  0  0
  148.5179  137.6417  158.4294 H   0  0  0  0  0  0  0  0  0  0  0  0
  149.5918  137.9199  159.8027 H   0  0  0  0  0  0  0  0  0  0  0  0
  151.8203  135.6091  156.7379 H   0  0  0  0  0  0  0  0  0  0  0  0
  151.2762  134.5405  154.5699 H   0  0  0  0  0  0  0  0  0  0  0  0
  149.3848  133.7690  153.0422 H   0  0  0  0  0  0  0  0  0  0  0  0
  148.2332  132.9105  151.5106 H   0  0  0  0  0  0  0  0  0  0  0  0
  147.4946  130.7248  151.5045 H   0  0  0  0  0  0  0  0  0  0  0  0
  146.8710  130.9474  153.1400 H   0  0  0  0  0  0  0  0  0  0  0  0
  143.4935  132.1858  149.8031 H   0  0  0  0  0  0  0  0  0  0  0  0
  143.8645  133.8925  150.0528 H   0  0  0  0  0  0  0  0  0  0  0  0
  143.0559  132.9728  151.3257 H   0  0  0  0  0  0  0  0  0  0  0  0
  145.8151  134.4492  151.6789 H   0  0  0  0  0  0  0  0  0  0  0  0
  146.5384  133.7767  150.2216 H   0  0  0  0  0  0  0  0  0  0  0  0
  147.1054  134.6725  155.7360 H   0  0  0  0  0  0  0  0  0  0  0  0
  1  2  1  0  0  0  0
  1 22  1  0  0  0  0
  1 23  1  0  0  0  0
  1 24  1  0  0  0  0
  2  3  1  0  0  0  0
  3  4  1  0  0  0  0
  3 25  1  0  0  0  0
  3 26  1  0  0  0  0
  4  5  1  0  0  0  0
  4 27  1  0  0  0  0
  4 28  1  0  0  0  0
  5  6  1  0  0  0  0
  6 21  1  0  0  0  0
  6  7  2  0  0  0  0
  7  8  1  0  0  0  0
  7 29  1  0  0  0  0
  8  9  2  0  0  0  0
  8 30  1  0  0  0  0
  9 10  1  0  0  0  0
  9 20  1  0  0  0  0
 10 11  1  0  0  0  0
 10 31  1  0  0  0  0
 11 12  2  0  0  0  0
 11 13  1  0  0  0  0
 13 19  1  0  0  0  0
 13 14  1  0  0  0  0
 13 32  1  0  0  0  0
 14 15  1  0  0  0  0
 14 33  1  0  0  0  0
 14 34  1  0  0  0  0
 15 16  2  0  0  0  0
 15 17  1  0  0  0  0
 17 18  1  0  0  0  0
 17 19  1  0  0  0  0
 18 35  1  0  0  0  0
 18 36  1  0  0  0  0
 18 37  1  0  0  0  0
 19 38  1  0  0  0  0
 19 39  1  0  0  0  0
 20 21  2  0  0  0  0
 20 40  1  0  0  0  0
M  END
> <s_m_source_file>
AV-unprocessed.smi

> <i_m_source_file_index>
1841

> <i_lp_mmshare_version>
43012

> <i_f3d_flags>
0

> <s_epik_input>
W0NIM11PW0NIMl1bQ0gyXU9jMVtjSF1bY0hdYyhbY0hdbjEpW05IXUMoPU8pW0NAQEhdMltDSDJdQyg9TylOKFtDSDNdKVtDSDJdMg==

> <s_epik_cmdline>
J2VwaWtfcHl0aG9uJywgJy1waCcsICc3LjAnLCAnLXRuJywgJzgnLCAnLW1hJywgJzIwMCcsICctbWV0YWxfYmluZGluZycsICctaW1hZScsICc8aW5maWxlLm1hZT4nLCAnLW9tYWUnLCAnPG91dGZpbGUubWFlPic=

> <r_lp_tautomer_probability>
1

> <r_epik_Ionization_Penalty>
1.70347e-05

> <r_epik_Ionization_Penalty_Charging>
0

> <r_epik_Ionization_Penalty_Neutral>
1.70347e-05

> <r_epik_State_Penalty>
-0

> <r_epik_Charging_Adjusted_Penalty>
0

> <i_epik_Tot_Q>
0

> <i_epik_Tot_abs_Q>
0

> <r_epik_Metal_State_Penalty>
-0

> <b_epik_Metal_Only>
0

> <s_lp_Force_Field>
OPLS_2005

> <r_lp_Energy>
17.1342

> <b_lp_Chiralities_Consistent>
1

> <s_lp_Variant>
AV-unprocessed.smi:1841-2

> <Gold.Version>
5.8.1

> <Gold.Id.Protein>
6NUR|6NUR_protein|mol2

> <Gold.PLP.Fitness>
36.1251

> <Gold.PLP.PLP>
-29.5674

> <Gold.PLP.part.hbond>
-4.0000

> <Gold.PLP.part.metal>
0.0000

> <Gold.PLP.part.buried>
0.2396

> <Gold.PLP.part.nonpolar>
-25.2776

> <Gold.PLP.part.repulsive>
0.2403

> <Gold.PLP.ligand.clash>
0.0000

> <Gold.PLP.ligand.torsion>
0.7946

> <Gold.PLP.Chemscore.Hbond>
2.7040

> <Gold.PLP.Chemscore.CHOScore>
0.0000

> <Gold.PLP.Chemscore.Metal>
0.0000

> <Gold.Chemscore.Hbonds>
donor molecule, donor type, donor heavy atom, donor atom, acceptor molecule, acceptor atom, score
      P1  H  6896  6908       L1     5  1.00
      P1  H  6931  6943       L1     2  1.00
      P1  H  6934  6947       L1     2  0.70

> <Gold.PLP.Chemscore.Internal.Correction>
0.0350

> <Gold.Rescore>
     Score         DG    S(hbond)    S(metal)    S(lipo)     H(rot)  DE(clash)    DE(int)     intcor
     11.22     -13.75       1.83        0.00      61.12       1.95       0.27       2.25       ----

> <Gold.Chemscore.Fitness>
11.2240

> <Gold.Chemscore.DG>
-13.7454

> <Gold.Chemscore.ZeroCoef>
-5.4800

> <Gold.Chemscore.Hbond>
1.8259

> <Gold.Chemscore.Metal>
0.0000

> <Gold.Chemscore.Lipo>
61.1189

> <Gold.Chemscore.Internal_Hbond>
0.0000

> <Gold.Chemscore.DEClash>
0.2711

> <Gold.Chemscore.DEInternal>
2.2503

> <Gold.Chemscore.Rot>
1.9468

> <Gold.Chemscore.Internal.Correction>
   9.000000E+99

> <Gold.Chemscore.Hbonds>
donor molecule, donor type, donor heavy atom, donor atom, acceptor molecule, acceptor atom, score
      P1  H  6896  6908       L1     5  0.63
      P1  H  6931  6943       L1     2  0.91
      P1  H  6934  6947       L1     2  0.49

> <Gold.Chemscore.Hbond.Weighted>
-6.0983

> <Gold.Chemscore.Metal.Weighted>
-0.0000

> <Gold.Chemscore.Lipo.Weighted>
-7.1509

> <Gold.Chemscore.Internal_Hbond.Weighted>
0.0000

> <Gold.Chemscore.DEClash.Weighted>
0.2711

> <Gold.Chemscore.DEInternal.Weighted>
2.2503

> <Gold.Chemscore.Rot.Weighted>
4.9839

> <Gold.Chemscore.Internal.Correction.Weighted>
   9.000000E+99

> <Gold.Protein.RotatedTorsions>
[ 6907 6896 6895 6894 ] final -161.47 input  -60.11 | X-H torsion
[ 7974 7965 7964 7962 ] final  175.23 input  175.53 | X-H torsion
[ 8008 7997 7996 7995 ] final  132.79 input   59.86 | X-H torsion
[ 10167 10162 10161 10158 ] final -165.51 input  -65.29 | X-H torsion
[ 10718 10713 10712 10709 ] final   52.28 input   66.30 | X-H torsion
[ 10763 10752 10751 10750 ] final  -64.32 input  -60.55 | X-H torsion
[ 11005 11000 10999 10996 ] final -123.11 input  -57.11 | X-H torsion

> <Gold.Protein.ActiveResidues>
 VAL166  LYS551  ARG553  GLY616  TRP617  ASP618  TYR619  PRO620  LYS621  CYS622 
 ASP623  PHE694  ASN695  SER759  ASP760  ASP761  ALA762  ILE779  LEU786  VAL792 
 PHE793  MET794  SER795  GLU796  ALA797  LYS798  CYS799  TRP800  GLU811  SER814 

> <Gold.Protein.RotatedAtoms>
  151.3651  133.3875  159.2693 H   0  0  0  0  0  0  0  0  0  0  0  0  # atno 6907 bound_to 6896
  150.9695  134.9071  159.7789 H   0  0  0  0  0  0  0  0  0  0  0  0  # atno 6908 bound_to 6896
  152.5179  134.3613  159.9338 H   0  0  0  0  0  0  0  0  0  0  0  0  # atno 6909 bound_to 6896
  144.7206  139.9915  143.6440 H   0  0  0  0  0  0  0  0  0  0  0  0  # atno 7974 bound_to 7965
  156.2986  140.2537  156.3147 H   0  0  0  0  0  0  0  0  0  0  0  0  # atno 8008 bound_to 7997
  154.9293  140.0399  157.2058 H   0  0  0  0  0  0  0  0  0  0  0  0  # atno 8009 bound_to 7997
  154.8234  140.2864  155.5775 H   0  0  0  0  0  0  0  0  0  0  0  0  # atno 8010 bound_to 7997
  139.6177  144.0687  152.1903 H   0  0  0  0  0  0  0  0  0  0  0  0  # atno 10167 bound_to 10162
  157.5060  130.8469  149.8375 H   0  0  0  0  0  0  0  0  0  0  0  0  # atno 10718 bound_to 10713
  154.3284  135.6182  153.5540 H   0  0  0  0  0  0  0  0  0  0  0  0  # atno 10763 bound_to 10752
  152.9813  135.5741  154.4990 H   0  0  0  0  0  0  0  0  0  0  0  0  # atno 10764 bound_to 10752
  154.4672  135.2858  155.1646 H   0  0  0  0  0  0  0  0  0  0  0  0  # atno 10765 bound_to 10752
  140.9944  134.0493  157.3615 H   0  0  0  0  0  0  0  0  0  0  0  0  # atno 11005 bound_to 11000
  146.0408  139.3420  143.0698 LP  0  0  0  0  0  0  0  0  0  0  0  0  # atno 17320 bound_to 7965
  145.8337  140.9617  143.0835 LP  0  0  0  0  0  0  0  0  0  0  0  0  # atno 17321 bound_to 7965
  140.0321  144.6073  150.7479 LP  0  0  0  0  0  0  0  0  0  0  0  0  # atno 17342 bound_to 10162
  140.7362  143.2750  151.3771 LP  0  0  0  0  0  0  0  0  0  0  0  0  # atno 17343 bound_to 10162
  156.0258  130.3780  150.1826 LP  0  0  0  0  0  0  0  0  0  0  0  0  # atno 17370 bound_to 10713
  157.0016  130.9924  151.3389 LP  0  0  0  0  0  0  0  0  0  0  0  0  # atno 17371 bound_to 10713
  139.9007  135.0163  156.7256 LP  0  0  0  0  0  0  0  0  0  0  0  0  # atno 17394 bound_to 11000
  140.6989  133.9324  155.8012 LP  0  0  0  0  0  0  0  0  0  0  0  0  # atno 17395 bound_to 11000

$$$$
