AV-unprocessed.smi:2881|AV-procd|sdf|11066|dock8
  -GOLD-   2272015543D 1   1.00000     0.00000
 Structure written by MMmdl.
 40 42  0  0  0  0  0  0  0  0  1 V2000
  142.2905  134.7780  152.7306 C   0  0  0  0  0  0  0  0  0  0  0  0
  143.1672  135.9959  152.7333 C   0  0  0  0  0  0  0  0  0  0  0  0
  144.5770  136.0610  152.5326 C   0  0  0  0  0  0  0  0  0  0  0  0
  144.8710  137.3928  152.6248 C   0  0  0  0  0  0  0  0  0  0  0  0
  146.1644  138.1308  152.4792 C   0  0  0  0  0  0  0  0  0  0  0  0
  146.8407  138.3050  153.8395 C   0  0  0  0  0  0  0  0  0  0  0  0
  146.2003  138.7405  154.7957 O   0  0  0  0  0  0  0  0  0  0  0  0
  148.1436  137.9878  153.9002 N   0  0  0  0  0  0  0  0  0  0  0  0
  149.0204  138.1983  155.0511 C   0  0  1  0  0  0  0  0  0  0  0  0
  150.3981  137.5498  154.7962 C   0  0  2  0  0  0  0  0  0  0  0  0
  151.1629  137.4535  156.1289 C   0  0  0  0  0  0  0  0  0  0  0  0
  151.5301  138.9230  156.4100 C   0  0  0  0  0  0  0  0  0  0  0  0
  150.9295  139.6653  155.1991 C   0  0  1  0  0  0  0  0  0  0  0  0
  151.1622  138.6576  154.0806 C   0  0  0  0  0  0  0  0  0  0  0  0
  149.3861  139.6900  155.3248 C   0  0  1  0  0  0  0  0  0  0  0  0
  148.7143  140.7378  154.4055 C   0  0  0  0  0  0  0  0  0  0  0  0
  149.5417  141.0310  153.2998 O   0  0  0  0  0  0  0  0  0  0  0  0
  143.6778  138.0316  152.8767 N   0  0  0  0  0  0  0  0  0  0  0  0
  142.6306  137.1893  152.9413 N   0  0  0  0  0  0  0  0  0  0  0  0
  143.5644  139.0286  152.9949 H   0  0  0  0  0  0  0  0  0  0  0  0
  142.6029  134.0744  151.9588 H   0  0  0  0  0  0  0  0  0  0  0  0
  141.2471  135.0327  152.5408 H   0  0  0  0  0  0  0  0  0  0  0  0
  142.3385  134.2620  153.6895 H   0  0  0  0  0  0  0  0  0  0  0  0
  145.2657  135.2520  152.3396 H   0  0  0  0  0  0  0  0  0  0  0  0
  145.9916  139.1125  152.0366 H   0  0  0  0  0  0  0  0  0  0  0  0
  146.8298  137.5930  151.8024 H   0  0  0  0  0  0  0  0  0  0  0  0
  148.5791  137.6319  153.0615 H   0  0  0  0  0  0  0  0  0  0  0  0
  148.5630  137.7495  155.9348 H   0  0  0  0  0  0  0  0  0  0  0  0
  150.3509  136.6011  154.2602 H   0  0  0  0  0  0  0  0  0  0  0  0
  150.5620  137.0127  156.9253 H   0  0  0  0  0  0  0  0  0  0  0  0
  152.0636  136.8486  156.0168 H   0  0  0  0  0  0  0  0  0  0  0  0
  151.1281  139.2799  157.3588 H   0  0  0  0  0  0  0  0  0  0  0  0
  152.6134  139.0460  156.4411 H   0  0  0  0  0  0  0  0  0  0  0  0
  151.3801  140.6442  155.0336 H   0  0  0  0  0  0  0  0  0  0  0  0
  152.2163  138.4229  153.9223 H   0  0  0  0  0  0  0  0  0  0  0  0
  150.7172  138.9494  153.1283 H   0  0  0  0  0  0  0  0  0  0  0  0
  149.1083  139.9364  156.3510 H   0  0  0  0  0  0  0  0  0  0  0  0
  147.7447  140.3953  154.0435 H   0  0  0  0  0  0  0  0  0  0  0  0
  148.5483  141.6700  154.9454 H   0  0  0  0  0  0  0  0  0  0  0  0
  149.3929  140.3778  152.6328 H   0  0  0  0  0  0  0  0  0  0  0  0
  1 21  1  0  0  0  0
  1 22  1  0  0  0  0
  1 23  1  0  0  0  0
  1  2  1  0  0  0  0
  2 19  2  0  0  0  0
  2  3  1  0  0  0  0
  3  4  2  0  0  0  0
  3 24  1  0  0  0  0
  4 18  1  0  0  0  0
  4  5  1  0  0  0  0
  5  6  1  0  0  0  0
  5 25  1  0  0  0  0
  5 26  1  0  0  0  0
  6  7  2  0  0  0  0
  6  8  1  0  0  0  0
  8  9  1  0  0  0  0
  8 27  1  0  0  0  0
  9 15  1  0  0  0  0
  9 10  1  0  0  0  0
  9 28  1  0  0  0  0
 10 14  1  0  0  0  0
 10 11  1  0  0  0  0
 10 29  1  0  0  0  0
 11 12  1  0  0  0  0
 11 30  1  0  0  0  0
 11 31  1  0  0  0  0
 12 13  1  0  0  0  0
 12 32  1  0  0  0  0
 12 33  1  0  0  0  0
 13 14  1  0  0  0  0
 13 15  1  0  0  0  0
 13 34  1  0  0  0  0
 14 35  1  0  0  0  0
 14 36  1  0  0  0  0
 15 16  1  0  0  0  0
 15 37  1  0  0  0  0
 16 17  1  0  0  0  0
 16 38  1  0  0  0  0
 16 39  1  0  0  0  0
 17 40  1  0  0  0  0
 18 19  1  0  0  0  0
 18 20  1  0  0  0  0
M  END
> <s_m_source_file>
AV-unprocessed.smi

> <i_m_source_file_index>
2881

> <i_lp_mmshare_version>
43012

> <i_f3d_flags>
0

> <s_epik_input>
W0NIM11jMVtjSF1jKG5bbkhdMSlbQ0gyXUMoPU8pW05IXVtDQEhdKFtDQEBIXTIzKVtDQEhdKFtDSDJdW09IXSlbQ0BASF0oW0NIMl0zKVtDSDJdW0NIMl0y

> <s_epik_cmdline>
J2VwaWtfcHl0aG9uJywgJy1waCcsICc3LjAnLCAnLXRuJywgJzgnLCAnLW1hJywgJzIwMCcsICctbWV0YWxfYmluZGluZycsICctaW1hZScsICc8aW5maWxlLm1hZT4nLCAnLW9tYWUnLCAnPG91dGZpbGUubWFlPic=

> <r_lp_tautomer_probability>
0.5

> <r_epik_Ionization_Penalty>
0.00013396

> <r_epik_Ionization_Penalty_Charging>
0

> <r_epik_Ionization_Penalty_Neutral>
0.00013396

> <r_epik_State_Penalty>
0.41068

> <r_epik_Charging_Adjusted_Penalty>
0.41068

> <i_epik_Tot_Q>
0

> <i_epik_Tot_abs_Q>
0

> <r_epik_Metal_State_Penalty>
0.41066

> <b_epik_Metal_Only>
0

> <s_lp_Force_Field>
OPLS_2005

> <r_lp_Energy>
46.6503

> <b_lp_Chiralities_Consistent>
1

> <s_lp_Variant>
AV-unprocessed.smi:2881-12

> <Gold.Version>
5.8.1

> <Gold.Id.Protein>
6NUR|6NUR_protein|mol2

> <Gold.PLP.Fitness>
37.3523

> <Gold.PLP.PLP>
-29.1326

> <Gold.PLP.part.hbond>
-5.1759

> <Gold.PLP.part.metal>
0.0000

> <Gold.PLP.part.buried>
-4.7400

> <Gold.PLP.part.nonpolar>
-19.9983

> <Gold.PLP.part.repulsive>
0.3148

> <Gold.PLP.ligand.clash>
1.8117

> <Gold.PLP.ligand.torsion>
1.0306

> <Gold.PLP.Chemscore.Hbond>
4.0232

> <Gold.PLP.Chemscore.CHOScore>
0.0000

> <Gold.PLP.Chemscore.Metal>
0.0000

> <Gold.Chemscore.Hbonds>
donor molecule, donor type, donor heavy atom, donor atom, acceptor molecule, acceptor atom, score
      L1  H     8    27       P1  7948  1.00
      L1  H    17    40       P1  7957  0.87
      L1  H    18    20       P1 10175  0.94
      P1  H  7989  7998       L1    17  0.15
      P1  H  8011  8017       L1    17  1.00

> <Gold.PLP.Chemscore.Internal.Correction>
0.0230

> <Gold.Rescore>
     Score         DG    S(hbond)    S(metal)    S(lipo)     H(rot)  DE(clash)    DE(int)     intcor
     17.13     -19.35       3.38        0.00      71.94       2.28       0.15       2.07       ----

> <Gold.Chemscore.Fitness>
17.1335

> <Gold.Chemscore.DG>
-19.3507

> <Gold.Chemscore.ZeroCoef>
-5.4800

> <Gold.Chemscore.Hbond>
3.3768

> <Gold.Chemscore.Metal>
0.0000

> <Gold.Chemscore.Lipo>
71.9432

> <Gold.Chemscore.Internal_Hbond>
0.0000

> <Gold.Chemscore.DEClash>
0.1490

> <Gold.Chemscore.DEInternal>
2.0682

> <Gold.Chemscore.Rot>
2.2755

> <Gold.Chemscore.Internal.Correction>
   9.000000E+99

> <Gold.Chemscore.Hbonds>
donor molecule, donor type, donor heavy atom, donor atom, acceptor molecule, acceptor atom, score
      L1  H     8    27       P1  7948  0.97
      L1  H    17    40       P1  7957  0.80
      L1  H    18    20       P1 10175  0.86
      P1  H  7989  7998       L1    17  0.03
      P1  H  8011  8017       L1    17  0.25

> <Gold.Chemscore.Hbond.Weighted>
-11.2786

> <Gold.Chemscore.Metal.Weighted>
-0.0000

> <Gold.Chemscore.Lipo.Weighted>
-8.4174

> <Gold.Chemscore.Internal_Hbond.Weighted>
0.0000

> <Gold.Chemscore.DEClash.Weighted>
0.1490

> <Gold.Chemscore.DEInternal.Weighted>
2.0682

> <Gold.Chemscore.Rot.Weighted>
5.8252

> <Gold.Chemscore.Internal.Correction.Weighted>
   9.000000E+99

> <Gold.Protein.RotatedTorsions>
[ 6907 6896 6895 6894 ] final  -81.42 input  -60.11 | X-H torsion
[ 7974 7965 7964 7962 ] final  -87.38 input  175.53 | X-H torsion
[ 8008 7997 7996 7995 ] final  -98.73 input   59.86 | X-H torsion
[ 10167 10162 10161 10158 ] final  128.01 input  -65.29 | X-H torsion
[ 10718 10713 10712 10709 ] final    1.07 input   66.30 | X-H torsion
[ 10763 10752 10751 10750 ] final  133.38 input  -60.55 | X-H torsion
[ 11005 11000 10999 10996 ] final -147.60 input  -57.11 | X-H torsion

> <Gold.Protein.ActiveResidues>
 VAL166  LYS551  ARG553  GLY616  TRP617  ASP618  TYR619  PRO620  LYS621  CYS622 
 ASP623  PHE694  ASN695  SER759  ASP760  ASP761  ALA762  ILE779  LEU786  VAL792 
 PHE793  MET794  SER795  GLU796  ALA797  LYS798  CYS799  TRP800  GLU811  SER814 

> <Gold.Protein.RotatedAtoms>
  150.6912  134.3819  159.5037 H   0  0  0  0  0  0  0  0  0  0  0  0  # atno 6907 bound_to 6896
  152.1620  134.8901  160.0550 H   0  0  0  0  0  0  0  0  0  0  0  0  # atno 6908 bound_to 6896
  151.9959  133.3773  159.4199 H   0  0  0  0  0  0  0  0  0  0  0  0  # atno 6909 bound_to 6896
  145.4673  140.9560  143.1936 H   0  0  0  0  0  0  0  0  0  0  0  0  # atno 7974 bound_to 7965
  154.8051  140.0453  157.1302 H   0  0  0  0  0  0  0  0  0  0  0  0  # atno 8008 bound_to 7997
  154.9433  140.3055  155.5090 H   0  0  0  0  0  0  0  0  0  0  0  0  # atno 8009 bound_to 7997
  156.2966  140.2301  156.4504 H   0  0  0  0  0  0  0  0  0  0  0  0  # atno 8010 bound_to 7997
  139.5549  144.6841  151.4213 H   0  0  0  0  0  0  0  0  0  0  0  0  # atno 10167 bound_to 10162
  156.8428  130.5527  149.5676 H   0  0  0  0  0  0  0  0  0  0  0  0  # atno 10718 bound_to 10713
  153.8061  135.3135  155.3395 H   0  0  0  0  0  0  0  0  0  0  0  0  # atno 10763 bound_to 10752
  154.8070  135.4692  154.0420 H   0  0  0  0  0  0  0  0  0  0  0  0  # atno 10764 bound_to 10752
  153.1783  135.6889  153.8600 H   0  0  0  0  0  0  0  0  0  0  0  0  # atno 10765 bound_to 10752
  140.7699  134.3201  157.5078 H   0  0  0  0  0  0  0  0  0  0  0  0  # atno 11005 bound_to 11000
  144.7966  139.6221  143.7090 LP  0  0  0  0  0  0  0  0  0  0  0  0  # atno 17320 bound_to 7965
  146.2417  139.6015  142.9487 LP  0  0  0  0  0  0  0  0  0  0  0  0  # atno 17321 bound_to 7965
  140.6819  143.8061  150.7133 LP  0  0  0  0  0  0  0  0  0  0  0  0  # atno 17342 bound_to 10162
  140.1517  143.4351  152.2126 LP  0  0  0  0  0  0  0  0  0  0  0  0  # atno 17343 bound_to 10162
  156.0871  130.5867  150.9668 LP  0  0  0  0  0  0  0  0  0  0  0  0  # atno 17370 bound_to 10713
  157.6346  131.0917  150.8373 LP  0  0  0  0  0  0  0  0  0  0  0  0  # atno 17371 bound_to 10713
  139.8757  134.9254  156.3375 LP  0  0  0  0  0  0  0  0  0  0  0  0  # atno 17394 bound_to 11000
  140.9583  133.7405  156.0366 LP  0  0  0  0  0  0  0  0  0  0  0  0  # atno 17395 bound_to 11000

$$$$
