AV-unprocessed.smi:415|AV-procd|sdf|2522|dock9
  -GOLD-   2262022473D 1   1.00000     0.00000
 Structure written by MMmdl.
 53 54  0  0  0  0  0  0  0  0  1 V2000
  144.4444  133.9783  151.9020 C   0  0  0  0  0  0  0  0  0  0  0  0
  145.7648  133.5049  151.7055 O   0  0  0  0  0  0  0  0  0  0  0  0
  146.5199  133.4783  152.9054 C   0  0  0  0  0  0  0  0  0  0  0  0
  147.9613  133.0303  152.6115 C   0  0  0  0  0  0  0  0  0  0  0  0
  148.7753  132.9135  153.8072 N   0  0  0  0  0  0  0  0  0  0  0  0
  149.4053  131.7302  154.1825 C   0  0  0  0  0  0  0  0  0  0  0  0
  149.2809  130.6070  153.3844 N   0  0  0  0  0  0  0  0  0  0  0  0
  150.1482  131.6533  155.3087 C   0  0  0  0  0  0  0  0  0  0  0  0
  150.3314  132.7987  156.1884 C   0  0  0  0  0  0  0  0  0  0  0  0
  150.9716  132.7389  157.2384 O   0  0  0  0  0  0  0  0  0  0  0  0
  149.7075  133.9978  155.7738 N   0  0  0  0  0  0  0  0  0  0  0  0
  149.8154  135.1916  156.6474 C   0  0  0  0  0  0  0  0  0  0  0  0
  151.0779  136.0399  156.4073 C   0  0  0  0  0  0  0  0  0  0  0  0
  152.1876  135.5398  156.5848 O   0  0  0  0  0  0  0  0  0  0  0  0
  150.9021  137.3104  156.0114 N   0  0  0  0  0  0  0  0  0  0  0  0
  151.9394  138.2960  155.7248 C   0  0  2  0  0  0  0  0  0  0  0  0
  153.0685  138.2098  156.7701 C   0  0  0  0  0  0  0  0  0  0  0  0
  152.5903  138.6571  158.1594 C   0  0  0  0  0  0  0  0  0  0  0  0
  151.9958  140.0710  158.1061 C   0  0  0  0  0  0  0  0  0  0  0  0
  150.8508  140.1856  157.0779 C   0  0  1  0  0  0  0  0  0  0  0  0
  150.2923  141.6197  157.0778 C   0  0  0  0  0  0  0  0  0  0  0  0
  151.3252  139.7191  155.6716 C   0  0  2  0  0  0  0  0  0  0  0  0
  150.2140  139.8057  154.6045 C   0  0  0  0  0  0  0  0  0  0  0  0
  148.9342  134.0839  154.5929 C   0  0  0  0  0  0  0  0  0  0  0  0
  148.4027  135.1517  154.2768 O   0  0  0  0  0  0  0  0  0  0  0  0
  143.9127  133.9845  150.9504 H   0  0  0  0  0  0  0  0  0  0  0  0
  144.4439  134.9958  152.2947 H   0  0  0  0  0  0  0  0  0  0  0  0
  143.8940  133.3362  152.5908 H   0  0  0  0  0  0  0  0  0  0  0  0
  146.5354  134.4780  153.3420 H   0  0  0  0  0  0  0  0  0  0  0  0
  146.0557  132.8132  153.6355 H   0  0  0  0  0  0  0  0  0  0  0  0
  148.0026  132.0914  152.0573 H   0  0  0  0  0  0  0  0  0  0  0  0
  148.4663  133.7523  151.9704 H   0  0  0  0  0  0  0  0  0  0  0  0
  148.7429  130.6164  152.5296 H   0  0  0  0  0  0  0  0  0  0  0  0
  149.7230  129.7311  153.6243 H   0  0  0  0  0  0  0  0  0  0  0  0
  150.6207  130.7186  155.5751 H   0  0  0  0  0  0  0  0  0  0  0  0
  148.9449  135.8397  156.5349 H   0  0  0  0  0  0  0  0  0  0  0  0
  149.7921  134.9064  157.7002 H   0  0  0  0  0  0  0  0  0  0  0  0
  149.9502  137.6257  155.8937 H   0  0  0  0  0  0  0  0  0  0  0  0
  152.3635  138.0729  154.7441 H   0  0  0  0  0  0  0  0  0  0  0  0
  153.4644  137.1946  156.8209 H   0  0  0  0  0  0  0  0  0  0  0  0
  153.8991  138.8425  156.4553 H   0  0  0  0  0  0  0  0  0  0  0  0
  151.8449  137.9581  158.5408 H   0  0  0  0  0  0  0  0  0  0  0  0
  153.4226  138.6312  158.8631 H   0  0  0  0  0  0  0  0  0  0  0  0
  151.6351  140.3462  159.0978 H   0  0  0  0  0  0  0  0  0  0  0  0
  152.7840  140.7838  157.8586 H   0  0  0  0  0  0  0  0  0  0  0  0
  150.0444  139.5271  157.4050 H   0  0  0  0  0  0  0  0  0  0  0  0
  151.0232  142.3305  156.6912 H   0  0  0  0  0  0  0  0  0  0  0  0
  150.0256  141.9352  158.0869 H   0  0  0  0  0  0  0  0  0  0  0  0
  149.3895  141.7020  156.4734 H   0  0  0  0  0  0  0  0  0  0  0  0
  152.1207  140.3947  155.3529 H   0  0  0  0  0  0  0  0  0  0  0  0
  149.3180  139.2632  154.9087 H   0  0  0  0  0  0  0  0  0  0  0  0
  150.5494  139.3853  153.6561 H   0  0  0  0  0  0  0  0  0  0  0  0
  149.9259  140.8377  154.4072 H   0  0  0  0  0  0  0  0  0  0  0  0
  1  2  1  0  0  0  0
  1 26  1  0  0  0  0
  1 27  1  0  0  0  0
  1 28  1  0  0  0  0
  2  3  1  0  0  0  0
  3  4  1  0  0  0  0
  3 29  1  0  0  0  0
  3 30  1  0  0  0  0
  4  5  1  0  0  0  0
  4 31  1  0  0  0  0
  4 32  1  0  0  0  0
  5 24  1  0  0  0  0
  5  6  1  0  0  0  0
  6  7  1  0  0  0  0
  6  8  2  0  0  0  0
  7 33  1  0  0  0  0
  7 34  1  0  0  0  0
  8  9  1  0  0  0  0
  8 35  1  0  0  0  0
  9 10  2  0  0  0  0
  9 11  1  0  0  0  0
 11 12  1  0  0  0  0
 11 24  1  0  0  0  0
 12 13  1  0  0  0  0
 12 36  1  0  0  0  0
 12 37  1  0  0  0  0
 13 14  2  0  0  0  0
 13 15  1  0  0  0  0
 15 16  1  0  0  0  0
 15 38  1  0  0  0  0
 16 22  1  0  0  0  0
 16 17  1  0  0  0  0
 16 39  1  0  0  0  0
 17 18  1  0  0  0  0
 17 40  1  0  0  0  0
 17 41  1  0  0  0  0
 18 19  1  0  0  0  0
 18 42  1  0  0  0  0
 18 43  1  0  0  0  0
 19 20  1  0  0  0  0
 19 44  1  0  0  0  0
 19 45  1  0  0  0  0
 20 21  1  0  0  0  0
 20 22  1  0  0  0  0
 20 46  1  0  0  0  0
 21 47  1  0  0  0  0
 21 48  1  0  0  0  0
 21 49  1  0  0  0  0
 22 23  1  0  0  0  0
 22 50  1  0  0  0  0
 23 51  1  0  0  0  0
 23 52  1  0  0  0  0
 23 53  1  0  0  0  0
 24 25  2  0  0  0  0
M  END
> <s_m_source_file>
AV-unprocessed.smi

> <i_m_source_file_index>
415

> <i_lp_mmshare_version>
43012

> <i_f3d_flags>
0

> <s_epik_input>
W0NIM11PW0NIMl1bQ0gyXW4xYyhbTkgyXSlbY0hdYyg9TyluKGMxPU8pW0NIMl1DKD1PKVtOSF1bQ0BASF0yW0NIMl1bQ0gyXVtDSDJdW0NAQEhdKFtDSDNdKVtDQEhdMltDSDNd

> <s_epik_cmdline>
J2VwaWtfcHl0aG9uJywgJy1waCcsICc3LjAnLCAnLXRuJywgJzgnLCAnLW1hJywgJzIwMCcsICctbWV0YWxfYmluZGluZycsICctaW1hZScsICc8aW5maWxlLm1hZT4nLCAnLW9tYWUnLCAnPG91dGZpbGUubWFlPic=

> <r_lp_tautomer_probability>
1

> <r_epik_Ionization_Penalty>
8.6647e-06

> <r_epik_Ionization_Penalty_Charging>
1.81162e-08

> <r_epik_Ionization_Penalty_Neutral>
8.64658e-06

> <r_epik_State_Penalty>
-0

> <r_epik_Charging_Adjusted_Penalty>
1.81162e-08

> <i_epik_Tot_Q>
0

> <i_epik_Tot_abs_Q>
0

> <r_epik_Metal_State_Penalty>
-0

> <b_epik_Metal_Only>
0

> <s_lp_Force_Field>
OPLS_2005

> <r_lp_Energy>
19.7433

> <b_lp_Chiralities_Consistent>
1

> <s_lp_Variant>
AV-unprocessed.smi:415-5

> <Gold.Version>
5.8.1

> <Gold.Id.Protein>
6NUR|6NUR_protein|mol2

> <Gold.PLP.Fitness>
39.9854

> <Gold.PLP.PLP>
-34.3883

> <Gold.PLP.part.hbond>
-2.5475

> <Gold.PLP.part.metal>
0.0000

> <Gold.PLP.part.buried>
-1.0683

> <Gold.PLP.part.nonpolar>
-33.2041

> <Gold.PLP.part.repulsive>
3.2430

> <Gold.PLP.ligand.clash>
0.0000

> <Gold.PLP.ligand.torsion>
0.5826

> <Gold.PLP.Chemscore.Hbond>
2.2346

> <Gold.PLP.Chemscore.CHOScore>
0.0000

> <Gold.PLP.Chemscore.Metal>
0.0000

> <Gold.Chemscore.Hbonds>
donor molecule, donor type, donor heavy atom, donor atom, acceptor molecule, acceptor atom, score
      L1  H     7    33       P1 10747  0.36
      P1  H  6896  6908       L1    10  0.86
      P1  H 10752 10764       L1    14  1.00

> <Gold.PLP.Chemscore.Internal.Correction>
0.0586

> <Gold.Rescore>
     Score         DG    S(hbond)    S(metal)    S(lipo)     H(rot)  DE(clash)    DE(int)     intcor
      9.62     -14.80       2.13        0.00      68.34       2.26       1.94       3.24       ----

> <Gold.Chemscore.Fitness>
9.6240

> <Gold.Chemscore.DG>
-14.7984

> <Gold.Chemscore.ZeroCoef>
-5.4800

> <Gold.Chemscore.Hbond>
2.1318

> <Gold.Chemscore.Metal>
0.0000

> <Gold.Chemscore.Lipo>
68.3370

> <Gold.Chemscore.Internal_Hbond>
0.0000

> <Gold.Chemscore.DEClash>
1.9390

> <Gold.Chemscore.DEInternal>
3.2354

> <Gold.Chemscore.Rot>
2.2645

> <Gold.Chemscore.Internal.Correction>
   9.000000E+99

> <Gold.Chemscore.Hbonds>
donor molecule, donor type, donor heavy atom, donor atom, acceptor molecule, acceptor atom, score
      L1  H     7    33       P1 10747  0.20
      P1  H  6896  6908       L1    10  0.82
      P1  H 10752 10764       L1    14  0.97

> <Gold.Chemscore.Hbond.Weighted>
-7.1201

> <Gold.Chemscore.Metal.Weighted>
-0.0000

> <Gold.Chemscore.Lipo.Weighted>
-7.9954

> <Gold.Chemscore.Internal_Hbond.Weighted>
0.0000

> <Gold.Chemscore.DEClash.Weighted>
1.9390

> <Gold.Chemscore.DEInternal.Weighted>
3.2354

> <Gold.Chemscore.Rot.Weighted>
5.7972

> <Gold.Chemscore.Internal.Correction.Weighted>
   9.000000E+99

> <Gold.Protein.RotatedTorsions>
[ 6907 6896 6895 6894 ] final   85.62 input  -60.11 | X-H torsion
[ 7974 7965 7964 7962 ] final -179.36 input  175.53 | X-H torsion
[ 8008 7997 7996 7995 ] final -129.83 input   59.86 | X-H torsion
[ 10167 10162 10161 10158 ] final  -46.47 input  -65.29 | X-H torsion
[ 10718 10713 10712 10709 ] final  176.13 input   66.30 | X-H torsion
[ 10763 10752 10751 10750 ] final   -1.39 input  -60.55 | X-H torsion
[ 11005 11000 10999 10996 ] final   58.45 input  -57.11 | X-H torsion

> <Gold.Protein.ActiveResidues>
 VAL166  LYS551  ARG553  GLY616  TRP617  ASP618  TYR619  PRO620  LYS621  CYS622 
 ASP623  PHE694  ASN695  SER759  ASP760  ASP761  ALA762  ILE779  LEU786  VAL792 
 PHE793  MET794  SER795  GLU796  ALA797  LYS798  CYS799  TRP800  GLU811  SER814 

> <Gold.Protein.RotatedAtoms>
  152.5378  134.2558  159.8916 H   0  0  0  0  0  0  0  0  0  0  0  0  # atno 6907 bound_to 6896
  151.2520  133.4339  159.2619 H   0  0  0  0  0  0  0  0  0  0  0  0  # atno 6908 bound_to 6896
  151.0531  134.9700  159.8278 H   0  0  0  0  0  0  0  0  0  0  0  0  # atno 6909 bound_to 6896
  144.7136  140.0730  143.6428 H   0  0  0  0  0  0  0  0  0  0  0  0  # atno 7974 bound_to 7965
  155.2858  140.0446  157.3019 H   0  0  0  0  0  0  0  0  0  0  0  0  # atno 8008 bound_to 7997
  154.5570  140.2334  155.8362 H   0  0  0  0  0  0  0  0  0  0  0  0  # atno 8009 bound_to 7997
  156.2016  140.3024  155.9545 H   0  0  0  0  0  0  0  0  0  0  0  0  # atno 8010 bound_to 7997
  140.6816  143.2829  151.3787 H   0  0  0  0  0  0  0  0  0  0  0  0  # atno 10167 bound_to 10162
  156.9246  130.9951  151.2998 H   0  0  0  0  0  0  0  0  0  0  0  0  # atno 10718 bound_to 10713
  153.3443  135.6982  153.6841 H   0  0  0  0  0  0  0  0  0  0  0  0  # atno 10763 bound_to 10752
  153.5593  135.3538  155.2793 H   0  0  0  0  0  0  0  0  0  0  0  0  # atno 10764 bound_to 10752
  154.8642  135.4245  154.2663 H   0  0  0  0  0  0  0  0  0  0  0  0  # atno 10765 bound_to 10752
  140.0376  134.5920  155.9423 H   0  0  0  0  0  0  0  0  0  0  0  0  # atno 11005 bound_to 11000
  145.9767  139.2910  143.1066 LP  0  0  0  0  0  0  0  0  0  0  0  0  # atno 17320 bound_to 7965
  145.9056  140.9214  143.0480 LP  0  0  0  0  0  0  0  0  0  0  0  0  # atno 17321 bound_to 7965
  139.6143  144.1035  152.2330 LP  0  0  0  0  0  0  0  0  0  0  0  0  # atno 17342 bound_to 10162
  140.0459  144.5971  150.7374 LP  0  0  0  0  0  0  0  0  0  0  0  0  # atno 17343 bound_to 10162
  157.5886  130.8427  149.8626 LP  0  0  0  0  0  0  0  0  0  0  0  0  # atno 17370 bound_to 10713
  156.0475  130.3724  150.1281 LP  0  0  0  0  0  0  0  0  0  0  0  0  # atno 17371 bound_to 10713
  141.1866  133.6557  156.5246 LP  0  0  0  0  0  0  0  0  0  0  0  0  # atno 17394 bound_to 11000
  140.4121  134.7262  157.4842 LP  0  0  0  0  0  0  0  0  0  0  0  0  # atno 17395 bound_to 11000

$$$$
