#       Name:                AV-unprocessed.smi:466
#       Creating user name   scv26
#       Creation time:       Thu Mar 26 23:05:00 2020


#       File generated by GOLD software.
#

@<TRIPOS>MOLECULE
AV-unprocessed.smi:466
    50    52     1
SMALL
NO_CHARGES


@<TRIPOS>ATOM
      1 ****        -1.9381   5.3755   0.4947 C.3            1 S1                 0.0000
      2 ****        -1.5890   4.0120   0.3062 O.3            1 S1                 0.0000
      3 ****        -2.5946   3.1125   0.0161 C.ar           1 S1                 0.0000
      4 ****        -3.9587   3.4769  -0.1174 C.ar           1 S1                 0.0000
      5 ****        -4.9323   2.5055  -0.4116 C.ar           1 S1                 0.0000
      6 ****        -4.5562   1.1619  -0.5762 C.ar           1 S1                 0.0000
      7 ****        -3.2062   0.7889  -0.4471 C.ar           1 S1                 0.0000
      8 ****        -2.2159   1.7597  -0.1496 C.ar           1 S1                 0.0000
      9 ****        -0.8753   1.4657  -0.0072 O.3            1 S1                 0.0000
     10 ****        -0.4651   0.1096  -0.1074 C.3            1 S1                 0.0000
     11 ****         1.0480   0.0387   0.1283 C.3            1 S1                 0.0000
     12 ****         1.5295  -1.3332   0.0910 N.pl3          1 S1                 0.0000
     13 ****         1.9658  -2.0497  -0.9768 C.2            1 S1                 0.0000
     14 ****         2.0271  -1.4832  -2.3659 C.3            1 S1                 0.0000
     15 ****         3.4402  -1.0448  -2.7817 C.3            1 S1                 0.0000
     16 ****         3.8256   0.1321  -2.1033 O.3            1 S1                 0.0000
     17 ****         2.3482  -3.3009  -0.7162 N.2            1 S1                 0.0000
     18 ****         2.1365  -3.4079   0.6443 C.ar           1 S1                 0.0000
     19 ****         2.3472  -4.4938   1.5241 C.ar           1 S1                 0.0000
     20 ****         2.0483  -4.3687   2.8968 C.ar           1 S1                 0.0000
     21 ****         1.5350  -3.1591   3.4081 C.ar           1 S1                 0.0000
     22 ****         1.3191  -2.0646   2.5489 C.ar           1 S1                 0.0000
     23 ****         1.6211  -2.1941   1.1800 C.ar           1 S1                 0.0000
     24 ****        -1.0395   5.9474   0.7255 H              1 S1                 0.0000
     25 ****        -2.6297   5.4988   1.3292 H              1 S1                 0.0000
     26 ****        -2.3780   5.8030  -0.4072 H              1 S1                 0.0000
     27 ****        -4.2854   4.4985   0.0022 H              1 S1                 0.0000
     28 ****        -5.9689   2.7923  -0.5106 H              1 S1                 0.0000
     29 ****        -5.3035   0.4154  -0.8018 H              1 S1                 0.0000
     30 ****        -2.9559  -0.2522  -0.5821 H              1 S1                 0.0000
     31 ****        -0.9812  -0.4950   0.6404 H              1 S1                 0.0000
     32 ****        -0.7063  -0.2870  -1.0947 H              1 S1                 0.0000
     33 ****         1.5830   0.6367  -0.6087 H              1 S1                 0.0000
     34 ****         1.2939   0.4661   1.1009 H              1 S1                 0.0000
     35 ****         1.6888  -2.2611  -3.0513 H              1 S1                 0.0000
     36 ****         1.3168  -0.6657  -2.4844 H              1 S1                 0.0000
     37 ****         4.1671  -1.8366  -2.5980 H              1 S1                 0.0000
     38 ****         3.4593  -0.8333  -3.8510 H              1 S1                 0.0000
     39 ****         4.6943   0.3729  -2.3870 H              1 S1                 0.0000
     40 ****         2.7385  -5.4249   1.1415 H              1 S1                 0.0000
     41 ****         2.2128  -5.2048   3.5605 H              1 S1                 0.0000
     42 ****         1.3071  -3.0713   4.4604 H              1 S1                 0.0000
     43 ****         0.9257  -1.1370   2.9374 H              1 S1                 0.0000
     44 ****        -1.1471   3.7006   1.1475 LP             1 S1                 0.0000
     45 ****        -0.9331   3.9759  -0.4478 LP             1 S1                 0.0000
     46 ****        -0.5954   1.7929   0.8954 LP             1 S1                 0.0000
     47 ****        -0.3845   1.9756  -0.7136 LP             1 S1                 0.0000
     48 ****         3.8269  -0.0327  -1.1170 LP             1 S1                 0.0000
     49 ****         3.1849   0.8694  -2.3172 LP             1 S1                 0.0000
     50 ****         2.7007  -3.9903  -1.3490 LP             1 S1                 0.0000
@<TRIPOS>BOND
    1    1    2 1     
    2    1   24 1     
    3    1   25 1     
    4    1   26 1     
    5    2    3 1     
    6    3    8 ar    
    7    3    4 ar    
    8    4    5 ar    
    9    4   27 1     
   10    5    6 ar    
   11    5   28 1     
   12    6    7 ar    
   13    6   29 1     
   14    7    8 ar    
   15    7   30 1     
   16    8    9 1     
   17    9   10 1     
   18   10   11 1     
   19   10   31 1     
   20   10   32 1     
   21   11   12 1     
   22   11   33 1     
   23   11   34 1     
   24   12   23 1     
   25   12   13 1     
   26   13   14 1     
   27   13   17 2     
   28   14   15 1     
   29   14   35 1     
   30   14   36 1     
   31   15   16 1     
   32   15   37 1     
   33   15   38 1     
   34   16   39 1     
   35   17   18 1     
   36   18   23 ar    
   37   18   19 ar    
   38   19   20 ar    
   39   19   40 1     
   40   20   21 ar    
   41   20   41 1     
   42   21   22 ar    
   43   21   42 1     
   44   22   23 ar    
   45   22   43 1     
   46    2   44 1     
   47    2   45 1     
   48    9   46 1     
   49    9   47 1     
   50   16   48 1     
   51   16   49 1     
   52   17   50 1     
@<TRIPOS>SUBSTRUCTURE
      1 S1             1
@<TRIPOS>SET
LONE_PAIRS      STATIC     ATOMS    <user>   **** ""
7 44 45 46 47 48 49 50
DONOR_HYDROGENS      STATIC     ATOMS    <user>   **** ""
1 39
ATOM$BLUE        STATIC     ATOMS    COLORGROUP SYSTEM
7 44 45 46 47 48 49 50
ATOM$RED        STATIC     ATOMS    COLORGROUP SYSTEM
1 39
