AV-unprocessed.smi:2859|AV-procd|sdf|11004|dock1
  -GOLD-   2272015463D 1   1.00000     0.00000
 Structure written by MMmdl.
 51 52  0  0  0  0  0  0  0  0  1 V2000
  151.2937  144.5177  159.7533 C   0  0  0  0  0  0  0  0  0  0  0  0
  152.2556  143.6916  158.8701 C   0  0  0  0  0  0  0  0  0  0  0  0
  152.8942  144.6560  157.8490 C   0  0  0  0  0  0  0  0  0  0  0  0
  153.3461  143.1058  159.7909 C   0  0  0  0  0  0  0  0  0  0  0  0
  151.5386  142.5515  158.1268 C   0  0  0  0  0  0  0  0  0  0  0  0
  150.4474  142.7544  157.2479 C   0  0  0  0  0  0  0  0  0  0  0  0
  149.9002  141.6100  156.6160 C   0  0  0  0  0  0  0  0  0  0  0  0
  148.8145  141.6789  155.7132 N   0  0  0  0  0  0  0  0  0  0  0  0
  148.7438  140.7028  154.6302 C   0  0  0  0  0  0  0  0  0  0  0  0
  147.7098  141.1368  153.5802 C   0  0  0  0  0  0  0  0  0  0  0  0
  146.4533  141.3592  154.2082 O   0  0  0  0  0  0  0  0  0  0  0  0
  146.5102  142.4178  155.1639 C   0  0  1  0  0  0  0  0  0  0  0  0
  145.0963  142.6667  155.7101 C   0  0  0  0  0  0  0  0  0  0  0  0
  144.0862  142.0424  155.0974 N   0  0  0  0  0  0  0  0  0  0  0  0
  144.9076  143.4243  156.6603 O   0  0  0  0  0  0  0  0  0  0  0  0
  147.5149  142.0456  156.2779 C   0  0  0  0  0  0  0  0  0  0  0  0
  150.4142  140.3847  156.8716 N   0  0  0  0  0  0  0  0  0  0  0  0
  151.4177  140.2778  157.7484 C   0  0  0  0  0  0  0  0  0  0  0  0
  152.0751  138.8962  157.9020 C   0  0  0  0  0  0  0  0  0  0  0  0
  151.0465  137.9003  158.4679 C   0  0  0  0  0  0  0  0  0  0  0  0
  153.3005  138.9640  158.8441 C   0  0  0  0  0  0  0  0  0  0  0  0
  152.6059  138.3813  156.5433 C   0  0  0  0  0  0  0  0  0  0  0  0
  152.0183  141.3074  158.3523 N   0  0  0  0  0  0  0  0  0  0  0  0
  151.8226  145.3191  160.2706 H   0  0  0  0  0  0  0  0  0  0  0  0
  150.8210  143.9019  160.5194 H   0  0  0  0  0  0  0  0  0  0  0  0
  150.5059  144.9866  159.1625 H   0  0  0  0  0  0  0  0  0  0  0  0
  152.1427  145.0778  157.1806 H   0  0  0  0  0  0  0  0  0  0  0  0
  153.6398  144.1554  157.2303 H   0  0  0  0  0  0  0  0  0  0  0  0
  153.3957  145.4870  158.3463 H   0  0  0  0  0  0  0  0  0  0  0  0
  153.8616  143.8905  160.3454 H   0  0  0  0  0  0  0  0  0  0  0  0
  154.1037  142.5609  159.2267 H   0  0  0  0  0  0  0  0  0  0  0  0
  152.9185  142.4149  160.5185 H   0  0  0  0  0  0  0  0  0  0  0  0
  150.0618  143.7418  157.0541 H   0  0  0  0  0  0  0  0  0  0  0  0
  149.7135  140.6058  154.1411 H   0  0  0  0  0  0  0  0  0  0  0  0
  148.4791  139.7272  155.0400 H   0  0  0  0  0  0  0  0  0  0  0  0
  148.0357  142.0402  153.0623 H   0  0  0  0  0  0  0  0  0  0  0  0
  147.5960  140.3603  152.8237 H   0  0  0  0  0  0  0  0  0  0  0  0
  146.8346  143.3334  154.6663 H   0  0  0  0  0  0  0  0  0  0  0  0
  143.1401  142.1863  155.4199 H   0  0  0  0  0  0  0  0  0  0  0  0
  144.2716  141.4378  154.3106 H   0  0  0  0  0  0  0  0  0  0  0  0
  147.1407  141.2036  156.8623 H   0  0  0  0  0  0  0  0  0  0  0  0
  147.6075  142.8911  156.9601 H   0  0  0  0  0  0  0  0  0  0  0  0
  151.4798  136.9074  158.5923 H   0  0  0  0  0  0  0  0  0  0  0  0
  150.1845  137.8030  157.8068 H   0  0  0  0  0  0  0  0  0  0  0  0
  150.6781  138.2238  159.4422 H   0  0  0  0  0  0  0  0  0  0  0  0
  153.0212  139.2528  159.8582 H   0  0  0  0  0  0  0  0  0  0  0  0
  154.0372  139.6844  158.4862 H   0  0  0  0  0  0  0  0  0  0  0  0
  153.7980  137.9966  158.9190 H   0  0  0  0  0  0  0  0  0  0  0  0
  153.1146  137.4229  156.6532 H   0  0  0  0  0  0  0  0  0  0  0  0
  153.3175  139.0816  156.1042 H   0  0  0  0  0  0  0  0  0  0  0  0
  151.8028  138.2299  155.8208 H   0  0  0  0  0  0  0  0  0  0  0  0
  1  2  1  0  0  0  0
  1 24  1  0  0  0  0
  1 25  1  0  0  0  0
  1 26  1  0  0  0  0
  2  3  1  0  0  0  0
  2  4  1  0  0  0  0
  2  5  1  0  0  0  0
  3 27  1  0  0  0  0
  3 28  1  0  0  0  0
  3 29  1  0  0  0  0
  4 30  1  0  0  0  0
  4 31  1  0  0  0  0
  4 32  1  0  0  0  0
  5 23  1  0  0  0  0
  5  6  2  0  0  0  0
  6  7  1  0  0  0  0
  6 33  1  0  0  0  0
  7  8  1  0  0  0  0
  7 17  2  0  0  0  0
  8 16  1  0  0  0  0
  8  9  1  0  0  0  0
  9 10  1  0  0  0  0
  9 34  1  0  0  0  0
  9 35  1  0  0  0  0
 10 11  1  0  0  0  0
 10 36  1  0  0  0  0
 10 37  1  0  0  0  0
 11 12  1  0  0  0  0
 12 13  1  0  0  0  0
 12 16  1  0  0  0  0
 12 38  1  0  0  0  0
 13 14  1  0  0  0  0
 13 15  2  0  0  0  0
 14 39  1  0  0  0  0
 14 40  1  0  0  0  0
 16 41  1  0  0  0  0
 16 42  1  0  0  0  0
 17 18  1  0  0  0  0
 18 19  1  0  0  0  0
 18 23  2  0  0  0  0
 19 20  1  0  0  0  0
 19 21  1  0  0  0  0
 19 22  1  0  0  0  0
 20 43  1  0  0  0  0
 20 44  1  0  0  0  0
 20 45  1  0  0  0  0
 21 46  1  0  0  0  0
 21 47  1  0  0  0  0
 21 48  1  0  0  0  0
 22 49  1  0  0  0  0
 22 50  1  0  0  0  0
 22 51  1  0  0  0  0
M  END
> <s_m_source_file>
AV-unprocessed.smi

> <i_m_source_file_index>
2859

> <i_lp_mmshare_version>
43012

> <i_f3d_flags>
0

> <s_epik_input>
W0NIM11DKFtDSDNdKShbQ0gzXSljMVtjSF1jKG5jKG4xKUMoW0NIM10pKFtDSDNdKVtDSDNdKU4yW0NIMl1bQ0gyXU9bQ0BIXShbQ0gyXTIpQyg9TylbTkgyXQ==

> <s_epik_cmdline>
J2VwaWtfcHl0aG9uJywgJy1waCcsICc3LjAnLCAnLXRuJywgJzgnLCAnLW1hJywgJzIwMCcsICctbWV0YWxfYmluZGluZycsICctaW1hZScsICc8aW5maWxlLm1hZT4nLCAnLW9tYWUnLCAnPG91dGZpbGUubWFlPic=

> <r_lp_tautomer_probability>
1

> <r_epik_Ionization_Penalty>
0.0011326

> <r_epik_Ionization_Penalty_Charging>
0

> <r_epik_Ionization_Penalty_Neutral>
0.0011326

> <r_epik_State_Penalty>
0.000721507

> <r_epik_Charging_Adjusted_Penalty>
0.000721507

> <i_epik_Tot_Q>
0

> <i_epik_Tot_abs_Q>
0

> <r_epik_Metal_State_Penalty>
-0

> <b_epik_Metal_Only>
0

> <s_lp_Force_Field>
OPLS_2005

> <r_lp_Energy>
9.66703

> <b_lp_Chiralities_Consistent>
1

> <s_lp_Variant>
AV-unprocessed.smi:2859-1

> <Gold.Version>
5.8.1

> <Gold.Id.Protein>
6NUR|6NUR_protein|mol2

> <Gold.PLP.Fitness>
40.9005

> <Gold.PLP.PLP>
-38.7925

> <Gold.PLP.part.hbond>
-1.3421

> <Gold.PLP.part.metal>
0.0000

> <Gold.PLP.part.buried>
-3.4444

> <Gold.PLP.part.nonpolar>
-34.5883

> <Gold.PLP.part.repulsive>
0.8070

> <Gold.PLP.ligand.clash>
0.0000

> <Gold.PLP.ligand.torsion>
0.7122

> <Gold.PLP.Chemscore.Hbond>
0.9600

> <Gold.PLP.Chemscore.CHOScore>
0.0000

> <Gold.PLP.Chemscore.Metal>
0.0000

> <Gold.Chemscore.Hbonds>
donor molecule, donor type, donor heavy atom, donor atom, acceptor molecule, acceptor atom, score
      L1  H    14    40       P1 10175  0.78

> <Gold.PLP.Chemscore.Internal.Correction>
0.6524

> <Gold.Rescore>
     Score         DG    S(hbond)    S(metal)    S(lipo)     H(rot)  DE(clash)    DE(int)     intcor
     14.92     -15.64       0.71        0.00     106.65       1.83       0.10       0.62       ----

> <Gold.Chemscore.Fitness>
14.9245

> <Gold.Chemscore.DG>
-15.6391

> <Gold.Chemscore.ZeroCoef>
-5.4800

> <Gold.Chemscore.Hbond>
0.7101

> <Gold.Chemscore.Metal>
0.0000

> <Gold.Chemscore.Lipo>
106.6495

> <Gold.Chemscore.Internal_Hbond>
0.0000

> <Gold.Chemscore.DEClash>
0.0994

> <Gold.Chemscore.DEInternal>
0.6152

> <Gold.Chemscore.Rot>
1.8323

> <Gold.Chemscore.Internal.Correction>
   9.000000E+99

> <Gold.Chemscore.Hbonds>
donor molecule, donor type, donor heavy atom, donor atom, acceptor molecule, acceptor atom, score
      L1  H    14    40       P1 10175  0.29

> <Gold.Chemscore.Hbond.Weighted>
-2.3718

> <Gold.Chemscore.Metal.Weighted>
-0.0000

> <Gold.Chemscore.Lipo.Weighted>
-12.4780

> <Gold.Chemscore.Internal_Hbond.Weighted>
0.0000

> <Gold.Chemscore.DEClash.Weighted>
0.0994

> <Gold.Chemscore.DEInternal.Weighted>
0.6152

> <Gold.Chemscore.Rot.Weighted>
4.6907

> <Gold.Chemscore.Internal.Correction.Weighted>
   9.000000E+99

> <Gold.Protein.RotatedTorsions>
[ 6907 6896 6895 6894 ] final  -55.99 input  -60.11 | X-H torsion
[ 7974 7965 7964 7962 ] final  -93.82 input  175.53 | X-H torsion
[ 8008 7997 7996 7995 ] final  -40.27 input   59.86 | X-H torsion
[ 10167 10162 10161 10158 ] final   54.03 input  -65.29 | X-H torsion
[ 10718 10713 10712 10709 ] final   17.23 input   66.30 | X-H torsion
[ 10763 10752 10751 10750 ] final -148.55 input  -60.55 | X-H torsion
[ 11005 11000 10999 10996 ] final -129.51 input  -57.11 | X-H torsion

> <Gold.Protein.ActiveResidues>
 VAL166  LYS551  ARG553  GLY616  TRP617  ASP618  TYR619  PRO620  LYS621  CYS622 
 ASP623  PHE694  ASN695  SER759  ASP760  ASP761  ALA762  ILE779  LEU786  VAL792 
 PHE793  MET794  SER795  GLU796  ALA797  LYS798  CYS799  TRP800  GLU811  SER814 

> <Gold.Protein.RotatedAtoms>
  150.8205  134.7410  159.6767 H   0  0  0  0  0  0  0  0  0  0  0  0  # atno 6907 bound_to 6896
  152.4321  134.5755  159.9943 H   0  0  0  0  0  0  0  0  0  0  0  0  # atno 6908 bound_to 6896
  151.5940  133.3326  159.3069 H   0  0  0  0  0  0  0  0  0  0  0  0  # atno 6909 bound_to 6896
  145.3815  140.9518  143.2391 H   0  0  0  0  0  0  0  0  0  0  0  0  # atno 7974 bound_to 7965
  154.4014  140.1530  156.3000 H   0  0  0  0  0  0  0  0  0  0  0  0  # atno 8008 bound_to 7997
  155.8709  140.3449  155.5799 H   0  0  0  0  0  0  0  0  0  0  0  0  # atno 8009 bound_to 7997
  155.7775  140.0839  157.2067 H   0  0  0  0  0  0  0  0  0  0  0  0  # atno 8010 bound_to 7997
  140.2344  144.3652  150.6402 H   0  0  0  0  0  0  0  0  0  0  0  0  # atno 10167 bound_to 10162
  157.0792  130.6380  149.5822 H   0  0  0  0  0  0  0  0  0  0  0  0  # atno 10718 bound_to 10713
  154.8227  135.3331  154.6991 H   0  0  0  0  0  0  0  0  0  0  0  0  # atno 10763 bound_to 10752
  153.7621  135.6932  153.4928 H   0  0  0  0  0  0  0  0  0  0  0  0  # atno 10764 bound_to 10752
  153.2103  135.4484  155.0321 H   0  0  0  0  0  0  0  0  0  0  0  0  # atno 10765 bound_to 10752
  140.9425  134.1174  157.4137 H   0  0  0  0  0  0  0  0  0  0  0  0  # atno 11005 bound_to 11000
  144.8504  139.5331  143.6859 LP  0  0  0  0  0  0  0  0  0  0  0  0  # atno 17320 bound_to 7965
  146.2840  139.6953  142.9209 LP  0  0  0  0  0  0  0  0  0  0  0  0  # atno 17321 bound_to 7965
  140.6161  143.2172  151.6789 LP  0  0  0  0  0  0  0  0  0  0  0  0  # atno 17342 bound_to 10162
  139.5099  144.3562  152.0605 LP  0  0  0  0  0  0  0  0  0  0  0  0  # atno 17343 bound_to 10162
  155.9928  130.4987  150.7356 LP  0  0  0  0  0  0  0  0  0  0  0  0  # atno 17370 bound_to 10713
  157.4814  131.0903  151.0531 LP  0  0  0  0  0  0  0  0  0  0  0  0  # atno 17371 bound_to 10713
  139.8824  135.0041  156.6228 LP  0  0  0  0  0  0  0  0  0  0  0  0  # atno 17394 bound_to 11000
  140.7714  133.8735  155.8495 LP  0  0  0  0  0  0  0  0  0  0  0  0  # atno 17395 bound_to 11000

$$$$
