#       Name:                AV-unprocessed.smi:1995
#       Creating user name   scv26
#       Creation time:       Fri Mar 27 10:29:53 2020


#       File generated by GOLD software.
#

@<TRIPOS>MOLECULE
AV-unprocessed.smi:1995
    48    49     1
SMALL
NO_CHARGES


@<TRIPOS>ATOM
      1 ****        -2.2933   0.2430  -3.7023 C.3            1 S1                 0.0000
      2 ****        -1.8147  -0.5578  -2.4786 C.3            1 S1                 0.0000
      3 ****        -1.2270   0.2714  -1.2963 C.3            1 S1                 0.0000
      4 ****        -2.2446   1.3684  -0.8824 C.3            1 S1                 0.0000
      5 ****         0.0743   1.0046  -1.7424 C.3            1 S1                 0.0000
      6 ****         0.7180   1.7136  -0.6346 N.am           1 S1                 0.0000
      7 ****         1.7771   1.3001   0.0755 C.2            1 S1                 0.0000
      8 ****         2.3822   0.2778  -0.2523 O.2            1 S1                 0.0000
      9 ****         2.0501   2.0824   1.1422 N.pl3          1 S1                -1.0000
     10 ****         3.0342   1.7381   1.9885 C.2            1 S1                 0.0000
     11 ****         2.8179   1.0468   3.1137 N.2            1 S1                 0.0000
     12 ****         3.9814   0.7989   3.8445 C.2            1 S1                 0.0000
     13 ****         5.1081   1.3193   3.2652 C.2            1 S1                 0.0000
     14 ****         4.7397   2.1409   1.7756 S.3            1 S1                 0.0000
     15 ****        -0.9040  -0.6224  -0.1230 N.4            1 S1                 1.0000
     16 ****        -2.0286  -1.0055   0.7750 C.3            1 S1                 0.0000
     17 ****        -1.4858  -1.7198   2.0269 C.3            1 S1                 0.0000
     18 ****        -0.7073  -2.8494   1.6542 O.3            1 S1                 0.0000
     19 ****         0.4098  -2.4807   0.8564 C.3            1 S1                 0.0000
     20 ****        -0.0984  -1.8339  -0.4400 C.3            1 S1                 0.0000
     21 ****        -2.6511  -0.4324  -4.4796 H              1 S1                 0.0000
     22 ****        -1.4918   0.8382  -4.1385 H              1 S1                 0.0000
     23 ****        -3.1186   0.9107  -3.4565 H              1 S1                 0.0000
     24 ****        -2.6532  -1.1563  -2.1210 H              1 S1                 0.0000
     25 ****        -1.0721  -1.2695  -2.8392 H              1 S1                 0.0000
     26 ****        -2.3300   2.1465  -1.6412 H              1 S1                 0.0000
     27 ****        -1.9489   1.8679   0.0411 H              1 S1                 0.0000
     28 ****        -3.2467   0.9632  -0.7382 H              1 S1                 0.0000
     29 ****         0.7724   0.3184  -2.2224 H              1 S1                 0.0000
     30 ****        -0.1518   1.7517  -2.5030 H              1 S1                 0.0000
     31 ****         0.2772   2.5710  -0.3343 H              1 S1                 0.0000
     32 ****         3.9143   0.2447   4.7687 H              1 S1                 0.0000
     33 ****         6.1261   1.2715   3.6214 H              1 S1                 0.0000
     34 ****        -2.5884  -0.1392   1.1220 H              1 S1                 0.0000
     35 ****        -2.7276  -1.6513   0.2422 H              1 S1                 0.0000
     36 ****        -0.8845  -1.0373   2.6302 H              1 S1                 0.0000
     37 ****        -2.3115  -2.0539   2.6554 H              1 S1                 0.0000
     38 ****         1.0659  -1.8024   1.4049 H              1 S1                 0.0000
     39 ****         0.9909  -3.3743   0.6288 H              1 S1                 0.0000
     40 ****        -0.7050  -2.5593  -0.9834 H              1 S1                 0.0000
     41 ****         0.7504  -1.5939  -1.0770 H              1 S1                 0.0000
     42 ****        -0.3032  -0.0494   0.4542 H              1 S1                 0.0000
     43 ****         2.0835  -0.2459  -1.0501 LP             1 S1                 0.0000
     44 ****         3.1719  -0.0280   0.2795 LP             1 S1                 0.0000
     45 ****         1.5207   2.9158   1.3013 LP             1 S1                 0.0000
     46 ****         1.9117   0.7380   3.4027 LP             1 S1                 0.0000
     47 ****        -1.2821  -3.4813   1.1341 LP             1 S1                 0.0000
     48 ****        -0.3780  -3.3030   2.4823 LP             1 S1                 0.0000
@<TRIPOS>BOND
    1    1    2 1     
    2    1   21 1     
    3    1   22 1     
    4    1   23 1     
    5    2    3 1     
    6    2   24 1     
    7    2   25 1     
    8    3    4 1     
    9    3    5 1     
   10    3   15 1     
   11    4   26 1     
   12    4   27 1     
   13    4   28 1     
   14    5    6 1     
   15    5   29 1     
   16    5   30 1     
   17    6    7 am    
   18    6   31 1     
   19    7    8 2     
   20    7    9 1     
   21    9   10 1     
   22   10   14 1     
   23   10   11 2     
   24   11   12 1     
   25   12   13 2     
   26   12   32 1     
   27   13   14 1     
   28   13   33 1     
   29   15   20 1     
   30   15   16 1     
   31   15   42 1     
   32   16   17 1     
   33   16   34 1     
   34   16   35 1     
   35   17   18 1     
   36   17   36 1     
   37   17   37 1     
   38   18   19 1     
   39   19   20 1     
   40   19   38 1     
   41   19   39 1     
   42   20   40 1     
   43   20   41 1     
   44    8   43 1     
   45    8   44 1     
   46    9   45 1     
   47   11   46 1     
   48   18   47 1     
   49   18   48 1     
@<TRIPOS>SUBSTRUCTURE
      1 S1             1
@<TRIPOS>SET
LONE_PAIRS      STATIC     ATOMS    <user>   **** ""
6 43 44 45 46 47 48
DONOR_HYDROGENS      STATIC     ATOMS    <user>   **** ""
2 31 42
ATOM$BLUE        STATIC     ATOMS    COLORGROUP SYSTEM
6 43 44 45 46 47 48
ATOM$RED        STATIC     ATOMS    COLORGROUP SYSTEM
2 31 42
