AV-unprocessed.smi:1056|AV-procd|sdf|4631|dock5
  -GOLD-   22720 3133D 1   1.00000     0.00000
 Structure written by MMmdl.
 45 47  0  0  0  0  0  0  0  0  2 V2000
  152.6658  144.1030  159.5737 C   0  0  0  0  0  0  0  0  0  0  0  0
  152.2267  142.9749  158.6566 C   0  0  0  0  0  0  0  0  0  0  0  0
  151.3351  143.2583  157.5975 C   0  0  0  0  0  0  0  0  0  0  0  0
  150.9057  142.2388  156.7200 C   0  0  0  0  0  0  0  0  0  0  0  0
  150.0517  142.2893  155.6316 N   0  0  0  0  0  0  0  0  0  0  0  0
  150.0523  141.0214  155.2307 C   0  0  0  0  0  0  0  0  0  0  0  0
  150.8046  140.1530  155.9343 N   0  0  0  0  0  0  0  0  0  0  0  0
  150.9616  138.7297  155.6948 C   0  0  0  0  0  0  0  0  0  0  0  0
  150.0993  138.2358  154.5175 C   0  0  1  0  0  0  0  0  0  0  0  0
  150.5953  136.9902  154.0644 O   0  0  0  0  0  0  0  0  0  0  0  0
  148.6208  138.0664  154.9180 C   0  0  0  0  0  0  0  0  0  0  0  0
  147.7214  137.9826  153.7395 N   0  3  2  0  0  0  0  0  0  0  0  0
  147.5746  139.2630  153.0070 C   0  0  0  0  0  0  0  0  0  0  0  0
  146.8145  139.0340  151.6889 C   0  0  0  0  0  0  0  0  0  0  0  0
  145.6551  138.1583  151.8436 N   0  0  0  0  0  0  0  0  0  0  0  0
  145.4094  137.3720  152.9042 C   0  0  0  0  0  0  0  0  0  0  0  0
  144.4151  136.6533  152.9599 O   0  0  0  0  0  0  0  0  0  0  0  0
  146.4041  137.3842  154.0754 C   0  0  0  0  0  0  0  0  0  0  0  0
  151.3949  140.9171  156.9346 C   0  0  0  0  0  0  0  0  0  0  0  0
  152.2813  140.6221  157.9851 C   0  0  0  0  0  0  0  0  0  0  0  0
  152.7025  141.6532  158.8509 C   0  0  0  0  0  0  0  0  0  0  0  0
  153.6639  141.3266  159.9800 C   0  0  0  0  0  0  0  0  0  0  0  0
  152.1647  145.0382  159.3221 H   0  0  0  0  0  0  0  0  0  0  0  0
  153.7406  144.2647  159.4899 H   0  0  0  0  0  0  0  0  0  0  0  0
  152.4301  143.8686  160.6119 H   0  0  0  0  0  0  0  0  0  0  0  0
  150.9735  144.2651  157.4486 H   0  0  0  0  0  0  0  0  0  0  0  0
  149.4685  140.7045  154.3789 H   0  0  0  0  0  0  0  0  0  0  0  0
  152.0168  138.5179  155.5155 H   0  0  0  0  0  0  0  0  0  0  0  0
  150.6889  138.2016  156.6093 H   0  0  0  0  0  0  0  0  0  0  0  0
  150.1881  138.9512  153.7003 H   0  0  0  0  0  0  0  0  0  0  0  0
  149.9365  136.5774  153.5264 H   0  0  0  0  0  0  0  0  0  0  0  0
  148.5260  137.1605  155.5195 H   0  0  0  0  0  0  0  0  0  0  0  0
  148.2976  138.8898  155.5569 H   0  0  0  0  0  0  0  0  0  0  0  0
  147.0326  139.9732  153.6337 H   0  0  0  0  0  0  0  0  0  0  0  0
  148.5436  139.7111  152.7903 H   0  0  0  0  0  0  0  0  0  0  0  0
  146.4947  139.9859  151.2643 H   0  0  0  0  0  0  0  0  0  0  0  0
  147.4801  138.5721  150.9588 H   0  0  0  0  0  0  0  0  0  0  0  0
  144.9910  138.1422  151.0824 H   0  0  0  0  0  0  0  0  0  0  0  0
  146.5514  136.3609  154.4233 H   0  0  0  0  0  0  0  0  0  0  0  0
  145.9517  137.9411  154.8971 H   0  0  0  0  0  0  0  0  0  0  0  0
  152.6361  139.6114  158.1216 H   0  0  0  0  0  0  0  0  0  0  0  0
  153.9408  140.2719  159.9746 H   0  0  0  0  0  0  0  0  0  0  0  0
  153.2090  141.5476  160.9456 H   0  0  0  0  0  0  0  0  0  0  0  0
  154.5782  141.9130  159.8853 H   0  0  0  0  0  0  0  0  0  0  0  0
  148.1604  137.3367  153.0987 H   0  0  0  0  0  0  0  0  0  0  0  0
  1  2  1  0  0  0  0
  1 23  1  0  0  0  0
  1 24  1  0  0  0  0
  1 25  1  0  0  0  0
  2 21  1  0  0  0  0
  2  3  2  0  0  0  0
  3  4  1  0  0  0  0
  3 26  1  0  0  0  0
  4 19  2  0  0  0  0
  4  5  1  0  0  0  0
  5  6  2  0  0  0  0
  6  7  1  0  0  0  0
  6 27  1  0  0  0  0
  7  8  1  0  0  0  0
  7 19  1  0  0  0  0
  8  9  1  0  0  0  0
  8 28  1  0  0  0  0
  8 29  1  0  0  0  0
  9 10  1  0  0  0  0
  9 11  1  0  0  0  0
  9 30  1  0  0  0  0
 10 31  1  0  0  0  0
 11 12  1  0  0  0  0
 11 32  1  0  0  0  0
 11 33  1  0  0  0  0
 12 18  1  0  0  0  0
 12 13  1  0  0  0  0
 12 45  1  0  0  0  0
 13 14  1  0  0  0  0
 13 34  1  0  0  0  0
 13 35  1  0  0  0  0
 14 15  1  0  0  0  0
 14 36  1  0  0  0  0
 14 37  1  0  0  0  0
 15 16  1  0  0  0  0
 15 38  1  0  0  0  0
 16 17  2  0  0  0  0
 16 18  1  0  0  0  0
 18 39  1  0  0  0  0
 18 40  1  0  0  0  0
 19 20  1  0  0  0  0
 20 21  2  0  0  0  0
 20 41  1  0  0  0  0
 21 22  1  0  0  0  0
 22 42  1  0  0  0  0
 22 43  1  0  0  0  0
 22 44  1  0  0  0  0
M  CHG  1  12   1
M  END
> <s_m_source_file>
AV-unprocessed.smi

> <i_m_source_file_index>
1056

> <i_lp_mmshare_version>
43012

> <i_f3d_flags>
0

> <s_epik_input>
W0NIM11jKFtjSF0xKWMoW0NIM10pW2NIXWMoYzEyKW4oW2NIXW4yKVtDSDJdW0NASF0oW09IXSlbQ0gyXU4zW0NIMl1bQ0gyXVtOSF1DKD1PKVtDSDJdMw==

> <s_epik_cmdline>
J2VwaWtfcHl0aG9uJywgJy1waCcsICc3LjAnLCAnLXRuJywgJzgnLCAnLW1hJywgJzIwMCcsICctbWV0YWxfYmluZGluZycsICctaW1hZScsICc8aW5maWxlLm1hZT4nLCAnLW9tYWUnLCAnPG91dGZpbGUubWFlPic=

> <r_epik_Ionization_Penalty>
0.153633

> <r_epik_Ionization_Penalty_Charging>
0.0674887

> <r_epik_Ionization_Penalty_Neutral>
0.0861443

> <r_epik_State_Penalty>
0.135155

> <r_epik_Charging_Adjusted_Penalty>
0.202644

> <i_epik_Tot_Q>
1

> <i_epik_Tot_abs_Q>
1

> <r_epik_Metal_State_Penalty>
0.190685

> <b_epik_Metal_Only>
0

> <s_lp_Force_Field>
OPLS_2005

> <r_lp_Energy>
24.3112

> <b_lp_Chiralities_Consistent>
1

> <s_lp_Variant>
AV-unprocessed.smi:1056-2

> <Gold.Version>
5.8.1

> <Gold.Id.Protein>
6NUR|6NUR_protein|mol2

> <Gold.PLP.Fitness>
50.9861

> <Gold.PLP.PLP>
-39.7569

> <Gold.PLP.part.hbond>
-4.8475

> <Gold.PLP.part.metal>
0.0000

> <Gold.PLP.part.buried>
-1.2585

> <Gold.PLP.part.nonpolar>
-37.1652

> <Gold.PLP.part.repulsive>
3.1157

> <Gold.PLP.ligand.clash>
0.0000

> <Gold.PLP.ligand.torsion>
0.4029

> <Gold.PLP.Chemscore.Hbond>
4.0000

> <Gold.PLP.Chemscore.CHOScore>
0.0000

> <Gold.PLP.Chemscore.Metal>
0.0000

> <Gold.Chemscore.Hbonds>
donor molecule, donor type, donor heavy atom, donor atom, acceptor molecule, acceptor atom, score
      L1  H    10    31       P1  7948  0.95
      L1  H    12    45       P1  7948  2.00
      L1  H    15    38       P1 10171  1.00

> <Gold.PLP.Chemscore.Internal.Correction>
0.0349

> <Gold.Rescore>
     Score         DG    S(hbond)    S(metal)    S(lipo)     H(rot)  DE(clash)    DE(int)     intcor
     18.40     -20.24       2.47        0.00     107.56       2.38       1.36       0.47       ----

> <Gold.Chemscore.Fitness>
18.4008

> <Gold.Chemscore.DG>
-20.2379

> <Gold.Chemscore.ZeroCoef>
-5.4800

> <Gold.Chemscore.Hbond>
2.4735

> <Gold.Chemscore.Metal>
0.0000

> <Gold.Chemscore.Lipo>
107.5612

> <Gold.Chemscore.Internal_Hbond>
0.0000

> <Gold.Chemscore.DEClash>
1.3636

> <Gold.Chemscore.DEInternal>
0.4734

> <Gold.Chemscore.Rot>
2.3783

> <Gold.Chemscore.Internal.Correction>
   9.000000E+99

> <Gold.Chemscore.Hbonds>
donor molecule, donor type, donor heavy atom, donor atom, acceptor molecule, acceptor atom, score
      L1  H    10    31       P1  7948  0.21
      L1  H    12    45       P1  7948  1.00
      L1  H    15    38       P1 10171  1.00

> <Gold.Chemscore.Hbond.Weighted>
-8.2616

> <Gold.Chemscore.Metal.Weighted>
-0.0000

> <Gold.Chemscore.Lipo.Weighted>
-12.5847

> <Gold.Chemscore.Internal_Hbond.Weighted>
0.0000

> <Gold.Chemscore.DEClash.Weighted>
1.3636

> <Gold.Chemscore.DEInternal.Weighted>
0.4734

> <Gold.Chemscore.Rot.Weighted>
6.0884

> <Gold.Chemscore.Internal.Correction.Weighted>
   9.000000E+99

> <Gold.Protein.RotatedTorsions>
[ 6907 6896 6895 6894 ] final  -38.97 input  -60.11 | X-H torsion
[ 7974 7965 7964 7962 ] final   21.17 input  175.53 | X-H torsion
[ 8008 7997 7996 7995 ] final -105.80 input   59.86 | X-H torsion
[ 10167 10162 10161 10158 ] final  -75.49 input  -65.29 | X-H torsion
[ 10718 10713 10712 10709 ] final -159.31 input   66.30 | X-H torsion
[ 10763 10752 10751 10750 ] final  122.98 input  -60.55 | X-H torsion
[ 11005 11000 10999 10996 ] final   -9.66 input  -57.11 | X-H torsion

> <Gold.Protein.ActiveResidues>
 VAL166  LYS551  ARG553  GLY616  TRP617  ASP618  TYR619  PRO620  LYS621  CYS622 
 ASP623  PHE694  ASN695  SER759  ASP760  ASP761  ALA762  ILE779  LEU786  VAL792 
 PHE793  MET794  SER795  GLU796  ALA797  LYS798  CYS799  TRP800  GLU811  SER814 

> <Gold.Protein.RotatedAtoms>
  150.9960  134.9283  159.7926 H   0  0  0  0  0  0  0  0  0  0  0  0  # atno 6907 bound_to 6896
  152.5264  134.3218  159.9161 H   0  0  0  0  0  0  0  0  0  0  0  0  # atno 6908 bound_to 6896
  151.3224  133.3993  159.2690 H   0  0  0  0  0  0  0  0  0  0  0  0  # atno 6909 bound_to 6896
  146.2082  139.8066  142.8709 H   0  0  0  0  0  0  0  0  0  0  0  0  # atno 7974 bound_to 7965
  154.9052  140.0411  157.1915 H   0  0  0  0  0  0  0  0  0  0  0  0  # atno 8008 bound_to 7997
  154.8403  140.2913  155.5642 H   0  0  0  0  0  0  0  0  0  0  0  0  # atno 8009 bound_to 7997
  156.2992  140.2484  156.3344 H   0  0  0  0  0  0  0  0  0  0  0  0  # atno 8010 bound_to 7997
  140.4938  143.2375  151.7863 H   0  0  0  0  0  0  0  0  0  0  0  0  # atno 10167 bound_to 10162
  156.5663  130.8669  151.2824 H   0  0  0  0  0  0  0  0  0  0  0  0  # atno 10718 bound_to 10713
  153.6383  135.3384  155.3063 H   0  0  0  0  0  0  0  0  0  0  0  0  # atno 10763 bound_to 10752
  154.8565  135.4312  154.2032 H   0  0  0  0  0  0  0  0  0  0  0  0  # atno 10764 bound_to 10752
  153.2945  135.7019  153.7335 H   0  0  0  0  0  0  0  0  0  0  0  0  # atno 10765 bound_to 10752
  140.7365  133.8705  155.8934 H   0  0  0  0  0  0  0  0  0  0  0  0  # atno 11005 bound_to 11000
  145.3240  141.0251  143.3484 LP  0  0  0  0  0  0  0  0  0  0  0  0  # atno 17320 bound_to 7965
  144.8846  139.4857  143.6707 LP  0  0  0  0  0  0  0  0  0  0  0  0  # atno 17321 bound_to 7965
  139.4857  144.4613  151.9537 LP  0  0  0  0  0  0  0  0  0  0  0  0  # atno 17342 bound_to 10162
  140.3701  144.2866  150.5921 LP  0  0  0  0  0  0  0  0  0  0  0  0  # atno 17343 bound_to 10162
  157.7358  130.9768  150.2101 LP  0  0  0  0  0  0  0  0  0  0  0  0  # atno 17370 bound_to 10713
  156.2754  130.3727  149.7988 LP  0  0  0  0  0  0  0  0  0  0  0  0  # atno 17371 bound_to 10713
  140.9875  134.1324  157.4439 LP  0  0  0  0  0  0  0  0  0  0  0  0  # atno 17394 bound_to 11000
  139.8815  135.0030  156.6160 LP  0  0  0  0  0  0  0  0  0  0  0  0  # atno 17395 bound_to 11000

$$$$
