AV-unprocessed.smi:266|AV-procd|sdf|2034|dock9
  -GOLD-   2262021243D 1   1.00000     0.00000
 Structure written by MMmdl.
 52 55  0  0  0  0  0  0  0  0  1 V2000
  144.9373  135.3165  150.9707 C   0  0  0  0  0  0  0  0  0  0  0  0
  144.5369  133.9147  151.4566 C   0  0  1  0  0  0  0  0  0  0  0  0
  143.9032  133.2475  150.3681 O   0  0  0  0  0  0  0  0  0  0  0  0
  144.1579  131.8576  150.4699 C   0  0  0  0  0  0  0  0  0  0  0  0
  145.6110  131.8235  150.9174 C   0  0  0  0  0  0  0  0  0  0  0  0
  145.6893  132.9758  151.9152 C   0  0  2  0  0  0  0  0  0  0  0  0
  145.3437  132.4664  153.1930 O   0  0  0  0  0  0  0  0  0  0  0  0
  147.0998  133.6135  152.0207 C   0  0  0  0  0  0  0  0  0  0  0  0
  148.0391  132.8201  152.7999 N   0  0  0  0  0  0  0  0  0  0  0  0
  148.3604  131.4980  152.6032 C   0  0  0  0  0  0  0  0  0  0  0  0
  149.2337  131.0107  153.4398 N   0  0  0  0  0  0  0  0  0  0  0  0
  149.5397  132.0698  154.2901 C   0  0  0  0  0  0  0  0  0  0  0  0
  150.4045  132.2418  155.4178 C   0  0  0  0  0  0  0  0  0  0  0  0
  151.2059  131.2719  155.9521 N   0  0  0  0  0  0  0  0  0  0  0  0
  151.7172  131.4096  157.3108 C   0  0  0  0  0  0  0  0  0  0  0  0
  151.7649  130.2145  155.1042 C   0  0  0  0  0  0  0  0  0  0  0  0
  153.3047  130.1392  155.1648 C   0  0  2  0  0  0  0  0  0  0  0  0
  153.8913  129.3873  153.9545 C   0  0  0  0  0  0  0  0  0  0  0  0
  155.3775  129.1228  154.2145 C   0  0  0  0  0  0  0  0  0  0  0  0
  155.5165  128.8384  156.0176 S   0  0  0  0  0  0  0  0  0  0  0  0
  155.5692  127.3928  156.2838 O   0  0  0  0  0  0  0  0  0  0  0  0
  156.5322  129.7475  156.5694 O   0  0  0  0  0  0  0  0  0  0  0  0
  153.8430  129.4593  156.4355 C   0  0  0  0  0  0  0  0  0  0  0  0
  150.4196  133.4783  155.9869 N   0  0  0  0  0  0  0  0  0  0  0  0
  149.6579  134.4666  155.5133 C   0  0  0  0  0  0  0  0  0  0  0  0
  148.8123  134.4446  154.4848 N   0  0  0  0  0  0  0  0  0  0  0  0
  148.7873  133.2164  153.8950 C   0  0  0  0  0  0  0  0  0  0  0  0
  145.4225  135.8900  151.7607 H   0  0  0  0  0  0  0  0  0  0  0  0
  144.0581  135.8782  150.6545 H   0  0  0  0  0  0  0  0  0  0  0  0
  145.6147  135.2662  150.1178 H   0  0  0  0  0  0  0  0  0  0  0  0
  143.7971  134.0254  152.2518 H   0  0  0  0  0  0  0  0  0  0  0  0
  143.5023  131.4140  151.2208 H   0  0  0  0  0  0  0  0  0  0  0  0
  143.9956  131.3474  149.5204 H   0  0  0  0  0  0  0  0  0  0  0  0
  145.9136  130.8595  151.3291 H   0  0  0  0  0  0  0  0  0  0  0  0
  146.2447  132.0302  150.0543 H   0  0  0  0  0  0  0  0  0  0  0  0
  146.1243  132.4364  153.7247 H   0  0  0  0  0  0  0  0  0  0  0  0
  147.5302  133.7548  151.0292 H   0  0  0  0  0  0  0  0  0  0  0  0
  147.0368  134.6040  152.4731 H   0  0  0  0  0  0  0  0  0  0  0  0
  147.9278  130.9036  151.8118 H   0  0  0  0  0  0  0  0  0  0  0  0
  150.9002  131.3958  158.0322 H   0  0  0  0  0  0  0  0  0  0  0  0
  152.2743  132.3401  157.4224 H   0  0  0  0  0  0  0  0  0  0  0  0
  152.3899  130.5904  157.5644 H   0  0  0  0  0  0  0  0  0  0  0  0
  151.3413  129.2559  155.4062 H   0  0  0  0  0  0  0  0  0  0  0  0
  151.4359  130.3526  154.0736 H   0  0  0  0  0  0  0  0  0  0  0  0
  153.7122  131.1506  155.1338 H   0  0  0  0  0  0  0  0  0  0  0  0
  153.3775  128.4317  153.8417 H   0  0  0  0  0  0  0  0  0  0  0  0
  153.7437  129.9398  153.0261 H   0  0  0  0  0  0  0  0  0  0  0  0
  155.7635  128.2651  153.6638 H   0  0  0  0  0  0  0  0  0  0  0  0
  155.9755  129.9993  153.9643 H   0  0  0  0  0  0  0  0  0  0  0  0
  153.8968  130.1356  157.2888 H   0  0  0  0  0  0  0  0  0  0  0  0
  153.2320  128.5996  156.7114 H   0  0  0  0  0  0  0  0  0  0  0  0
  149.7386  135.4100  156.0332 H   0  0  0  0  0  0  0  0  0  0  0  0
  1  2  1  0  0  0  0
  1 28  1  0  0  0  0
  1 29  1  0  0  0  0
  1 30  1  0  0  0  0
  2  6  1  0  0  0  0
  2  3  1  0  0  0  0
  2 31  1  0  0  0  0
  3  4  1  0  0  0  0
  4  5  1  0  0  0  0
  4 32  1  0  0  0  0
  4 33  1  0  0  0  0
  5  6  1  0  0  0  0
  5 34  1  0  0  0  0
  5 35  1  0  0  0  0
  6  7  1  0  0  0  0
  6  8  1  0  0  0  0
  7 36  1  0  0  0  0
  8  9  1  0  0  0  0
  8 37  1  0  0  0  0
  8 38  1  0  0  0  0
  9 27  1  0  0  0  0
  9 10  1  0  0  0  0
 10 11  2  0  0  0  0
 10 39  1  0  0  0  0
 11 12  1  0  0  0  0
 12 27  2  0  0  0  0
 12 13  1  0  0  0  0
 13 14  1  0  0  0  0
 13 24  2  0  0  0  0
 14 15  1  0  0  0  0
 14 16  1  0  0  0  0
 15 40  1  0  0  0  0
 15 41  1  0  0  0  0
 15 42  1  0  0  0  0
 16 17  1  0  0  0  0
 16 43  1  0  0  0  0
 16 44  1  0  0  0  0
 17 23  1  0  0  0  0
 17 18  1  0  0  0  0
 17 45  1  0  0  0  0
 18 19  1  0  0  0  0
 18 46  1  0  0  0  0
 18 47  1  0  0  0  0
 19 20  1  0  0  0  0
 19 48  1  0  0  0  0
 19 49  1  0  0  0  0
 20 21  2  0  0  0  0
 20 22  2  0  0  0  0
 20 23  1  0  0  0  0
 23 50  1  0  0  0  0
 23 51  1  0  0  0  0
 24 25  1  0  0  0  0
 25 26  2  0  0  0  0
 25 52  1  0  0  0  0
 26 27  1  0  0  0  0
M  END
> <s_m_source_file>
AV-unprocessed.smi

> <i_m_source_file_index>
266

> <i_lp_mmshare_version>
43012

> <i_f3d_flags>
0

> <s_epik_input>
W0NIMl0xW0NIMl1PW0NAQEhdKFtDSDNdKVtDQEBdMShbT0hdKVtDSDJdbihbY0hdbjIpYyhjMjMpbltjSF1uYzNOKFtDSDNdKVtDSDJdW0NAQEhdKFtDSDJdNClbQ0gyXVtDSDJdUzQoPU8pPU8=

> <s_epik_cmdline>
J2VwaWtfcHl0aG9uJywgJy1waCcsICc3LjAnLCAnLXRuJywgJzgnLCAnLW1hJywgJzIwMCcsICctbWV0YWxfYmluZGluZycsICctaW1hZScsICc8aW5maWxlLm1hZT4nLCAnLW9tYWUnLCAnPG91dGZpbGUubWFlPic=

> <r_lp_tautomer_probability>
1

> <r_epik_Ionization_Penalty>
0.00155497

> <r_epik_Ionization_Penalty_Charging>
0

> <r_epik_Ionization_Penalty_Neutral>
0.00155497

> <r_epik_State_Penalty>
-0

> <r_epik_Charging_Adjusted_Penalty>
0

> <i_epik_Tot_Q>
0

> <i_epik_Tot_abs_Q>
0

> <r_epik_Metal_State_Penalty>
-0

> <b_epik_Metal_Only>
0

> <s_lp_Force_Field>
OPLS_2005

> <r_lp_Energy>
30.3558

> <b_lp_Chiralities_Consistent>
1

> <s_lp_Variant>
AV-unprocessed.smi:266-4

> <Gold.Version>
5.8.1

> <Gold.Id.Protein>
6NUR|6NUR_protein|mol2

> <Gold.PLP.Fitness>
40.6022

> <Gold.PLP.PLP>
-40.1573

> <Gold.PLP.part.hbond>
-0.6465

> <Gold.PLP.part.metal>
0.0000

> <Gold.PLP.part.buried>
-2.3689

> <Gold.PLP.part.nonpolar>
-38.2956

> <Gold.PLP.part.repulsive>
1.3129

> <Gold.PLP.ligand.clash>
0.0000

> <Gold.PLP.ligand.torsion>
0.7704

> <Gold.PLP.Chemscore.Hbond>
0.0000

> <Gold.PLP.Chemscore.CHOScore>
0.6227

> <Gold.PLP.Chemscore.Metal>
0.0000

> <Gold.Chemscore.Hbonds>
donor molecule, donor type, donor heavy atom, donor atom, acceptor molecule, acceptor atom, score
      L1  C    10    39       P1 10747  0.37

> <Gold.PLP.Chemscore.Internal.Correction>
0.1175

> <Gold.Rescore>
     Score         DG    S(hbond)    S(metal)    S(lipo)     H(rot)  DE(clash)    DE(int)     intcor
      6.15      -8.28       0.00        0.00      77.48       2.45       1.18       0.95       ----

> <Gold.Chemscore.Fitness>
6.1458

> <Gold.Chemscore.DG>
-8.2801

> <Gold.Chemscore.ZeroCoef>
-5.4800

> <Gold.Chemscore.Hbond>
0.0000

> <Gold.Chemscore.Metal>
0.0000

> <Gold.Chemscore.Lipo>
77.4758

> <Gold.Chemscore.Internal_Hbond>
0.0000

> <Gold.Chemscore.DEClash>
1.1796

> <Gold.Chemscore.DEInternal>
0.9547

> <Gold.Chemscore.Rot>
2.4471

> <Gold.Chemscore.Internal.Correction>
   9.000000E+99

> <Gold.Chemscore.Hbond.Weighted>
-0.0000

> <Gold.Chemscore.Metal.Weighted>
-0.0000

> <Gold.Chemscore.Lipo.Weighted>
-9.0647

> <Gold.Chemscore.Internal_Hbond.Weighted>
0.0000

> <Gold.Chemscore.DEClash.Weighted>
1.1796

> <Gold.Chemscore.DEInternal.Weighted>
0.9547

> <Gold.Chemscore.Rot.Weighted>
6.2645

> <Gold.Chemscore.Internal.Correction.Weighted>
   9.000000E+99

> <Gold.Protein.RotatedTorsions>
[ 6907 6896 6895 6894 ] final   82.30 input  -60.11 | X-H torsion
[ 7974 7965 7964 7962 ] final  -94.78 input  175.53 | X-H torsion
[ 8008 7997 7996 7995 ] final  -28.19 input   59.86 | X-H torsion
[ 10167 10162 10161 10158 ] final   57.51 input  -65.29 | X-H torsion
[ 10718 10713 10712 10709 ] final  103.76 input   66.30 | X-H torsion
[ 10763 10752 10751 10750 ] final  115.41 input  -60.55 | X-H torsion
[ 11005 11000 10999 10996 ] final   97.53 input  -57.11 | X-H torsion

> <Gold.Protein.ActiveResidues>
 VAL166  LYS551  ARG553  GLY616  TRP617  ASP618  TYR619  PRO620  LYS621  CYS622 
 ASP623  PHE694  ASN695  SER759  ASP760  ASP761  ALA762  ILE779  LEU786  VAL792 
 PHE793  MET794  SER795  GLU796  ALA797  LYS798  CYS799  TRP800  GLU811  SER814 

> <Gold.Protein.RotatedAtoms>
  152.5295  134.3071  159.9099 H   0  0  0  0  0  0  0  0  0  0  0  0  # atno 6907 bound_to 6896
  151.3021  133.4111  159.2648 H   0  0  0  0  0  0  0  0  0  0  0  0  # atno 6908 bound_to 6896
  151.0110  134.9413  159.8064 H   0  0  0  0  0  0  0  0  0  0  0  0  # atno 6909 bound_to 6896
  145.3688  140.9502  143.2459 H   0  0  0  0  0  0  0  0  0  0  0  0  # atno 7974 bound_to 7965
  154.4343  140.1852  156.1051 H   0  0  0  0  0  0  0  0  0  0  0  0  # atno 8008 bound_to 7997
  156.0262  140.3335  155.7065 H   0  0  0  0  0  0  0  0  0  0  0  0  # atno 8009 bound_to 7997
  155.5905  140.0630  157.2750 H   0  0  0  0  0  0  0  0  0  0  0  0  # atno 8010 bound_to 7997
  140.1972  144.4025  150.6545 H   0  0  0  0  0  0  0  0  0  0  0  0  # atno 10167 bound_to 10162
  157.6762  131.0787  150.5604 H   0  0  0  0  0  0  0  0  0  0  0  0  # atno 10718 bound_to 10713
  153.5218  135.3596  155.2635 H   0  0  0  0  0  0  0  0  0  0  0  0  # atno 10763 bound_to 10752
  154.8734  135.4047  154.3251 H   0  0  0  0  0  0  0  0  0  0  0  0  # atno 10764 bound_to 10752
  153.3923  135.7072  153.6553 H   0  0  0  0  0  0  0  0  0  0  0  0  # atno 10765 bound_to 10752
  139.8775  134.9005  156.4321 H   0  0  0  0  0  0  0  0  0  0  0  0  # atno 11005 bound_to 11000
  144.8592  139.5203  143.6820 LP  0  0  0  0  0  0  0  0  0  0  0  0  # atno 17320 bound_to 7965
  146.2895  139.7098  142.9171 LP  0  0  0  0  0  0  0  0  0  0  0  0  # atno 17321 bound_to 7965
  140.6415  143.2204  151.6279 LP  0  0  0  0  0  0  0  0  0  0  0  0  # atno 17342 bound_to 10162
  139.5232  144.3141  152.0967 LP  0  0  0  0  0  0  0  0  0  0  0  0  # atno 17343 bound_to 10162
  156.5907  130.4328  149.5938 LP  0  0  0  0  0  0  0  0  0  0  0  0  # atno 17370 bound_to 10713
  156.2586  130.6949  151.1710 LP  0  0  0  0  0  0  0  0  0  0  0  0  # atno 17371 bound_to 10713
  140.9059  133.7746  155.9734 LP  0  0  0  0  0  0  0  0  0  0  0  0  # atno 17394 bound_to 11000
  140.8600  134.2852  157.5238 LP  0  0  0  0  0  0  0  0  0  0  0  0  # atno 17395 bound_to 11000

$$$$
