AV-unprocessed.smi:49|AV-procd|sdf|465|dock2
  -GOLD-   2262016333D 1   1.00000     0.00000
 Structure written by MMmdl.
 28 29  0  0  0  0  0  0  0  0  2 V2000
  154.0800  141.7451  160.5048 C   0  0  0  0  0  0  0  0  0  0  0  0
  153.0125  142.8412  160.4183 C   0  0  0  0  0  0  0  0  0  0  0  0
  152.1857  142.7426  159.1782 C   0  0  0  0  0  0  0  0  0  0  0  0
  151.3625  141.7415  158.8845 N   0  0  0  0  0  0  0  0  0  0  0  0
  150.8698  142.1735  157.6851 C   0  0  0  0  0  0  0  0  0  0  0  0
  149.9101  141.3567  156.8770 C   0  0  2  0  0  0  0  0  0  0  0  0
  150.4744  140.9176  155.5231 C   0  0  0  0  0  0  0  0  0  0  0  0
  149.2111  140.6662  154.7065 C   0  0  2  0  0  0  0  0  0  0  0  0
  149.4534  140.7345  153.3174 O   0  0  0  0  0  0  0  0  0  0  0  0
  148.2613  141.7691  155.1845 C   0  0  0  0  0  0  0  0  0  0  0  0
  148.6541  142.0753  156.5748 N   0  3  0  0  0  0  0  0  0  0  0  0
  151.3479  143.3381  157.2445 N   0  0  0  0  0  0  0  0  0  0  0  0
  152.1900  143.6908  158.2390 N   0  0  0  0  0  0  0  0  0  0  0  0
  149.6359  140.4677  157.4470 H   0  0  0  0  0  0  0  0  0  0  0  0
  148.7990  139.6877  154.9578 H   0  0  0  0  0  0  0  0  0  0  0  0
  152.7293  144.5451  158.2307 H   0  0  0  0  0  0  0  0  0  0  0  0
  154.6709  141.8496  161.4150 H   0  0  0  0  0  0  0  0  0  0  0  0
  154.7639  141.7933  159.6570 H   0  0  0  0  0  0  0  0  0  0  0  0
  153.6261  140.7537  160.5142 H   0  0  0  0  0  0  0  0  0  0  0  0
  152.3574  142.7913  161.2888 H   0  0  0  0  0  0  0  0  0  0  0  0
  153.4873  143.8227  160.4434 H   0  0  0  0  0  0  0  0  0  0  0  0
  151.0437  141.7341  155.0744 H   0  0  0  0  0  0  0  0  0  0  0  0
  151.1306  140.0496  155.5933 H   0  0  0  0  0  0  0  0  0  0  0  0
  149.1782  139.9218  152.9201 H   0  0  0  0  0  0  0  0  0  0  0  0
  148.3939  142.6772  154.5944 H   0  0  0  0  0  0  0  0  0  0  0  0
  147.2136  141.4746  155.1172 H   0  0  0  0  0  0  0  0  0  0  0  0
  147.9342  141.7910  157.2231 H   0  0  0  0  0  0  0  0  0  0  0  0
  148.8135  143.0696  156.6572 H   0  0  0  0  0  0  0  0  0  0  0  0
  1  2  1  0  0  0  0
  1 17  1  0  0  0  0
  1 18  1  0  0  0  0
  1 19  1  0  0  0  0
  2  3  1  0  0  0  0
  2 20  1  0  0  0  0
  2 21  1  0  0  0  0
  3 13  1  0  0  0  0
  3  4  2  0  0  0  0
  4  5  1  0  0  0  0
  5  6  1  0  0  0  0
  5 12  2  0  0  0  0
  6 14  1  0  0  0  0
  6 11  1  0  0  0  0
  6  7  1  0  0  0  0
  7  8  1  0  0  0  0
  7 22  1  0  0  0  0
  7 23  1  0  0  0  0
  8 15  1  0  0  0  0
  8  9  1  0  0  0  0
  8 10  1  0  0  0  0
  9 24  1  0  0  0  0
 10 11  1  0  0  0  0
 10 25  1  0  0  0  0
 10 26  1  0  0  0  0
 11 27  1  0  0  0  0
 11 28  1  0  0  0  0
 12 13  1  0  0  0  0
 13 16  1  0  0  0  0
M  CHG  1  11   1
M  END
> <s_m_source_file>
AV-unprocessed.smi

> <i_m_source_file_index>
49

> <i_lp_mmshare_version>
43012

> <i_f3d_flags>
0

> <s_epik_input>
W0NIM11bQ0gyXWMxbmMobltuSF0xKVtDQEBIXTJbQ0gyXVtDQEBIXShbT0hdKVtDSDJdW05IXTI=

> <s_epik_cmdline>
J2VwaWtfcHl0aG9uJywgJy1waCcsICc3LjAnLCAnLXRuJywgJzgnLCAnLW1hJywgJzIwMCcsICctbWV0YWxfYmluZGluZycsICctaW1hZScsICc8aW5maWxlLm1hZT4nLCAnLW9tYWUnLCAnPG91dGZpbGUubWFlPic=

> <r_lp_tautomer_probability>
0.948284

> <r_epik_Ionization_Penalty>
0.045643

> <r_epik_Ionization_Penalty_Charging>
0.0371552

> <r_epik_Ionization_Penalty_Neutral>
0.00848778

> <r_epik_State_Penalty>
0.283309

> <r_epik_Charging_Adjusted_Penalty>
0.320465

> <i_epik_Tot_Q>
1

> <i_epik_Tot_abs_Q>
1

> <r_epik_Metal_State_Penalty>
0.558162

> <b_epik_Metal_Only>
0

> <s_lp_Force_Field>
OPLS_2005

> <r_lp_Energy>
16.4717

> <b_lp_Chiralities_Consistent>
1

> <s_lp_Variant>
AV-unprocessed.smi:49-3

> <Gold.Version>
5.8.1

> <Gold.Id.Protein>
6NUR|6NUR_protein|mol2

> <Gold.PLP.Fitness>
36.6369

> <Gold.PLP.PLP>
-27.1693

> <Gold.PLP.part.hbond>
-3.1919

> <Gold.PLP.part.metal>
0.0000

> <Gold.PLP.part.buried>
-3.2414

> <Gold.PLP.part.nonpolar>
-21.0470

> <Gold.PLP.part.repulsive>
0.1419

> <Gold.PLP.ligand.clash>
0.0000

> <Gold.PLP.ligand.torsion>
0.0381

> <Gold.PLP.Chemscore.Hbond>
3.1769

> <Gold.PLP.Chemscore.CHOScore>
0.0000

> <Gold.PLP.Chemscore.Metal>
0.0000

> <Gold.Chemscore.Hbonds>
donor molecule, donor type, donor heavy atom, donor atom, acceptor molecule, acceptor atom, score
      L1  H     9    24       P1  7957  0.13
      L1  H    11    28       P1  8028  1.76
      P1  H  7989  7998       L1     9  0.17
      P1  H  8011  8017       L1     9  1.00

> <Gold.PLP.Chemscore.Internal.Correction>
0.0131

> <Gold.Rescore>
     Score         DG    S(hbond)    S(metal)    S(lipo)     H(rot)  DE(clash)    DE(int)     intcor
     12.57     -12.94       2.08        0.00      45.69       1.89       0.36       0.01       ----

> <Gold.Chemscore.Fitness>
12.5690

> <Gold.Chemscore.DG>
-12.9364

> <Gold.Chemscore.ZeroCoef>
-5.4800

> <Gold.Chemscore.Hbond>
2.0792

> <Gold.Chemscore.Metal>
0.0000

> <Gold.Chemscore.Lipo>
45.6917

> <Gold.Chemscore.Internal_Hbond>
0.0000

> <Gold.Chemscore.DEClash>
0.3559

> <Gold.Chemscore.DEInternal>
0.0115

> <Gold.Chemscore.Rot>
1.8883

> <Gold.Chemscore.Internal.Correction>
   9.000000E+99

> <Gold.Chemscore.Hbonds>
donor molecule, donor type, donor heavy atom, donor atom, acceptor molecule, acceptor atom, score
      L1  H     9    24       P1  7957  0.15
      L1  H    11    28       P1  8028  0.78
      P1  H  7989  7998       L1     9  0.02
      P1  H  8011  8017       L1     9  0.97

> <Gold.Chemscore.Hbond.Weighted>
-6.9445

> <Gold.Chemscore.Metal.Weighted>
-0.0000

> <Gold.Chemscore.Lipo.Weighted>
-5.3459

> <Gold.Chemscore.Internal_Hbond.Weighted>
0.0000

> <Gold.Chemscore.DEClash.Weighted>
0.3559

> <Gold.Chemscore.DEInternal.Weighted>
0.0115

> <Gold.Chemscore.Rot.Weighted>
4.8340

> <Gold.Chemscore.Internal.Correction.Weighted>
   9.000000E+99

> <Gold.Protein.RotatedTorsions>
[ 6907 6896 6895 6894 ] final   25.53 input  -60.11 | X-H torsion
[ 7974 7965 7964 7962 ] final -105.60 input  175.53 | X-H torsion
[ 8008 7997 7996 7995 ] final  -68.99 input   59.86 | X-H torsion
[ 10167 10162 10161 10158 ] final  147.70 input  -65.29 | X-H torsion
[ 10718 10713 10712 10709 ] final  113.26 input   66.30 | X-H torsion
[ 10763 10752 10751 10750 ] final -116.52 input  -60.55 | X-H torsion
[ 11005 11000 10999 10996 ] final  103.54 input  -57.11 | X-H torsion

> <Gold.Protein.ActiveResidues>
 VAL166  LYS551  ARG553  GLY616  TRP617  ASP618  TYR619  PRO620  LYS621  CYS622 
 ASP623  PHE694  ASN695  SER759  ASP760  ASP761  ALA762  ILE779  LEU786  VAL792 
 PHE793  MET794  SER795  GLU796  ALA797  LYS798  CYS799  TRP800  GLU811  SER814 

> <Gold.Protein.RotatedAtoms>
  151.9739  135.0063  160.0553 H   0  0  0  0  0  0  0  0  0  0  0  0  # atno 6907 bound_to 6896
  152.1758  133.4669  159.4940 H   0  0  0  0  0  0  0  0  0  0  0  0  # atno 6908 bound_to 6896
  150.6909  134.1814  159.4293 H   0  0  0  0  0  0  0  0  0  0  0  0  # atno 6909 bound_to 6896
  145.2284  140.9161  143.3219 H   0  0  0  0  0  0  0  0  0  0  0  0  # atno 7974 bound_to 7965
  154.4907  140.0862  156.7587 H   0  0  0  0  0  0  0  0  0  0  0  0  # atno 8008 bound_to 7997
  155.4238  140.3447  155.4255 H   0  0  0  0  0  0  0  0  0  0  0  0  # atno 8009 bound_to 7997
  156.1325  140.1505  156.9031 H   0  0  0  0  0  0  0  0  0  0  0  0  # atno 8010 bound_to 7997
  139.4886  144.5735  151.7009 H   0  0  0  0  0  0  0  0  0  0  0  0  # atno 10167 bound_to 10162
  157.6348  131.0981  150.7015 H   0  0  0  0  0  0  0  0  0  0  0  0  # atno 10718 bound_to 10713
  154.8522  135.4342  154.1835 H   0  0  0  0  0  0  0  0  0  0  0  0  # atno 10763 bound_to 10752
  153.2920  135.6962  153.7290 H   0  0  0  0  0  0  0  0  0  0  0  0  # atno 10764 bound_to 10752
  153.6453  135.3461  155.3058 H   0  0  0  0  0  0  0  0  0  0  0  0  # atno 10765 bound_to 10752
  139.8784  134.9267  156.5225 H   0  0  0  0  0  0  0  0  0  0  0  0  # atno 11005 bound_to 11000
  144.9699  139.3891  143.6314 LP  0  0  0  0  0  0  0  0  0  0  0  0  # atno 17320 bound_to 7965
  146.3359  139.8792  142.8827 LP  0  0  0  0  0  0  0  0  0  0  0  0  # atno 17321 bound_to 7965
  140.5327  144.0704  150.6059 LP  0  0  0  0  0  0  0  0  0  0  0  0  # atno 17342 bound_to 10162
  140.3700  143.2860  152.0289 LP  0  0  0  0  0  0  0  0  0  0  0  0  # atno 17343 bound_to 10162
  156.7348  130.4721  149.5491 LP  0  0  0  0  0  0  0  0  0  0  0  0  # atno 17370 bound_to 10713
  156.1578  130.6353  151.0680 LP  0  0  0  0  0  0  0  0  0  0  0  0  # atno 17371 bound_to 10713
  140.8440  133.8183  155.9102 LP  0  0  0  0  0  0  0  0  0  0  0  0  # atno 17394 bound_to 11000
  140.9210  134.2142  157.4926 LP  0  0  0  0  0  0  0  0  0  0  0  0  # atno 17395 bound_to 11000

$$$$
