AV-unprocessed.smi:1244|AV-procd|sdf|5228|dock6
  -GOLD-   22720 4333D 1   1.00000     0.00000
 Structure written by MMmdl.
 55 57  0  0  0  0  0  0  0  0  2 V2000
  152.6839  138.9864  159.9287 C   0  0  0  0  0  0  0  0  0  0  0  0
  151.7508  139.2310  158.7383 C   0  0  2  0  0  0  0  0  0  0  0  0
  151.1196  137.9263  158.2208 C   0  0  0  0  0  0  0  0  0  0  0  0
  150.3021  138.1494  157.0359 N   0  0  0  0  0  0  0  0  0  0  0  0
  149.6714  136.9064  156.5904 C   0  0  0  0  0  0  0  0  0  0  0  0
  150.5704  135.9664  155.7604 C   0  0  0  0  0  0  0  0  0  0  0  0
  149.8395  135.3035  154.6850 N   0  0  0  0  0  0  0  0  0  0  0  0
  149.4854  134.0114  154.6740 C   0  0  0  0  0  0  0  0  0  0  0  0
  149.7756  133.2154  155.5670 O   0  0  0  0  0  0  0  0  0  0  0  0
  148.7613  133.7167  153.5818 N   0  0  0  0  0  0  0  0  0  0  0  0
  148.0928  132.4960  153.2877 C   0  0  0  0  0  0  0  0  0  0  0  0
  148.5460  131.2665  153.8309 C   0  0  0  0  0  0  0  0  0  0  0  0
  147.9111  130.0629  153.4719 C   0  0  0  0  0  0  0  0  0  0  0  0
  146.8423  130.1041  152.5605 C   0  0  0  0  0  0  0  0  0  0  0  0
  146.4434  131.2876  152.0507 N   0  3  0  0  0  0  0  0  0  0  0  0
  147.0030  132.4820  152.3691 C   0  0  0  0  0  0  0  0  0  0  0  0
  146.4695  133.6419  151.7613 N   0  0  0  0  0  0  0  0  0  0  0  0
  145.5380  133.5297  150.6452 C   0  0  0  0  0  0  0  0  0  0  0  0
  144.9394  134.9248  150.4877 C   0  0  0  0  0  0  0  0  0  0  0  0
  144.8703  135.4183  151.9299 C   0  0  0  0  0  0  0  0  0  0  0  0
  146.0983  134.7838  152.5918 C   0  0  0  0  0  0  0  0  0  0  0  0
  151.1250  138.7655  155.9984 C   0  0  0  0  0  0  0  0  0  0  0  0
  151.8023  140.0657  156.4758 C   0  0  1  0  0  0  0  0  0  0  0  0
  150.8258  141.2475  156.6008 C   0  0  0  0  0  0  0  0  0  0  0  0
  152.5122  139.8358  157.6943 O   0  0  0  0  0  0  0  0  0  0  0  0
  152.1452  138.5368  160.7633 H   0  0  0  0  0  0  0  0  0  0  0  0
  153.1205  139.9214  160.2802 H   0  0  0  0  0  0  0  0  0  0  0  0
  153.5017  138.3176  159.6588 H   0  0  0  0  0  0  0  0  0  0  0  0
  150.9635  139.9154  159.0552 H   0  0  0  0  0  0  0  0  0  0  0  0
  151.9062  137.2042  157.9952 H   0  0  0  0  0  0  0  0  0  0  0  0
  150.5106  137.4855  159.0109 H   0  0  0  0  0  0  0  0  0  0  0  0
  149.2813  136.3616  157.4514 H   0  0  0  0  0  0  0  0  0  0  0  0
  148.8001  137.1549  155.9827 H   0  0  0  0  0  0  0  0  0  0  0  0
  151.3974  136.5217  155.3188 H   0  0  0  0  0  0  0  0  0  0  0  0
  151.0250  135.2175  156.4106 H   0  0  0  0  0  0  0  0  0  0  0  0
  149.5560  135.8830  153.9087 H   0  0  0  0  0  0  0  0  0  0  0  0
  148.5400  134.4923  152.9749 H   0  0  0  0  0  0  0  0  0  0  0  0
  149.3896  131.2262  154.5036 H   0  0  0  0  0  0  0  0  0  0  0  0
  148.2486  129.1218  153.8804 H   0  0  0  0  0  0  0  0  0  0  0  0
  146.3008  129.2327  152.2211 H   0  0  0  0  0  0  0  0  0  0  0  0
  146.0417  133.2003  149.7357 H   0  0  0  0  0  0  0  0  0  0  0  0
  144.7474  132.8157  150.8802 H   0  0  0  0  0  0  0  0  0  0  0  0
  145.6140  135.5583  149.9095 H   0  0  0  0  0  0  0  0  0  0  0  0
  143.9694  134.9182  149.9900 H   0  0  0  0  0  0  0  0  0  0  0  0
  144.8616  136.5058  152.0074 H   0  0  0  0  0  0  0  0  0  0  0  0
  143.9623  135.0412  152.4028 H   0  0  0  0  0  0  0  0  0  0  0  0
  145.8879  134.4947  153.6224 H   0  0  0  0  0  0  0  0  0  0  0  0
  146.9245  135.4953  152.5998 H   0  0  0  0  0  0  0  0  0  0  0  0
  151.8959  138.0609  155.6827 H   0  0  0  0  0  0  0  0  0  0  0  0
  150.5260  138.9820  155.1143 H   0  0  0  0  0  0  0  0  0  0  0  0
  152.5497  140.3468  155.7335 H   0  0  0  0  0  0  0  0  0  0  0  0
  150.3753  141.4829  155.6364 H   0  0  0  0  0  0  0  0  0  0  0  0
  151.3403  142.1420  156.9528 H   0  0  0  0  0  0  0  0  0  0  0  0
  150.0140  141.0339  157.2951 H   0  0  0  0  0  0  0  0  0  0  0  0
  145.6663  131.2838  151.3899 H   0  0  0  0  0  0  0  0  0  0  0  0
  1  2  1  0  0  0  0
  1 26  1  0  0  0  0
  1 27  1  0  0  0  0
  1 28  1  0  0  0  0
  2 25  1  0  0  0  0
  2  3  1  0  0  0  0
  2 29  1  0  0  0  0
  3  4  1  0  0  0  0
  3 30  1  0  0  0  0
  3 31  1  0  0  0  0
  4  5  1  0  0  0  0
  4 22  1  0  0  0  0
  5  6  1  0  0  0  0
  5 32  1  0  0  0  0
  5 33  1  0  0  0  0
  6  7  1  0  0  0  0
  6 34  1  0  0  0  0
  6 35  1  0  0  0  0
  7  8  1  0  0  0  0
  7 36  1  0  0  0  0
  8  9  2  0  0  0  0
  8 10  1  0  0  0  0
 10 11  1  0  0  0  0
 10 37  1  0  0  0  0
 11 16  1  0  0  0  0
 11 12  2  0  0  0  0
 12 13  1  0  0  0  0
 12 38  1  0  0  0  0
 13 14  2  0  0  0  0
 13 39  1  0  0  0  0
 14 15  1  0  0  0  0
 14 40  1  0  0  0  0
 15 16  2  0  0  0  0
 15 55  1  0  0  0  0
 16 17  1  0  0  0  0
 17 21  1  0  0  0  0
 17 18  1  0  0  0  0
 18 19  1  0  0  0  0
 18 41  1  0  0  0  0
 18 42  1  0  0  0  0
 19 20  1  0  0  0  0
 19 43  1  0  0  0  0
 19 44  1  0  0  0  0
 20 21  1  0  0  0  0
 20 45  1  0  0  0  0
 20 46  1  0  0  0  0
 21 47  1  0  0  0  0
 21 48  1  0  0  0  0
 22 23  1  0  0  0  0
 22 49  1  0  0  0  0
 22 50  1  0  0  0  0
 23 24  1  0  0  0  0
 23 25  1  0  0  0  0
 23 51  1  0  0  0  0
 24 52  1  0  0  0  0
 24 53  1  0  0  0  0
 24 54  1  0  0  0  0
M  CHG  1  15   1
M  END
> <s_m_source_file>
AV-unprocessed.smi

> <i_m_source_file_index>
1244

> <i_lp_mmshare_version>
43012

> <i_f3d_flags>
0

> <s_epik_input>
W0NIM11bQ0BASF0xW0NIMl1OKFtDSDJdW0NASF0oTzEpW0NIM10pW0NIMl1bQ0gyXVtOSF1DKD1PKVtOSF1jMltjSF1bY0hdW2NIXW5jMk4zW0NIMl1bQ0gyXVtDSDJdW0NIMl0z

> <s_epik_cmdline>
J2VwaWtfcHl0aG9uJywgJy1waCcsICc3LjAnLCAnLXRuJywgJzgnLCAnLW1hJywgJzIwMCcsICctbWV0YWxfYmluZGluZycsICctaW1hZScsICc8aW5maWxlLm1hZT4nLCAnLW9tYWUnLCAnPG91dGZpbGUubWFlPic=

> <r_epik_Ionization_Penalty>
1.38385

> <r_epik_Ionization_Penalty_Charging>
1.11784

> <r_epik_Ionization_Penalty_Neutral>
0.26601

> <r_epik_State_Penalty>
1.46794

> <r_epik_Charging_Adjusted_Penalty>
2.58578

> <i_epik_Tot_Q>
1

> <i_epik_Tot_abs_Q>
1

> <r_epik_Metal_State_Penalty>
1.54908

> <b_epik_Metal_Only>
0

> <s_lp_Force_Field>
OPLS_2005

> <r_lp_Energy>
60.0137

> <b_lp_Chiralities_Consistent>
1

> <s_lp_Variant>
AV-unprocessed.smi:1244-8

> <Gold.Version>
5.8.1

> <Gold.Id.Protein>
6NUR|6NUR_protein|mol2

> <Gold.PLP.Fitness>
46.6350

> <Gold.PLP.PLP>
-39.0286

> <Gold.PLP.part.hbond>
-3.8408

> <Gold.PLP.part.metal>
0.0000

> <Gold.PLP.part.buried>
-2.6343

> <Gold.PLP.part.nonpolar>
-31.0694

> <Gold.PLP.part.repulsive>
0.2376

> <Gold.PLP.ligand.clash>
0.0000

> <Gold.PLP.ligand.torsion>
0.8502

> <Gold.PLP.Chemscore.Hbond>
2.9440

> <Gold.PLP.Chemscore.CHOScore>
0.0000

> <Gold.PLP.Chemscore.Metal>
0.0000

> <Gold.Chemscore.Hbonds>
donor molecule, donor type, donor heavy atom, donor atom, acceptor molecule, acceptor atom, score
      L1  H     7    36       P1  7948  0.75
      L1  H    10    37       P1  7948  0.88
      P1  H  7997  8010       L1    25  0.39

> <Gold.PLP.Chemscore.Internal.Correction>
0.4748

> <Gold.Rescore>
     Score         DG    S(hbond)    S(metal)    S(lipo)     H(rot)  DE(clash)    DE(int)     intcor
     16.10     -18.10       2.13        0.00      81.59       1.58       0.01       1.99       ----

> <Gold.Chemscore.Fitness>
16.0975

> <Gold.Chemscore.DG>
-18.0980

> <Gold.Chemscore.ZeroCoef>
-5.4800

> <Gold.Chemscore.Hbond>
2.1304

> <Gold.Chemscore.Metal>
0.0000

> <Gold.Chemscore.Lipo>
81.5929

> <Gold.Chemscore.Internal_Hbond>
0.0000

> <Gold.Chemscore.DEClash>
0.0088

> <Gold.Chemscore.DEInternal>
1.9918

> <Gold.Chemscore.Rot>
1.5797

> <Gold.Chemscore.Internal.Correction>
   9.000000E+99

> <Gold.Chemscore.Hbonds>
donor molecule, donor type, donor heavy atom, donor atom, acceptor molecule, acceptor atom, score
      L1  H     7    36       P1  7948  0.32
      L1  H    10    37       P1  7948  0.19
      P1  H  7997  8010       L1    25  0.02

> <Gold.Chemscore.Hbond.Weighted>
-7.1156

> <Gold.Chemscore.Metal.Weighted>
-0.0000

> <Gold.Chemscore.Lipo.Weighted>
-9.5464

> <Gold.Chemscore.Internal_Hbond.Weighted>
0.0000

> <Gold.Chemscore.DEClash.Weighted>
0.0088

> <Gold.Chemscore.DEInternal.Weighted>
1.9918

> <Gold.Chemscore.Rot.Weighted>
4.0439

> <Gold.Chemscore.Internal.Correction.Weighted>
   9.000000E+99

> <Gold.Protein.RotatedTorsions>
[ 6907 6896 6895 6894 ] final -174.02 input  -60.11 | X-H torsion
[ 7974 7965 7964 7962 ] final -128.05 input  175.53 | X-H torsion
[ 8008 7997 7996 7995 ] final   57.54 input   59.86 | X-H torsion
[ 10167 10162 10161 10158 ] final  131.55 input  -65.29 | X-H torsion
[ 10718 10713 10712 10709 ] final  -50.66 input   66.30 | X-H torsion
[ 10763 10752 10751 10750 ] final   36.62 input  -60.55 | X-H torsion
[ 11005 11000 10999 10996 ] final  -84.87 input  -57.11 | X-H torsion

> <Gold.Protein.ActiveResidues>
 VAL166  LYS551  ARG553  GLY616  TRP617  ASP618  TYR619  PRO620  LYS621  CYS622 
 ASP623  PHE694  ASN695  SER759  ASP760  ASP761  ALA762  ILE779  LEU786  VAL792 
 PHE793  MET794  SER795  GLU796  ALA797  LYS798  CYS799  TRP800  GLU811  SER814 

> <Gold.Protein.RotatedAtoms>
  151.5656  133.3397  159.2979 H   0  0  0  0  0  0  0  0  0  0  0  0  # atno 6907 bound_to 6896
  150.8397  134.7687  159.6933 H   0  0  0  0  0  0  0  0  0  0  0  0  # atno 6908 bound_to 6896
  152.4467  134.5487  159.9912 H   0  0  0  0  0  0  0  0  0  0  0  0  # atno 6909 bound_to 6896
  144.9709  140.7544  143.4671 H   0  0  0  0  0  0  0  0  0  0  0  0  # atno 7974 bound_to 7965
  155.5355  140.3483  155.4435 H   0  0  0  0  0  0  0  0  0  0  0  0  # atno 8008 bound_to 7997
  156.0688  140.1358  156.9880 H   0  0  0  0  0  0  0  0  0  0  0  0  # atno 8009 bound_to 7997
  154.4517  140.0970  156.6613 H   0  0  0  0  0  0  0  0  0  0  0  0  # atno 8010 bound_to 7997
  139.5379  144.6701  151.4724 H   0  0  0  0  0  0  0  0  0  0  0  0  # atno 10167 bound_to 10162
  156.1781  130.4150  149.9548 H   0  0  0  0  0  0  0  0  0  0  0  0  # atno 10718 bound_to 10713
  153.0069  135.6300  154.2015 H   0  0  0  0  0  0  0  0  0  0  0  0  # atno 10763 bound_to 10752
  154.1758  135.2816  155.3069 H   0  0  0  0  0  0  0  0  0  0  0  0  # atno 10764 bound_to 10752
  154.5873  135.5628  153.7304 H   0  0  0  0  0  0  0  0  0  0  0  0  # atno 10765 bound_to 10752
  141.1646  133.7369  156.8931 H   0  0  0  0  0  0  0  0  0  0  0  0  # atno 11005 bound_to 11000
  145.2560  139.2011  143.4917 LP  0  0  0  0  0  0  0  0  0  0  0  0  # atno 17320 bound_to 7965
  146.3381  140.2482  142.8597 LP  0  0  0  0  0  0  0  0  0  0  0  0  # atno 17321 bound_to 7965
  140.6594  143.8530  150.6871 LP  0  0  0  0  0  0  0  0  0  0  0  0  # atno 17342 bound_to 10162
  140.1920  143.4029  152.1856 LP  0  0  0  0  0  0  0  0  0  0  0  0  # atno 17343 bound_to 10162
  156.7327  130.9049  151.3627 LP  0  0  0  0  0  0  0  0  0  0  0  0  # atno 17370 bound_to 10713
  157.6849  130.9176  150.0361 LP  0  0  0  0  0  0  0  0  0  0  0  0  # atno 17371 bound_to 10713
  140.1634  134.9150  157.2744 LP  0  0  0  0  0  0  0  0  0  0  0  0  # atno 17394 bound_to 11000
  140.2584  134.3600  155.7415 LP  0  0  0  0  0  0  0  0  0  0  0  0  # atno 17395 bound_to 11000

$$$$
