AV-unprocessed.smi:2709|AV-procd|sdf|10463|dock1
  -GOLD-   2272014503D 1   1.00000     0.00000
 Structure written by MMmdl.
 40 42  0  0  0  0  0  0  0  0  1 V2000
  149.9789  130.7534  155.1322 C   0  0  0  0  0  0  0  0  0  0  0  0
  148.9927  131.7555  155.3224 O   0  0  0  0  0  0  0  0  0  0  0  0
  148.5711  132.3804  154.1175 C   0  0  1  0  0  0  0  0  0  0  0  0
  147.7072  131.4489  153.2560 C   0  0  0  0  0  0  0  0  0  0  0  0
  146.7578  132.3851  152.5178 C   0  0  0  0  0  0  0  0  0  0  0  0
  146.4227  133.4562  153.5542 C   0  0  0  0  0  0  0  0  0  0  0  0
  147.6819  133.6033  154.4327 C   0  0  2  0  0  0  0  0  0  0  0  0
  148.3918  134.8461  154.1377 N   0  0  0  0  0  0  0  0  0  0  0  0
  148.7497  135.7642  155.0461 C   0  0  0  0  0  0  0  0  0  0  0  0
  148.5120  135.6577  156.2488 O   0  0  0  0  0  0  0  0  0  0  0  0
  149.4027  136.7873  154.4695 N   0  0  0  0  0  0  0  0  0  0  0  0
  149.9105  137.9664  155.0782 C   0  0  0  0  0  0  0  0  0  0  0  0
  150.4306  138.9887  154.2569 C   0  0  0  0  0  0  0  0  0  0  0  0
  150.9152  140.1414  154.7667 N   0  0  0  0  0  0  0  0  0  0  0  0
  150.8828  140.2728  156.0956 C   0  0  0  0  0  0  0  0  0  0  0  0
  151.3873  141.5658  156.6572 C   0  0  0  0  0  0  0  0  0  0  0  0
  151.4663  141.7856  158.1545 C   0  0  0  0  0  0  0  0  0  0  0  0
  150.4434  142.5314  157.3442 C   0  0  0  0  0  0  0  0  0  0  0  0
  150.3932  139.3903  156.9708 N   0  0  0  0  0  0  0  0  0  0  0  0
  149.9083  138.2334  156.4697 C   0  0  0  0  0  0  0  0  0  0  0  0
  150.2720  130.3442  156.0988 H   0  0  0  0  0  0  0  0  0  0  0  0
  150.8715  131.1631  154.6581 H   0  0  0  0  0  0  0  0  0  0  0  0
  149.6047  129.9308  154.5222 H   0  0  0  0  0  0  0  0  0  0  0  0
  149.4399  132.6987  153.5368 H   0  0  0  0  0  0  0  0  0  0  0  0
  148.2983  130.8315  152.5790 H   0  0  0  0  0  0  0  0  0  0  0  0
  147.1283  130.7811  153.8958 H   0  0  0  0  0  0  0  0  0  0  0  0
  147.2715  132.8388  151.6694 H   0  0  0  0  0  0  0  0  0  0  0  0
  145.8719  131.8741  152.1404 H   0  0  0  0  0  0  0  0  0  0  0  0
  146.1004  134.3889  153.0894 H   0  0  0  0  0  0  0  0  0  0  0  0
  145.5952  133.1073  154.1732 H   0  0  0  0  0  0  0  0  0  0  0  0
  147.3900  133.5933  155.4850 H   0  0  0  0  0  0  0  0  0  0  0  0
  148.6333  135.0120  153.1719 H   0  0  0  0  0  0  0  0  0  0  0  0
  149.5883  136.6954  153.4815 H   0  0  0  0  0  0  0  0  0  0  0  0
  150.4595  138.8827  153.1822 H   0  0  0  0  0  0  0  0  0  0  0  0
  152.1804  141.9828  156.0394 H   0  0  0  0  0  0  0  0  0  0  0  0
  151.1061  140.9912  158.8052 H   0  0  0  0  0  0  0  0  0  0  0  0
  152.3148  142.3505  158.5351 H   0  0  0  0  0  0  0  0  0  0  0  0
  150.6077  143.5943  157.1799 H   0  0  0  0  0  0  0  0  0  0  0  0
  149.4031  142.2325  157.4564 H   0  0  0  0  0  0  0  0  0  0  0  0
  149.5052  137.5466  157.1972 H   0  0  0  0  0  0  0  0  0  0  0  0
  1  2  1  0  0  0  0
  1 21  1  0  0  0  0
  1 22  1  0  0  0  0
  1 23  1  0  0  0  0
  2  3  1  0  0  0  0
  3  7  1  0  0  0  0
  3  4  1  0  0  0  0
  3 24  1  0  0  0  0
  4  5  1  0  0  0  0
  4 25  1  0  0  0  0
  4 26  1  0  0  0  0
  5  6  1  0  0  0  0
  5 27  1  0  0  0  0
  5 28  1  0  0  0  0
  6  7  1  0  0  0  0
  6 29  1  0  0  0  0
  6 30  1  0  0  0  0
  7  8  1  0  0  0  0
  7 31  1  0  0  0  0
  8  9  1  0  0  0  0
  8 32  1  0  0  0  0
  9 10  2  0  0  0  0
  9 11  1  0  0  0  0
 11 12  1  0  0  0  0
 11 33  1  0  0  0  0
 12 20  1  0  0  0  0
 12 13  2  0  0  0  0
 13 14  1  0  0  0  0
 13 34  1  0  0  0  0
 14 15  2  0  0  0  0
 15 16  1  0  0  0  0
 15 19  1  0  0  0  0
 16 18  1  0  0  0  0
 16 17  1  0  0  0  0
 16 35  1  0  0  0  0
 17 18  1  0  0  0  0
 17 36  1  0  0  0  0
 17 37  1  0  0  0  0
 18 38  1  0  0  0  0
 18 39  1  0  0  0  0
 19 20  2  0  0  0  0
 20 40  1  0  0  0  0
M  END
> <s_m_source_file>
AV-unprocessed.smi

> <i_m_source_file_index>
2709

> <i_lp_mmshare_version>
43012

> <i_f3d_flags>
0

> <s_epik_input>
W0NIM11PW0NAQEhdMVtDSDJdW0NIMl1bQ0gyXVtDQEhdMVtOSF1DKD1PKVtOSF1jMltjSF1uYyhuW2NIXTIpW0NIXTNbQ0gyXVtDSDJdMw==

> <s_epik_cmdline>
J2VwaWtfcHl0aG9uJywgJy1waCcsICc3LjAnLCAnLXRuJywgJzgnLCAnLW1hJywgJzIwMCcsICctbWV0YWxfYmluZGluZycsICctaW1hZScsICc8aW5maWxlLm1hZT4nLCAnLW9tYWUnLCAnPG91dGZpbGUubWFlPic=

> <r_lp_tautomer_probability>
1

> <r_epik_Ionization_Penalty>
2.49969e-05

> <r_epik_Ionization_Penalty_Charging>
0

> <r_epik_Ionization_Penalty_Neutral>
2.49969e-05

> <r_epik_State_Penalty>
-0

> <r_epik_Charging_Adjusted_Penalty>
0

> <i_epik_Tot_Q>
0

> <i_epik_Tot_abs_Q>
0

> <r_epik_Metal_State_Penalty>
-0

> <b_epik_Metal_Only>
0

> <s_lp_Force_Field>
OPLS_2005

> <r_lp_Energy>
19.78

> <b_lp_Chiralities_Consistent>
1

> <s_lp_Variant>
AV-unprocessed.smi:2709-4

> <Gold.Version>
5.8.1

> <Gold.Id.Protein>
6NUR|6NUR_protein|mol2

> <Gold.PLP.Fitness>
39.1989

> <Gold.PLP.PLP>
-27.4082

> <Gold.PLP.part.hbond>
-3.0000

> <Gold.PLP.part.metal>
0.0000

> <Gold.PLP.part.buried>
-2.9195

> <Gold.PLP.part.nonpolar>
-20.9748

> <Gold.PLP.part.repulsive>
0.1222

> <Gold.PLP.ligand.clash>
0.0000

> <Gold.PLP.ligand.torsion>
0.1640

> <Gold.PLP.Chemscore.Hbond>
2.9920

> <Gold.PLP.Chemscore.CHOScore>
1.0000

> <Gold.PLP.Chemscore.Metal>
0.0000

> <Gold.Chemscore.Hbonds>
donor molecule, donor type, donor heavy atom, donor atom, acceptor molecule, acceptor atom, score
      L1  H     8    32       P1  7948  0.98
      L1  H    11    33       P1  7948  0.98
      P1  H  7989  7998       L1    14  1.00
      L1  C    13    34       P1  7957  1.00

> <Gold.PLP.Chemscore.Internal.Correction>
0.1428

> <Gold.Rescore>
     Score         DG    S(hbond)    S(metal)    S(lipo)     H(rot)  DE(clash)    DE(int)     intcor
     16.67     -18.11       2.62        0.00      64.08       1.41       0.05       1.38       ----

> <Gold.Chemscore.Fitness>
16.6750

> <Gold.Chemscore.DG>
-18.1096

> <Gold.Chemscore.ZeroCoef>
-5.4800

> <Gold.Chemscore.Hbond>
2.6184

> <Gold.Chemscore.Metal>
0.0000

> <Gold.Chemscore.Lipo>
64.0806

> <Gold.Chemscore.Internal_Hbond>
0.0000

> <Gold.Chemscore.DEClash>
0.0543

> <Gold.Chemscore.DEInternal>
1.3803

> <Gold.Chemscore.Rot>
1.4114

> <Gold.Chemscore.Internal.Correction>
   9.000000E+99

> <Gold.Chemscore.Hbonds>
donor molecule, donor type, donor heavy atom, donor atom, acceptor molecule, acceptor atom, score
      L1  H     8    32       P1  7948  0.56
      L1  H    11    33       P1  7948  0.65
      P1  H  7989  7998       L1    14  0.44

> <Gold.Chemscore.Hbond.Weighted>
-8.7454

> <Gold.Chemscore.Metal.Weighted>
-0.0000

> <Gold.Chemscore.Lipo.Weighted>
-7.4974

> <Gold.Chemscore.Internal_Hbond.Weighted>
0.0000

> <Gold.Chemscore.DEClash.Weighted>
0.0543

> <Gold.Chemscore.DEInternal.Weighted>
1.3803

> <Gold.Chemscore.Rot.Weighted>
3.6133

> <Gold.Chemscore.Internal.Correction.Weighted>
   9.000000E+99

> <Gold.Protein.RotatedTorsions>
[ 6907 6896 6895 6894 ] final  -72.34 input  -60.11 | X-H torsion
[ 7974 7965 7964 7962 ] final  -53.23 input  175.53 | X-H torsion
[ 8008 7997 7996 7995 ] final -104.73 input   59.86 | X-H torsion
[ 10167 10162 10161 10158 ] final  -60.45 input  -65.29 | X-H torsion
[ 10718 10713 10712 10709 ] final   63.23 input   66.30 | X-H torsion
[ 10763 10752 10751 10750 ] final  -42.92 input  -60.55 | X-H torsion
[ 11005 11000 10999 10996 ] final  -46.62 input  -57.11 | X-H torsion

> <Gold.Protein.ActiveResidues>
 VAL166  LYS551  ARG553  GLY616  TRP617  ASP618  TYR619  PRO620  LYS621  CYS622 
 ASP623  PHE694  ASN695  SER759  ASP760  ASP761  ALA762  ILE779  LEU786  VAL792 
 PHE793  MET794  SER795  GLU796  ALA797  LYS798  CYS799  TRP800  GLU811  SER814 

> <Gold.Protein.RotatedAtoms>
  150.7174  134.5178  159.5638 H   0  0  0  0  0  0  0  0  0  0  0  0  # atno 6907 bound_to 6896
  152.2740  134.7899  160.0418 H   0  0  0  0  0  0  0  0  0  0  0  0  # atno 6908 bound_to 6896
  151.8569  133.3414  159.3728 H   0  0  0  0  0  0  0  0  0  0  0  0  # atno 6909 bound_to 6896
  145.8991  140.8009  142.9752 H   0  0  0  0  0  0  0  0  0  0  0  0  # atno 7974 bound_to 7965
  154.8896  140.0416  157.1830 H   0  0  0  0  0  0  0  0  0  0  0  0  # atno 8008 bound_to 7997
  154.8554  140.2936  155.5551 H   0  0  0  0  0  0  0  0  0  0  0  0  # atno 8009 bound_to 7997
  156.2997  140.2457  156.3520 H   0  0  0  0  0  0  0  0  0  0  0  0  # atno 8010 bound_to 7997
  140.6070  143.2376  151.5797 H   0  0  0  0  0  0  0  0  0  0  0  0  # atno 10167 bound_to 10162
  157.5957  130.9094  149.9690 H   0  0  0  0  0  0  0  0  0  0  0  0  # atno 10718 bound_to 10713
  153.9871  135.6710  153.4752 H   0  0  0  0  0  0  0  0  0  0  0  0  # atno 10763 bound_to 10752
  153.0722  135.4968  154.8325 H   0  0  0  0  0  0  0  0  0  0  0  0  # atno 10764 bound_to 10752
  154.7131  135.3101  154.9128 H   0  0  0  0  0  0  0  0  0  0  0  0  # atno 10765 bound_to 10752
  141.0590  133.6715  156.3181 H   0  0  0  0  0  0  0  0  0  0  0  0  # atno 11005 bound_to 11000
  144.6734  140.1649  143.7419 LP  0  0  0  0  0  0  0  0  0  0  0  0  # atno 17320 bound_to 7965
  145.8813  139.2325  143.1603 LP  0  0  0  0  0  0  0  0  0  0  0  0  # atno 17321 bound_to 7965
  139.5332  144.2855  152.1195 LP  0  0  0  0  0  0  0  0  0  0  0  0  # atno 17342 bound_to 10162
  140.2046  144.4623  150.6415 LP  0  0  0  0  0  0  0  0  0  0  0  0  # atno 17343 bound_to 10162
  156.1019  130.3655  150.0203 LP  0  0  0  0  0  0  0  0  0  0  0  0  # atno 17370 bound_to 10713
  156.8316  130.9394  151.3637 LP  0  0  0  0  0  0  0  0  0  0  0  0  # atno 17371 bound_to 10713
  140.5906  134.5654  157.5498 LP  0  0  0  0  0  0  0  0  0  0  0  0  # atno 17394 bound_to 11000
  139.9416  134.7777  156.0665 LP  0  0  0  0  0  0  0  0  0  0  0  0  # atno 17395 bound_to 11000

$$$$
