AV-unprocessed.smi:1877|AV-procd|sdf|7622|dock5
  -GOLD-   22720 9353D 1   1.00000     0.00000
 Structure written by MMmdl.
 32 34  0  0  0  0  0  0  0  0  1 V2000
  148.6926  142.8483  157.7066 O   0  0  0  0  0  0  0  0  0  0  0  0
  149.8515  142.0693  157.4890 C   0  0  2  0  0  0  0  0  0  0  0  0
  151.0652  143.0177  157.4429 C   0  0  0  0  0  0  0  0  0  0  0  0
  151.2788  143.6961  158.7084 N   0  0  0  0  0  0  0  0  0  0  0  0
  150.8576  144.9286  159.0524 C   0  0  0  0  0  0  0  0  0  0  0  0
  151.1740  145.3633  160.2689 N   0  0  0  0  0  0  0  0  0  0  0  0
  151.8807  144.2859  160.7754 C   0  0  0  0  0  0  0  0  0  0  0  0
  152.4967  144.1020  162.0340 C   0  0  0  0  0  0  0  0  0  0  0  0
  153.1725  142.8997  162.3298 C   0  0  0  0  0  0  0  0  0  0  0  0
  153.2434  141.8651  161.3742 C   0  0  0  0  0  0  0  0  0  0  0  0
  152.6376  142.0252  160.1132 C   0  0  0  0  0  0  0  0  0  0  0  0
  151.9633  143.2255  159.8229 C   0  0  0  0  0  0  0  0  0  0  0  0
  149.7443  141.2106  156.2337 C   0  0  0  0  0  0  0  0  0  0  0  0
  148.6076  141.3076  155.4003 C   0  0  0  0  0  0  0  0  0  0  0  0
  148.5143  140.5316  154.2292 C   0  0  0  0  0  0  0  0  0  0  0  0
  147.4211  140.6311  153.4367 F   0  0  0  0  0  0  0  0  0  0  0  0
  149.5585  139.6545  153.8809 C   0  0  0  0  0  0  0  0  0  0  0  0
  150.6964  139.5553  154.7037 C   0  0  0  0  0  0  0  0  0  0  0  0
  150.7917  140.3304  155.8760 C   0  0  0  0  0  0  0  0  0  0  0  0
  151.8992  140.2300  156.6500 F   0  0  0  0  0  0  0  0  0  0  0  0
  148.3992  143.1875  156.8747 H   0  0  0  0  0  0  0  0  0  0  0  0
  149.9430  141.4191  158.3596 H   0  0  0  0  0  0  0  0  0  0  0  0
  151.9722  142.4741  157.1739 H   0  0  0  0  0  0  0  0  0  0  0  0
  150.9196  143.7805  156.6767 H   0  0  0  0  0  0  0  0  0  0  0  0
  150.2929  145.5445  158.3676 H   0  0  0  0  0  0  0  0  0  0  0  0
  152.4494  144.8875  162.7736 H   0  0  0  0  0  0  0  0  0  0  0  0
  153.6391  142.7704  163.2952 H   0  0  0  0  0  0  0  0  0  0  0  0
  153.7634  140.9481  161.6100 H   0  0  0  0  0  0  0  0  0  0  0  0
  152.6905  141.2362  159.3779 H   0  0  0  0  0  0  0  0  0  0  0  0
  147.8037  141.9830  155.6540 H   0  0  0  0  0  0  0  0  0  0  0  0
  149.4883  139.0603  152.9817 H   0  0  0  0  0  0  0  0  0  0  0  0
  151.4993  138.8853  154.4338 H   0  0  0  0  0  0  0  0  0  0  0  0
  1  2  1  0  0  0  0
  1 21  1  0  0  0  0
  2  3  1  0  0  0  0
  2 13  1  0  0  0  0
  2 22  1  0  0  0  0
  3  4  1  0  0  0  0
  3 23  1  0  0  0  0
  3 24  1  0  0  0  0
  4 12  1  0  0  0  0
  4  5  1  0  0  0  0
  5  6  2  0  0  0  0
  5 25  1  0  0  0  0
  6  7  1  0  0  0  0
  7 12  2  0  0  0  0
  7  8  1  0  0  0  0
  8  9  2  0  0  0  0
  8 26  1  0  0  0  0
  9 10  1  0  0  0  0
  9 27  1  0  0  0  0
 10 11  2  0  0  0  0
 10 28  1  0  0  0  0
 11 12  1  0  0  0  0
 11 29  1  0  0  0  0
 13 19  1  0  0  0  0
 13 14  2  0  0  0  0
 14 15  1  0  0  0  0
 14 30  1  0  0  0  0
 15 16  1  0  0  0  0
 15 17  2  0  0  0  0
 17 18  1  0  0  0  0
 17 31  1  0  0  0  0
 18 19  2  0  0  0  0
 18 32  1  0  0  0  0
 19 20  1  0  0  0  0
M  END
> <s_m_source_file>
AV-unprocessed.smi

> <i_m_source_file_index>
1877

> <i_lp_mmshare_version>
43012

> <i_f3d_flags>
0

> <s_epik_input>
RmMxW2NIXVtjSF1jKEYpW2NIXWMxW0NASF0oW09IXSlbQ0gyXW4oW2NIXW4yKWMoYzIzKVtjSF1bY0hdW2NIXVtjSF0z

> <s_epik_cmdline>
J2VwaWtfcHl0aG9uJywgJy1waCcsICc3LjAnLCAnLXRuJywgJzgnLCAnLW1hJywgJzIwMCcsICctbWV0YWxfYmluZGluZycsICctaW1hZScsICc8aW5maWxlLm1hZT4nLCAnLW9tYWUnLCAnPG91dGZpbGUubWFlPic=

> <r_epik_Ionization_Penalty>
0.0696522

> <r_epik_Ionization_Penalty_Charging>
0

> <r_epik_Ionization_Penalty_Neutral>
0.0696522

> <r_epik_State_Penalty>
0.0610247

> <r_epik_Charging_Adjusted_Penalty>
0.0610247

> <i_epik_Tot_Q>
0

> <i_epik_Tot_abs_Q>
0

> <r_epik_Metal_State_Penalty>
6.42746e-05

> <b_epik_Metal_Only>
0

> <s_lp_Force_Field>
OPLS_2005

> <r_lp_Energy>
11.8113

> <b_lp_Chiralities_Consistent>
1

> <s_lp_Variant>
AV-unprocessed.smi:1877-1

> <Gold.Version>
5.8.1

> <Gold.Id.Protein>
6NUR|6NUR_protein|mol2

> <Gold.PLP.Fitness>
53.0840

> <Gold.PLP.PLP>
-49.5615

> <Gold.PLP.part.hbond>
-1.6085

> <Gold.PLP.part.metal>
0.0000

> <Gold.PLP.part.buried>
-0.5923

> <Gold.PLP.part.nonpolar>
-47.5727

> <Gold.PLP.part.repulsive>
0.2074

> <Gold.PLP.ligand.clash>
0.0000

> <Gold.PLP.ligand.torsion>
0.3662

> <Gold.PLP.Chemscore.Hbond>
0.7680

> <Gold.PLP.Chemscore.CHOScore>
0.6455

> <Gold.PLP.Chemscore.Metal>
0.0000

> <Gold.Chemscore.Hbonds>
donor molecule, donor type, donor heavy atom, donor atom, acceptor molecule, acceptor atom, score
      L1  H     1    21       P1  8028  0.74
      L1  C     5    25       P1  8029  0.72

> <Gold.PLP.Chemscore.Internal.Correction>
0.0144

> <Gold.Rescore>
     Score         DG    S(hbond)    S(metal)    S(lipo)     H(rot)  DE(clash)    DE(int)     intcor
     14.97     -15.75       0.37        0.00     120.96       2.00       0.37       0.41       ----

> <Gold.Chemscore.Fitness>
14.9662

> <Gold.Chemscore.DG>
-15.7489

> <Gold.Chemscore.ZeroCoef>
-5.4800

> <Gold.Chemscore.Hbond>
0.3735

> <Gold.Chemscore.Metal>
0.0000

> <Gold.Chemscore.Lipo>
120.9557

> <Gold.Chemscore.Internal_Hbond>
0.0000

> <Gold.Chemscore.DEClash>
0.3725

> <Gold.Chemscore.DEInternal>
0.4103

> <Gold.Chemscore.Rot>
2.0040

> <Gold.Chemscore.Internal.Correction>
   9.000000E+99

> <Gold.Chemscore.Hbonds>
donor molecule, donor type, donor heavy atom, donor atom, acceptor molecule, acceptor atom, score
      L1  H     1    21       P1  8028  0.25

> <Gold.Chemscore.Hbond.Weighted>
-1.2474

> <Gold.Chemscore.Metal.Weighted>
-0.0000

> <Gold.Chemscore.Lipo.Weighted>
-14.1518

> <Gold.Chemscore.Internal_Hbond.Weighted>
0.0000

> <Gold.Chemscore.DEClash.Weighted>
0.3725

> <Gold.Chemscore.DEInternal.Weighted>
0.4103

> <Gold.Chemscore.Rot.Weighted>
5.1303

> <Gold.Chemscore.Internal.Correction.Weighted>
   9.000000E+99

> <Gold.Protein.RotatedTorsions>
[ 6907 6896 6895 6894 ] final  -66.62 input  -60.11 | X-H torsion
[ 7974 7965 7964 7962 ] final    3.67 input  175.53 | X-H torsion
[ 8008 7997 7996 7995 ] final -159.90 input   59.86 | X-H torsion
[ 10167 10162 10161 10158 ] final -115.81 input  -65.29 | X-H torsion
[ 10718 10713 10712 10709 ] final  -45.00 input   66.30 | X-H torsion
[ 10763 10752 10751 10750 ] final  141.37 input  -60.55 | X-H torsion
[ 11005 11000 10999 10996 ] final  127.87 input  -57.11 | X-H torsion

> <Gold.Protein.ActiveResidues>
 VAL166  LYS551  ARG553  GLY616  TRP617  ASP618  TYR619  PRO620  LYS621  CYS622 
 ASP623  PHE694  ASN695  SER759  ASP760  ASP761  ALA762  ILE779  LEU786  VAL792 
 PHE793  MET794  SER795  GLU796  ALA797  LYS798  CYS799  TRP800  GLU811  SER814 

> <Gold.Protein.RotatedAtoms>
  150.7455  134.5995  159.6028 H   0  0  0  0  0  0  0  0  0  0  0  0  # atno 6907 bound_to 6896
  152.3360  134.7194  160.0286 H   0  0  0  0  0  0  0  0  0  0  0  0  # atno 6908 bound_to 6896
  151.7662  133.3301  159.3468 H   0  0  0  0  0  0  0  0  0  0  0  0  # atno 6909 bound_to 6896
  146.2445  140.0651  142.8366 H   0  0  0  0  0  0  0  0  0  0  0  0  # atno 7974 bound_to 7965
  155.7694  140.0850  157.2115 H   0  0  0  0  0  0  0  0  0  0  0  0  # atno 8008 bound_to 7997
  154.3997  140.1528  156.2982 H   0  0  0  0  0  0  0  0  0  0  0  0  # atno 8009 bound_to 7997
  155.8761  140.3423  155.5858 H   0  0  0  0  0  0  0  0  0  0  0  0  # atno 8010 bound_to 7997
  140.0861  143.4743  152.1897 H   0  0  0  0  0  0  0  0  0  0  0  0  # atno 10167 bound_to 10162
  156.2328  130.4174  149.8854 H   0  0  0  0  0  0  0  0  0  0  0  0  # atno 10718 bound_to 10713
  153.9381  135.2983  155.3443 H   0  0  0  0  0  0  0  0  0  0  0  0  # atno 10763 bound_to 10752
  154.7491  135.4988  153.9260 H   0  0  0  0  0  0  0  0  0  0  0  0  # atno 10764 bound_to 10752
  153.1056  135.6746  153.9698 H   0  0  0  0  0  0  0  0  0  0  0  0  # atno 10765 bound_to 10752
  139.9530  134.9618  156.8918 H   0  0  0  0  0  0  0  0  0  0  0  0  # atno 11005 bound_to 11000
  145.0866  140.9256  143.4794 LP  0  0  0  0  0  0  0  0  0  0  0  0  # atno 17320 bound_to 7965
  145.0815  139.2956  143.5781 LP  0  0  0  0  0  0  0  0  0  0  0  0  # atno 17321 bound_to 7965
  139.5751  144.7483  151.3785 LP  0  0  0  0  0  0  0  0  0  0  0  0  # atno 17342 bound_to 10162
  140.7053  143.7530  150.7471 LP  0  0  0  0  0  0  0  0  0  0  0  0  # atno 17343 bound_to 10162
  156.6462  130.8725  151.3523 LP  0  0  0  0  0  0  0  0  0  0  0  0  # atno 17370 bound_to 10713
  157.7141  130.9475  150.1191 LP  0  0  0  0  0  0  0  0  0  0  0  0  # atno 17371 bound_to 10713
  140.5674  134.0476  155.7419 LP  0  0  0  0  0  0  0  0  0  0  0  0  # atno 17394 bound_to 11000
  141.1197  133.9482  157.2754 LP  0  0  0  0  0  0  0  0  0  0  0  0  # atno 17395 bound_to 11000

$$$$
