#       Name:                AV-unprocessed.smi:99
#       Creating user name   scv26
#       Creation time:       Thu Mar 26 17:36:01 2020


#       File generated by GOLD software.
#

@<TRIPOS>MOLECULE
AV-unprocessed.smi:99
    65    68     1
SMALL
NO_CHARGES


@<TRIPOS>ATOM
      1 ****        -3.2072   0.0039   1.2461 O.2            1 S1                 0.0000
      2 ****        -2.4948   0.9675   1.5343 C.2            1 S1                 0.0000
      3 ****        -1.2649   0.8534   2.0732 O.3            1 S1                 0.0000
      4 ****        -0.6838  -0.4266   2.2687 C.3            1 S1                 0.0000
      5 ****         0.8420  -0.2816   2.3704 C.3            1 S1                 0.0000
      6 ****         1.4624  -1.5626   2.4600 O.3            1 S1                 0.0000
      7 ****         2.7521  -1.5183   1.9173 C.3            1 S1                 0.0000
      8 ****         2.8919  -2.6220   0.8865 N.am           1 S1                 0.0000
      9 ****         1.7799  -3.1326   0.2393 C.2            1 S1                 0.0000
     10 ****         1.8878  -4.1113  -0.6819 C.2            1 S1                 0.0000
     11 ****         3.2054  -4.6514  -1.0016 C.2            1 S1                 0.0000
     12 ****         3.2957  -5.5391  -1.8474 O.2            1 S1                 0.0000
     13 ****         4.2853  -4.1430  -0.3408 N.pl3          1 S1                -1.0000
     14 ****         4.1786  -3.1510   0.5911 C.2            1 S1                 0.0000
     15 ****         5.1477  -2.6817   1.1879 O.2            1 S1                 0.0000
     16 ****         2.9472  -0.1078   1.3246 C.3            1 S1                 0.0000
     17 ****         3.6914  -0.0083   0.1243 O.3            1 S1                 0.0000
     18 ****         1.5239   0.4062   1.1806 C.3            1 S1                 0.0000
     19 ****         0.9153  -0.0366  -0.0343 O.3            1 S1                 0.0000
     20 ****         0.4583   0.8537  -0.9469 C.2            1 S1                 0.0000
     21 ****         0.5451   2.0763  -0.8165 O.2            1 S1                 0.0000
     22 ****        -0.1691   0.2051  -2.1336 C.ar           1 S1                 0.0000
     23 ****        -0.5771   1.0062  -3.2256 C.ar           1 S1                 0.0000
     24 ****        -1.1702   0.4224  -4.3619 C.ar           1 S1                 0.0000
     25 ****        -1.3651  -0.9699  -4.4193 C.ar           1 S1                 0.0000
     26 ****        -0.9684  -1.7771  -3.3374 C.ar           1 S1                 0.0000
     27 ****        -0.3757  -1.1939  -2.2009 C.ar           1 S1                 0.0000
     28 ****        -2.9012   2.3855   1.3172 C.ar           1 S1                 0.0000
     29 ****        -4.1959   2.6677   0.8224 C.ar           1 S1                 0.0000
     30 ****        -4.6062   3.9973   0.6040 C.ar           1 S1                 0.0000
     31 ****        -3.7261   5.0608   0.8759 C.ar           1 S1                 0.0000
     32 ****        -2.4343   4.7930   1.3650 C.ar           1 S1                 0.0000
     33 ****        -2.0223   3.4641   1.5847 C.ar           1 S1                 0.0000
     34 ****        -1.0864  -0.8765   3.1765 H              1 S1                 0.0000
     35 ****        -0.9323  -1.0916   1.4399 H              1 S1                 0.0000
     36 ****         1.0944   0.2672   3.2791 H              1 S1                 0.0000
     37 ****         3.4685  -1.7545   2.7055 H              1 S1                 0.0000
     38 ****         0.7980  -2.7498   0.4701 H              1 S1                 0.0000
     39 ****         1.0075  -4.4953  -1.1760 H              1 S1                 0.0000
     40 ****         3.4528   0.4886   2.0851 H              1 S1                 0.0000
     41 ****         3.3109  -0.5958  -0.5110 H              1 S1                 0.0000
     42 ****         1.4862   1.4907   1.2893 H              1 S1                 0.0000
     43 ****        -0.4358   2.0773  -3.2057 H              1 S1                 0.0000
     44 ****        -1.4748   1.0441  -5.1907 H              1 S1                 0.0000
     45 ****        -1.8188  -1.4179  -5.2911 H              1 S1                 0.0000
     46 ****        -1.1184  -2.8460  -3.3776 H              1 S1                 0.0000
     47 ****        -0.0905  -1.8407  -1.3873 H              1 S1                 0.0000
     48 ****        -4.8891   1.8676   0.6058 H              1 S1                 0.0000
     49 ****        -5.5978   4.2008   0.2272 H              1 S1                 0.0000
     50 ****        -4.0411   6.0803   0.7083 H              1 S1                 0.0000
     51 ****        -1.7569   5.6084   1.5718 H              1 S1                 0.0000
     52 ****        -1.0225   3.2938   1.9563 H              1 S1                 0.0000
     53 ****        -2.8800  -0.9266   1.4104 LP             1 S1                 0.0000
     54 ****        -4.1124   0.1527   0.8480 LP             1 S1                 0.0000
     55 ****         0.9150  -2.2300   1.9551 LP             1 S1                 0.0000
     56 ****         1.5181  -1.8354   3.4204 LP             1 S1                 0.0000
     57 ****         2.4740  -5.8798  -2.3043 LP             1 S1                 0.0000
     58 ****         4.1908  -5.9203  -2.0785 LP             1 S1                 0.0000
     59 ****         5.1915  -4.5118  -0.5474 LP             1 S1                 0.0000
     60 ****         5.0165  -1.9506   1.8574 LP             1 S1                 0.0000
     61 ****         6.0661  -3.0316   1.0032 LP             1 S1                 0.0000
     62 ****         4.6429  -0.2646   0.2943 LP             1 S1                 0.0000
     63 ****         3.6552   0.9302  -0.2190 LP             1 S1                 0.0000
     64 ****         0.9730   2.4629   0.0004 LP             1 S1                 0.0000
     65 ****         0.1875   2.6816  -1.5277 LP             1 S1                 0.0000
@<TRIPOS>BOND
    1    1    2 2     
    2    2    3 1     
    3    2   28 1     
    4    3    4 1     
    5    4    5 1     
    6    4   34 1     
    7    4   35 1     
    8    5   18 1     
    9    5    6 1     
   10    5   36 1     
   11    6    7 1     
   12    7    8 1     
   13    7   16 1     
   14    7   37 1     
   15    8   14 am    
   16    8    9 1     
   17    9   10 2     
   18    9   38 1     
   19   10   11 1     
   20   10   39 1     
   21   11   12 2     
   22   11   13 1     
   23   13   14 1     
   24   14   15 2     
   25   16   17 1     
   26   16   18 1     
   27   16   40 1     
   28   17   41 1     
   29   18   19 1     
   30   18   42 1     
   31   19   20 1     
   32   20   21 2     
   33   20   22 1     
   34   22   27 ar    
   35   22   23 ar    
   36   23   24 ar    
   37   23   43 1     
   38   24   25 ar    
   39   24   44 1     
   40   25   26 ar    
   41   25   45 1     
   42   26   27 ar    
   43   26   46 1     
   44   27   47 1     
   45   28   33 ar    
   46   28   29 ar    
   47   29   30 ar    
   48   29   48 1     
   49   30   31 ar    
   50   30   49 1     
   51   31   32 ar    
   52   31   50 1     
   53   32   33 ar    
   54   32   51 1     
   55   33   52 1     
   56    1   53 1     
   57    1   54 1     
   58    6   55 1     
   59    6   56 1     
   60   12   57 1     
   61   12   58 1     
   62   13   59 1     
   63   15   60 1     
   64   15   61 1     
   65   17   62 1     
   66   17   63 1     
   67   21   64 1     
   68   21   65 1     
@<TRIPOS>SUBSTRUCTURE
      1 S1             1
@<TRIPOS>SET
LONE_PAIRS      STATIC     ATOMS    <user>   **** ""
13 53 54 55 56 57 58 59 60 61 62 63 64 65
DONOR_HYDROGENS      STATIC     ATOMS    <user>   **** ""
1 41
ATOM$BLUE        STATIC     ATOMS    COLORGROUP SYSTEM
13 53 54 55 56 57 58 59 60 61 62 63 64 65
ATOM$RED        STATIC     ATOMS    COLORGROUP SYSTEM
1 41
