AV-unprocessed.smi:1475|AV-procd|sdf|5977|dock1
  -GOLD-   22720 6 63D 1   1.00000     0.00000
 Structure written by MMmdl.
 50 51  0  0  0  0  0  0  0  0  2 V2000
  151.8853  144.1621  158.0993 C   0  0  0  0  0  0  0  0  0  0  0  0
  152.4480  143.4802  159.3112 C   0  0  0  0  0  0  0  0  0  0  0  0
  152.1154  143.6959  160.6776 C   0  0  0  0  0  0  0  0  0  0  0  0
  152.9108  142.8204  161.3617 C   0  0  0  0  0  0  0  0  0  0  0  0
  153.0233  142.5677  162.8296 C   0  0  0  0  0  0  0  0  0  0  0  0
  153.6625  142.1409  160.4188 N   0  0  0  0  0  0  0  0  0  0  0  0
  154.6537  141.0950  160.6140 C   0  0  0  0  0  0  0  0  0  0  0  0
  154.4105  139.9260  159.6588 C   0  0  0  0  0  0  0  0  0  0  0  0
  155.2854  139.5875  158.8621 O   0  0  0  0  0  0  0  0  0  0  0  0
  153.2199  139.3139  159.7519 N   0  0  0  0  0  0  0  0  0  0  0  0
  152.8103  138.1565  158.9659 C   0  0  0  0  0  0  0  0  0  0  0  0
  151.3038  138.1919  158.6386 C   0  0  0  0  0  0  0  0  0  0  0  0
  151.0368  138.2270  157.1789 N   0  3  1  0  0  0  0  0  0  0  0  0
  151.9462  139.1650  156.4697 C   0  0  0  0  0  0  0  0  0  0  0  0
  151.5709  139.3123  154.9822 C   0  0  2  0  0  0  0  0  0  0  0  0
  150.2818  140.1292  154.7862 C   0  0  0  0  0  0  0  0  0  0  0  0
  151.5182  137.9334  154.2987 C   0  0  0  0  0  0  0  0  0  0  0  0
  150.6182  136.9500  155.0684 C   0  0  1  0  0  0  0  0  0  0  0  0
  150.6247  135.5595  154.4172 C   0  0  0  0  0  0  0  0  0  0  0  0
  151.0451  136.8801  156.5475 C   0  0  0  0  0  0  0  0  0  0  0  0
  153.3745  142.5476  159.1627 N   0  0  0  0  0  0  0  0  0  0  0  0
  151.1634  144.9298  158.3790 H   0  0  0  0  0  0  0  0  0  0  0  0
  151.3768  143.4502  157.4487 H   0  0  0  0  0  0  0  0  0  0  0  0
  152.6722  144.6434  157.5181 H   0  0  0  0  0  0  0  0  0  0  0  0
  151.3990  144.3890  161.0932 H   0  0  0  0  0  0  0  0  0  0  0  0
  152.3132  143.1799  163.3857 H   0  0  0  0  0  0  0  0  0  0  0  0
  154.0240  142.8064  163.1898 H   0  0  0  0  0  0  0  0  0  0  0  0
  152.8169  141.5233  163.0635 H   0  0  0  0  0  0  0  0  0  0  0  0
  155.6521  141.5082  160.4607 H   0  0  0  0  0  0  0  0  0  0  0  0
  154.6119  140.7475  161.6469 H   0  0  0  0  0  0  0  0  0  0  0  0
  152.5660  139.6553  160.4424 H   0  0  0  0  0  0  0  0  0  0  0  0
  153.4203  138.1164  158.0632 H   0  0  0  0  0  0  0  0  0  0  0  0
  153.0450  137.2592  159.5393 H   0  0  0  0  0  0  0  0  0  0  0  0
  150.8479  137.2973  159.0655 H   0  0  0  0  0  0  0  0  0  0  0  0
  150.8140  139.0425  159.1150 H   0  0  0  0  0  0  0  0  0  0  0  0
  151.9215  140.1451  156.9480 H   0  0  0  0  0  0  0  0  0  0  0  0
  152.9710  138.8009  156.5595 H   0  0  0  0  0  0  0  0  0  0  0  0
  152.3673  139.8807  154.5001 H   0  0  0  0  0  0  0  0  0  0  0  0
  149.4238  139.6604  155.2678 H   0  0  0  0  0  0  0  0  0  0  0  0
  150.0473  140.2435  153.7274 H   0  0  0  0  0  0  0  0  0  0  0  0
  150.3873  141.1300  155.2063 H   0  0  0  0  0  0  0  0  0  0  0  0
  151.1759  138.0367  153.2684 H   0  0  0  0  0  0  0  0  0  0  0  0
  152.5289  137.5263  154.2429 H   0  0  0  0  0  0  0  0  0  0  0  0
  149.5923  137.3187  155.0294 H   0  0  0  0  0  0  0  0  0  0  0  0
  151.6237  135.1221  154.4239 H   0  0  0  0  0  0  0  0  0  0  0  0
  150.2907  135.6102  153.3804 H   0  0  0  0  0  0  0  0  0  0  0  0
  149.9586  134.8753  154.9439 H   0  0  0  0  0  0  0  0  0  0  0  0
  152.0418  136.4441  156.6353 H   0  0  0  0  0  0  0  0  0  0  0  0
  150.3656  136.2122  157.0752 H   0  0  0  0  0  0  0  0  0  0  0  0
  150.1049  138.6001  157.0676 H   0  0  0  0  0  0  0  0  0  0  0  0
  1  2  1  0  0  0  0
  1 22  1  0  0  0  0
  1 23  1  0  0  0  0
  1 24  1  0  0  0  0
  2 21  2  0  0  0  0
  2  3  1  0  0  0  0
  3  4  2  0  0  0  0
  3 25  1  0  0  0  0
  4  5  1  0  0  0  0
  4  6  1  0  0  0  0
  5 26  1  0  0  0  0
  5 27  1  0  0  0  0
  5 28  1  0  0  0  0
  6  7  1  0  0  0  0
  6 21  1  0  0  0  0
  7  8  1  0  0  0  0
  7 29  1  0  0  0  0
  7 30  1  0  0  0  0
  8  9  2  0  0  0  0
  8 10  1  0  0  0  0
 10 11  1  0  0  0  0
 10 31  1  0  0  0  0
 11 12  1  0  0  0  0
 11 32  1  0  0  0  0
 11 33  1  0  0  0  0
 12 13  1  0  0  0  0
 12 34  1  0  0  0  0
 12 35  1  0  0  0  0
 13 20  1  0  0  0  0
 13 14  1  0  0  0  0
 13 50  1  0  0  0  0
 14 15  1  0  0  0  0
 14 36  1  0  0  0  0
 14 37  1  0  0  0  0
 15 16  1  0  0  0  0
 15 17  1  0  0  0  0
 15 38  1  0  0  0  0
 16 39  1  0  0  0  0
 16 40  1  0  0  0  0
 16 41  1  0  0  0  0
 17 18  1  0  0  0  0
 17 42  1  0  0  0  0
 17 43  1  0  0  0  0
 18 19  1  0  0  0  0
 18 20  1  0  0  0  0
 18 44  1  0  0  0  0
 19 45  1  0  0  0  0
 19 46  1  0  0  0  0
 19 47  1  0  0  0  0
 20 48  1  0  0  0  0
 20 49  1  0  0  0  0
M  CHG  1  13   1
M  END
> <s_m_source_file>
AV-unprocessed.smi

> <i_m_source_file_index>
1475

> <i_lp_mmshare_version>
43012

> <i_f3d_flags>
0

> <s_epik_input>
W0NIM11jMVtjSF1jKFtDSDNdKW4objEpW0NIMl1DKD1PKVtOSF1bQ0gyXVtDSDJdTjJbQ0gyXVtDQEBIXShbQ0gzXSlbQ0gyXVtDQEBIXShbQ0gzXSlbQ0gyXTI=

> <s_epik_cmdline>
J2VwaWtfcHl0aG9uJywgJy1waCcsICc3LjAnLCAnLXRuJywgJzgnLCAnLW1hJywgJzIwMCcsICctbWV0YWxfYmluZGluZycsICctaW1hZScsICc8aW5maWxlLm1hZT4nLCAnLW9tYWUnLCAnPG91dGZpbGUubWFlPic=

> <r_lp_tautomer_probability>
1

> <r_epik_Ionization_Penalty>
0.00206431

> <r_epik_Ionization_Penalty_Charging>
0.00187095

> <r_epik_Ionization_Penalty_Neutral>
0.000193364

> <r_epik_State_Penalty>
-0

> <r_epik_Charging_Adjusted_Penalty>
0.00187095

> <i_epik_Tot_Q>
1

> <i_epik_Tot_abs_Q>
1

> <r_epik_Metal_State_Penalty>
-0

> <b_epik_Metal_Only>
0

> <s_lp_Force_Field>
OPLS_2005

> <r_lp_Energy>
16.4698

> <b_lp_Chiralities_Consistent>
1

> <s_lp_Variant>
AV-unprocessed.smi:1475-2

> <Gold.Version>
5.8.1

> <Gold.Id.Protein>
6NUR|6NUR_protein|mol2

> <Gold.PLP.Fitness>
48.5194

> <Gold.PLP.PLP>
-47.1567

> <Gold.PLP.part.hbond>
-1.0000

> <Gold.PLP.part.metal>
0.0000

> <Gold.PLP.part.buried>
-2.9177

> <Gold.PLP.part.nonpolar>
-42.2105

> <Gold.PLP.part.repulsive>
0.0880

> <Gold.PLP.ligand.clash>
0.0000

> <Gold.PLP.ligand.torsion>
0.8989

> <Gold.PLP.Chemscore.Hbond>
1.0000

> <Gold.PLP.Chemscore.CHOScore>
0.0000

> <Gold.PLP.Chemscore.Metal>
0.0000

> <Gold.Chemscore.Hbonds>
donor molecule, donor type, donor heavy atom, donor atom, acceptor molecule, acceptor atom, score
      P1  H  7997  8009       L1     9  1.00

> <Gold.PLP.Chemscore.Internal.Correction>
0.1604

> <Gold.Rescore>
     Score         DG    S(hbond)    S(metal)    S(lipo)     H(rot)  DE(clash)    DE(int)     intcor
     18.16     -19.14       1.00        0.00     124.18       1.64       0.13       0.85       ----

> <Gold.Chemscore.Fitness>
18.1640

> <Gold.Chemscore.DG>
-19.1402

> <Gold.Chemscore.ZeroCoef>
-5.4800

> <Gold.Chemscore.Hbond>
0.9969

> <Gold.Chemscore.Metal>
0.0000

> <Gold.Chemscore.Lipo>
124.1774

> <Gold.Chemscore.Internal_Hbond>
0.0000

> <Gold.Chemscore.DEClash>
0.1259

> <Gold.Chemscore.DEInternal>
0.8503

> <Gold.Chemscore.Rot>
1.6399

> <Gold.Chemscore.Internal.Correction>
   9.000000E+99

> <Gold.Chemscore.Hbonds>
donor molecule, donor type, donor heavy atom, donor atom, acceptor molecule, acceptor atom, score
      P1  H  7997  8009       L1     9  0.97

> <Gold.Chemscore.Hbond.Weighted>
-3.3297

> <Gold.Chemscore.Metal.Weighted>
-0.0000

> <Gold.Chemscore.Lipo.Weighted>
-14.5288

> <Gold.Chemscore.Internal_Hbond.Weighted>
0.0000

> <Gold.Chemscore.DEClash.Weighted>
0.1259

> <Gold.Chemscore.DEInternal.Weighted>
0.8503

> <Gold.Chemscore.Rot.Weighted>
4.1982

> <Gold.Chemscore.Internal.Correction.Weighted>
   9.000000E+99

> <Gold.Protein.RotatedTorsions>
[ 6907 6896 6895 6894 ] final  -46.38 input  -60.11 | X-H torsion
[ 7974 7965 7964 7962 ] final -122.61 input  175.53 | X-H torsion
[ 8008 7997 7996 7995 ] final   99.63 input   59.86 | X-H torsion
[ 10167 10162 10161 10158 ] final  106.61 input  -65.29 | X-H torsion
[ 10718 10713 10712 10709 ] final -154.92 input   66.30 | X-H torsion
[ 10763 10752 10751 10750 ] final  -58.40 input  -60.55 | X-H torsion
[ 11005 11000 10999 10996 ] final -141.24 input  -57.11 | X-H torsion

> <Gold.Protein.ActiveResidues>
 VAL166  LYS551  ARG553  GLY616  TRP617  ASP618  TYR619  PRO620  LYS621  CYS622 
 ASP623  PHE694  ASN695  SER759  ASP760  ASP761  ALA762  ILE779  LEU786  VAL792 
 PHE793  MET794  SER795  GLU796  ALA797  LYS798  CYS799  TRP800  GLU811  SER814 

> <Gold.Protein.RotatedAtoms>
  150.9119  134.8536  159.7430 H   0  0  0  0  0  0  0  0  0  0  0  0  # atno 6907 bound_to 6896
  152.4948  134.4347  159.9533 H   0  0  0  0  0  0  0  0  0  0  0  0  # atno 6908 bound_to 6896
  151.4388  133.3610  159.2814 H   0  0  0  0  0  0  0  0  0  0  0  0  # atno 6909 bound_to 6896
  145.0276  140.8041  143.4343 H   0  0  0  0  0  0  0  0  0  0  0  0  # atno 7974 bound_to 7965
  156.1124  140.3225  155.8092 H   0  0  0  0  0  0  0  0  0  0  0  0  # atno 8008 bound_to 7997
  155.4649  140.0542  157.3004 H   0  0  0  0  0  0  0  0  0  0  0  0  # atno 8009 bound_to 7997
  154.4769  140.2036  155.9870 H   0  0  0  0  0  0  0  0  0  0  0  0  # atno 8010 bound_to 7997
  139.6995  144.7096  151.1209 H   0  0  0  0  0  0  0  0  0  0  0  0  # atno 10167 bound_to 10162
  156.5059  130.8412  151.2627 H   0  0  0  0  0  0  0  0  0  0  0  0  # atno 10718 bound_to 10713
  154.2376  135.6349  153.5196 H   0  0  0  0  0  0  0  0  0  0  0  0  # atno 10763 bound_to 10752
  152.9936  135.5534  154.5945 H   0  0  0  0  0  0  0  0  0  0  0  0  # atno 10764 bound_to 10752
  154.5443  135.2897  155.1041 H   0  0  0  0  0  0  0  0  0  0  0  0  # atno 10765 bound_to 10752
  140.8344  134.2478  157.4841 H   0  0  0  0  0  0  0  0  0  0  0  0  # atno 11005 bound_to 11000
  145.1813  139.2350  143.5291 LP  0  0  0  0  0  0  0  0  0  0  0  0  # atno 17320 bound_to 7965
  146.3494  140.1587  142.8591 LP  0  0  0  0  0  0  0  0  0  0  0  0  # atno 17321 bound_to 7965
  140.7706  143.5444  150.9276 LP  0  0  0  0  0  0  0  0  0  0  0  0  # atno 17342 bound_to 10162
  139.9125  143.6703  152.3112 LP  0  0  0  0  0  0  0  0  0  0  0  0  # atno 17343 bound_to 10162
  157.7457  130.9966  150.2785 LP  0  0  0  0  0  0  0  0  0  0  0  0  # atno 17370 bound_to 10713
  156.3287  130.3797  149.7510 LP  0  0  0  0  0  0  0  0  0  0  0  0  # atno 17371 bound_to 10713
  139.8704  134.9603  156.4358 LP  0  0  0  0  0  0  0  0  0  0  0  0  # atno 17394 bound_to 11000
  140.8964  133.7811  155.9630 LP  0  0  0  0  0  0  0  0  0  0  0  0  # atno 17395 bound_to 11000

$$$$
