#       Name:                AV-unprocessed.smi:276
#       Creating user name   scv26
#       Creation time:       Thu Mar 26 21:34:02 2020


#       File generated by GOLD software.
#

@<TRIPOS>MOLECULE
AV-unprocessed.smi:276
    67    71     1
SMALL
NO_CHARGES


@<TRIPOS>ATOM
      1 ****        -5.9699  -0.6975  -1.5378 C.3            1 S1                 0.0000
      2 ****        -4.5850  -0.4992  -1.7611 O.3            1 S1                 0.0000
      3 ****        -3.8723  -0.2280  -0.5650 C.3            1 S1                 0.0000
      4 ****        -4.0194   1.2098  -0.0545 C.3            1 S1                 0.0000
      5 ****        -2.5364   1.1400   0.3325 C.3            1 S1                 0.0000
      6 ****        -1.8360   2.4123   0.1392 N.3            1 S1                 0.0000
      7 ****        -2.2714   3.5169   0.9842 C.3            1 S1                 0.0000
      8 ****        -0.4855   2.3514   0.1063 C.ar           1 S1                 0.0000
      9 ****         0.1371   3.0582  -0.8700 N.ar           1 S1                 0.0000
     10 ****         1.4681   3.0196  -0.9804 C.ar           1 S1                 0.0000
     11 ****         2.3491   2.3550  -0.2298 N.ar           1 S1                 0.0000
     12 ****         1.7272   1.6654   0.7688 C.ar           1 S1                 0.0000
     13 ****         0.3266   1.6165   1.0171 C.ar           1 S1                 0.0000
     14 ****         0.0733   0.8286   2.1343 N.2            1 S1                 0.0000
     15 ****         1.2528   0.4146   2.5080 C.2            1 S1                 0.0000
     16 ****         2.3007   0.8620   1.7365 N.pl3          1 S1                 0.0000
     17 ****         3.7061   0.5467   1.9089 C.3            1 S1                 0.0000
     18 ****         4.2321  -0.4532   0.8574 C.3            1 S1                 0.0000
     19 ****         5.5916  -0.6970   1.1577 O.3            1 S1                 0.0000
     20 ****         3.4680  -1.7958   0.8174 C.3            1 S1                 0.0000
     21 ****         4.0863  -2.8532  -0.0974 C.3            1 S1                 0.0000
     22 ****         2.9300  -3.8042  -0.3407 C.3            1 S1                 0.0000
     23 ****         1.6942  -2.9210  -0.1551 C.3            1 S1                 0.0000
     24 ****         2.1852  -1.6406   0.2253 O.3            1 S1                 0.0000
     25 ****        -2.3770   0.0730  -0.7849 C.3            1 S1                 0.0000
     26 ****        -1.3387  -1.0523  -0.6871 C.3            1 S1                 0.0000
     27 ****        -0.5871  -0.4332  -1.8697 C.3            1 S1                 0.0000
     28 ****        -1.8354   0.3948  -2.1932 C.3            1 S1                 0.0000
     29 ****        -6.4670  -0.9027  -2.4856 H              1 S1                 0.0000
     30 ****        -6.4332   0.1879  -1.1007 H              1 S1                 0.0000
     31 ****        -6.1436  -1.5467  -0.8757 H              1 S1                 0.0000
     32 ****        -4.0269  -0.9759   0.2162 H              1 S1                 0.0000
     33 ****        -4.2286   1.9237  -0.8538 H              1 S1                 0.0000
     34 ****        -4.7058   1.3276   0.7842 H              1 S1                 0.0000
     35 ****        -2.4207   0.7121   1.3292 H              1 S1                 0.0000
     36 ****        -2.0740   3.2997   2.0348 H              1 S1                 0.0000
     37 ****        -3.3412   3.6915   0.8691 H              1 S1                 0.0000
     38 ****        -1.7574   4.4427   0.7216 H              1 S1                 0.0000
     39 ****         1.8865   3.5997  -1.7896 H              1 S1                 0.0000
     40 ****         1.3902  -0.2417   3.3550 H              1 S1                 0.0000
     41 ****         4.2711   1.4787   1.8613 H              1 S1                 0.0000
     42 ****         3.8473   0.1474   2.9144 H              1 S1                 0.0000
     43 ****         4.1956   0.0055  -0.1314 H              1 S1                 0.0000
     44 ****         6.0614   0.1212   1.1023 H              1 S1                 0.0000
     45 ****         3.3526  -2.2013   1.8245 H              1 S1                 0.0000
     46 ****         4.3977  -2.4004  -1.0400 H              1 S1                 0.0000
     47 ****         4.9523  -3.3466   0.3450 H              1 S1                 0.0000
     48 ****         2.9753  -4.2605  -1.3300 H              1 S1                 0.0000
     49 ****         2.9326  -4.6043   0.4010 H              1 S1                 0.0000
     50 ****         1.1076  -2.8402  -1.0703 H              1 S1                 0.0000
     51 ****         1.0473  -3.3162   0.6290 H              1 S1                 0.0000
     52 ****        -0.7732  -1.0752   0.2439 H              1 S1                 0.0000
     53 ****        -1.7568  -2.0313  -0.9247 H              1 S1                 0.0000
     54 ****         0.2647   0.1727  -1.5610 H              1 S1                 0.0000
     55 ****        -0.3069  -1.1459  -2.6456 H              1 S1                 0.0000
     56 ****        -2.4208  -0.0559  -2.9950 H              1 S1                 0.0000
     57 ****        -1.6427   1.4474  -2.3969 H              1 S1                 0.0000
     58 ****        -4.4687   0.2734  -2.3852 LP             1 S1                 0.0000
     59 ****        -4.2066  -1.3252  -2.1790 LP             1 S1                 0.0000
     60 ****        -2.1362   2.6226  -0.7911 LP             1 S1                 0.0000
     61 ****        -0.4009   3.6089  -1.5080 LP             1 S1                 0.0000
     62 ****         3.3377   2.3618  -0.3803 LP             1 S1                 0.0000
     63 ****        -0.8108   0.6256   2.5552 LP             1 S1                 0.0000
     64 ****         5.9707  -1.3491   0.5011 LP             1 S1                 0.0000
     65 ****         5.6715  -1.0702   2.0820 LP             1 S1                 0.0000
     66 ****         2.2570  -1.0553  -0.5823 LP             1 S1                 0.0000
     67 ****         1.5596  -1.2237   0.8846 LP             1 S1                 0.0000
@<TRIPOS>BOND
    1    1    2 1     
    2    1   29 1     
    3    1   30 1     
    4    1   31 1     
    5    2    3 1     
    6    3   25 1     
    7    3    4 1     
    8    3   32 1     
    9    4    5 1     
   10    4   33 1     
   11    4   34 1     
   12    5    6 1     
   13    5   25 1     
   14    5   35 1     
   15    6    7 1     
   16    6    8 1     
   17    7   36 1     
   18    7   37 1     
   19    7   38 1     
   20    8   13 ar    
   21    8    9 ar    
   22    9   10 ar    
   23   10   11 ar    
   24   10   39 1     
   25   11   12 ar    
   26   12   16 1     
   27   12   13 ar    
   28   13   14 1     
   29   14   15 2     
   30   15   16 1     
   31   15   40 1     
   32   16   17 1     
   33   17   18 1     
   34   17   41 1     
   35   17   42 1     
   36   18   19 1     
   37   18   20 1     
   38   18   43 1     
   39   19   44 1     
   40   20   24 1     
   41   20   21 1     
   42   20   45 1     
   43   21   22 1     
   44   21   46 1     
   45   21   47 1     
   46   22   23 1     
   47   22   48 1     
   48   22   49 1     
   49   23   24 1     
   50   23   50 1     
   51   23   51 1     
   52   25   28 1     
   53   25   26 1     
   54   26   27 1     
   55   26   52 1     
   56   26   53 1     
   57   27   28 1     
   58   27   54 1     
   59   27   55 1     
   60   28   56 1     
   61   28   57 1     
   62    2   58 1     
   63    2   59 1     
   64    6   60 1     
   65    9   61 1     
   66   11   62 1     
   67   14   63 1     
   68   19   64 1     
   69   19   65 1     
   70   24   66 1     
   71   24   67 1     
@<TRIPOS>SUBSTRUCTURE
      1 S1             1
@<TRIPOS>SET
LONE_PAIRS      STATIC     ATOMS    <user>   **** ""
10 58 59 60 61 62 63 64 65 66 67
DONOR_HYDROGENS      STATIC     ATOMS    <user>   **** ""
1 44
ATOM$BLUE        STATIC     ATOMS    COLORGROUP SYSTEM
10 58 59 60 61 62 63 64 65 66 67
ATOM$RED        STATIC     ATOMS    COLORGROUP SYSTEM
1 44
