AV-unprocessed.smi:836|AV-procd|sdf|3891|dock10
  -GOLD-   22720 1353D 1   1.00000     0.00000
 Structure written by MMmdl.
 38 39  0  0  0  0  0  0  0  0  1 V2000
  147.9852  141.9327  154.2781 C   0  0  0  0  0  0  0  0  0  0  0  0
  148.3521  140.4528  154.0989 C   0  0  2  0  0  0  0  0  0  0  0  0
  147.3086  139.5299  154.7569 C   0  0  0  0  0  0  0  0  0  0  0  0
  147.6732  138.0448  154.5818 C   0  0  0  0  0  0  0  0  0  0  0  0
  149.0893  137.7262  155.1041 C   0  0  2  0  0  0  0  0  0  0  0  0
  149.1486  137.8195  156.5605 N   0  0  0  0  0  0  0  0  0  0  0  0
  150.1914  137.4700  157.3302 C   0  0  0  0  0  0  0  0  0  0  0  0
  151.2375  136.9998  156.8839 O   0  0  0  0  0  0  0  0  0  0  0  0
  150.0261  137.6723  158.8386 C   0  0  0  0  0  0  0  0  0  0  0  0
  149.0199  136.7804  159.3905 N   0  0  0  0  0  0  0  0  0  0  0  0
  148.3129  135.7853  158.7506 C   0  0  0  0  0  0  0  0  0  0  0  0
  147.4971  135.2063  159.6797 C   0  0  0  0  0  0  0  0  0  0  0  0
  147.7756  135.9217  160.8806 C   0  0  0  0  0  0  0  0  0  0  0  0
  147.1752  135.7244  162.2476 C   0  0  0  0  0  0  0  0  0  0  0  0
  145.8569  135.9169  162.2063 F   0  0  0  0  0  0  0  0  0  0  0  0
  147.4146  134.4846  162.6748 F   0  0  0  0  0  0  0  0  0  0  0  0
  147.7091  136.5917  163.1075 F   0  0  0  0  0  0  0  0  0  0  0  0
  148.6881  136.8664  160.6969 N   0  0  0  0  0  0  0  0  0  0  0  0
  150.1319  138.6677  154.4717 C   0  0  0  0  0  0  0  0  0  0  0  0
  149.7601  140.1511  154.6471 C   0  0  0  0  0  0  0  0  0  0  0  0
  147.9626  142.2108  155.3323 H   0  0  0  0  0  0  0  0  0  0  0  0
  147.0036  142.1481  153.8552 H   0  0  0  0  0  0  0  0  0  0  0  0
  148.7071  142.5794  153.7784 H   0  0  0  0  0  0  0  0  0  0  0  0
  148.3571  140.2437  153.0282 H   0  0  0  0  0  0  0  0  0  0  0  0
  147.2247  139.7643  155.8193 H   0  0  0  0  0  0  0  0  0  0  0  0
  146.3243  139.7143  154.3253 H   0  0  0  0  0  0  0  0  0  0  0  0
  146.9332  137.4171  155.0798 H   0  0  0  0  0  0  0  0  0  0  0  0
  147.6197  137.7898  153.5226 H   0  0  0  0  0  0  0  0  0  0  0  0
  149.3453  136.7051  154.8158 H   0  0  0  0  0  0  0  0  0  0  0  0
  148.3313  138.1920  157.0227 H   0  0  0  0  0  0  0  0  0  0  0  0
  150.9813  137.5025  159.3377 H   0  0  0  0  0  0  0  0  0  0  0  0
  149.7314  138.7013  159.0485 H   0  0  0  0  0  0  0  0  0  0  0  0
  148.4517  135.5721  157.7008 H   0  0  0  0  0  0  0  0  0  0  0  0
  146.8059  134.3909  159.5257 H   0  0  0  0  0  0  0  0  0  0  0  0
  151.1185  138.4776  154.8963 H   0  0  0  0  0  0  0  0  0  0  0  0
  150.2137  138.4455  153.4069 H   0  0  0  0  0  0  0  0  0  0  0  0
  150.4981  140.7726  154.1388 H   0  0  0  0  0  0  0  0  0  0  0  0
  149.8109  140.4199  155.7031 H   0  0  0  0  0  0  0  0  0  0  0  0
  1  2  1  0  0  0  0
  1 21  1  0  0  0  0
  1 22  1  0  0  0  0
  1 23  1  0  0  0  0
  2 20  1  0  0  0  0
  2  3  1  0  0  0  0
  2 24  1  0  0  0  0
  3  4  1  0  0  0  0
  3 25  1  0  0  0  0
  3 26  1  0  0  0  0
  4  5  1  0  0  0  0
  4 27  1  0  0  0  0
  4 28  1  0  0  0  0
  5  6  1  0  0  0  0
  5 19  1  0  0  0  0
  5 29  1  0  0  0  0
  6  7  1  0  0  0  0
  6 30  1  0  0  0  0
  7  8  2  0  0  0  0
  7  9  1  0  0  0  0
  9 10  1  0  0  0  0
  9 31  1  0  0  0  0
  9 32  1  0  0  0  0
 10 18  1  0  0  0  0
 10 11  1  0  0  0  0
 11 12  2  0  0  0  0
 11 33  1  0  0  0  0
 12 13  1  0  0  0  0
 12 34  1  0  0  0  0
 13 14  1  0  0  0  0
 13 18  2  0  0  0  0
 14 15  1  0  0  0  0
 14 16  1  0  0  0  0
 14 17  1  0  0  0  0
 19 20  1  0  0  0  0
 19 35  1  0  0  0  0
 19 36  1  0  0  0  0
 20 37  1  0  0  0  0
 20 38  1  0  0  0  0
M  END
> <s_m_source_file>
AV-unprocessed.smi

> <i_m_source_file_index>
836

> <i_lp_mmshare_version>
43012

> <i_f3d_flags>
0

> <s_epik_input>
W0NIM11bQ0BASF0xW0NIMl1bQ0gyXVtDQEhdKFtDSDJdW0NIMl0xKVtOSF1DKD1PKVtDSDJdbjJbY0hdW2NIXWMobjIpQyhGKShGKUY=

> <s_epik_cmdline>
J2VwaWtfcHl0aG9uJywgJy1waCcsICc3LjAnLCAnLXRuJywgJzgnLCAnLW1hJywgJzIwMCcsICctbWV0YWxfYmluZGluZycsICctaW1hZScsICc8aW5maWxlLm1hZT4nLCAnLW9tYWUnLCAnPG91dGZpbGUubWFlPic=

> <r_lp_tautomer_probability>
1

> <r_epik_Ionization_Penalty>
8.28749e-08

> <r_epik_Ionization_Penalty_Charging>
0

> <r_epik_Ionization_Penalty_Neutral>
8.28749e-08

> <r_epik_State_Penalty>
-0

> <r_epik_Charging_Adjusted_Penalty>
0

> <i_epik_Tot_Q>
0

> <i_epik_Tot_abs_Q>
0

> <r_epik_Metal_State_Penalty>
-0

> <b_epik_Metal_Only>
0

> <s_lp_Force_Field>
OPLS_2005

> <r_lp_Energy>
10.0253

> <b_lp_Chiralities_Consistent>
1

> <s_lp_Variant>
AV-unprocessed.smi:836-2

> <Gold.Version>
5.8.1

> <Gold.Id.Protein>
6NUR|6NUR_protein|mol2

> <Gold.PLP.Fitness>
39.4614

> <Gold.PLP.PLP>
-36.9123

> <Gold.PLP.part.hbond>
-1.0230

> <Gold.PLP.part.metal>
0.0000

> <Gold.PLP.part.buried>
-3.6749

> <Gold.PLP.part.nonpolar>
-31.7577

> <Gold.PLP.part.repulsive>
0.0000

> <Gold.PLP.ligand.clash>
0.0000

> <Gold.PLP.ligand.torsion>
0.1017

> <Gold.PLP.Chemscore.Hbond>
0.9120

> <Gold.PLP.Chemscore.CHOScore>
0.0000

> <Gold.PLP.Chemscore.Metal>
0.0000

> <Gold.Chemscore.Hbonds>
donor molecule, donor type, donor heavy atom, donor atom, acceptor molecule, acceptor atom, score
      P1  H  6931  6943       L1    18  0.90

> <Gold.PLP.Chemscore.Internal.Correction>
0.0165

> <Gold.Rescore>
     Score         DG    S(hbond)    S(metal)    S(lipo)     H(rot)  DE(clash)    DE(int)     intcor
     12.16     -12.32       0.94        0.00      65.35       1.54       0.02       0.14       ----

> <Gold.Chemscore.Fitness>
12.1575

> <Gold.Chemscore.DG>
-12.3172

> <Gold.Chemscore.ZeroCoef>
-5.4800

> <Gold.Chemscore.Hbond>
0.9400

> <Gold.Chemscore.Metal>
0.0000

> <Gold.Chemscore.Lipo>
65.3460

> <Gold.Chemscore.Internal_Hbond>
0.0000

> <Gold.Chemscore.DEClash>
0.0153

> <Gold.Chemscore.DEInternal>
0.1443

> <Gold.Chemscore.Rot>
1.5422

> <Gold.Chemscore.Internal.Correction>
   9.000000E+99

> <Gold.Chemscore.Hbonds>
donor molecule, donor type, donor heavy atom, donor atom, acceptor molecule, acceptor atom, score
      P1  H  6931  6943       L1    18  0.88

> <Gold.Chemscore.Hbond.Weighted>
-3.1396

> <Gold.Chemscore.Metal.Weighted>
-0.0000

> <Gold.Chemscore.Lipo.Weighted>
-7.6455

> <Gold.Chemscore.Internal_Hbond.Weighted>
0.0000

> <Gold.Chemscore.DEClash.Weighted>
0.0153

> <Gold.Chemscore.DEInternal.Weighted>
0.1443

> <Gold.Chemscore.Rot.Weighted>
3.9479

> <Gold.Chemscore.Internal.Correction.Weighted>
   9.000000E+99

> <Gold.Protein.RotatedTorsions>
[ 6907 6896 6895 6894 ] final  179.51 input  -60.11 | X-H torsion
[ 7974 7965 7964 7962 ] final    6.76 input  175.53 | X-H torsion
[ 8008 7997 7996 7995 ] final  127.96 input   59.86 | X-H torsion
[ 10167 10162 10161 10158 ] final  144.12 input  -65.29 | X-H torsion
[ 10718 10713 10712 10709 ] final -179.65 input   66.30 | X-H torsion
[ 10763 10752 10751 10750 ] final -129.21 input  -60.55 | X-H torsion
[ 11005 11000 10999 10996 ] final  -44.22 input  -57.11 | X-H torsion

> <Gold.Protein.ActiveResidues>
 VAL166  LYS551  ARG553  GLY616  TRP617  ASP618  TYR619  PRO620  LYS621  CYS622 
 ASP623  PHE694  ASN695  SER759  ASP760  ASP761  ALA762  ILE779  LEU786  VAL792 
 PHE793  MET794  SER795  GLU796  ALA797  LYS798  CYS799  TRP800  GLU811  SER814 

> <Gold.Protein.RotatedAtoms>
  151.6704  133.3314  159.3194 H   0  0  0  0  0  0  0  0  0  0  0  0  # atno 6907 bound_to 6896
  150.7870  134.6867  159.6483 H   0  0  0  0  0  0  0  0  0  0  0  0  # atno 6908 bound_to 6896
  152.3942  134.6396  160.0148 H   0  0  0  0  0  0  0  0  0  0  0  0  # atno 6909 bound_to 6896
  146.2432  140.0185  142.8400 H   0  0  0  0  0  0  0  0  0  0  0  0  # atno 7974 bound_to 7965
  156.2904  140.2656  156.2359 H   0  0  0  0  0  0  0  0  0  0  0  0  # atno 8008 bound_to 7997
  155.0026  140.0387  157.2384 H   0  0  0  0  0  0  0  0  0  0  0  0  # atno 8009 bound_to 7997
  154.7588  140.2757  155.6236 H   0  0  0  0  0  0  0  0  0  0  0  0  # atno 8010 bound_to 7997
  139.4954  144.5994  151.6513 H   0  0  0  0  0  0  0  0  0  0  0  0  # atno 10167 bound_to 10162
  156.8622  130.9755  151.3082 H   0  0  0  0  0  0  0  0  0  0  0  0  # atno 10718 bound_to 10713
  154.8757  135.3903  154.3883 H   0  0  0  0  0  0  0  0  0  0  0  0  # atno 10763 bound_to 10752
  153.4622  135.7029  153.6049 H   0  0  0  0  0  0  0  0  0  0  0  0  # atno 10764 bound_to 10752
  153.4542  135.3827  155.2270 H   0  0  0  0  0  0  0  0  0  0  0  0  # atno 10765 bound_to 10752
  141.0436  133.6770  156.2841 H   0  0  0  0  0  0  0  0  0  0  0  0  # atno 11005 bound_to 11000
  145.1263  140.9492  143.4571 LP  0  0  0  0  0  0  0  0  0  0  0  0  # atno 17320 bound_to 7965
  145.0432  139.3243  143.5966 LP  0  0  0  0  0  0  0  0  0  0  0  0  # atno 17321 bound_to 7965
  140.5640  144.0221  150.6183 LP  0  0  0  0  0  0  0  0  0  0  0  0  # atno 17342 bound_to 10162
  140.3316  143.3074  152.0681 LP  0  0  0  0  0  0  0  0  0  0  0  0  # atno 17343 bound_to 10162
  157.6244  130.8680  149.9163 LP  0  0  0  0  0  0  0  0  0  0  0  0  # atno 17370 bound_to 10713
  156.0771  130.3677  150.0656 LP  0  0  0  0  0  0  0  0  0  0  0  0  # atno 17371 bound_to 10713
  140.6189  134.5382  157.5544 LP  0  0  0  0  0  0  0  0  0  0  0  0  # atno 17394 bound_to 11000
  139.9294  134.7992  156.0974 LP  0  0  0  0  0  0  0  0  0  0  0  0  # atno 17395 bound_to 11000

$$$$
