AV-unprocessed.smi:1285|AV-procd|sdf|5372|dock5
  -GOLD-   22720 4513D 1   1.00000     0.00000
 Structure written by MMmdl.
 47 48  0  0  0  0  0  0  0  0  2 V2000
  145.2027  134.4076  155.8763 C   0  0  0  0  0  0  0  0  0  0  0  0
  146.3596  133.5798  155.2886 C   0  0  0  0  0  0  0  0  0  0  0  0
  147.3894  134.3759  154.4283 C   0  0  2  0  0  0  0  0  0  0  0  0
  148.6263  133.4591  154.2311 C   0  0  0  0  0  0  0  0  0  0  0  0
  147.8116  135.6662  155.1998 C   0  0  0  0  0  0  0  0  0  0  0  0
  148.9073  136.3866  154.5556 N   0  0  0  0  0  0  0  0  0  0  0  0
  149.7289  137.2669  155.1491 C   0  0  0  0  0  0  0  0  0  0  0  0
  149.7022  137.5073  156.3565 O   0  0  0  0  0  0  0  0  0  0  0  0
  150.6967  138.0099  154.2162 C   0  0  2  0  0  0  0  0  0  0  0  0
  152.1779  137.7343  154.5382 C   0  0  0  0  0  0  0  0  0  0  0  0
  150.4010  139.4364  154.2474 N   0  0  0  0  0  0  0  0  0  0  0  0
  149.6447  140.1918  153.4459 C   0  0  0  0  0  0  0  0  0  0  0  0
  149.6612  141.4818  153.7503 N   0  0  0  0  0  0  0  0  0  0  0  0
  150.5082  141.4526  154.8217 C   0  0  0  0  0  0  0  0  0  0  0  0
  150.9886  140.2545  155.1540 N   0  0  0  0  0  0  0  0  0  0  0  0
  146.7900  134.7283  153.0894 N   0  3  0  0  0  0  0  0  0  0  0  0
  146.3635  133.5773  152.2439 C   0  0  0  0  0  0  0  0  0  0  0  0
  145.9705  134.0592  150.8382 C   0  0  0  0  0  0  0  0  0  0  0  0
  144.9241  135.0144  150.9392 O   0  0  0  0  0  0  0  0  0  0  0  0
  145.3296  136.1621  151.6717 C   0  0  0  0  0  0  0  0  0  0  0  0
  145.7124  135.7582  153.1056 C   0  0  0  0  0  0  0  0  0  0  0  0
  144.5397  133.7708  156.4622 H   0  0  0  0  0  0  0  0  0  0  0  0
  144.5976  134.8695  155.0965 H   0  0  0  0  0  0  0  0  0  0  0  0
  145.5607  135.1965  156.5376 H   0  0  0  0  0  0  0  0  0  0  0  0
  146.8640  133.0539  156.0986 H   0  0  0  0  0  0  0  0  0  0  0  0
  145.9173  132.7848  154.6869 H   0  0  0  0  0  0  0  0  0  0  0  0
  148.9341  132.9878  155.1649 H   0  0  0  0  0  0  0  0  0  0  0  0
  149.4923  134.0127  153.8677 H   0  0  0  0  0  0  0  0  0  0  0  0
  148.4271  132.6564  153.5207 H   0  0  0  0  0  0  0  0  0  0  0  0
  146.9620  136.3343  155.3433 H   0  0  0  0  0  0  0  0  0  0  0  0
  148.1651  135.4161  156.1995 H   0  0  0  0  0  0  0  0  0  0  0  0
  149.0099  136.2541  153.5595 H   0  0  0  0  0  0  0  0  0  0  0  0
  150.5114  137.6499  153.2024 H   0  0  0  0  0  0  0  0  0  0  0  0
  152.4029  136.6689  154.4737 H   0  0  0  0  0  0  0  0  0  0  0  0
  152.4479  138.0706  155.5401 H   0  0  0  0  0  0  0  0  0  0  0  0
  152.8308  138.2475  153.8318 H   0  0  0  0  0  0  0  0  0  0  0  0
  149.0814  139.7920  152.6154 H   0  0  0  0  0  0  0  0  0  0  0  0
  150.7858  142.3423  155.3677 H   0  0  0  0  0  0  0  0  0  0  0  0
  147.1579  132.8417  152.1372 H   0  0  0  0  0  0  0  0  0  0  0  0
  145.5115  133.0693  152.6962 H   0  0  0  0  0  0  0  0  0  0  0  0
  146.8283  134.4893  150.3185 H   0  0  0  0  0  0  0  0  0  0  0  0
  145.6225  133.2191  150.2370 H   0  0  0  0  0  0  0  0  0  0  0  0
  146.1644  136.6538  151.1694 H   0  0  0  0  0  0  0  0  0  0  0  0
  144.5063  136.8763  151.6909 H   0  0  0  0  0  0  0  0  0  0  0  0
  144.8319  135.3761  153.6225 H   0  0  0  0  0  0  0  0  0  0  0  0
  146.0242  136.6612  153.6267 H   0  0  0  0  0  0  0  0  0  0  0  0
  147.5506  135.1586  152.5827 H   0  0  0  0  0  0  0  0  0  0  0  0
  1  2  1  0  0  0  0
  1 22  1  0  0  0  0
  1 23  1  0  0  0  0
  1 24  1  0  0  0  0
  2  3  1  0  0  0  0
  2 25  1  0  0  0  0
  2 26  1  0  0  0  0
  3  4  1  0  0  0  0
  3  5  1  0  0  0  0
  3 16  1  0  0  0  0
  4 27  1  0  0  0  0
  4 28  1  0  0  0  0
  4 29  1  0  0  0  0
  5  6  1  0  0  0  0
  5 30  1  0  0  0  0
  5 31  1  0  0  0  0
  6  7  1  0  0  0  0
  6 32  1  0  0  0  0
  7  8  2  0  0  0  0
  7  9  1  0  0  0  0
  9 10  1  0  0  0  0
  9 11  1  0  0  0  0
  9 33  1  0  0  0  0
 10 34  1  0  0  0  0
 10 35  1  0  0  0  0
 10 36  1  0  0  0  0
 11 15  1  0  0  0  0
 11 12  1  0  0  0  0
 12 13  2  0  0  0  0
 12 37  1  0  0  0  0
 13 14  1  0  0  0  0
 14 15  2  0  0  0  0
 14 38  1  0  0  0  0
 16 21  1  0  0  0  0
 16 17  1  0  0  0  0
 16 47  1  0  0  0  0
 17 18  1  0  0  0  0
 17 39  1  0  0  0  0
 17 40  1  0  0  0  0
 18 19  1  0  0  0  0
 18 41  1  0  0  0  0
 18 42  1  0  0  0  0
 19 20  1  0  0  0  0
 20 21  1  0  0  0  0
 20 43  1  0  0  0  0
 20 44  1  0  0  0  0
 21 45  1  0  0  0  0
 21 46  1  0  0  0  0
M  CHG  1  16   1
M  END
> <s_m_source_file>
AV-unprocessed.smi

> <i_m_source_file_index>
1285

> <i_lp_mmshare_version>
43012

> <i_f3d_flags>
0

> <s_epik_input>
W0NIMl0xW0NIMl1PW0NIMl1bQ0gyXU4xW0NAQF0oW0NIM10pKFtDSDJdW0NIM10pW0NIMl1bTkhdQyg9TylbQ0BIXShbQ0gzXSluMltjSF1uW2NIXW4y

> <s_epik_cmdline>
J2VwaWtfcHl0aG9uJywgJy1waCcsICc3LjAnLCAnLXRuJywgJzgnLCAnLW1hJywgJzIwMCcsICctbWV0YWxfYmluZGluZycsICctaW1hZScsICc8aW5maWxlLm1hZT4nLCAnLW9tYWUnLCAnPG91dGZpbGUubWFlPic=

> <r_lp_tautomer_probability>
1

> <r_epik_Ionization_Penalty>
0.569304

> <r_epik_Ionization_Penalty_Charging>
0.569295

> <r_epik_Ionization_Penalty_Neutral>
8.22697e-06

> <r_epik_State_Penalty>
0.581114

> <r_epik_Charging_Adjusted_Penalty>
1.15041

> <i_epik_Tot_Q>
1

> <i_epik_Tot_abs_Q>
1

> <r_epik_Metal_State_Penalty>
0.581117

> <b_epik_Metal_Only>
0

> <s_lp_Force_Field>
OPLS_2005

> <r_lp_Energy>
32.2271

> <b_lp_Chiralities_Consistent>
1

> <s_lp_Variant>
AV-unprocessed.smi:1285-6

> <Gold.Version>
5.8.1

> <Gold.Id.Protein>
6NUR|6NUR_protein|mol2

> <Gold.PLP.Fitness>
41.4757

> <Gold.PLP.PLP>
-28.1108

> <Gold.PLP.part.hbond>
-3.3857

> <Gold.PLP.part.metal>
0.0000

> <Gold.PLP.part.buried>
-0.6022

> <Gold.PLP.part.nonpolar>
-23.9891

> <Gold.PLP.part.repulsive>
0.4624

> <Gold.PLP.ligand.clash>
0.0000

> <Gold.PLP.ligand.torsion>
1.0473

> <Gold.PLP.Chemscore.Hbond>
3.3822

> <Gold.PLP.Chemscore.CHOScore>
1.6472

> <Gold.PLP.Chemscore.Metal>
0.0000

> <Gold.Chemscore.Hbonds>
donor molecule, donor type, donor heavy atom, donor atom, acceptor molecule, acceptor atom, score
      L1  H     6    32       P1  7948  1.00
      L1  H    16    47       P1  7948  2.00
      P1  H  8011  8017       L1    13  0.75

> <Gold.PLP.Chemscore.Internal.Correction>
0.3712

> <Gold.Rescore>
     Score         DG    S(hbond)    S(metal)    S(lipo)     H(rot)  DE(clash)    DE(int)     intcor
      9.73     -10.99       1.97        0.00      51.15       2.76       0.02       1.25       ----

> <Gold.Chemscore.Fitness>
9.7257

> <Gold.Chemscore.DG>
-10.9927

> <Gold.Chemscore.ZeroCoef>
-5.4800

> <Gold.Chemscore.Hbond>
1.9734

> <Gold.Chemscore.Metal>
0.0000

> <Gold.Chemscore.Lipo>
51.1475

> <Gold.Chemscore.Internal_Hbond>
0.0000

> <Gold.Chemscore.DEClash>
0.0153

> <Gold.Chemscore.DEInternal>
1.2517

> <Gold.Chemscore.Rot>
2.7589

> <Gold.Chemscore.Internal.Correction>
   9.000000E+99

> <Gold.Chemscore.Hbonds>
donor molecule, donor type, donor heavy atom, donor atom, acceptor molecule, acceptor atom, score
      L1  H     6    32       P1  7948  0.98
      L1  H    16    47       P1  7948  1.00
      P1  H  8011  8017       L1    13  0.55

> <Gold.Chemscore.Hbond.Weighted>
-6.5911

> <Gold.Chemscore.Metal.Weighted>
-0.0000

> <Gold.Chemscore.Lipo.Weighted>
-5.9843

> <Gold.Chemscore.Internal_Hbond.Weighted>
0.0000

> <Gold.Chemscore.DEClash.Weighted>
0.0153

> <Gold.Chemscore.DEInternal.Weighted>
1.2517

> <Gold.Chemscore.Rot.Weighted>
7.0627

> <Gold.Chemscore.Internal.Correction.Weighted>
   9.000000E+99

> <Gold.Protein.RotatedTorsions>
[ 6907 6896 6895 6894 ] final -112.92 input  -60.11 | X-H torsion
[ 7974 7965 7964 7962 ] final  100.84 input  175.53 | X-H torsion
[ 8008 7997 7996 7995 ] final   20.90 input   59.86 | X-H torsion
[ 10167 10162 10161 10158 ] final   24.01 input  -65.29 | X-H torsion
[ 10718 10713 10712 10709 ] final  135.73 input   66.30 | X-H torsion
[ 10763 10752 10751 10750 ] final  132.40 input  -60.55 | X-H torsion
[ 11005 11000 10999 10996 ] final   27.65 input  -57.11 | X-H torsion

> <Gold.Protein.ActiveResidues>
 VAL166  LYS551  ARG553  GLY616  TRP617  ASP618  TYR619  PRO620  LYS621  CYS622 
 ASP623  PHE694  ASN695  SER759  ASP760  ASP761  ALA762  ILE779  LEU786  VAL792 
 PHE793  MET794  SER795  GLU796  ALA797  LYS798  CYS799  TRP800  GLU811  SER814 

> <Gold.Protein.RotatedAtoms>
  150.7792  133.9020  159.3343 H   0  0  0  0  0  0  0  0  0  0  0  0  # atno 6907 bound_to 6896
  151.6887  135.0948  160.0239 H   0  0  0  0  0  0  0  0  0  0  0  0  # atno 6908 bound_to 6896
  152.3838  133.6544  159.6218 H   0  0  0  0  0  0  0  0  0  0  0  0  # atno 6909 bound_to 6896
  145.3803  139.2381  143.3407 H   0  0  0  0  0  0  0  0  0  0  0  0  # atno 7974 bound_to 7965
  154.9426  140.3055  155.5113 H   0  0  0  0  0  0  0  0  0  0  0  0  # atno 8008 bound_to 7997
  156.2994  140.2333  156.4434 H   0  0  0  0  0  0  0  0  0  0  0  0  # atno 8009 bound_to 7997
  154.8131  140.0427  157.1345 H   0  0  0  0  0  0  0  0  0  0  0  0  # atno 8010 bound_to 7997
  140.5222  143.9983  150.6423 H   0  0  0  0  0  0  0  0  0  0  0  0  # atno 10167 bound_to 10162
  157.4540  131.1068  150.9999 H   0  0  0  0  0  0  0  0  0  0  0  0  # atno 10718 bound_to 10713
  153.7902  135.3156  155.3377 H   0  0  0  0  0  0  0  0  0  0  0  0  # atno 10763 bound_to 10752
  154.8129  135.4655  154.0567 H   0  0  0  0  0  0  0  0  0  0  0  0  # atno 10764 bound_to 10752
  153.1882  135.6904  153.8474 H   0  0  0  0  0  0  0  0  0  0  0  0  # atno 10765 bound_to 10752
  140.3240  134.2512  155.7712 H   0  0  0  0  0  0  0  0  0  0  0  0  # atno 11005 bound_to 11000
  146.2845  140.4469  142.8763 LP  0  0  0  0  0  0  0  0  0  0  0  0  # atno 17320 bound_to 7965
  144.8512  140.7004  143.6167 LP  0  0  0  0  0  0  0  0  0  0  0  0  # atno 17321 bound_to 7965
  140.3335  143.3063  152.0663 LP  0  0  0  0  0  0  0  0  0  0  0  0  # atno 17342 bound_to 10162
  139.4927  144.6493  151.6711 LP  0  0  0  0  0  0  0  0  0  0  0  0  # atno 17343 bound_to 10162
  157.0819  130.5906  149.5422 LP  0  0  0  0  0  0  0  0  0  0  0  0  # atno 17370 bound_to 10713
  155.9999  130.5076  150.7625 LP  0  0  0  0  0  0  0  0  0  0  0  0  # atno 17371 bound_to 10713
  141.2080  133.7790  157.0087 LP  0  0  0  0  0  0  0  0  0  0  0  0  # atno 17394 bound_to 11000
  140.0918  134.9588  157.1787 LP  0  0  0  0  0  0  0  0  0  0  0  0  # atno 17395 bound_to 11000

$$$$
