AV-unprocessed.smi:2819|AV-procd|sdf|10850|dock2
  -GOLD-   2272015293D 1   1.00000     0.00000
 Structure written by MMmdl.
 50 51  0  0  0  0  0  0  0  0  2 V2000
  153.8336  141.5080  160.0567 C   0  0  0  0  0  0  0  0  0  0  0  0
  153.0901  142.5037  160.8229 N   0  0  0  0  0  0  0  0  0  0  0  0
  153.2435  142.5721  162.2707 C   0  0  0  0  0  0  0  0  0  0  0  0
  152.1336  143.3169  160.1751 C   0  0  0  0  0  0  0  0  0  0  0  0
  151.7442  144.5734  160.6860 C   0  0  0  0  0  0  0  0  0  0  0  0
  150.7804  145.2942  159.9590 C   0  0  0  0  0  0  0  0  0  0  0  0
  150.2591  144.7865  158.8164 N   0  3  0  0  0  0  0  0  0  0  0  0
  150.6658  143.5881  158.3695 C   0  0  0  0  0  0  0  0  0  0  0  0
  150.0915  143.1369  157.2006 N   0  0  0  0  0  0  0  0  0  0  0  0
  149.9688  141.8866  156.7150 C   0  0  0  0  0  0  0  0  0  0  0  0
  150.3852  140.8653  157.2639 O   0  0  0  0  0  0  0  0  0  0  0  0
  149.3339  141.8852  155.5336 N   0  0  0  0  0  0  0  0  0  0  0  0
  149.0504  140.7048  154.7167 C   0  0  0  0  0  0  0  0  0  0  0  0
  147.5328  140.5255  154.4150 C   0  0  0  0  0  0  0  0  0  0  0  0
  147.0313  141.8764  153.8437 C   0  0  0  0  0  0  0  0  0  0  0  0
  147.4153  139.4813  153.2781 C   0  0  0  0  0  0  0  0  0  0  0  0
  146.7697  140.1450  155.6375 N   0  0  0  0  0  0  0  0  0  0  0  0
  147.2686  138.9507  156.3301 C   0  0  0  0  0  0  0  0  0  0  0  0
  146.3694  138.5469  157.5111 C   0  0  0  0  0  0  0  0  0  0  0  0
  146.2478  139.6367  158.4168 O   0  0  0  0  0  0  0  0  0  0  0  0
  145.7102  140.7989  157.7982 C   0  0  0  0  0  0  0  0  0  0  0  0
  146.6067  141.2213  156.6223 C   0  0  0  0  0  0  0  0  0  0  0  0
  151.5820  142.8606  159.0278 N   0  0  0  0  0  0  0  0  0  0  0  0
  154.3893  141.9823  159.2471 H   0  0  0  0  0  0  0  0  0  0  0  0
  153.1552  140.7711  159.6257 H   0  0  0  0  0  0  0  0  0  0  0  0
  154.5502  140.9770  160.6836 H   0  0  0  0  0  0  0  0  0  0  0  0
  152.2997  142.3457  162.7677 H   0  0  0  0  0  0  0  0  0  0  0  0
  153.5698  143.5668  162.5759 H   0  0  0  0  0  0  0  0  0  0  0  0
  153.9853  141.8559  162.6250 H   0  0  0  0  0  0  0  0  0  0  0  0
  152.1549  144.9865  161.5953 H   0  0  0  0  0  0  0  0  0  0  0  0
  150.4077  146.2639  160.2552 H   0  0  0  0  0  0  0  0  0  0  0  0
  149.7041  143.8619  156.6155 H   0  0  0  0  0  0  0  0  0  0  0  0
  149.0356  142.7712  155.1524 H   0  0  0  0  0  0  0  0  0  0  0  0
  149.6200  140.7372  153.7860 H   0  0  0  0  0  0  0  0  0  0  0  0
  149.4469  139.8366  155.2425 H   0  0  0  0  0  0  0  0  0  0  0  0
  147.6976  142.2550  153.0676 H   0  0  0  0  0  0  0  0  0  0  0  0
  146.9644  142.6422  154.6171 H   0  0  0  0  0  0  0  0  0  0  0  0
  146.0476  141.7896  153.3821 H   0  0  0  0  0  0  0  0  0  0  0  0
  147.9752  139.7982  152.3973 H   0  0  0  0  0  0  0  0  0  0  0  0
  146.3845  139.3346  152.9568 H   0  0  0  0  0  0  0  0  0  0  0  0
  147.8133  138.5092  153.5685 H   0  0  0  0  0  0  0  0  0  0  0  0
  147.3235  138.1011  155.6519 H   0  0  0  0  0  0  0  0  0  0  0  0
  148.2782  139.1246  156.7026 H   0  0  0  0  0  0  0  0  0  0  0  0
  145.3821  138.2443  157.1590 H   0  0  0  0  0  0  0  0  0  0  0  0
  146.7967  137.6933  158.0375 H   0  0  0  0  0  0  0  0  0  0  0  0
  144.6929  140.6020  157.4568 H   0  0  0  0  0  0  0  0  0  0  0  0
  145.6513  141.5995  158.5356 H   0  0  0  0  0  0  0  0  0  0  0  0
  147.5777  141.5244  157.0141 H   0  0  0  0  0  0  0  0  0  0  0  0
  146.1605  142.1031  156.1666 H   0  0  0  0  0  0  0  0  0  0  0  0
  149.5601  145.3267  158.3057 H   0  0  0  0  0  0  0  0  0  0  0  0
  1  2  1  0  0  0  0
  1 24  1  0  0  0  0
  1 25  1  0  0  0  0
  1 26  1  0  0  0  0
  2  3  1  0  0  0  0
  2  4  1  0  0  0  0
  3 27  1  0  0  0  0
  3 28  1  0  0  0  0
  3 29  1  0  0  0  0
  4 23  1  0  0  0  0
  4  5  2  0  0  0  0
  5  6  1  0  0  0  0
  5 30  1  0  0  0  0
  6  7  2  0  0  0  0
  6 31  1  0  0  0  0
  7  8  1  0  0  0  0
  7 50  1  0  0  0  0
  8  9  1  0  0  0  0
  8 23  2  0  0  0  0
  9 10  1  0  0  0  0
  9 32  1  0  0  0  0
 10 11  2  0  0  0  0
 10 12  1  0  0  0  0
 12 13  1  0  0  0  0
 12 33  1  0  0  0  0
 13 14  1  0  0  0  0
 13 34  1  0  0  0  0
 13 35  1  0  0  0  0
 14 15  1  0  0  0  0
 14 16  1  0  0  0  0
 14 17  1  0  0  0  0
 15 36  1  0  0  0  0
 15 37  1  0  0  0  0
 15 38  1  0  0  0  0
 16 39  1  0  0  0  0
 16 40  1  0  0  0  0
 16 41  1  0  0  0  0
 17 22  1  0  0  0  0
 17 18  1  0  0  0  0
 18 19  1  0  0  0  0
 18 42  1  0  0  0  0
 18 43  1  0  0  0  0
 19 20  1  0  0  0  0
 19 44  1  0  0  0  0
 19 45  1  0  0  0  0
 20 21  1  0  0  0  0
 21 22  1  0  0  0  0
 21 46  1  0  0  0  0
 21 47  1  0  0  0  0
 22 48  1  0  0  0  0
 22 49  1  0  0  0  0
M  CHG  1   7   1
M  END
> <s_m_source_file>
AV-unprocessed.smi

> <i_m_source_file_index>
2819

> <i_lp_mmshare_version>
43012

> <i_f3d_flags>
0

> <s_epik_input>
W0NIM11OKFtDSDNdKWMxW2NIXVtjSF1uYyhuMSlbTkhdQyg9TylbTkhdW0NIMl1DKFtDSDNdKShbQ0gzXSlOMltDSDJdW0NIMl1PW0NIMl1bQ0gyXTI=

> <s_epik_cmdline>
J2VwaWtfcHl0aG9uJywgJy1waCcsICc3LjAnLCAnLXRuJywgJzgnLCAnLW1hJywgJzIwMCcsICctbWV0YWxfYmluZGluZycsICctaW1hZScsICc8aW5maWxlLm1hZT4nLCAnLW9tYWUnLCAnPG91dGZpbGUubWFlPic=

> <r_lp_tautomer_probability>
0.999336

> <r_epik_Ionization_Penalty>
0.36245

> <r_epik_Ionization_Penalty_Charging>
0.09642

> <r_epik_Ionization_Penalty_Neutral>
0.26603

> <r_epik_State_Penalty>
0.34182

> <r_epik_Charging_Adjusted_Penalty>
0.43824

> <i_epik_Tot_Q>
1

> <i_epik_Tot_abs_Q>
1

> <r_epik_Metal_State_Penalty>
0.680072

> <b_epik_Metal_Only>
0

> <s_lp_Force_Field>
OPLS_2005

> <r_lp_Energy>
46.6514

> <b_lp_Chiralities_Consistent>
1

> <s_lp_Variant>
AV-unprocessed.smi:2819-1

> <Gold.Version>
5.8.1

> <Gold.Id.Protein>
6NUR|6NUR_protein|mol2

> <Gold.PLP.Fitness>
52.4315

> <Gold.PLP.PLP>
-42.2094

> <Gold.PLP.part.hbond>
-3.9041

> <Gold.PLP.part.metal>
0.0000

> <Gold.PLP.part.buried>
-6.4086

> <Gold.PLP.part.nonpolar>
-33.4991

> <Gold.PLP.part.repulsive>
0.3994

> <Gold.PLP.ligand.clash>
0.0000

> <Gold.PLP.ligand.torsion>
0.6396

> <Gold.PLP.Chemscore.Hbond>
3.7570

> <Gold.PLP.Chemscore.CHOScore>
0.0000

> <Gold.PLP.Chemscore.Metal>
0.0000

> <Gold.Chemscore.Hbonds>
donor molecule, donor type, donor heavy atom, donor atom, acceptor molecule, acceptor atom, score
      L1  H     7    50       P1  8029  1.95
      L1  H     9    32       P1  8028  0.96
      L1  H    12    33       P1  8028  0.83

> <Gold.PLP.Chemscore.Internal.Correction>
0.2303

> <Gold.Rescore>
     Score         DG    S(hbond)    S(metal)    S(lipo)     H(rot)  DE(clash)    DE(int)     intcor
     16.46     -18.56       2.64        0.00      69.73       1.53       0.09       2.00       ----

> <Gold.Chemscore.Fitness>
16.4600

> <Gold.Chemscore.DG>
-18.5556

> <Gold.Chemscore.ZeroCoef>
-5.4800

> <Gold.Chemscore.Hbond>
2.6436

> <Gold.Chemscore.Metal>
0.0000

> <Gold.Chemscore.Lipo>
69.7284

> <Gold.Chemscore.Internal_Hbond>
0.0000

> <Gold.Chemscore.DEClash>
0.0942

> <Gold.Chemscore.DEInternal>
2.0014

> <Gold.Chemscore.Rot>
1.5282

> <Gold.Chemscore.Internal.Correction>
   9.000000E+99

> <Gold.Chemscore.Hbonds>
donor molecule, donor type, donor heavy atom, donor atom, acceptor molecule, acceptor atom, score
      L1  H     7    50       P1  8029  0.55
      L1  H     9    32       P1  8028  0.90
      L1  H    12    33       P1  8028  0.79

> <Gold.Chemscore.Hbond.Weighted>
-8.8295

> <Gold.Chemscore.Metal.Weighted>
-0.0000

> <Gold.Chemscore.Lipo.Weighted>
-8.1582

> <Gold.Chemscore.Internal_Hbond.Weighted>
0.0000

> <Gold.Chemscore.DEClash.Weighted>
0.0942

> <Gold.Chemscore.DEInternal.Weighted>
2.0014

> <Gold.Chemscore.Rot.Weighted>
3.9121

> <Gold.Chemscore.Internal.Correction.Weighted>
   9.000000E+99

> <Gold.Protein.RotatedTorsions>
[ 6907 6896 6895 6894 ] final -130.72 input  -60.11 | X-H torsion
[ 7974 7965 7964 7962 ] final   81.92 input  175.53 | X-H torsion
[ 8008 7997 7996 7995 ] final    9.43 input   59.86 | X-H torsion
[ 10167 10162 10161 10158 ] final   21.94 input  -65.29 | X-H torsion
[ 10718 10713 10712 10709 ] final  125.32 input   66.30 | X-H torsion
[ 10763 10752 10751 10750 ] final -107.48 input  -60.55 | X-H torsion
[ 11005 11000 10999 10996 ] final   66.01 input  -57.11 | X-H torsion

> <Gold.Protein.ActiveResidues>
 VAL166  LYS551  ARG553  GLY616  TRP617  ASP618  TYR619  PRO620  LYS621  CYS622 
 ASP623  PHE694  ASN695  SER759  ASP760  ASP761  ALA762  ILE779  LEU786  VAL792 
 PHE793  MET794  SER795  GLU796  ALA797  LYS798  CYS799  TRP800  GLU811  SER814 

> <Gold.Protein.RotatedAtoms>
  150.9429  133.6636  159.2786 H   0  0  0  0  0  0  0  0  0  0  0  0  # atno 6907 bound_to 6896
  151.4019  135.0971  159.9568 H   0  0  0  0  0  0  0  0  0  0  0  0  # atno 6908 bound_to 6896
  152.5077  133.8921  159.7454 H   0  0  0  0  0  0  0  0  0  0  0  0  # atno 6909 bound_to 6896
  145.6318  139.2406  143.2080 H   0  0  0  0  0  0  0  0  0  0  0  0  # atno 7974 bound_to 7965
  154.7800  140.2817  155.6071 H   0  0  0  0  0  0  0  0  0  0  0  0  # atno 8008 bound_to 7997
  156.2948  140.2625  156.2551 H   0  0  0  0  0  0  0  0  0  0  0  0  # atno 8009 bound_to 7997
  154.9796  140.0375  157.2261 H   0  0  0  0  0  0  0  0  0  0  0  0  # atno 8010 bound_to 7997
  140.5387  143.9714  150.6507 H   0  0  0  0  0  0  0  0  0  0  0  0  # atno 10167 bound_to 10162
  157.5513  131.1094  150.8697 H   0  0  0  0  0  0  0  0  0  0  0  0  # atno 10718 bound_to 10713
  154.8078  135.4673  154.0437 H   0  0  0  0  0  0  0  0  0  0  0  0  # atno 10763 bound_to 10752
  153.1892  135.6852  153.8382 H   0  0  0  0  0  0  0  0  0  0  0  0  # atno 10764 bound_to 10752
  153.7906  135.3244  155.3355 H   0  0  0  0  0  0  0  0  0  0  0  0  # atno 10765 bound_to 10752
  139.9858  134.6670  156.0178 H   0  0  0  0  0  0  0  0  0  0  0  0  # atno 11005 bound_to 11000
  146.1351  140.7134  142.9394 LP  0  0  0  0  0  0  0  0  0  0  0  0  # atno 17320 bound_to 7965
  144.7191  140.4311  143.7022 LP  0  0  0  0  0  0  0  0  0  0  0  0  # atno 17321 bound_to 7965
  140.3109  143.3198  152.0879 LP  0  0  0  0  0  0  0  0  0  0  0  0  # atno 17342 bound_to 10162
  139.4981  144.6636  151.6407 LP  0  0  0  0  0  0  0  0  0  0  0  0  # atno 17343 bound_to 10162
  156.9221  130.5319  149.5279 LP  0  0  0  0  0  0  0  0  0  0  0  0  # atno 17370 bound_to 10713
  156.0579  130.5637  150.9131 LP  0  0  0  0  0  0  0  0  0  0  0  0  # atno 17371 bound_to 10713
  141.1523  133.6547  156.4053 LP  0  0  0  0  0  0  0  0  0  0  0  0  # atno 17394 bound_to 11000
  140.5005  134.6490  157.5246 LP  0  0  0  0  0  0  0  0  0  0  0  0  # atno 17395 bound_to 11000

$$$$
