#       Name:                AV-unprocessed.smi:3057
#       Creating user name   scv26
#       Creation time:       Fri Mar 27 17:07:21 2020


#       File generated by GOLD software.
#

@<TRIPOS>MOLECULE
AV-unprocessed.smi:3057
    45    47     1
SMALL
NO_CHARGES


@<TRIPOS>ATOM
      1 ****        -1.9509   2.8222   0.1815 C.3            1 S1                 0.0000
      2 ****        -2.6694   1.6012   0.7873 C.3            1 S1                 0.0000
      3 ****        -3.8036   2.0266   1.7373 C.3            1 S1                 0.0000
      4 ****        -3.1638   2.0044   3.1335 C.3            1 S1                 0.0000
      5 ****        -2.0029   1.0411   2.9453 C.2            1 S1                 0.0000
      6 ****        -1.4168   0.4960   3.8792 O.2            1 S1                 0.0000
      7 ****        -1.7789   0.8385   1.6408 N.am           1 S1                 0.0000
      8 ****        -1.0130  -0.2547   1.0360 C.3            1 S1                 0.0000
      9 ****         0.4917   0.0647   1.0140 C.2            1 S1                 0.0000
     10 ****         0.8970   1.2275   0.9914 O.2            1 S1                 0.0000
     11 ****         1.3122  -0.9966   0.9966 N.am           1 S1                 0.0000
     12 ****         2.7708  -0.9374   0.9637 C.3            1 S1                 0.0000
     13 ****         3.3338  -0.4427  -0.3850 C.3            1 S1                 0.0000
     14 ****         2.7348  -1.1410  -1.5938 C.ar           1 S1                 0.0000
     15 ****         1.7649  -0.5218  -2.4121 C.ar           1 S1                 0.0000
     16 ****         1.2409  -1.2269  -3.5152 C.ar           1 S1                 0.0000
     17 ****         1.6993  -2.5342  -3.7785 C.ar           1 S1                 0.0000
     18 ****         2.6714  -3.1037  -2.9309 C.ar           1 S1                 0.0000
     19 ****         3.1483  -2.3961  -1.8829 N.pl3          1 S1                 1.0000
     20 ****        -1.5349  -0.4053  -0.4151 C.3            1 S1                 0.0000
     21 ****        -3.1475   0.4217  -0.4866 S.3            1 S1                 0.0000
     22 ****        -1.5772   3.4911   0.9575 H              1 S1                 0.0000
     23 ****        -2.6279   3.3972  -0.4507 H              1 S1                 0.0000
     24 ****        -1.1019   2.5275  -0.4353 H              1 S1                 0.0000
     25 ****        -4.2192   3.0036   1.4876 H              1 S1                 0.0000
     26 ****        -4.6233   1.3073   1.7034 H              1 S1                 0.0000
     27 ****        -2.7764   2.9850   3.4118 H              1 S1                 0.0000
     28 ****        -3.8567   1.6650   3.9038 H              1 S1                 0.0000
     29 ****        -1.2004  -1.1721   1.5973 H              1 S1                 0.0000
     30 ****         0.8945  -1.9157   1.0207 H              1 S1                 0.0000
     31 ****         3.1395  -0.3158   1.7811 H              1 S1                 0.0000
     32 ****         3.1355  -1.9463   1.1578 H              1 S1                 0.0000
     33 ****         3.1631   0.6302  -0.4821 H              1 S1                 0.0000
     34 ****         4.4166  -0.5726  -0.4002 H              1 S1                 0.0000
     35 ****         1.4210   0.4793  -2.1946 H              1 S1                 0.0000
     36 ****         0.4963  -0.7704  -4.1509 H              1 S1                 0.0000
     37 ****         1.3116  -3.0914  -4.6189 H              1 S1                 0.0000
     38 ****         3.0782  -4.0962  -3.0589 H              1 S1                 0.0000
     39 ****        -0.8852   0.0902  -1.1381 H              1 S1                 0.0000
     40 ****        -1.6229  -1.4498  -0.7146 H              1 S1                 0.0000
     41 ****         3.8512  -2.8286  -1.2831 H              1 S1                 0.0000
     42 ****        -1.6986   0.6786   4.8211 LP             1 S1                 0.0000
     43 ****        -0.6585  -0.1298   3.6965 LP             1 S1                 0.0000
     44 ****         0.2438   1.9847   0.9871 LP             1 S1                 0.0000
     45 ****         1.8793   1.4144   0.9774 LP             1 S1                 0.0000
@<TRIPOS>BOND
    1    1    2 1     
    2    1   22 1     
    3    1   23 1     
    4    1   24 1     
    5    2    7 1     
    6    2   21 1     
    7    2    3 1     
    8    3    4 1     
    9    3   25 1     
   10    3   26 1     
   11    4    5 1     
   12    4   27 1     
   13    4   28 1     
   14    5    6 2     
   15    5    7 am    
   16    7    8 1     
   17    8    9 1     
   18    8   20 1     
   19    8   29 1     
   20    9   10 2     
   21    9   11 am    
   22   11   12 1     
   23   11   30 1     
   24   12   13 1     
   25   12   31 1     
   26   12   32 1     
   27   13   14 1     
   28   13   33 1     
   29   13   34 1     
   30   14   19 ar    
   31   14   15 ar    
   32   15   16 ar    
   33   15   35 1     
   34   16   17 ar    
   35   16   36 1     
   36   17   18 ar    
   37   17   37 1     
   38   18   19 ar    
   39   18   38 1     
   40   19   41 1     
   41   20   21 1     
   42   20   39 1     
   43   20   40 1     
   44    6   42 1     
   45    6   43 1     
   46   10   44 1     
   47   10   45 1     
@<TRIPOS>SUBSTRUCTURE
      1 S1             1
@<TRIPOS>SET
LONE_PAIRS      STATIC     ATOMS    <user>   **** ""
4 42 43 44 45
DONOR_HYDROGENS      STATIC     ATOMS    <user>   **** ""
2 30 41
ATOM$BLUE        STATIC     ATOMS    COLORGROUP SYSTEM
4 42 43 44 45
ATOM$RED        STATIC     ATOMS    COLORGROUP SYSTEM
2 30 41
