#       Name:                AV-unprocessed.smi:1222
#       Creating user name   scv26
#       Creation time:       Fri Mar 27 04:18:23 2020


#       File generated by GOLD software.
#

@<TRIPOS>MOLECULE
AV-unprocessed.smi:1222
    40    42     1
SMALL
NO_CHARGES


@<TRIPOS>ATOM
      1 ****        -1.9042   2.0570   1.1890 O.2            1 S1                 0.0000
      2 ****        -2.3517   1.2084   0.4144 C.2            1 S1                 0.0000
      3 ****        -3.6321   1.1124  -0.0116 N.pl3          1 S1                -1.0000
      4 ****        -4.5537   1.9845   0.4287 C.2            1 S1                 0.0000
      5 ****        -4.9344   3.0606  -0.2695 N.2            1 S1                 0.0000
      6 ****        -5.9081   3.8252   0.3760 C.2            1 S1                 0.0000
      7 ****        -6.2852   3.3137   1.5893 C.2            1 S1                 0.0000
      8 ****        -5.4219   1.8486   1.9605 S.3            1 S1                 0.0000
      9 ****        -1.5463   0.2606  -0.0878 N.am           1 S1                 0.0000
     10 ****        -0.1197   0.0926   0.1825 C.3            1 S1                 0.0000
     11 ****         0.6990   0.3695  -1.0881 C.3            1 S1                 0.0000
     12 ****         2.1878   0.0511  -0.8635 C.3            1 S1                 0.0000
     13 ****         2.3547  -1.3461  -0.4609 N.3            1 S1                 0.0000
     14 ****         3.7726  -1.6184  -0.2905 C.3            1 S1                 0.0000
     15 ****         4.5577  -2.0314  -1.5145 C.3            1 S1                 0.0000
     16 ****         4.2340  -3.0493  -0.4476 C.3            1 S1                 0.0000
     17 ****         1.6726  -1.5825   0.8122 C.3            1 S1                 0.0000
     18 ****         0.1605  -1.3396   0.6617 C.3            1 S1                 0.0000
     19 ****        -6.2774   4.7197  -0.1029 H              1 S1                 0.0000
     20 ****        -7.0136   3.7056   2.2830 H              1 S1                 0.0000
     21 ****        -1.9666  -0.4076  -0.7171 H              1 S1                 0.0000
     22 ****         0.2121   0.7803   0.9623 H              1 S1                 0.0000
     23 ****         0.3207  -0.2320  -1.9164 H              1 S1                 0.0000
     24 ****         0.5849   1.4124  -1.3854 H              1 S1                 0.0000
     25 ****         2.7412   0.2328  -1.7857 H              1 S1                 0.0000
     26 ****         2.6050   0.7144  -0.1041 H              1 S1                 0.0000
     27 ****         4.3283  -1.0318   0.4396 H              1 S1                 0.0000
     28 ****         4.0247  -2.1099  -2.4603 H              1 S1                 0.0000
     29 ****         5.5882  -1.6903  -1.5873 H              1 S1                 0.0000
     30 ****         5.0486  -3.3857   0.1904 H              1 S1                 0.0000
     31 ****         3.4854  -3.8034  -0.6838 H              1 S1                 0.0000
     32 ****         1.8445  -2.6108   1.1319 H              1 S1                 0.0000
     33 ****         2.0842  -0.9331   1.5865 H              1 S1                 0.0000
     34 ****        -0.3385  -1.5178   1.6148 H              1 S1                 0.0000
     35 ****        -0.2542  -2.0601  -0.0453 H              1 S1                 0.0000
     36 ****        -2.5083   2.7607   1.5630 LP             1 S1                 0.0000
     37 ****        -0.9371   2.0415   1.4432 LP             1 S1                 0.0000
     38 ****        -3.8924   0.3920  -0.6544 LP             1 S1                 0.0000
     39 ****        -4.5582   3.2944  -1.1661 LP             1 S1                 0.0000
     40 ****         1.9654  -1.9430  -1.1624 LP             1 S1                 0.0000
@<TRIPOS>BOND
    1    1    2 2     
    2    2    3 1     
    3    2    9 am    
    4    3    4 1     
    5    4    8 1     
    6    4    5 2     
    7    5    6 1     
    8    6    7 2     
    9    6   19 1     
   10    7    8 1     
   11    7   20 1     
   12    9   10 1     
   13    9   21 1     
   14   10   18 1     
   15   10   11 1     
   16   10   22 1     
   17   11   12 1     
   18   11   23 1     
   19   11   24 1     
   20   12   13 1     
   21   12   25 1     
   22   12   26 1     
   23   13   14 1     
   24   13   17 1     
   25   14   16 1     
   26   14   15 1     
   27   14   27 1     
   28   15   16 1     
   29   15   28 1     
   30   15   29 1     
   31   16   30 1     
   32   16   31 1     
   33   17   18 1     
   34   17   32 1     
   35   17   33 1     
   36   18   34 1     
   37   18   35 1     
   38    1   36 1     
   39    1   37 1     
   40    3   38 1     
   41    5   39 1     
   42   13   40 1     
@<TRIPOS>SUBSTRUCTURE
      1 S1             1
@<TRIPOS>SET
LONE_PAIRS      STATIC     ATOMS    <user>   **** ""
5 36 37 38 39 40
DONOR_HYDROGENS      STATIC     ATOMS    <user>   **** ""
1 21
ATOM$BLUE        STATIC     ATOMS    COLORGROUP SYSTEM
5 36 37 38 39 40
ATOM$RED        STATIC     ATOMS    COLORGROUP SYSTEM
1 21
