AV-unprocessed.smi:1629|AV-procd|sdf|6524|dock8
  -GOLD-   22720 7203D 1   1.00000     0.00000
 Structure written by MMmdl.
 44 45  0  0  0  0  0  0  0  0  3 V2000
  142.6712  146.7357  154.5180 C   0  0  0  0  0  0  0  0  0  0  0  0
  144.3229  146.6660  155.3182 S   0  0  0  0  0  0  0  0  0  0  0  0
  144.7681  148.0637  155.4384 O   0  0  0  0  0  0  0  0  0  0  0  0
  144.1314  145.9114  156.5672 O   0  0  0  0  0  0  0  0  0  0  0  0
  145.1582  145.8324  154.2059 N   0  5  0  0  0  0  0  0  0  0  0  0
  145.3017  144.3900  154.3397 C   0  0  0  0  0  0  0  0  0  0  0  0
  145.9884  144.0216  155.6833 C   0  0  0  0  0  0  0  0  0  0  0  0
  146.3952  142.5247  155.7750 C   0  0  0  0  0  0  0  0  0  0  0  0
  147.2769  142.1509  154.6472 N   0  0  0  0  0  0  0  0  0  0  0  0
  148.6009  141.8632  154.7075 C   0  0  0  0  0  0  0  0  0  0  0  0
  149.2725  141.5563  153.7213 O   0  0  0  0  0  0  0  0  0  0  0  0
  149.1366  141.9406  155.9375 N   0  0  0  0  0  0  0  0  0  0  0  0
  150.5393  141.7103  156.2611 C   0  0  0  0  0  0  0  0  0  0  0  0
  150.7424  141.4883  157.7695 C   0  0  0  0  0  0  0  0  0  0  0  0
  151.1999  142.7480  158.4780 C   0  0  0  0  0  0  0  0  0  0  0  0
  151.8846  142.7090  159.7121 C   0  0  0  0  0  0  0  0  0  0  0  0
  152.2756  143.9195  160.3216 C   0  0  0  0  0  0  0  0  0  0  0  0
  151.9731  145.1416  159.6859 C   0  0  0  0  0  0  0  0  0  0  0  0
  151.2854  145.1222  158.4553 C   0  0  0  0  0  0  0  0  0  0  0  0
  150.9276  143.9418  157.9032 N   0  3  0  0  0  0  0  0  0  0  0  0
  146.5607  142.3369  153.3715 C   0  0  0  0  0  0  0  0  0  0  0  0
  146.1625  143.8272  153.1779 C   0  0  0  0  0  0  0  0  0  0  0  0
  141.9787  147.2707  155.1671 H   0  0  0  0  0  0  0  0  0  0  0  0
  142.3050  145.7231  154.3522 H   0  0  0  0  0  0  0  0  0  0  0  0
  142.7510  147.2561  153.5642 H   0  0  0  0  0  0  0  0  0  0  0  0
  144.3359  143.8845  154.3032 H   0  0  0  0  0  0  0  0  0  0  0  0
  146.8824  144.6328  155.8174 H   0  0  0  0  0  0  0  0  0  0  0  0
  145.3277  144.2648  156.5157 H   0  0  0  0  0  0  0  0  0  0  0  0
  146.8399  142.3386  156.7522 H   0  0  0  0  0  0  0  0  0  0  0  0
  145.5093  141.8860  155.7525 H   0  0  0  0  0  0  0  0  0  0  0  0
  148.5252  142.1935  156.7003 H   0  0  0  0  0  0  0  0  0  0  0  0
  150.8727  140.8333  155.7056 H   0  0  0  0  0  0  0  0  0  0  0  0
  151.1446  142.5487  155.9118 H   0  0  0  0  0  0  0  0  0  0  0  0
  149.8161  141.1430  158.2305 H   0  0  0  0  0  0  0  0  0  0  0  0
  151.4791  140.7009  157.9363 H   0  0  0  0  0  0  0  0  0  0  0  0
  152.1068  141.7645  160.1877 H   0  0  0  0  0  0  0  0  0  0  0  0
  152.8007  143.9106  161.2655 H   0  0  0  0  0  0  0  0  0  0  0  0
  152.2640  146.0795  160.1361 H   0  0  0  0  0  0  0  0  0  0  0  0
  151.0127  146.0081  157.9003 H   0  0  0  0  0  0  0  0  0  0  0  0
  147.1552  142.0134  152.5163 H   0  0  0  0  0  0  0  0  0  0  0  0
  145.6774  141.6946  153.3606 H   0  0  0  0  0  0  0  0  0  0  0  0
  145.6257  143.9416  152.2354 H   0  0  0  0  0  0  0  0  0  0  0  0
  147.0757  144.4167  153.0796 H   0  0  0  0  0  0  0  0  0  0  0  0
  150.4309  143.9511  157.0121 H   0  0  0  0  0  0  0  0  0  0  0  0
  1  2  1  0  0  0  0
  1 23  1  0  0  0  0
  1 24  1  0  0  0  0
  1 25  1  0  0  0  0
  2  3  2  0  0  0  0
  2  4  2  0  0  0  0
  2  5  1  0  0  0  0
  5  6  1  0  0  0  0
  6 22  1  0  0  0  0
  6  7  1  0  0  0  0
  6 26  1  0  0  0  0
  7  8  1  0  0  0  0
  7 27  1  0  0  0  0
  7 28  1  0  0  0  0
  8  9  1  0  0  0  0
  8 29  1  0  0  0  0
  8 30  1  0  0  0  0
  9 10  1  0  0  0  0
  9 21  1  0  0  0  0
 10 11  2  0  0  0  0
 10 12  1  0  0  0  0
 12 13  1  0  0  0  0
 12 31  1  0  0  0  0
 13 14  1  0  0  0  0
 13 32  1  0  0  0  0
 13 33  1  0  0  0  0
 14 15  1  0  0  0  0
 14 34  1  0  0  0  0
 14 35  1  0  0  0  0
 15 20  1  0  0  0  0
 15 16  2  0  0  0  0
 16 17  1  0  0  0  0
 16 36  1  0  0  0  0
 17 18  2  0  0  0  0
 17 37  1  0  0  0  0
 18 19  1  0  0  0  0
 18 38  1  0  0  0  0
 19 20  2  0  0  0  0
 19 39  1  0  0  0  0
 20 44  1  0  0  0  0
 21 22  1  0  0  0  0
 21 40  1  0  0  0  0
 21 41  1  0  0  0  0
 22 42  1  0  0  0  0
 22 43  1  0  0  0  0
M  CHG  1   5  -1
M  CHG  1  20   1
M  END
> <s_m_source_file>
AV-unprocessed.smi

> <i_m_source_file_index>
1629

> <i_lp_mmshare_version>
43012

> <i_f3d_flags>
0

> <s_epik_input>
W0NIM11TKD1PKSg9TylbTkhdW0NIXTFbQ0gyXVtDSDJdTihbQ0gyXVtDSDJdMSlDKD1PKVtOSF1bQ0gyXVtDSDJdYzJbY0hdW2NIXVtjSF1bY0hdbjI=

> <s_epik_cmdline>
J2VwaWtfcHl0aG9uJywgJy1waCcsICc3LjAnLCAnLXRuJywgJzgnLCAnLW1hJywgJzIwMCcsICctbWV0YWxfYmluZGluZycsICctaW1hZScsICc8aW5maWxlLm1hZT4nLCAnLW9tYWUnLCAnPG91dGZpbGUubWFlPic=

> <r_epik_Ionization_Penalty>
8.25917

> <r_epik_Ionization_Penalty_Charging>
8.2591

> <r_epik_Ionization_Penalty_Neutral>
6.17235e-05

> <r_epik_State_Penalty>
8.35449

> <r_epik_Charging_Adjusted_Penalty>
16.6136

> <i_epik_Tot_Q>
0

> <i_epik_Tot_abs_Q>
2

> <r_epik_Metal_State_Penalty>
4.3175

> <b_epik_Metal_Only>
1

> <s_lp_Force_Field>
OPLS_2005

> <r_lp_Energy>
28.7999

> <b_lp_Chiralities_Consistent>
1

> <s_lp_Variant>
AV-unprocessed.smi:1629-4

> <Gold.Version>
5.8.1

> <Gold.Id.Protein>
6NUR|6NUR_protein|mol2

> <Gold.PLP.Fitness>
48.9483

> <Gold.PLP.PLP>
-42.0550

> <Gold.PLP.part.hbond>
-4.7238

> <Gold.PLP.part.metal>
0.0000

> <Gold.PLP.part.buried>
-4.7881

> <Gold.PLP.part.nonpolar>
-33.8266

> <Gold.PLP.part.repulsive>
1.2891

> <Gold.PLP.ligand.clash>
0.0000

> <Gold.PLP.ligand.torsion>
1.2036

> <Gold.PLP.Chemscore.Hbond>
2.7520

> <Gold.PLP.Chemscore.CHOScore>
0.0000

> <Gold.PLP.Chemscore.Metal>
0.0000

> <Gold.Chemscore.Hbonds>
donor molecule, donor type, donor heavy atom, donor atom, acceptor molecule, acceptor atom, score
      L1  H    20    44       P1  8028  1.30
      P1  H  8011  8017       L1    11  0.74

> <Gold.PLP.Chemscore.Internal.Correction>
1.0445

> <Gold.Rescore>
     Score         DG    S(hbond)    S(metal)    S(lipo)     H(rot)  DE(clash)    DE(int)     intcor
     15.39     -18.64       1.73        0.00     101.85       1.77       0.87       2.38       ----

> <Gold.Chemscore.Fitness>
15.3923

> <Gold.Chemscore.DG>
-18.6449

> <Gold.Chemscore.ZeroCoef>
-5.4800

> <Gold.Chemscore.Hbond>
1.7274

> <Gold.Chemscore.Metal>
0.0000

> <Gold.Chemscore.Lipo>
101.8515

> <Gold.Chemscore.Internal_Hbond>
0.0000

> <Gold.Chemscore.DEClash>
0.8699

> <Gold.Chemscore.DEInternal>
2.3827

> <Gold.Chemscore.Rot>
1.7661

> <Gold.Chemscore.Internal.Correction>
   9.000000E+99

> <Gold.Chemscore.Hbonds>
donor molecule, donor type, donor heavy atom, donor atom, acceptor molecule, acceptor atom, score
      L1  H    20    44       P1  8028  0.61
      P1  H  7989  7998       L1    11  0.01
      P1  H  8011  8017       L1    11  0.74

> <Gold.Chemscore.Hbond.Weighted>
-5.7694

> <Gold.Chemscore.Metal.Weighted>
-0.0000

> <Gold.Chemscore.Lipo.Weighted>
-11.9166

> <Gold.Chemscore.Internal_Hbond.Weighted>
0.0000

> <Gold.Chemscore.DEClash.Weighted>
0.8699

> <Gold.Chemscore.DEInternal.Weighted>
2.3827

> <Gold.Chemscore.Rot.Weighted>
4.5211

> <Gold.Chemscore.Internal.Correction.Weighted>
   9.000000E+99

> <Gold.Protein.RotatedTorsions>
[ 6907 6896 6895 6894 ] final  111.14 input  -60.11 | X-H torsion
[ 7974 7965 7964 7962 ] final   82.28 input  175.53 | X-H torsion
[ 8008 7997 7996 7995 ] final -158.51 input   59.86 | X-H torsion
[ 10167 10162 10161 10158 ] final    6.18 input  -65.29 | X-H torsion
[ 10718 10713 10712 10709 ] final -100.03 input   66.30 | X-H torsion
[ 10763 10752 10751 10750 ] final   37.03 input  -60.55 | X-H torsion
[ 11005 11000 10999 10996 ] final  -69.37 input  -57.11 | X-H torsion

> <Gold.Protein.ActiveResidues>
 VAL166  LYS551  ARG553  GLY616  TRP617  ASP618  TYR619  PRO620  LYS621  CYS622 
 ASP623  PHE694  ASN695  SER759  ASP760  ASP761  ALA762  ILE779  LEU786  VAL792 
 PHE793  MET794  SER795  GLU796  ALA797  LYS798  CYS799  TRP800  GLU811  SER814 

> <Gold.Protein.RotatedAtoms>
  152.4984  133.8700  159.7293 H   0  0  0  0  0  0  0  0  0  0  0  0  # atno 6907 bound_to 6896
  150.9189  133.6896  159.2843 H   0  0  0  0  0  0  0  0  0  0  0  0  # atno 6908 bound_to 6896
  151.4280  135.1010  159.9686 H   0  0  0  0  0  0  0  0  0  0  0  0  # atno 6909 bound_to 6896
  145.6271  139.2397  143.2106 H   0  0  0  0  0  0  0  0  0  0  0  0  # atno 7974 bound_to 7965
  155.7486  140.0823  157.2212 H   0  0  0  0  0  0  0  0  0  0  0  0  # atno 8008 bound_to 7997
  154.4014  140.1564  156.2753 H   0  0  0  0  0  0  0  0  0  0  0  0  # atno 8009 bound_to 7997
  155.8952  140.3413  155.5988 H   0  0  0  0  0  0  0  0  0  0  0  0  # atno 8010 bound_to 7997
  140.6442  143.7703  150.7473 H   0  0  0  0  0  0  0  0  0  0  0  0  # atno 10167 bound_to 10162
  156.0151  130.5309  150.6757 H   0  0  0  0  0  0  0  0  0  0  0  0  # atno 10718 bound_to 10713
  153.0053  135.6289  154.2080 H   0  0  0  0  0  0  0  0  0  0  0  0  # atno 10763 bound_to 10752
  154.1823  135.2813  155.3050 H   0  0  0  0  0  0  0  0  0  0  0  0  # atno 10764 bound_to 10752
  154.5825  135.5643  153.7258 H   0  0  0  0  0  0  0  0  0  0  0  0  # atno 10765 bound_to 10752
  141.1552  133.6763  156.6589 H   0  0  0  0  0  0  0  0  0  0  0  0  # atno 11005 bound_to 11000
  146.1386  140.7089  142.9378 LP  0  0  0  0  0  0  0  0  0  0  0  0  # atno 17320 bound_to 7965
  144.7208  140.4366  143.7009 LP  0  0  0  0  0  0  0  0  0  0  0  0  # atno 17321 bound_to 7965
  140.1340  143.4500  152.2236 LP  0  0  0  0  0  0  0  0  0  0  0  0  # atno 17342 bound_to 10162
  139.5651  144.7430  151.4044 LP  0  0  0  0  0  0  0  0  0  0  0  0  # atno 17343 bound_to 10162
  157.4470  131.0868  151.0885 LP  0  0  0  0  0  0  0  0  0  0  0  0  # atno 17370 bound_to 10713
  157.1412  130.6144  149.5555 LP  0  0  0  0  0  0  0  0  0  0  0  0  # atno 17371 bound_to 10713
  140.3263  134.7966  157.4291 LP  0  0  0  0  0  0  0  0  0  0  0  0  # atno 17394 bound_to 11000
  140.1054  134.5416  155.8314 LP  0  0  0  0  0  0  0  0  0  0  0  0  # atno 17395 bound_to 11000

$$$$
