AV-unprocessed.smi:258|AV-procd|sdf|1969|dock10
  -GOLD-   2262021133D 1   1.00000     0.00000
 Structure written by MMmdl.
 57 60  0  0  0  0  0  0  0  0  1 V2000
  143.2880  134.2126  148.1728 O   0  0  0  0  0  0  0  0  0  0  0  0
  143.7032  132.8672  148.2758 C   0  0  0  0  0  0  0  0  0  0  0  0
  143.5039  132.3600  149.7093 C   0  0  0  0  0  0  0  0  0  0  0  0
  144.3935  133.0538  150.5720 O   0  0  0  0  0  0  0  0  0  0  0  0
  145.4979  132.2827  151.0271 C   0  0  2  0  0  0  0  0  0  0  0  0
  145.0585  130.8548  151.4057 C   0  0  0  0  0  0  0  0  0  0  0  0
  146.2330  130.0872  152.0308 C   0  0  0  0  0  0  0  0  0  0  0  0
  146.8185  130.8481  153.2315 C   0  0  0  0  0  0  0  0  0  0  0  0
  147.1599  132.2236  152.8641 N   0  0  0  0  0  0  0  0  0  0  0  0
  148.0500  132.8556  153.6736 C   0  0  0  0  0  0  0  0  0  0  0  0
  149.1607  132.1621  154.0377 N   0  0  0  0  0  0  0  0  0  0  0  0
  150.0882  132.7227  154.8184 C   0  0  0  0  0  0  0  0  0  0  0  0
  150.1070  133.9487  155.3420 N   0  0  0  0  0  0  0  0  0  0  0  0
  148.9933  134.6514  154.9902 C   0  0  0  0  0  0  0  0  0  0  0  0
  147.9239  134.1902  154.1680 C   0  0  0  0  0  0  0  0  0  0  0  0
  146.9675  135.1945  154.0482 N   0  0  0  0  0  0  0  0  0  0  0  0
  147.4464  136.1871  154.7458 C   0  0  0  0  0  0  0  0  0  0  0  0
  148.6579  135.9443  155.3497 N   0  0  0  0  0  0  0  0  0  0  0  0
  149.4187  136.8622  156.1782 C   0  0  0  0  0  0  0  0  0  0  0  0
  150.6901  137.4162  155.4896 C   0  0  2  0  0  0  0  0  0  0  0  0
  151.9626  137.2799  156.3653 C   0  0  0  0  0  0  0  0  0  0  0  0
  152.2725  135.9261  156.6238 O   0  0  0  0  0  0  0  0  0  0  0  0
  150.4357  138.8652  155.0003 C   0  0  1  0  0  0  0  0  0  0  0  0
  149.1007  139.1152  154.3073 C   0  0  0  0  0  0  0  0  0  0  0  0
  148.8793  140.5985  154.5673 C   0  0  0  0  0  0  0  0  0  0  0  0
  149.3230  140.7511  155.9052 O   0  0  0  0  0  0  0  0  0  0  0  0
  150.4866  139.9513  156.0895 C   0  0  0  0  0  0  0  0  0  0  0  0
  146.0836  133.0028  152.2540 C   0  0  0  0  0  0  0  0  0  0  0  0
  144.0542  134.7566  148.0720 H   0  0  0  0  0  0  0  0  0  0  0  0
  143.0923  132.2815  147.5887 H   0  0  0  0  0  0  0  0  0  0  0  0
  144.7404  132.7612  147.9569 H   0  0  0  0  0  0  0  0  0  0  0  0
  142.4629  132.4648  150.0170 H   0  0  0  0  0  0  0  0  0  0  0  0
  143.7454  131.2968  149.7459 H   0  0  0  0  0  0  0  0  0  0  0  0
  146.2685  132.2404  150.2548 H   0  0  0  0  0  0  0  0  0  0  0  0
  144.2300  130.8995  152.1137 H   0  0  0  0  0  0  0  0  0  0  0  0
  144.6954  130.3135  150.5327 H   0  0  0  0  0  0  0  0  0  0  0  0
  145.9087  129.0939  152.3420 H   0  0  0  0  0  0  0  0  0  0  0  0
  147.0108  129.9385  151.2807 H   0  0  0  0  0  0  0  0  0  0  0  0
  146.0917  130.8764  154.0442 H   0  0  0  0  0  0  0  0  0  0  0  0
  147.6855  130.3043  153.6070 H   0  0  0  0  0  0  0  0  0  0  0  0
  150.9383  132.1001  155.0556 H   0  0  0  0  0  0  0  0  0  0  0  0
  146.9220  137.1264  154.8444 H   0  0  0  0  0  0  0  0  0  0  0  0
  148.7544  137.6805  156.4582 H   0  0  0  0  0  0  0  0  0  0  0  0
  149.6834  136.3506  157.1045 H   0  0  0  0  0  0  0  0  0  0  0  0
  150.8519  136.8272  154.5853 H   0  0  0  0  0  0  0  0  0  0  0  0
  152.8313  137.7166  155.8742 H   0  0  0  0  0  0  0  0  0  0  0  0
  151.8422  137.8064  157.3125 H   0  0  0  0  0  0  0  0  0  0  0  0
  151.5186  135.3979  156.4095 H   0  0  0  0  0  0  0  0  0  0  0  0
  151.2204  139.1189  154.2851 H   0  0  0  0  0  0  0  0  0  0  0  0
  149.1199  138.8715  153.2448 H   0  0  0  0  0  0  0  0  0  0  0  0
  148.2942  138.5467  154.7696 H   0  0  0  0  0  0  0  0  0  0  0  0
  149.4937  141.2091  153.9039 H   0  0  0  0  0  0  0  0  0  0  0  0
  147.8377  140.8989  154.4510 H   0  0  0  0  0  0  0  0  0  0  0  0
  150.5028  139.5508  157.1027 H   0  0  0  0  0  0  0  0  0  0  0  0
  151.3772  140.5696  155.9701 H   0  0  0  0  0  0  0  0  0  0  0  0
  146.4556  133.9809  151.9463 H   0  0  0  0  0  0  0  0  0  0  0  0
  145.3007  133.1682  152.9953 H   0  0  0  0  0  0  0  0  0  0  0  0
  1  2  1  0  0  0  0
  1 29  1  0  0  0  0
  2  3  1  0  0  0  0
  2 30  1  0  0  0  0
  2 31  1  0  0  0  0
  3  4  1  0  0  0  0
  3 32  1  0  0  0  0
  3 33  1  0  0  0  0
  4  5  1  0  0  0  0
  5 28  1  0  0  0  0
  5  6  1  0  0  0  0
  5 34  1  0  0  0  0
  6  7  1  0  0  0  0
  6 35  1  0  0  0  0
  6 36  1  0  0  0  0
  7  8  1  0  0  0  0
  7 37  1  0  0  0  0
  7 38  1  0  0  0  0
  8  9  1  0  0  0  0
  8 39  1  0  0  0  0
  8 40  1  0  0  0  0
  9 10  1  0  0  0  0
  9 28  1  0  0  0  0
 10 15  1  0  0  0  0
 10 11  2  0  0  0  0
 11 12  1  0  0  0  0
 12 13  2  0  0  0  0
 12 41  1  0  0  0  0
 13 14  1  0  0  0  0
 14 18  1  0  0  0  0
 14 15  2  0  0  0  0
 15 16  1  0  0  0  0
 16 17  2  0  0  0  0
 17 18  1  0  0  0  0
 17 42  1  0  0  0  0
 18 19  1  0  0  0  0
 19 20  1  0  0  0  0
 19 43  1  0  0  0  0
 19 44  1  0  0  0  0
 20 21  1  0  0  0  0
 20 23  1  0  0  0  0
 20 45  1  0  0  0  0
 21 22  1  0  0  0  0
 21 46  1  0  0  0  0
 21 47  1  0  0  0  0
 22 48  1  0  0  0  0
 23 27  1  0  0  0  0
 23 24  1  0  0  0  0
 23 49  1  0  0  0  0
 24 25  1  0  0  0  0
 24 50  1  0  0  0  0
 24 51  1  0  0  0  0
 25 26  1  0  0  0  0
 25 52  1  0  0  0  0
 25 53  1  0  0  0  0
 26 27  1  0  0  0  0
 27 54  1  0  0  0  0
 27 55  1  0  0  0  0
 28 56  1  0  0  0  0
 28 57  1  0  0  0  0
M  END
> <s_m_source_file>
AV-unprocessed.smi

> <i_m_source_file_index>
258

> <i_lp_mmshare_version>
43012

> <i_f3d_flags>
0

> <s_epik_input>
W09IXVtDSDJdW0NIMl1PW0NAQEhdMVtDSDJdW0NIMl1bQ0gyXU4oW0NIMl0xKWMobltjSF1uMiljKGMyMyluW2NIXW4zW0NIMl1bQ0BIXShbQ0gyXVtPSF0pW0NAQEhdNFtDSDJdW0NIMl1PW0NIMl00

> <s_epik_cmdline>
J2VwaWtfcHl0aG9uJywgJy1waCcsICc3LjAnLCAnLXRuJywgJzgnLCAnLW1hJywgJzIwMCcsICctbWV0YWxfYmluZGluZycsICctaW1hZScsICc8aW5maWxlLm1hZT4nLCAnLW9tYWUnLCAnPG91dGZpbGUubWFlPic=

> <r_lp_tautomer_probability>
1

> <r_epik_Ionization_Penalty>
0.00349036

> <r_epik_Ionization_Penalty_Charging>
0

> <r_epik_Ionization_Penalty_Neutral>
0.00349036

> <r_epik_State_Penalty>
0.00229798

> <r_epik_Charging_Adjusted_Penalty>
0.00229798

> <i_epik_Tot_Q>
0

> <i_epik_Tot_abs_Q>
0

> <r_epik_Metal_State_Penalty>
-0

> <b_epik_Metal_Only>
0

> <s_lp_Force_Field>
OPLS_2005

> <r_lp_Energy>
47.936

> <b_lp_Chiralities_Consistent>
1

> <s_lp_Variant>
AV-unprocessed.smi:258-5

> <Gold.Version>
5.8.1

> <Gold.Id.Protein>
6NUR|6NUR_protein|mol2

> <Gold.PLP.Fitness>
52.2840

> <Gold.PLP.PLP>
-46.4015

> <Gold.PLP.part.hbond>
-4.4266

> <Gold.PLP.part.metal>
0.0000

> <Gold.PLP.part.buried>
-3.9214

> <Gold.PLP.part.nonpolar>
-38.9909

> <Gold.PLP.part.repulsive>
1.2838

> <Gold.PLP.ligand.clash>
0.0119

> <Gold.PLP.ligand.torsion>
1.8852

> <Gold.PLP.Chemscore.Hbond>
3.0000

> <Gold.PLP.Chemscore.CHOScore>
0.0000

> <Gold.PLP.Chemscore.Metal>
0.0000

> <Gold.Chemscore.Hbonds>
donor molecule, donor type, donor heavy atom, donor atom, acceptor molecule, acceptor atom, score
      L1  H     1    29       P1  7921  0.75
      P1  H 10192 10197       L1     1  1.00
      P1  H 10752 10763       L1    22  1.00

> <Gold.PLP.Chemscore.Internal.Correction>
0.6648

> <Gold.Rescore>
     Score         DG    S(hbond)    S(metal)    S(lipo)     H(rot)  DE(clash)    DE(int)     intcor
     13.56     -16.68       2.81        0.00     101.78       3.94       0.09       3.03       ----

> <Gold.Chemscore.Fitness>
13.5647

> <Gold.Chemscore.DG>
-16.6841

> <Gold.Chemscore.ZeroCoef>
-5.4800

> <Gold.Chemscore.Hbond>
2.8057

> <Gold.Chemscore.Metal>
0.0000

> <Gold.Chemscore.Lipo>
101.7803

> <Gold.Chemscore.Internal_Hbond>
0.0000

> <Gold.Chemscore.DEClash>
0.0852

> <Gold.Chemscore.DEInternal>
3.0342

> <Gold.Chemscore.Rot>
3.9356

> <Gold.Chemscore.Internal.Correction>
   9.000000E+99

> <Gold.Chemscore.Hbonds>
donor molecule, donor type, donor heavy atom, donor atom, acceptor molecule, acceptor atom, score
      L1  H     1    29       P1  7921  0.72
      P1  H 10192 10197       L1     1  0.30
      P1  H 10752 10763       L1    22  0.22

> <Gold.Chemscore.Hbond.Weighted>
-9.3709

> <Gold.Chemscore.Metal.Weighted>
-0.0000

> <Gold.Chemscore.Lipo.Weighted>
-11.9083

> <Gold.Chemscore.Internal_Hbond.Weighted>
0.0000

> <Gold.Chemscore.DEClash.Weighted>
0.0852

> <Gold.Chemscore.DEInternal.Weighted>
3.0342

> <Gold.Chemscore.Rot.Weighted>
10.0751

> <Gold.Chemscore.Internal.Correction.Weighted>
   9.000000E+99

> <Gold.Protein.RotatedTorsions>
[ 6907 6896 6895 6894 ] final    0.40 input  -60.11 | X-H torsion
[ 7974 7965 7964 7962 ] final  115.17 input  175.53 | X-H torsion
[ 8008 7997 7996 7995 ] final  -69.07 input   59.86 | X-H torsion
[ 10167 10162 10161 10158 ] final   37.39 input  -65.29 | X-H torsion
[ 10718 10713 10712 10709 ] final  117.00 input   66.30 | X-H torsion
[ 10763 10752 10751 10750 ] final  119.23 input  -60.55 | X-H torsion
[ 11005 11000 10999 10996 ] final -116.09 input  -57.11 | X-H torsion

> <Gold.Protein.ActiveResidues>
 VAL166  LYS551  ARG553  GLY616  TRP617  ASP618  TYR619  PRO620  LYS621  CYS622 
 ASP623  PHE694  ASN695  SER759  ASP760  ASP761  ALA762  ILE779  LEU786  VAL792 
 PHE793  MET794  SER795  GLU796  ALA797  LYS798  CYS799  TRP800  GLU811  SER814 

> <Gold.Protein.RotatedAtoms>
  151.5758  135.1060  160.0005 H   0  0  0  0  0  0  0  0  0  0  0  0  # atno 6907 bound_to 6896
  152.4378  133.7389  159.6640 H   0  0  0  0  0  0  0  0  0  0  0  0  # atno 6908 bound_to 6896
  150.8279  133.8072  159.3134 H   0  0  0  0  0  0  0  0  0  0  0  0  # atno 6909 bound_to 6896
  145.1953  139.2979  143.4347 H   0  0  0  0  0  0  0  0  0  0  0  0  # atno 7974 bound_to 7965
  154.4913  140.0860  156.7599 H   0  0  0  0  0  0  0  0  0  0  0  0  # atno 8008 bound_to 7997
  155.4225  140.3446  155.4254 H   0  0  0  0  0  0  0  0  0  0  0  0  # atno 8009 bound_to 7997
  156.1333  140.1507  156.9020 H   0  0  0  0  0  0  0  0  0  0  0  0  # atno 8010 bound_to 7997
  140.4037  144.1688  150.6135 H   0  0  0  0  0  0  0  0  0  0  0  0  # atno 10167 bound_to 10162
  157.6124  131.1032  150.7553 H   0  0  0  0  0  0  0  0  0  0  0  0  # atno 10718 bound_to 10713
  153.5798  135.3486  155.2870 H   0  0  0  0  0  0  0  0  0  0  0  0  # atno 10763 bound_to 10752
  154.8669  135.4179  154.2633 H   0  0  0  0  0  0  0  0  0  0  0  0  # atno 10764 bound_to 10752
  153.3417  135.7050  153.6932 H   0  0  0  0  0  0  0  0  0  0  0  0  # atno 10765 bound_to 10752
  141.0445  133.9784  157.2940 H   0  0  0  0  0  0  0  0  0  0  0  0  # atno 11005 bound_to 11000
  146.3428  140.2179  142.8591 LP  0  0  0  0  0  0  0  0  0  0  0  0  # atno 17320 bound_to 7965
  145.0001  140.8624  143.5287 LP  0  0  0  0  0  0  0  0  0  0  0  0  # atno 17321 bound_to 7965
  140.4712  143.2412  151.9086 LP  0  0  0  0  0  0  0  0  0  0  0  0  # atno 17342 bound_to 10162
  139.4784  144.5367  151.8587 LP  0  0  0  0  0  0  0  0  0  0  0  0  # atno 17343 bound_to 10162
  156.7928  130.4895  149.5382 LP  0  0  0  0  0  0  0  0  0  0  0  0  # atno 17370 bound_to 10713
  156.1233  130.6125  151.0225 LP  0  0  0  0  0  0  0  0  0  0  0  0  # atno 17371 bound_to 10713
  139.9301  135.0200  156.8370 LP  0  0  0  0  0  0  0  0  0  0  0  0  # atno 17394 bound_to 11000
  140.6173  134.0027  155.7602 LP  0  0  0  0  0  0  0  0  0  0  0  0  # atno 17395 bound_to 11000

$$$$
