AV-unprocessed.smi:37|AV-procd|sdf|325|dock1
  -GOLD-   2262016153D 1   1.00000     0.00000
 Structure written by MMmdl.
 43 44  0  0  0  0  0  0  0  0  2 V2000
  146.3335  134.7171  162.3290 C   0  0  0  0  0  0  0  0  0  0  0  0
  147.7582  134.8904  161.7851 C   0  0  0  0  0  0  0  0  0  0  0  0
  147.8266  135.9976  160.7381 C   0  0  0  0  0  0  0  0  0  0  0  0
  147.5310  137.1599  161.0160 O   0  0  0  0  0  0  0  0  0  0  0  0
  148.2063  135.5399  159.5299 O   0  0  0  0  0  0  0  0  0  0  0  0
  148.3763  136.4309  158.4352 C   0  0  0  0  0  0  0  0  0  0  0  0
  149.4186  135.8624  157.4587 C   0  0  2  0  0  0  0  0  0  0  0  0
  150.7149  136.1096  157.9981 O   0  0  0  0  0  0  0  0  0  0  0  0
  151.4956  136.7807  157.0611 C   0  0  2  0  0  0  0  0  0  0  0  0
  152.5064  137.6799  157.7444 N   0  0  0  0  0  0  0  0  0  0  0  0
  152.0322  138.6643  158.5926 C   0  0  0  0  0  0  0  0  0  0  0  0
  152.8683  139.5117  159.2258 C   0  0  0  0  0  0  0  0  0  0  0  0
  152.3720  140.4515  160.0487 F   0  0  0  0  0  0  0  0  0  0  0  0
  154.3090  139.3994  159.0112 C   0  0  0  0  0  0  0  0  0  0  0  0
  155.0688  140.1651  159.6023 O   0  0  0  0  0  0  0  0  0  0  0  0
  154.7511  138.4375  158.1513 N   0  5  0  0  0  0  0  0  0  0  0  0
  153.9085  137.5825  157.5005 C   0  0  0  0  0  0  0  0  0  0  0  0
  154.3117  136.7331  156.7069 O   0  0  0  0  0  0  0  0  0  0  0  0
  150.5599  137.4666  156.0535 C   0  0  2  0  0  0  0  0  0  0  0  0
  149.9068  139.2811  156.5689 Br  0  0  0  0  0  0  0  0  0  0  0  0
  149.3805  136.5108  156.0625 C   0  0  1  0  0  0  0  0  0  0  0  0
  149.5529  135.4925  155.0831 O   0  0  0  0  0  0  0  0  0  0  0  0
  148.5959  134.5670  154.8829 C   0  0  0  0  0  0  0  0  0  0  0  0
  147.5114  134.5079  155.4621 O   0  0  0  0  0  0  0  0  0  0  0  0
  148.9886  133.5355  153.8282 C   0  0  0  0  0  0  0  0  0  0  0  0
  148.0531  133.5649  152.6123 C   0  0  0  0  0  0  0  0  0  0  0  0
  146.3022  133.9293  163.0814 H   0  0  0  0  0  0  0  0  0  0  0  0
  145.6323  134.4474  161.5383 H   0  0  0  0  0  0  0  0  0  0  0  0
  145.9743  135.6349  162.7958 H   0  0  0  0  0  0  0  0  0  0  0  0
  148.4429  135.1279  162.5997 H   0  0  0  0  0  0  0  0  0  0  0  0
  148.1054  133.9579  161.3391 H   0  0  0  0  0  0  0  0  0  0  0  0
  147.4392  136.6536  157.9237 H   0  0  0  0  0  0  0  0  0  0  0  0
  148.7393  137.3773  158.8365 H   0  0  0  0  0  0  0  0  0  0  0  0
  149.2804  134.7823  157.3872 H   0  0  0  0  0  0  0  0  0  0  0  0
  152.0912  136.0108  156.5678 H   0  0  0  0  0  0  0  0  0  0  0  0
  150.9692  138.7562  158.7608 H   0  0  0  0  0  0  0  0  0  0  0  0
  151.0429  137.5568  155.0802 H   0  0  0  0  0  0  0  0  0  0  0  0
  148.4448  137.0417  155.8921 H   0  0  0  0  0  0  0  0  0  0  0  0
  150.0157  133.7243  153.5158 H   0  0  0  0  0  0  0  0  0  0  0  0
  148.9738  132.5443  154.2826 H   0  0  0  0  0  0  0  0  0  0  0  0
  148.3329  132.7936  151.8947 H   0  0  0  0  0  0  0  0  0  0  0  0
  148.0960  134.5252  152.0970 H   0  0  0  0  0  0  0  0  0  0  0  0
  147.0180  133.3846  152.9041 H   0  0  0  0  0  0  0  0  0  0  0  0
  1  2  1  0  0  0  0
  1 27  1  0  0  0  0
  1 28  1  0  0  0  0
  1 29  1  0  0  0  0
  2  3  1  0  0  0  0
  2 30  1  0  0  0  0
  2 31  1  0  0  0  0
  3  4  2  0  0  0  0
  3  5  1  0  0  0  0
  5  6  1  0  0  0  0
  6  7  1  0  0  0  0
  6 32  1  0  0  0  0
  6 33  1  0  0  0  0
  7 21  1  0  0  0  0
  7  8  1  0  0  0  0
  7 34  1  0  0  0  0
  8  9  1  0  0  0  0
  9 10  1  0  0  0  0
  9 19  1  0  0  0  0
  9 35  1  0  0  0  0
 10 17  1  0  0  0  0
 10 11  1  0  0  0  0
 11 12  2  0  0  0  0
 11 36  1  0  0  0  0
 12 13  1  0  0  0  0
 12 14  1  0  0  0  0
 14 15  2  0  0  0  0
 14 16  1  0  0  0  0
 16 17  1  0  0  0  0
 17 18  2  0  0  0  0
 19 20  1  0  0  0  0
 19 21  1  0  0  0  0
 19 37  1  0  0  0  0
 21 22  1  0  0  0  0
 21 38  1  0  0  0  0
 22 23  1  0  0  0  0
 23 24  2  0  0  0  0
 23 25  1  0  0  0  0
 25 26  1  0  0  0  0
 25 39  1  0  0  0  0
 25 40  1  0  0  0  0
 26 41  1  0  0  0  0
 26 42  1  0  0  0  0
 26 43  1  0  0  0  0
M  CHG  1  16  -1
M  END
> <s_m_source_file>
AV-unprocessed.smi

> <i_m_source_file_index>
37

> <i_lp_mmshare_version>
43012

> <i_f3d_flags>
0

> <s_epik_input>
W0NIM11bQ0gyXUMoPU8pT1tDSDJdW0NAQEhdMU9bQ0BASF0objJbY0hdYyhGKWMoPU8pW25IXWMyPU8pW0NAQEhdKEJyKVtDQEhdMU9DKD1PKVtDSDJdW0NIM10=

> <s_epik_cmdline>
J2VwaWtfcHl0aG9uJywgJy1waCcsICc3LjAnLCAnLXRuJywgJzgnLCAnLW1hJywgJzIwMCcsICctbWV0YWxfYmluZGluZycsICctaW1hZScsICc8aW5maWxlLm1hZT4nLCAnLW9tYWUnLCAnPG91dGZpbGUubWFlPic=

> <r_epik_Ionization_Penalty>
1.08158

> <r_epik_Ionization_Penalty_Charging>
9.05154e-09

> <r_epik_Ionization_Penalty_Neutral>
1.08158

> <r_epik_State_Penalty>
1.13706

> <r_epik_Charging_Adjusted_Penalty>
1.13706

> <i_epik_Tot_Q>
-1

> <i_epik_Tot_abs_Q>
1

> <r_epik_Metal_State_Penalty>
0.00343535

> <b_epik_Metal_Only>
0

> <s_epik_Chemistry_Notes>
This compound has an ester and may undergo hydrolysis at high or low pH. This compound contains an acetal/aminal-like group ( X-CH(R)-Y where X, Y are N, S, or O) that may be acid/base labile, releasing an aldehyde.

> <s_lp_Force_Field>
OPLS_2005

> <r_lp_Energy>
32.7064

> <b_lp_Chiralities_Consistent>
1

> <s_lp_Variant>
AV-unprocessed.smi:37-23

> <Gold.Version>
5.8.1

> <Gold.Id.Protein>
6NUR|6NUR_protein|mol2

> <Gold.PLP.Fitness>
39.6386

> <Gold.PLP.PLP>
-30.5626

> <Gold.PLP.part.hbond>
-5.8601

> <Gold.PLP.part.metal>
0.0000

> <Gold.PLP.part.buried>
-3.1672

> <Gold.PLP.part.nonpolar>
-22.0327

> <Gold.PLP.part.repulsive>
0.1382

> <Gold.PLP.ligand.clash>
0.0382

> <Gold.PLP.ligand.torsion>
0.4178

> <Gold.PLP.Chemscore.Hbond>
3.2320

> <Gold.PLP.Chemscore.CHOScore>
0.0000

> <Gold.PLP.Chemscore.Metal>
0.0000

> <Gold.Chemscore.Hbonds>
donor molecule, donor type, donor heavy atom, donor atom, acceptor molecule, acceptor atom, score
      P1  H  6896  6907       L1     8  0.40
      P1  H  6931  6943       L1     4  0.83
      P1  H  6934  6947       L1     4  0.98
      P1  H 10752 10763       L1    18  0.75

> <Gold.PLP.Chemscore.Internal.Correction>
0.2538

> <Gold.Rescore>
     Score         DG    S(hbond)    S(metal)    S(lipo)     H(rot)  DE(clash)    DE(int)     intcor
     12.81     -14.43       3.35        0.00      52.43       3.27       0.00       1.61       ----

> <Gold.Chemscore.Fitness>
12.8102

> <Gold.Chemscore.DG>
-14.4267

> <Gold.Chemscore.ZeroCoef>
-5.4800

> <Gold.Chemscore.Hbond>
3.3462

> <Gold.Chemscore.Metal>
0.0000

> <Gold.Chemscore.Lipo>
52.4260

> <Gold.Chemscore.Internal_Hbond>
0.0000

> <Gold.Chemscore.DEClash>
0.0024

> <Gold.Chemscore.DEInternal>
1.6142

> <Gold.Chemscore.Rot>
3.2669

> <Gold.Chemscore.Internal.Correction>
   9.000000E+99

> <Gold.Chemscore.Hbonds>
donor molecule, donor type, donor heavy atom, donor atom, acceptor molecule, acceptor atom, score
      P1  H  6896  6907       L1     8  0.37
      P1  H  6931  6943       L1     4  0.71
      P1  H  6934  6947       L1     4  0.93
      P1  H 10752 10763       L1    18  0.74

> <Gold.Chemscore.Hbond.Weighted>
-11.1762

> <Gold.Chemscore.Metal.Weighted>
-0.0000

> <Gold.Chemscore.Lipo.Weighted>
-6.1338

> <Gold.Chemscore.Internal_Hbond.Weighted>
0.0000

> <Gold.Chemscore.DEClash.Weighted>
0.0024

> <Gold.Chemscore.DEInternal.Weighted>
1.6142

> <Gold.Chemscore.Rot.Weighted>
8.3634

> <Gold.Chemscore.Internal.Correction.Weighted>
   9.000000E+99

> <Gold.Protein.RotatedTorsions>
[ 6907 6896 6895 6894 ] final  -26.86 input  -60.11 | X-H torsion
[ 7974 7965 7964 7962 ] final    4.39 input  175.53 | X-H torsion
[ 8008 7997 7996 7995 ] final   95.68 input   59.86 | X-H torsion
[ 10167 10162 10161 10158 ] final   78.07 input  -65.29 | X-H torsion
[ 10718 10713 10712 10709 ] final  124.26 input   66.30 | X-H torsion
[ 10763 10752 10751 10750 ] final  132.14 input  -60.55 | X-H torsion
[ 11005 11000 10999 10996 ] final   42.65 input  -57.11 | X-H torsion

> <Gold.Protein.ActiveResidues>
 VAL166  LYS551  ARG553  GLY616  TRP617  ASP618  TYR619  PRO620  LYS621  CYS622 
 ASP623  PHE694  ASN695  SER759  ASP760  ASP761  ALA762  ILE779  LEU786  VAL792 
 PHE793  MET794  SER795  GLU796  ALA797  LYS798  CYS799  TRP800  GLU811  SER814 

> <Gold.Protein.RotatedAtoms>
  151.1549  135.0245  159.8684 H   0  0  0  0  0  0  0  0  0  0  0  0  # atno 6907 bound_to 6896
  152.5452  134.1345  159.8463 H   0  0  0  0  0  0  0  0  0  0  0  0  # atno 6908 bound_to 6896
  151.1434  133.4910  159.2629 H   0  0  0  0  0  0  0  0  0  0  0  0  # atno 6909 bound_to 6896
  146.2444  140.0541  142.8373 H   0  0  0  0  0  0  0  0  0  0  0  0  # atno 7974 bound_to 7965
  156.0715  140.3283  155.7582 H   0  0  0  0  0  0  0  0  0  0  0  0  # atno 8008 bound_to 7997
  155.5297  140.0592  157.2908 H   0  0  0  0  0  0  0  0  0  0  0  0  # atno 8009 bound_to 7997
  154.4533  140.1929  156.0472 H   0  0  0  0  0  0  0  0  0  0  0  0  # atno 8010 bound_to 7997
  139.9748  144.5868  150.7953 H   0  0  0  0  0  0  0  0  0  0  0  0  # atno 10167 bound_to 10162
  157.5599  131.1090  150.8556 H   0  0  0  0  0  0  0  0  0  0  0  0  # atno 10718 bound_to 10713
  153.7859  135.3162  155.3372 H   0  0  0  0  0  0  0  0  0  0  0  0  # atno 10763 bound_to 10752
  154.8144  135.4646  154.0606 H   0  0  0  0  0  0  0  0  0  0  0  0  # atno 10764 bound_to 10752
  153.1909  135.6908  153.8440 H   0  0  0  0  0  0  0  0  0  0  0  0  # atno 10765 bound_to 10752
  140.1719  134.4211  155.8252 H   0  0  0  0  0  0  0  0  0  0  0  0  # atno 11005 bound_to 11000
  145.0958  140.9314  143.4742 LP  0  0  0  0  0  0  0  0  0  0  0  0  # atno 17320 bound_to 7965
  145.0723  139.3022  143.5825 LP  0  0  0  0  0  0  0  0  0  0  0  0  # atno 17321 bound_to 7965
  140.7509  143.2964  151.3194 LP  0  0  0  0  0  0  0  0  0  0  0  0  # atno 17342 bound_to 10162
  139.6454  144.0462  152.2586 LP  0  0  0  0  0  0  0  0  0  0  0  0  # atno 17343 bound_to 10162
  156.9057  130.5262  149.5281 LP  0  0  0  0  0  0  0  0  0  0  0  0  # atno 17370 bound_to 10713
  156.0653  130.5697  150.9276 LP  0  0  0  0  0  0  0  0  0  0  0  0  # atno 17371 bound_to 10713
  141.2218  133.6960  156.7779 LP  0  0  0  0  0  0  0  0  0  0  0  0  # atno 17394 bound_to 11000
  140.2367  134.8645  157.3532 LP  0  0  0  0  0  0  0  0  0  0  0  0  # atno 17395 bound_to 11000

$$$$
