AV-unprocessed.smi:34|AV-procd|sdf|235|dock9
  -GOLD-   2262015573D 1   1.00000     0.00000
 Structure written by MMmdl.
 54 58  0  0  0  0  0  0  0  0  2 V2000
  152.4627  139.7034  159.0402 O   0  0  0  0  0  0  0  0  0  0  0  0
  151.8751  140.5274  158.3358 C   0  0  0  0  0  0  0  0  0  0  0  0
  151.2219  140.3096  157.1660 N   0  5  0  0  0  0  0  0  0  0  0  0
  151.3156  139.1137  156.5647 C   0  0  0  0  0  0  0  0  0  0  0  0
  152.2088  138.9173  155.5609 N   0  0  0  0  0  0  0  0  0  0  0  0
  152.3067  137.7225  154.9663 C   0  0  0  0  0  0  0  0  0  0  0  0
  151.6184  136.6029  155.2106 N   0  0  0  0  0  0  0  0  0  0  0  0
  150.7075  136.7924  156.2095 C   0  0  0  0  0  0  0  0  0  0  0  0
  150.4958  138.0084  156.9221 C   0  0  0  0  0  0  0  0  0  0  0  0
  149.4895  137.8564  157.8653 N   0  0  0  0  0  0  0  0  0  0  0  0
  149.1460  136.5820  157.6891 C   0  0  0  0  0  0  0  0  0  0  0  0
  149.8158  135.8830  156.7502 N   0  0  0  0  0  0  0  0  0  0  0  0
  149.6412  134.4543  156.3574 C   0  0  2  0  0  0  0  0  0  0  0  0
  148.4818  134.3762  155.5841 O   0  0  0  0  0  0  0  0  0  0  0  0
  147.7403  133.2132  155.9313 C   0  0  1  0  0  0  0  0  0  0  0  0
  148.2468  132.0195  155.1049 C   0  0  0  0  0  0  0  0  0  0  0  0
  147.7740  132.1330  153.7728 O   0  0  0  0  0  0  0  0  0  0  0  0
  146.6175  131.5388  153.4164 C   0  0  0  0  0  0  0  0  0  0  0  0
  146.1466  130.5591  153.9984 O   0  0  0  0  0  0  0  0  0  0  0  0
  145.9692  132.1861  152.2396 C   0  0  0  0  0  0  0  0  0  0  0  0
  144.9831  131.4766  151.5149 C   0  0  0  0  0  0  0  0  0  0  0  0
  144.3557  132.0602  150.3971 C   0  0  0  0  0  0  0  0  0  0  0  0
  144.7055  133.3612  149.9913 C   0  0  0  0  0  0  0  0  0  0  0  0
  145.6837  134.0782  150.7048 C   0  0  0  0  0  0  0  0  0  0  0  0
  146.3132  133.4957  151.8222 C   0  0  0  0  0  0  0  0  0  0  0  0
  148.0139  133.0609  157.4280 C   0  0  2  0  0  0  0  0  0  0  0  0
  147.1723  133.8391  158.1102 F   0  0  0  0  0  0  0  0  0  0  0  0
  149.4369  133.5749  157.6036 C   0  0  1  0  0  0  0  0  0  0  0  0
  150.3490  132.4957  157.6460 O   0  0  0  0  0  0  0  0  0  0  0  0
  151.9084  141.9772  158.7378 C   0  0  0  0  0  0  0  0  0  0  0  0
  152.1725  142.3247  160.0823 C   0  0  0  0  0  0  0  0  0  0  0  0
  152.1815  143.6744  160.4849 C   0  0  0  0  0  0  0  0  0  0  0  0
  151.9158  144.6911  159.5486 C   0  0  0  0  0  0  0  0  0  0  0  0
  151.6383  144.3566  158.2100 C   0  0  0  0  0  0  0  0  0  0  0  0
  151.6306  143.0071  157.8061 C   0  0  0  0  0  0  0  0  0  0  0  0
  153.0450  137.6535  154.1813 H   0  0  0  0  0  0  0  0  0  0  0  0
  148.3647  136.1280  158.2803 H   0  0  0  0  0  0  0  0  0  0  0  0
  150.5238  134.1959  155.7708 H   0  0  0  0  0  0  0  0  0  0  0  0
  146.6765  133.3650  155.7426 H   0  0  0  0  0  0  0  0  0  0  0  0
  149.3366  131.9732  155.1231 H   0  0  0  0  0  0  0  0  0  0  0  0
  147.8729  131.0864  155.5282 H   0  0  0  0  0  0  0  0  0  0  0  0
  144.6986  130.4760  151.8072 H   0  0  0  0  0  0  0  0  0  0  0  0
  143.6050  131.5081  149.8508 H   0  0  0  0  0  0  0  0  0  0  0  0
  144.2241  133.8085  149.1341 H   0  0  0  0  0  0  0  0  0  0  0  0
  145.9523  135.0773  150.3949 H   0  0  0  0  0  0  0  0  0  0  0  0
  147.0597  134.0732  152.3476 H   0  0  0  0  0  0  0  0  0  0  0  0
  147.8626  132.0454  157.7963 H   0  0  0  0  0  0  0  0  0  0  0  0
  149.5477  134.1524  158.5229 H   0  0  0  0  0  0  0  0  0  0  0  0
  150.0461  131.8692  158.2851 H   0  0  0  0  0  0  0  0  0  0  0  0
  152.3755  141.5555  160.8135 H   0  0  0  0  0  0  0  0  0  0  0  0
  152.3904  143.9286  161.5133 H   0  0  0  0  0  0  0  0  0  0  0  0
  151.9206  145.7257  159.8578 H   0  0  0  0  0  0  0  0  0  0  0  0
  151.4273  145.1352  157.4919 H   0  0  0  0  0  0  0  0  0  0  0  0
  151.4045  142.7705  156.7763 H   0  0  0  0  0  0  0  0  0  0  0  0
  1  2  2  0  0  0  0
  2  3  1  0  0  0  0
  2 30  1  0  0  0  0
  3  4  1  0  0  0  0
  4  9  1  0  0  0  0
  4  5  2  0  0  0  0
  5  6  1  0  0  0  0
  6  7  2  0  0  0  0
  6 36  1  0  0  0  0
  7  8  1  0  0  0  0
  8 12  1  0  0  0  0
  8  9  2  0  0  0  0
  9 10  1  0  0  0  0
 10 11  2  0  0  0  0
 11 12  1  0  0  0  0
 11 37  1  0  0  0  0
 12 13  1  0  0  0  0
 13 28  1  0  0  0  0
 13 14  1  0  0  0  0
 13 38  1  0  0  0  0
 14 15  1  0  0  0  0
 15 16  1  0  0  0  0
 15 26  1  0  0  0  0
 15 39  1  0  0  0  0
 16 17  1  0  0  0  0
 16 40  1  0  0  0  0
 16 41  1  0  0  0  0
 17 18  1  0  0  0  0
 18 19  2  0  0  0  0
 18 20  1  0  0  0  0
 20 25  1  0  0  0  0
 20 21  2  0  0  0  0
 21 22  1  0  0  0  0
 21 42  1  0  0  0  0
 22 23  2  0  0  0  0
 22 43  1  0  0  0  0
 23 24  1  0  0  0  0
 23 44  1  0  0  0  0
 24 25  2  0  0  0  0
 24 45  1  0  0  0  0
 25 46  1  0  0  0  0
 26 27  1  0  0  0  0
 26 28  1  0  0  0  0
 26 47  1  0  0  0  0
 28 29  1  0  0  0  0
 28 48  1  0  0  0  0
 29 49  1  0  0  0  0
 30 35  1  0  0  0  0
 30 31  2  0  0  0  0
 31 32  1  0  0  0  0
 31 50  1  0  0  0  0
 32 33  2  0  0  0  0
 32 51  1  0  0  0  0
 33 34  1  0  0  0  0
 33 52  1  0  0  0  0
 34 35  2  0  0  0  0
 34 53  1  0  0  0  0
 35 54  1  0  0  0  0
M  CHG  1   3  -1
M  END
> <s_m_source_file>
AV-unprocessed.smi

> <i_m_source_file_index>
34

> <i_lp_mmshare_version>
43012

> <i_f3d_flags>
0

> <s_epik_input>
W2NIXTFbY0hdW2NIXVtjSF1bY0hdYzFDKD1PKVtOSF1jKG5bY0hdbjIpYyhjMjMpbltjSF1uM1tDQEBIXTRPW0NASF0oW0NAQEhdKEYpW0NASF00W09IXSlbQ0gyXU9DKD1PKWM1W2NIXVtjSF1bY0hdW2NIXVtjSF01

> <s_epik_cmdline>
J2VwaWtfcHl0aG9uJywgJy1waCcsICc3LjAnLCAnLXRuJywgJzgnLCAnLW1hJywgJzIwMCcsICctbWV0YWxfYmluZGluZycsICctaW1hZScsICc8aW5maWxlLm1hZT4nLCAnLW9tYWUnLCAnPG91dGZpbGUubWFlPic=

> <r_lp_tautomer_probability>
1

> <r_epik_Ionization_Penalty>
4.33227

> <r_epik_Ionization_Penalty_Charging>
3.41027

> <r_epik_Ionization_Penalty_Neutral>
0.922001

> <r_epik_State_Penalty>
3.41358

> <r_epik_Charging_Adjusted_Penalty>
6.82385

> <i_epik_Tot_Q>
-1

> <i_epik_Tot_abs_Q>
1

> <r_epik_Metal_State_Penalty>
0.496292

> <b_epik_Metal_Only>
1

> <s_epik_Chemistry_Notes>
This compound has an ester and may undergo hydrolysis at high or low pH. This compound contains an acetal/aminal-like group ( X-CH(R)-Y where X, Y are N, S, or O) that may be acid/base labile, releasing an aldehyde.

> <s_lp_Force_Field>
OPLS_2005

> <r_lp_Energy>
42.8672

> <b_lp_Chiralities_Consistent>
1

> <s_lp_Variant>
AV-unprocessed.smi:34-21

> <Gold.Version>
5.8.1

> <Gold.Id.Protein>
6NUR|6NUR_protein|mol2

> <Gold.PLP.Fitness>
62.5091

> <Gold.PLP.PLP>
-58.2274

> <Gold.PLP.part.hbond>
-3.0000

> <Gold.PLP.part.metal>
0.0000

> <Gold.PLP.part.buried>
-10.0697

> <Gold.PLP.part.nonpolar>
-46.0918

> <Gold.PLP.part.repulsive>
0.5737

> <Gold.PLP.ligand.clash>
0.0000

> <Gold.PLP.ligand.torsion>
2.1861

> <Gold.PLP.Chemscore.Hbond>
2.7760

> <Gold.PLP.Chemscore.CHOScore>
0.0000

> <Gold.PLP.Chemscore.Metal>
0.0000

> <Gold.Chemscore.Hbonds>
donor molecule, donor type, donor heavy atom, donor atom, acceptor molecule, acceptor atom, score
      P1  H 10752 10764       L1     7  0.33

> <Gold.PLP.Chemscore.Internal.Correction>
0.3258

> <Gold.Rescore>
     Score         DG    S(hbond)    S(metal)    S(lipo)     H(rot)  DE(clash)    DE(int)     intcor
     18.45     -21.06       1.86        0.00     138.92       2.69       0.58       2.04       ----

> <Gold.Chemscore.Fitness>
18.4458

> <Gold.Chemscore.DG>
-21.0642

> <Gold.Chemscore.ZeroCoef>
-5.4800

> <Gold.Chemscore.Hbond>
1.8647

> <Gold.Chemscore.Metal>
0.0000

> <Gold.Chemscore.Lipo>
138.9206

> <Gold.Chemscore.Internal_Hbond>
0.0000

> <Gold.Chemscore.DEClash>
0.5802

> <Gold.Chemscore.DEInternal>
2.0382

> <Gold.Chemscore.Rot>
2.6944

> <Gold.Chemscore.Internal.Correction>
   9.000000E+99

> <Gold.Chemscore.Hbonds>
donor molecule, donor type, donor heavy atom, donor atom, acceptor molecule, acceptor atom, score
      P1  H 10752 10764       L1     7  0.01

> <Gold.Chemscore.Hbond.Weighted>
-6.2280

> <Gold.Chemscore.Metal.Weighted>
-0.0000

> <Gold.Chemscore.Lipo.Weighted>
-16.2537

> <Gold.Chemscore.Internal_Hbond.Weighted>
0.0000

> <Gold.Chemscore.DEClash.Weighted>
0.5802

> <Gold.Chemscore.DEInternal.Weighted>
2.0382

> <Gold.Chemscore.Rot.Weighted>
6.8975

> <Gold.Chemscore.Internal.Correction.Weighted>
   9.000000E+99

> <Gold.Protein.RotatedTorsions>
[ 6907 6896 6895 6894 ] final  111.86 input  -60.11 | X-H torsion
[ 7974 7965 7964 7962 ] final   39.31 input  175.53 | X-H torsion
[ 8008 7997 7996 7995 ] final -100.33 input   59.86 | X-H torsion
[ 10167 10162 10161 10158 ] final  -18.96 input  -65.29 | X-H torsion
[ 10718 10713 10712 10709 ] final   53.94 input   66.30 | X-H torsion
[ 10763 10752 10751 10750 ] final  -81.59 input  -60.55 | X-H torsion
[ 11005 11000 10999 10996 ] final -153.75 input  -57.11 | X-H torsion

> <Gold.Protein.ActiveResidues>
 VAL166  LYS551  ARG553  GLY616  TRP617  ASP618  TYR619  PRO620  LYS621  CYS622 
 ASP623  PHE694  ASN695  SER759  ASP760  ASP761  ALA762  ILE779  LEU786  VAL792 
 PHE793  MET794  SER795  GLU796  ALA797  LYS798  CYS799  TRP800  GLU811  SER814 

> <Gold.Protein.RotatedAtoms>
  152.4947  133.8598  159.7244 H   0  0  0  0  0  0  0  0  0  0  0  0  # atno 6907 bound_to 6896
  150.9113  133.6985  159.2861 H   0  0  0  0  0  0  0  0  0  0  0  0  # atno 6908 bound_to 6896
  151.4393  135.1023  159.9718 H   0  0  0  0  0  0  0  0  0  0  0  0  # atno 6909 bound_to 6896
  146.0994  139.5667  142.9424 H   0  0  0  0  0  0  0  0  0  0  0  0  # atno 7974 bound_to 7965
  154.8272  140.0441  157.1452 H   0  0  0  0  0  0  0  0  0  0  0  0  # atno 8008 bound_to 7997
  154.9193  140.3024  155.5204 H   0  0  0  0  0  0  0  0  0  0  0  0  # atno 8009 bound_to 7997
  156.2984  140.2343  156.4241 H   0  0  0  0  0  0  0  0  0  0  0  0  # atno 8010 bound_to 7997
  140.7264  143.4865  151.0048 H   0  0  0  0  0  0  0  0  0  0  0  0  # atno 10167 bound_to 10162
  157.5212  130.8566  149.8561 H   0  0  0  0  0  0  0  0  0  0  0  0  # atno 10718 bound_to 10713
  154.5654  135.5621  153.7045 H   0  0  0  0  0  0  0  0  0  0  0  0  # atno 10763 bound_to 10752
  153.0031  135.6284  154.2188 H   0  0  0  0  0  0  0  0  0  0  0  0  # atno 10764 bound_to 10752
  154.2126  135.2873  155.2933 H   0  0  0  0  0  0  0  0  0  0  0  0  # atno 10765 bound_to 10752
  140.7048  134.3897  157.5205 H   0  0  0  0  0  0  0  0  0  0  0  0  # atno 11005 bound_to 11000
  145.5884  141.0373  143.2084 LP  0  0  0  0  0  0  0  0  0  0  0  0  # atno 17320 bound_to 7965
  144.7421  139.7421  143.7307 LP  0  0  0  0  0  0  0  0  0  0  0  0  # atno 17321 bound_to 7965
  139.8567  143.7368  152.3175 LP  0  0  0  0  0  0  0  0  0  0  0  0  # atno 17342 bound_to 10162
  139.7569  144.7518  151.0422 LP  0  0  0  0  0  0  0  0  0  0  0  0  # atno 17343 bound_to 10162
  156.0355  130.3752  150.1572 LP  0  0  0  0  0  0  0  0  0  0  0  0  # atno 17370 bound_to 10713
  156.9760  130.9849  151.3448 LP  0  0  0  0  0  0  0  0  0  0  0  0  # atno 17371 bound_to 10713
  139.8887  134.8849  156.2460 LP  0  0  0  0  0  0  0  0  0  0  0  0  # atno 17394 bound_to 11000
  141.0134  133.7083  156.1148 LP  0  0  0  0  0  0  0  0  0  0  0  0  # atno 17395 bound_to 11000

$$$$
