AV-unprocessed.smi:2814|AV-procd|sdf|10840|dock4
  -GOLD-   2272015283D 1   1.00000     0.00000
 Structure written by MMmdl.
 38 39  0  0  0  0  0  0  0  0  2 V2000
  146.8965  139.5361  152.5813 C   0  0  0  0  0  0  0  0  0  0  0  0
  148.1300  139.6826  153.4472 C   0  0  0  0  0  0  0  0  0  0  0  0
  148.4120  140.8660  154.1632 C   0  0  0  0  0  0  0  0  0  0  0  0
  149.5838  140.9357  154.9590 C   0  0  0  0  0  0  0  0  0  0  0  0
  149.9661  142.0852  155.7019 N   0  0  0  0  0  0  0  0  0  0  0  0
  151.0485  142.2520  156.4809 C   0  0  0  0  0  0  0  0  0  0  0  0
  151.9304  141.4120  156.6588 O   0  0  0  0  0  0  0  0  0  0  0  0
  151.0595  143.4709  157.0388 N   0  0  0  0  0  0  0  0  0  0  0  0
  152.0863  143.9895  157.9407 C   0  0  0  0  0  0  0  0  0  0  0  0
  152.0226  143.3421  159.3426 C   0  0  0  0  0  0  0  0  0  0  0  0
  150.7067  142.8574  159.5453 O   0  0  0  0  0  0  0  0  0  0  0  0
  153.0307  142.2114  159.5952 C   0  0  0  0  0  0  0  0  0  0  0  0
  153.1871  142.1240  161.1185 C   0  0  0  0  0  0  0  0  0  0  0  0
  152.7330  143.4799  161.6800 C   0  0  0  0  0  0  0  0  0  0  0  0
  152.3281  144.3350  160.4720 C   0  0  0  0  0  0  0  0  0  0  0  0
  150.4494  139.8202  154.9863 C   0  0  0  0  0  0  0  0  0  0  0  0
  150.1162  138.6644  154.2519 C   0  0  0  0  0  0  0  0  0  0  0  0
  148.9818  138.6362  153.5205 N   0  3  0  0  0  0  0  0  0  0  0  0
  146.2905  140.4424  152.6031 H   0  0  0  0  0  0  0  0  0  0  0  0
  146.2814  138.7072  152.9329 H   0  0  0  0  0  0  0  0  0  0  0  0
  147.1793  139.3410  151.5465 H   0  0  0  0  0  0  0  0  0  0  0  0
  147.7348  141.7026  154.0809 H   0  0  0  0  0  0  0  0  0  0  0  0
  149.3788  142.8973  155.5807 H   0  0  0  0  0  0  0  0  0  0  0  0
  150.2903  144.0926  156.8367 H   0  0  0  0  0  0  0  0  0  0  0  0
  153.0747  143.8375  157.5035 H   0  0  0  0  0  0  0  0  0  0  0  0
  151.9617  145.0701  158.0202 H   0  0  0  0  0  0  0  0  0  0  0  0
  150.6459  141.9929  159.1683 H   0  0  0  0  0  0  0  0  0  0  0  0
  152.7308  141.2621  159.1496 H   0  0  0  0  0  0  0  0  0  0  0  0
  153.9945  142.4820  159.1621 H   0  0  0  0  0  0  0  0  0  0  0  0
  152.5541  141.3297  161.5159 H   0  0  0  0  0  0  0  0  0  0  0  0
  154.2148  141.8907  161.3985 H   0  0  0  0  0  0  0  0  0  0  0  0
  151.8780  143.3364  162.3421 H   0  0  0  0  0  0  0  0  0  0  0  0
  153.5176  143.9629  162.2634 H   0  0  0  0  0  0  0  0  0  0  0  0
  153.1754  144.9615  160.1891 H   0  0  0  0  0  0  0  0  0  0  0  0
  151.4952  145.0047  160.6917 H   0  0  0  0  0  0  0  0  0  0  0  0
  151.3585  139.8436  155.5698 H   0  0  0  0  0  0  0  0  0  0  0  0
  150.7198  137.7690  154.2265 H   0  0  0  0  0  0  0  0  0  0  0  0
  148.7606  137.7896  152.9957 H   0  0  0  0  0  0  0  0  0  0  0  0
  1  2  1  0  0  0  0
  1 19  1  0  0  0  0
  1 20  1  0  0  0  0
  1 21  1  0  0  0  0
  2 18  1  0  0  0  0
  2  3  2  0  0  0  0
  3  4  1  0  0  0  0
  3 22  1  0  0  0  0
  4  5  1  0  0  0  0
  4 16  2  0  0  0  0
  5  6  1  0  0  0  0
  5 23  1  0  0  0  0
  6  7  2  0  0  0  0
  6  8  1  0  0  0  0
  8  9  1  0  0  0  0
  8 24  1  0  0  0  0
  9 10  1  0  0  0  0
  9 25  1  0  0  0  0
  9 26  1  0  0  0  0
 10 15  1  0  0  0  0
 10 11  1  0  0  0  0
 10 12  1  0  0  0  0
 11 27  1  0  0  0  0
 12 13  1  0  0  0  0
 12 28  1  0  0  0  0
 12 29  1  0  0  0  0
 13 14  1  0  0  0  0
 13 30  1  0  0  0  0
 13 31  1  0  0  0  0
 14 15  1  0  0  0  0
 14 32  1  0  0  0  0
 14 33  1  0  0  0  0
 15 34  1  0  0  0  0
 15 35  1  0  0  0  0
 16 17  1  0  0  0  0
 16 36  1  0  0  0  0
 17 18  2  0  0  0  0
 17 37  1  0  0  0  0
 18 38  1  0  0  0  0
M  CHG  1  18   1
M  END
> <s_m_source_file>
AV-unprocessed.smi

> <i_m_source_file_index>
2814

> <i_lp_mmshare_version>
43012

> <i_f3d_flags>
0

> <s_epik_input>
W0NIM11jMVtjSF1jKFtjSF1bY0hdbjEpW05IXUMoPU8pW05IXVtDSDJdQzIoW09IXSlbQ0gyXVtDSDJdW0NIMl1bQ0gyXTI=

> <s_epik_cmdline>
J2VwaWtfcHl0aG9uJywgJy1waCcsICc3LjAnLCAnLXRuJywgJzgnLCAnLW1hJywgJzIwMCcsICctbWV0YWxfYmluZGluZycsICctaW1hZScsICc8aW5maWxlLm1hZT4nLCAnLW9tYWUnLCAnPG91dGZpbGUubWFlPic=

> <r_epik_Ionization_Penalty>
0.41638

> <r_epik_Ionization_Penalty_Charging>
0.416357

> <r_epik_Ionization_Penalty_Neutral>
2.25049e-05

> <r_epik_State_Penalty>
0.41674

> <r_epik_Charging_Adjusted_Penalty>
0.833097

> <i_epik_Tot_Q>
1

> <i_epik_Tot_abs_Q>
1

> <r_epik_Metal_State_Penalty>
0.654825

> <b_epik_Metal_Only>
0

> <s_lp_Force_Field>
OPLS_2005

> <r_lp_Energy>
34.0796

> <b_lp_Chiralities_Consistent>
1

> <s_lp_Variant>
AV-unprocessed.smi:2814-2

> <Gold.Version>
5.8.1

> <Gold.Id.Protein>
6NUR|6NUR_protein|mol2

> <Gold.PLP.Fitness>
54.4733

> <Gold.PLP.PLP>
-44.4254

> <Gold.PLP.part.hbond>
-5.0000

> <Gold.PLP.part.metal>
0.0000

> <Gold.PLP.part.buried>
1.1335

> <Gold.PLP.part.nonpolar>
-39.8585

> <Gold.PLP.part.repulsive>
0.2426

> <Gold.PLP.ligand.clash>
0.2498

> <Gold.PLP.ligand.torsion>
0.8532

> <Gold.PLP.Chemscore.Hbond>
4.0000

> <Gold.PLP.Chemscore.CHOScore>
0.0000

> <Gold.PLP.Chemscore.Metal>
0.0000

> <Gold.Chemscore.Hbonds>
donor molecule, donor type, donor heavy atom, donor atom, acceptor molecule, acceptor atom, score
      L1  H     5    23       P1  8028  1.00
      L1  H     8    24       P1  8028  1.00
      L1  H    18    38       P1  7948  2.00

> <Gold.PLP.Chemscore.Internal.Correction>
0.0042

> <Gold.Rescore>
     Score         DG    S(hbond)    S(metal)    S(lipo)     H(rot)  DE(clash)    DE(int)     intcor
     19.72     -24.75       2.94        0.00     118.74       1.74       2.76       2.27       ----

> <Gold.Chemscore.Fitness>
19.7216

> <Gold.Chemscore.DG>
-24.7495

> <Gold.Chemscore.ZeroCoef>
-5.4800

> <Gold.Chemscore.Hbond>
2.9421

> <Gold.Chemscore.Metal>
0.0000

> <Gold.Chemscore.Lipo>
118.7393

> <Gold.Chemscore.Internal_Hbond>
0.0000

> <Gold.Chemscore.DEClash>
2.7573

> <Gold.Chemscore.DEInternal>
2.2706

> <Gold.Chemscore.Rot>
1.7382

> <Gold.Chemscore.Internal.Correction>
   9.000000E+99

> <Gold.Chemscore.Hbonds>
donor molecule, donor type, donor heavy atom, donor atom, acceptor molecule, acceptor atom, score
      L1  H     5    23       P1  8028  0.99
      L1  H     8    24       P1  8028  0.94
      L1  H    18    38       P1  7948  0.99

> <Gold.Chemscore.Hbond.Weighted>
-9.8267

> <Gold.Chemscore.Metal.Weighted>
-0.0000

> <Gold.Chemscore.Lipo.Weighted>
-13.8925

> <Gold.Chemscore.Internal_Hbond.Weighted>
0.0000

> <Gold.Chemscore.DEClash.Weighted>
2.7573

> <Gold.Chemscore.DEInternal.Weighted>
2.2706

> <Gold.Chemscore.Rot.Weighted>
4.4497

> <Gold.Chemscore.Internal.Correction.Weighted>
   9.000000E+99

> <Gold.Protein.RotatedTorsions>
[ 6907 6896 6895 6894 ] final  155.98 input  -60.11 | X-H torsion
[ 7974 7965 7964 7962 ] final   65.53 input  175.53 | X-H torsion
[ 8008 7997 7996 7995 ] final  133.70 input   59.86 | X-H torsion
[ 10167 10162 10161 10158 ] final  -66.93 input  -65.29 | X-H torsion
[ 10718 10713 10712 10709 ] final  147.01 input   66.30 | X-H torsion
[ 10763 10752 10751 10750 ] final  170.27 input  -60.55 | X-H torsion
[ 11005 11000 10999 10996 ] final  -21.33 input  -57.11 | X-H torsion

> <Gold.Protein.ActiveResidues>
 VAL166  LYS551  ARG553  GLY616  TRP617  ASP618  TYR619  PRO620  LYS621  CYS622 
 ASP623  PHE694  ASN695  SER759  ASP760  ASP761  ALA762  ILE779  LEU786  VAL792 
 PHE793  MET794  SER795  GLU796  ALA797  LYS798  CYS799  TRP800  GLU811  SER814 

> <Gold.Protein.RotatedAtoms>
  152.0363  133.3958  159.4317 H   0  0  0  0  0  0  0  0  0  0  0  0  # atno 6907 bound_to 6896
  150.6878  134.3465  159.4899 H   0  0  0  0  0  0  0  0  0  0  0  0  # atno 6908 bound_to 6896
  152.1257  134.9172  160.0611 H   0  0  0  0  0  0  0  0  0  0  0  0  # atno 6909 bound_to 6896
  145.8373  139.3174  143.0952 H   0  0  0  0  0  0  0  0  0  0  0  0  # atno 7974 bound_to 7965
  156.2994  140.2514  156.3296 H   0  0  0  0  0  0  0  0  0  0  0  0  # atno 8008 bound_to 7997
  154.9157  140.0402  157.1990 H   0  0  0  0  0  0  0  0  0  0  0  0  # atno 8009 bound_to 7997
  154.8361  140.2883  155.5694 H   0  0  0  0  0  0  0  0  0  0  0  0  # atno 8010 bound_to 7997
  140.5621  143.2313  151.6708 H   0  0  0  0  0  0  0  0  0  0  0  0  # atno 10167 bound_to 10162
  157.3262  131.0912  151.1200 H   0  0  0  0  0  0  0  0  0  0  0  0  # atno 10718 bound_to 10713
  154.3952  135.2754  155.2130 H   0  0  0  0  0  0  0  0  0  0  0  0  # atno 10763 bound_to 10752
  154.4179  135.6007  153.5996 H   0  0  0  0  0  0  0  0  0  0  0  0  # atno 10764 bound_to 10752
  152.9831  135.5965  154.4212 H   0  0  0  0  0  0  0  0  0  0  0  0  # atno 10765 bound_to 10752
  140.8551  133.7829  156.0010 H   0  0  0  0  0  0  0  0  0  0  0  0  # atno 11005 bound_to 11000
  145.9504  140.8913  143.0262 LP  0  0  0  0  0  0  0  0  0  0  0  0  # atno 17320 bound_to 7965
  144.6735  140.1672  143.7417 LP  0  0  0  0  0  0  0  0  0  0  0  0  # atno 17321 bound_to 7965
  139.5075  144.3644  152.0531 LP  0  0  0  0  0  0  0  0  0  0  0  0  # atno 17342 bound_to 10162
  140.2772  144.3900  150.6131 LP  0  0  0  0  0  0  0  0  0  0  0  0  # atno 17343 bound_to 10162
  157.2466  130.6594  149.5913 LP  0  0  0  0  0  0  0  0  0  0  0  0  # atno 17370 bound_to 10713
  155.9691  130.4552  150.5877 LP  0  0  0  0  0  0  0  0  0  0  0  0  # atno 17371 bound_to 10713
  140.8747  134.2684  157.5174 LP  0  0  0  0  0  0  0  0  0  0  0  0  # atno 17394 bound_to 11000
  139.8705  134.9585  156.4301 LP  0  0  0  0  0  0  0  0  0  0  0  0  # atno 17395 bound_to 11000

$$$$
