AV-unprocessed.smi:3301|AV-procd|sdf|12653|dock6
  -GOLD-   2272018583D 1   1.00000     0.00000
 Structure written by MMmdl.
 37 38  0  0  0  0  0  0  0  0  2 V2000
  147.6678  141.2066  156.9823 C   0  0  0  0  0  0  0  0  0  0  0  0
  148.8918  141.4439  156.0831 C   0  0  1  0  0  0  0  0  0  0  0  0
  148.5159  141.7241  154.6117 C   0  0  0  0  0  0  0  0  0  0  0  0
  148.1881  140.5051  153.8667 N   0  0  0  0  0  0  0  0  0  0  0  0
  147.0134  140.2252  153.2174 C   0  0  0  0  0  0  0  0  0  0  0  0
  147.1577  138.9767  152.6693 C   0  0  0  0  0  0  0  0  0  0  0  0
  148.4119  138.5461  153.0105 N   0  3  0  0  0  0  0  0  0  0  0  0
  149.0360  139.4756  153.7416 C   0  0  0  0  0  0  0  0  0  0  0  0
  149.6773  142.5504  156.6215 N   0  0  0  0  0  0  0  0  0  0  0  0
  150.8802  142.4328  157.2051 C   0  0  0  0  0  0  0  0  0  0  0  0
  151.4489  141.3516  157.3641 O   0  0  0  0  0  0  0  0  0  0  0  0
  151.5229  143.7361  157.6961 C   0  0  0  0  0  0  0  0  0  0  0  0
  151.9371  143.6758  159.0988 N   0  0  0  0  0  0  0  0  0  0  0  0
  151.4784  144.6728  160.0524 C   0  0  0  0  0  0  0  0  0  0  0  0
  152.2473  144.3742  161.3477 C   0  0  0  0  0  0  0  0  0  0  0  0
  152.9053  143.0052  161.1414 C   0  0  0  0  0  0  0  0  0  0  0  0
  152.7160  142.7411  159.6576 C   0  0  0  0  0  0  0  0  0  0  0  0
  153.2240  141.7812  159.0796 O   0  0  0  0  0  0  0  0  0  0  0  0
  147.1000  140.3327  156.6629 H   0  0  0  0  0  0  0  0  0  0  0  0
  146.9949  142.0647  156.9708 H   0  0  0  0  0  0  0  0  0  0  0  0
  147.9695  141.0343  158.0161 H   0  0  0  0  0  0  0  0  0  0  0  0
  149.5025  140.5397  156.1207 H   0  0  0  0  0  0  0  0  0  0  0  0
  147.6651  142.4050  154.5541 H   0  0  0  0  0  0  0  0  0  0  0  0
  149.3413  142.2071  154.0865 H   0  0  0  0  0  0  0  0  0  0  0  0
  146.1847  140.9184  153.1938 H   0  0  0  0  0  0  0  0  0  0  0  0
  146.4795  138.3779  152.0789 H   0  0  0  0  0  0  0  0  0  0  0  0
  150.0299  139.4084  154.1469 H   0  0  0  0  0  0  0  0  0  0  0  0
  149.2802  143.4754  156.5399 H   0  0  0  0  0  0  0  0  0  0  0  0
  152.3885  143.9786  157.0771 H   0  0  0  0  0  0  0  0  0  0  0  0
  150.8070  144.5473  157.5590 H   0  0  0  0  0  0  0  0  0  0  0  0
  151.6729  145.6845  159.6940 H   0  0  0  0  0  0  0  0  0  0  0  0
  150.4031  144.5625  160.1998 H   0  0  0  0  0  0  0  0  0  0  0  0
  153.0132  145.1333  161.5138 H   0  0  0  0  0  0  0  0  0  0  0  0
  151.5875  144.3802  162.2159 H   0  0  0  0  0  0  0  0  0  0  0  0
  153.9616  143.0111  161.4123 H   0  0  0  0  0  0  0  0  0  0  0  0
  152.3994  142.2288  161.7163 H   0  0  0  0  0  0  0  0  0  0  0  0
  148.8111  137.6532  152.7493 H   0  0  0  0  0  0  0  0  0  0  0  0
  1  2  1  0  0  0  0
  1 19  1  0  0  0  0
  1 20  1  0  0  0  0
  1 21  1  0  0  0  0
  2  3  1  0  0  0  0
  2  9  1  0  0  0  0
  2 22  1  0  0  0  0
  3  4  1  0  0  0  0
  3 23  1  0  0  0  0
  3 24  1  0  0  0  0
  4  8  1  0  0  0  0
  4  5  1  0  0  0  0
  5  6  2  0  0  0  0
  5 25  1  0  0  0  0
  6  7  1  0  0  0  0
  6 26  1  0  0  0  0
  7  8  2  0  0  0  0
  7 37  1  0  0  0  0
  8 27  1  0  0  0  0
  9 10  1  0  0  0  0
  9 28  1  0  0  0  0
 10 11  2  0  0  0  0
 10 12  1  0  0  0  0
 12 13  1  0  0  0  0
 12 29  1  0  0  0  0
 12 30  1  0  0  0  0
 13 17  1  0  0  0  0
 13 14  1  0  0  0  0
 14 15  1  0  0  0  0
 14 31  1  0  0  0  0
 14 32  1  0  0  0  0
 15 16  1  0  0  0  0
 15 33  1  0  0  0  0
 15 34  1  0  0  0  0
 16 17  1  0  0  0  0
 16 35  1  0  0  0  0
 16 36  1  0  0  0  0
 17 18  2  0  0  0  0
M  CHG  1   7   1
M  END
> <s_m_source_file>
AV-unprocessed.smi

> <i_m_source_file_index>
3301

> <i_lp_mmshare_version>
43012

> <i_f3d_flags>
0

> <s_epik_input>
W2NIXTFuW2NIXVtjSF1uMVtDSDJdW0NAQEhdKFtDSDNdKVtOSF1DKD1PKVtDSDJdTjJbQ0gyXVtDSDJdW0NIMl1DMj1P

> <s_epik_cmdline>
J2VwaWtfcHl0aG9uJywgJy1waCcsICc3LjAnLCAnLXRuJywgJzgnLCAnLW1hJywgJzIwMCcsICctbWV0YWxfYmluZGluZycsICctaW1hZScsICc8aW5maWxlLm1hZT4nLCAnLW9tYWUnLCAnPG91dGZpbGUubWFlPic=

> <r_lp_tautomer_probability>
1

> <r_epik_Ionization_Penalty>
0.254232

> <r_epik_Ionization_Penalty_Charging>
0

> <r_epik_Ionization_Penalty_Neutral>
0.254232

> <r_epik_State_Penalty>
0.245698

> <r_epik_Charging_Adjusted_Penalty>
0.245698

> <i_epik_Tot_Q>
1

> <i_epik_Tot_abs_Q>
1

> <r_epik_Metal_State_Penalty>
0.5358

> <b_epik_Metal_Only>
0

> <s_lp_Force_Field>
OPLS_2005

> <r_lp_Energy>
15.9577

> <b_lp_Chiralities_Consistent>
1

> <s_lp_Variant>
AV-unprocessed.smi:3301-2

> <Gold.Version>
5.8.1

> <Gold.Id.Protein>
6NUR|6NUR_protein|mol2

> <Gold.PLP.Fitness>
51.6940

> <Gold.PLP.PLP>
-41.2292

> <Gold.PLP.part.hbond>
-2.8964

> <Gold.PLP.part.metal>
0.0000

> <Gold.PLP.part.buried>
-1.1250

> <Gold.PLP.part.nonpolar>
-37.3306

> <Gold.PLP.part.repulsive>
0.1144

> <Gold.PLP.ligand.clash>
0.0000

> <Gold.PLP.ligand.torsion>
0.3681

> <Gold.PLP.Chemscore.Hbond>
3.0000

> <Gold.PLP.Chemscore.CHOScore>
0.7199

> <Gold.PLP.Chemscore.Metal>
0.0000

> <Gold.Chemscore.Hbonds>
donor molecule, donor type, donor heavy atom, donor atom, acceptor molecule, acceptor atom, score
      L1  H     7    37       P1  7948  2.00
      L1  H     9    28       P1  8028  1.00
      L1  C     5    25       P1 10175  0.74

> <Gold.PLP.Chemscore.Internal.Correction>
0.0412

> <Gold.Rescore>
     Score         DG    S(hbond)    S(metal)    S(lipo)     H(rot)  DE(clash)    DE(int)     intcor
     12.79     -14.75       1.90        0.00      76.43       2.35       0.29       1.68       ----

> <Gold.Chemscore.Fitness>
12.7897

> <Gold.Chemscore.DG>
-14.7542

> <Gold.Chemscore.ZeroCoef>
-5.4800

> <Gold.Chemscore.Hbond>
1.8981

> <Gold.Chemscore.Metal>
0.0000

> <Gold.Chemscore.Lipo>
76.4339

> <Gold.Chemscore.Internal_Hbond>
0.0000

> <Gold.Chemscore.DEClash>
0.2893

> <Gold.Chemscore.DEInternal>
1.6752

> <Gold.Chemscore.Rot>
2.3470

> <Gold.Chemscore.Internal.Correction>
   9.000000E+99

> <Gold.Chemscore.Hbonds>
donor molecule, donor type, donor heavy atom, donor atom, acceptor molecule, acceptor atom, score
      L1  H     7    37       P1  7948  0.98
      L1  H     9    28       P1  8028  0.92

> <Gold.Chemscore.Hbond.Weighted>
-6.3397

> <Gold.Chemscore.Metal.Weighted>
-0.0000

> <Gold.Chemscore.Lipo.Weighted>
-8.9428

> <Gold.Chemscore.Internal_Hbond.Weighted>
0.0000

> <Gold.Chemscore.DEClash.Weighted>
0.2893

> <Gold.Chemscore.DEInternal.Weighted>
1.6752

> <Gold.Chemscore.Rot.Weighted>
6.0083

> <Gold.Chemscore.Internal.Correction.Weighted>
   9.000000E+99

> <Gold.Protein.RotatedTorsions>
[ 6907 6896 6895 6894 ] final -137.64 input  -60.11 | X-H torsion
[ 7974 7965 7964 7962 ] final  -20.43 input  175.53 | X-H torsion
[ 8008 7997 7996 7995 ] final -110.95 input   59.86 | X-H torsion
[ 10167 10162 10161 10158 ] final -163.74 input  -65.29 | X-H torsion
[ 10718 10713 10712 10709 ] final  104.25 input   66.30 | X-H torsion
[ 10763 10752 10751 10750 ] final  127.53 input  -60.55 | X-H torsion
[ 11005 11000 10999 10996 ] final -110.51 input  -57.11 | X-H torsion

> <Gold.Protein.ActiveResidues>
 VAL166  LYS551  ARG553  GLY616  TRP617  ASP618  TYR619  PRO620  LYS621  CYS622 
 ASP623  PHE694  ASN695  SER759  ASP760  ASP761  ALA762  ILE779  LEU786  VAL792 
 PHE793  MET794  SER795  GLU796  ALA797  LYS798  CYS799  TRP800  GLU811  SER814 

> <Gold.Protein.RotatedAtoms>
  151.0250  133.5842  159.2666 H   0  0  0  0  0  0  0  0  0  0  0  0  # atno 6907 bound_to 6896
  151.2945  135.0750  159.9226 H   0  0  0  0  0  0  0  0  0  0  0  0  # atno 6908 bound_to 6896
  152.5332  133.9943  159.7919 H   0  0  0  0  0  0  0  0  0  0  0  0  # atno 6909 bound_to 6896
  146.1789  140.4200  142.8502 H   0  0  0  0  0  0  0  0  0  0  0  0  # atno 7974 bound_to 7965
  154.9824  140.0396  157.2283 H   0  0  0  0  0  0  0  0  0  0  0  0  # atno 8008 bound_to 7997
  154.7702  140.2800  155.6121 H   0  0  0  0  0  0  0  0  0  0  0  0  # atno 8009 bound_to 7997
  156.2919  140.2611  156.2503 H   0  0  0  0  0  0  0  0  0  0  0  0  # atno 8010 bound_to 7997
  139.6299  144.0460  152.2007 H   0  0  0  0  0  0  0  0  0  0  0  0  # atno 10167 bound_to 10162
  157.6746  131.0799  150.5678 H   0  0  0  0  0  0  0  0  0  0  0  0  # atno 10718 bound_to 10713
  153.7108  135.3268  155.3246 H   0  0  0  0  0  0  0  0  0  0  0  0  # atno 10763 bound_to 10752
  154.8385  135.4476  154.1315 H   0  0  0  0  0  0  0  0  0  0  0  0  # atno 10764 bound_to 10752
  153.2409  135.6971  153.7864 H   0  0  0  0  0  0  0  0  0  0  0  0  # atno 10765 bound_to 10752
  141.0787  133.9256  157.2334 H   0  0  0  0  0  0  0  0  0  0  0  0  # atno 11005 bound_to 11000
  144.8281  140.6662  143.6309 LP  0  0  0  0  0  0  0  0  0  0  0  0  # atno 17320 bound_to 7965
  145.4134  139.1576  143.4113 LP  0  0  0  0  0  0  0  0  0  0  0  0  # atno 17321 bound_to 7965
  140.0123  144.6215  150.7637 LP  0  0  0  0  0  0  0  0  0  0  0  0  # atno 17342 bound_to 10162
  140.7433  143.2844  151.3506 LP  0  0  0  0  0  0  0  0  0  0  0  0  # atno 17343 bound_to 10162
  156.5980  130.4347  149.5909 LP  0  0  0  0  0  0  0  0  0  0  0  0  # atno 17370 bound_to 10713
  156.2530  130.6918  151.1662 LP  0  0  0  0  0  0  0  0  0  0  0  0  # atno 17371 bound_to 10713
  139.9600  135.0156  156.9235 LP  0  0  0  0  0  0  0  0  0  0  0  0  # atno 17394 bound_to 11000
  140.5515  134.0622  155.7371 LP  0  0  0  0  0  0  0  0  0  0  0  0  # atno 17395 bound_to 11000

$$$$
