AV-unprocessed.smi:2604|AV-procd|sdf|10189|dock8
  -GOLD-   2272014203D 1   1.00000     0.00000
 Structure written by MMmdl.
 26 27  0  0  0  0  0  0  0  0  2 V2000
  152.4413  143.5457  162.2263 C   0  0  0  0  0  0  0  0  0  0  0  0
  153.3798  142.6215  162.7258 C   0  0  0  0  0  0  0  0  0  0  0  0
  153.9734  141.6814  161.9594 N   0  0  0  0  0  0  0  0  0  0  0  0
  153.6416  141.6290  160.6517 C   0  0  0  0  0  0  0  0  0  0  0  0
  152.7095  142.5017  160.0490 C   0  0  0  0  0  0  0  0  0  0  0  0
  152.3967  142.3883  158.5658 C   0  0  2  0  0  0  0  0  0  0  0  0
  151.3287  143.4216  158.1404 C   0  0  0  0  0  0  0  0  0  0  0  0
  151.0663  143.3281  156.6899 N   0  3  0  0  0  0  0  0  0  0  0  0
  150.6822  141.9554  156.3064 C   0  0  0  0  0  0  0  0  0  0  0  0
  151.7669  140.9606  156.7574 C   0  0  0  0  0  0  0  0  0  0  0  0
  151.9437  141.0450  158.2038 N   0  0  0  0  0  0  0  0  0  0  0  0
  152.1017  143.4847  160.8612 C   0  0  0  0  0  0  0  0  0  0  0  0
  151.9937  144.2837  162.8755 H   0  0  0  0  0  0  0  0  0  0  0  0
  153.6627  142.6391  163.7679 H   0  0  0  0  0  0  0  0  0  0  0  0
  154.1375  140.8666  160.0690 H   0  0  0  0  0  0  0  0  0  0  0  0
  153.3214  142.5866  158.0210 H   0  0  0  0  0  0  0  0  0  0  0  0
  150.3965  143.2655  158.6856 H   0  0  0  0  0  0  0  0  0  0  0  0
  151.6664  144.4331  158.3682 H   0  0  0  0  0  0  0  0  0  0  0  0
  150.3266  143.9684  156.4391 H   0  0  0  0  0  0  0  0  0  0  0  0
  149.7202  141.7056  156.7565 H   0  0  0  0  0  0  0  0  0  0  0  0
  150.5513  141.9108  155.2249 H   0  0  0  0  0  0  0  0  0  0  0  0
  151.4736  139.9435  156.4967 H   0  0  0  0  0  0  0  0  0  0  0  0
  152.7136  141.1600  156.2531 H   0  0  0  0  0  0  0  0  0  0  0  0
  152.6285  140.3645  158.5032 H   0  0  0  0  0  0  0  0  0  0  0  0
  151.3880  144.1826  160.4482 H   0  0  0  0  0  0  0  0  0  0  0  0
  151.9075  143.5803  156.1913 H   0  0  0  0  0  0  0  0  0  0  0  0
  1 12  1  0  0  0  0
  1  2  2  0  0  0  0
  1 13  1  0  0  0  0
  2  3  1  0  0  0  0
  2 14  1  0  0  0  0
  3  4  2  0  0  0  0
  4  5  1  0  0  0  0
  4 15  1  0  0  0  0
  5  6  1  0  0  0  0
  5 12  2  0  0  0  0
  6 11  1  0  0  0  0
  6  7  1  0  0  0  0
  6 16  1  0  0  0  0
  7  8  1  0  0  0  0
  7 17  1  0  0  0  0
  7 18  1  0  0  0  0
  8  9  1  0  0  0  0
  8 19  1  0  0  0  0
  8 26  1  0  0  0  0
  9 10  1  0  0  0  0
  9 20  1  0  0  0  0
  9 21  1  0  0  0  0
 10 11  1  0  0  0  0
 10 22  1  0  0  0  0
 10 23  1  0  0  0  0
 11 24  1  0  0  0  0
 12 25  1  0  0  0  0
M  CHG  1   8   1
M  END
> <s_m_source_file>
AV-unprocessed.smi

> <i_m_source_file_index>
2604

> <i_lp_mmshare_version>
43012

> <i_f3d_flags>
0

> <s_epik_input>
W2NIXTFbY0hdW2NIXW5bY0hdYzFbQ0BASF0yW0NIMl1bTkhdW0NIMl1bQ0gyXVtOSF0y

> <s_epik_cmdline>
J2VwaWtfcHl0aG9uJywgJy1waCcsICc3LjAnLCAnLXRuJywgJzgnLCAnLW1hJywgJzIwMCcsICctbWV0YWxfYmluZGluZycsICctaW1hZScsICc8aW5maWxlLm1hZT4nLCAnLW9tYWUnLCAnPG91dGZpbGUubWFlPic=

> <r_epik_Ionization_Penalty>
0.0181456

> <r_epik_Ionization_Penalty_Charging>
0.010317

> <r_epik_Ionization_Penalty_Neutral>
0.00782861

> <r_epik_State_Penalty>
0.306622

> <r_epik_Charging_Adjusted_Penalty>
0.316939

> <i_epik_Tot_Q>
1

> <i_epik_Tot_abs_Q>
1

> <r_epik_Metal_State_Penalty>
0.302658

> <b_epik_Metal_Only>
0

> <s_lp_Force_Field>
OPLS_2005

> <r_lp_Energy>
10.6943

> <b_lp_Chiralities_Consistent>
1

> <s_lp_Variant>
AV-unprocessed.smi:2604-1

> <Gold.Version>
5.8.1

> <Gold.Id.Protein>
6NUR|6NUR_protein|mol2

> <Gold.PLP.Fitness>
38.1106

> <Gold.PLP.PLP>
-32.1479

> <Gold.PLP.part.hbond>
-1.4692

> <Gold.PLP.part.metal>
0.0000

> <Gold.PLP.part.buried>
-4.5195

> <Gold.PLP.part.nonpolar>
-26.5352

> <Gold.PLP.part.repulsive>
0.0517

> <Gold.PLP.ligand.clash>
0.0000

> <Gold.PLP.ligand.torsion>
0.0227

> <Gold.PLP.Chemscore.Hbond>
2.0000

> <Gold.PLP.Chemscore.CHOScore>
0.0000

> <Gold.PLP.Chemscore.Metal>
0.0000

> <Gold.Chemscore.Hbonds>
donor molecule, donor type, donor heavy atom, donor atom, acceptor molecule, acceptor atom, score
      L1  H     8    19       P1  8028  2.00

> <Gold.PLP.Chemscore.Internal.Correction>
0.0081

> <Gold.Rescore>
     Score         DG    S(hbond)    S(metal)    S(lipo)     H(rot)  DE(clash)    DE(int)     intcor
     17.05     -17.08       1.00        0.00      92.54       1.00       0.03       0.00       ----

> <Gold.Chemscore.Fitness>
17.0506

> <Gold.Chemscore.DG>
-17.0822

> <Gold.Chemscore.ZeroCoef>
-5.4800

> <Gold.Chemscore.Hbond>
0.9986

> <Gold.Chemscore.Metal>
0.0000

> <Gold.Chemscore.Lipo>
92.5388

> <Gold.Chemscore.Internal_Hbond>
0.0000

> <Gold.Chemscore.DEClash>
0.0276

> <Gold.Chemscore.DEInternal>
0.0040

> <Gold.Chemscore.Rot>
1.0000

> <Gold.Chemscore.Internal.Correction>
   9.000000E+99

> <Gold.Chemscore.Hbonds>
donor molecule, donor type, donor heavy atom, donor atom, acceptor molecule, acceptor atom, score
      L1  H     8    19       P1  8028  1.00

> <Gold.Chemscore.Hbond.Weighted>
-3.3352

> <Gold.Chemscore.Metal.Weighted>
-0.0000

> <Gold.Chemscore.Lipo.Weighted>
-10.8270

> <Gold.Chemscore.Internal_Hbond.Weighted>
0.0000

> <Gold.Chemscore.DEClash.Weighted>
0.0276

> <Gold.Chemscore.DEInternal.Weighted>
0.0040

> <Gold.Chemscore.Rot.Weighted>
2.5600

> <Gold.Chemscore.Internal.Correction.Weighted>
   9.000000E+99

> <Gold.Protein.RotatedTorsions>
[ 6907 6896 6895 6894 ] final  128.92 input  -60.11 | X-H torsion
[ 7974 7965 7964 7962 ] final   88.73 input  175.53 | X-H torsion
[ 8008 7997 7996 7995 ] final   70.91 input   59.86 | X-H torsion
[ 10167 10162 10161 10158 ] final   38.05 input  -65.29 | X-H torsion
[ 10718 10713 10712 10709 ] final  -31.81 input   66.30 | X-H torsion
[ 10763 10752 10751 10750 ] final  -73.69 input  -60.55 | X-H torsion
[ 11005 11000 10999 10996 ] final  114.88 input  -57.11 | X-H torsion

> <Gold.Protein.ActiveResidues>
 VAL166  LYS551  ARG553  GLY616  TRP617  ASP618  TYR619  PRO620  LYS621  CYS622 
 ASP623  PHE694  ASN695  SER759  ASP760  ASP761  ALA762  ILE779  LEU786  VAL792 
 PHE793  MET794  SER795  GLU796  ALA797  LYS798  CYS799  TRP800  GLU811  SER814 

> <Gold.Protein.RotatedAtoms>
  152.3673  133.6373  159.6059 H   0  0  0  0  0  0  0  0  0  0  0  0  # atno 6907 bound_to 6896
  150.7643  133.9327  159.3441 H   0  0  0  0  0  0  0  0  0  0  0  0  # atno 6908 bound_to 6896
  151.7156  135.0905  160.0326 H   0  0  0  0  0  0  0  0  0  0  0  0  # atno 6909 bound_to 6896
  145.5417  139.2289  143.2562 H   0  0  0  0  0  0  0  0  0  0  0  0  # atno 7974 bound_to 7965
  155.7459  140.3489  155.5126 H   0  0  0  0  0  0  0  0  0  0  0  0  # atno 8008 bound_to 7997
  155.9050  140.1040  157.1343 H   0  0  0  0  0  0  0  0  0  0  0  0  # atno 8009 bound_to 7997
  154.4048  140.1279  156.4472 H   0  0  0  0  0  0  0  0  0  0  0  0  # atno 8010 bound_to 7997
  140.3973  144.1771  150.6132 H   0  0  0  0  0  0  0  0  0  0  0  0  # atno 10167 bound_to 10162
  156.3827  130.4359  149.7456 H   0  0  0  0  0  0  0  0  0  0  0  0  # atno 10718 bound_to 10713
  154.4629  135.5889  153.6268 H   0  0  0  0  0  0  0  0  0  0  0  0  # atno 10763 bound_to 10752
  152.9825  135.6048  154.3464 H   0  0  0  0  0  0  0  0  0  0  0  0  # atno 10764 bound_to 10752
  154.3338  135.2842  155.2437 H   0  0  0  0  0  0  0  0  0  0  0  0  # atno 10765 bound_to 10752
  139.8993  134.9575  156.6959 H   0  0  0  0  0  0  0  0  0  0  0  0  # atno 11005 bound_to 11000
  146.1976  140.6238  142.9117 LP  0  0  0  0  0  0  0  0  0  0  0  0  # atno 17320 bound_to 7965
  144.7573  140.5339  143.6760 LP  0  0  0  0  0  0  0  0  0  0  0  0  # atno 17321 bound_to 7965
  140.4777  143.2390  151.9000 LP  0  0  0  0  0  0  0  0  0  0  0  0  # atno 17342 bound_to 10162
  139.4786  144.5303  151.8676 LP  0  0  0  0  0  0  0  0  0  0  0  0  # atno 17343 bound_to 10162
  156.4541  130.7920  151.2941 LP  0  0  0  0  0  0  0  0  0  0  0  0  # atno 17370 bound_to 10713
  157.7493  131.0086  150.3236 LP  0  0  0  0  0  0  0  0  0  0  0  0  # atno 17371 bound_to 10713
  140.7188  133.9158  155.8133 LP  0  0  0  0  0  0  0  0  0  0  0  0  # atno 17394 bound_to 11000
  141.0243  134.0845  157.4086 LP  0  0  0  0  0  0  0  0  0  0  0  0  # atno 17395 bound_to 11000

$$$$
