#       Name:                AV-unprocessed.smi:1464
#       Creating user name   scv26
#       Creation time:       Fri Mar 27 06:03:09 2020


#       File generated by GOLD software.
#

@<TRIPOS>MOLECULE
AV-unprocessed.smi:1464
    48    49     1
SMALL
NO_CHARGES


@<TRIPOS>ATOM
      1 ****        -4.5548  -2.0452   0.8039 C.3            1 S1                 0.0000
      2 ****        -3.5983  -0.8521   0.6195 C.3            1 S1                 0.0000
      3 ****        -3.6893   0.0744   1.8483 C.3            1 S1                 0.0000
      4 ****        -2.7825   1.3014   1.7065 C.3            1 S1                 0.0000
      5 ****        -1.3291   0.8743   1.4836 C.3            1 S1                 0.0000
      6 ****        -1.1942  -0.0451   0.2541 C.3            1 S1                 0.0000
      7 ****         0.2007  -0.4623   0.1200 N.am           1 S1                 0.0000
      8 ****         1.1612   0.2200  -0.5221 C.2            1 S1                 0.0000
      9 ****         0.9614   1.2930  -1.0934 O.2            1 S1                 0.0000
     10 ****         2.5531  -0.4287  -0.5267 C.3            1 S1                 0.0000
     11 ****         3.6425   0.5214  -0.7953 N.am           1 S1                 0.0000
     12 ****         4.1166   0.4864  -2.0980 N.2            1 S1                 0.0000
     13 ****         5.0673   1.2801  -2.4596 C.2            1 S1                 0.0000
     14 ****         5.5053   1.2130  -3.7594 O.3            1 S1                 0.0000
     15 ****         5.6579   2.2147  -1.5269 C.2            1 S1                 0.0000
     16 ****         5.1929   2.2379  -0.2586 C.2            1 S1                 0.0000
     17 ****         4.1170   1.3498   0.1856 C.2            1 S1                 0.0000
     18 ****         3.6774   1.3459   1.3354 O.2            1 S1                 0.0000
     19 ****        -2.1281  -1.2827   0.3494 C.3            1 S1                 0.0000
     20 ****        -2.0079  -2.1650  -0.9130 C.3            1 S1                 0.0000
     21 ****         4.9744   0.5471  -4.1687 H              1 S1                 0.0000
     22 ****        -4.2122  -2.7096   1.5977 H              1 S1                 0.0000
     23 ****        -4.6543  -2.6324  -0.1084 H              1 S1                 0.0000
     24 ****        -5.5570  -1.7058   1.0674 H              1 S1                 0.0000
     25 ****        -3.9472  -0.2850  -0.2450 H              1 S1                 0.0000
     26 ****        -4.7188   0.4044   1.9922 H              1 S1                 0.0000
     27 ****        -3.4154  -0.4783   2.7482 H              1 S1                 0.0000
     28 ****        -3.1197   1.9176   0.8718 H              1 S1                 0.0000
     29 ****        -2.8543   1.9222   2.6001 H              1 S1                 0.0000
     30 ****        -0.7060   1.7612   1.3611 H              1 S1                 0.0000
     31 ****        -0.9624   0.3604   2.3734 H              1 S1                 0.0000
     32 ****        -1.4839   0.5219  -0.6330 H              1 S1                 0.0000
     33 ****         0.4544  -1.3372   0.5556 H              1 S1                 0.0000
     34 ****         2.7256  -0.9283   0.4286 H              1 S1                 0.0000
     35 ****         2.5511  -1.2228  -1.2756 H              1 S1                 0.0000
     36 ****         6.4516   2.8738  -1.8465 H              1 S1                 0.0000
     37 ****         5.6247   2.9306   0.4486 H              1 S1                 0.0000
     38 ****        -1.7980  -1.8822   1.1996 H              1 S1                 0.0000
     39 ****        -2.3735  -1.6408  -1.7964 H              1 S1                 0.0000
     40 ****        -2.5723  -3.0915  -0.8158 H              1 S1                 0.0000
     41 ****        -0.9767  -2.4584  -1.1083 H              1 S1                 0.0000
     42 ****         0.0466   1.6969  -1.0932 LP             1 S1                 0.0000
     43 ****         1.7141   1.7602  -1.5574 LP             1 S1                 0.0000
     44 ****         3.7217  -0.1538  -2.7569 LP             1 S1                 0.0000
     45 ****         6.4718   0.9581  -3.7903 LP             1 S1                 0.0000
     46 ****         5.3779   2.0928  -4.2175 LP             1 S1                 0.0000
     47 ****         2.9408   0.7181   1.5870 LP             1 S1                 0.0000
     48 ****         4.0569   1.9706   2.0179 LP             1 S1                 0.0000
@<TRIPOS>BOND
    1    1    2 1     
    2    1   22 1     
    3    1   23 1     
    4    1   24 1     
    5    2   19 1     
    6    2    3 1     
    7    2   25 1     
    8    3    4 1     
    9    3   26 1     
   10    3   27 1     
   11    4    5 1     
   12    4   28 1     
   13    4   29 1     
   14    5    6 1     
   15    5   30 1     
   16    5   31 1     
   17    6    7 1     
   18    6   19 1     
   19    6   32 1     
   20    7    8 am    
   21    7   33 1     
   22    8    9 2     
   23    8   10 1     
   24   10   34 1     
   25   10   35 1     
   26   10   11 1     
   27   11   12 1     
   28   11   17 am    
   29   12   13 2     
   30   13   14 1     
   31   13   15 1     
   32   14   21 1     
   33   15   36 1     
   34   15   16 2     
   35   16   37 1     
   36   16   17 1     
   37   17   18 2     
   38   19   20 1     
   39   19   38 1     
   40   20   39 1     
   41   20   40 1     
   42   20   41 1     
   43    9   42 1     
   44    9   43 1     
   45   12   44 1     
   46   14   45 1     
   47   14   46 1     
   48   18   47 1     
   49   18   48 1     
@<TRIPOS>SUBSTRUCTURE
      1 S1             1
@<TRIPOS>SET
LONE_PAIRS      STATIC     ATOMS    <user>   **** ""
7 42 43 44 45 46 47 48
DONOR_HYDROGENS      STATIC     ATOMS    <user>   **** ""
2 33 21
ATOM$BLUE        STATIC     ATOMS    COLORGROUP SYSTEM
7 42 43 44 45 46 47 48
ATOM$RED        STATIC     ATOMS    COLORGROUP SYSTEM
2 33 21
