AV-unprocessed.smi:1118|AV-procd|sdf|4814|dock6
  -GOLD-   22720 3363D 1   1.00000     0.00000
 Structure written by MMmdl.
 45 46  0  0  0  0  0  0  0  0  2 V2000
  144.2082  133.6770  151.5755 C   0  0  0  0  0  0  0  0  0  0  0  0
  143.7326  134.8180  152.2681 O   0  0  0  0  0  0  0  0  0  0  0  0
  144.7305  135.8128  152.4279 C   0  0  0  0  0  0  0  0  0  0  0  0
  144.0569  137.1286  152.8470 C   0  0  0  0  0  0  0  0  0  0  0  0
  145.0416  138.1859  153.1903 N   0  3  2  0  0  0  0  0  0  0  0  0
  146.2695  138.1015  152.3595 C   0  0  0  0  0  0  0  0  0  0  0  0
  147.2056  139.2908  152.6300 C   0  0  0  0  0  0  0  0  0  0  0  0
  147.5839  139.3856  154.1184 C   0  0  1  0  0  0  0  0  0  0  0  0
  148.5162  140.5878  154.3763 C   0  0  0  0  0  0  0  0  0  0  0  0
  149.0191  140.6000  155.7458 N   0  0  0  0  0  0  0  0  0  0  0  0
  150.3129  140.5914  156.1028 C   0  0  0  0  0  0  0  0  0  0  0  0
  151.2422  140.5022  155.3005 O   0  0  0  0  0  0  0  0  0  0  0  0
  150.6031  140.7477  157.5948 C   0  0  0  0  0  0  0  0  0  0  0  0
  151.3457  141.9705  157.8422 N   0  0  0  0  0  0  0  0  0  0  0  0
  151.1606  143.2139  157.2743 C   0  0  0  0  0  0  0  0  0  0  0  0
  152.0811  144.0555  157.8300 C   0  0  0  0  0  0  0  0  0  0  0  0
  152.7937  143.2248  158.7394 C   0  0  0  0  0  0  0  0  0  0  0  0
  152.3503  141.9782  158.7465 N   0  0  0  0  0  0  0  0  0  0  0  0
  146.2913  139.4252  154.9596 C   0  0  0  0  0  0  0  0  0  0  0  0
  145.3708  138.2364  154.6390 C   0  0  0  0  0  0  0  0  0  0  0  0
  143.4063  132.9446  151.4815 H   0  0  0  0  0  0  0  0  0  0  0  0
  145.0332  133.2055  152.1116 H   0  0  0  0  0  0  0  0  0  0  0  0
  144.5459  133.9369  150.5714 H   0  0  0  0  0  0  0  0  0  0  0  0
  145.4796  135.4952  153.1534 H   0  0  0  0  0  0  0  0  0  0  0  0
  145.2491  135.9602  151.4793 H   0  0  0  0  0  0  0  0  0  0  0  0
  143.3952  137.4872  152.0574 H   0  0  0  0  0  0  0  0  0  0  0  0
  143.4203  136.9207  153.7083 H   0  0  0  0  0  0  0  0  0  0  0  0
  146.7845  137.1608  152.5614 H   0  0  0  0  0  0  0  0  0  0  0  0
  146.0000  138.0955  151.3028 H   0  0  0  0  0  0  0  0  0  0  0  0
  148.1056  139.1908  152.0220 H   0  0  0  0  0  0  0  0  0  0  0  0
  146.7202  140.2148  152.3120 H   0  0  0  0  0  0  0  0  0  0  0  0
  148.1298  138.4783  154.3830 H   0  0  0  0  0  0  0  0  0  0  0  0
  149.3792  140.5320  153.7122 H   0  0  0  0  0  0  0  0  0  0  0  0
  148.0088  141.5232  154.1337 H   0  0  0  0  0  0  0  0  0  0  0  0
  148.3308  140.6776  156.4810 H   0  0  0  0  0  0  0  0  0  0  0  0
  149.6736  140.7624  158.1666 H   0  0  0  0  0  0  0  0  0  0  0  0
  151.1886  139.8994  157.9520 H   0  0  0  0  0  0  0  0  0  0  0  0
  150.3958  143.3938  156.5329 H   0  0  0  0  0  0  0  0  0  0  0  0
  152.2237  145.1051  157.6193 H   0  0  0  0  0  0  0  0  0  0  0  0
  153.6133  143.4890  159.3911 H   0  0  0  0  0  0  0  0  0  0  0  0
  146.5271  139.4063  156.0240 H   0  0  0  0  0  0  0  0  0  0  0  0
  145.7598  140.3604  154.7779 H   0  0  0  0  0  0  0  0  0  0  0  0
  144.4624  138.3271  155.2332 H   0  0  0  0  0  0  0  0  0  0  0  0
  145.8502  137.3027  154.9374 H   0  0  0  0  0  0  0  0  0  0  0  0
  144.6044  139.0658  152.9546 H   0  0  0  0  0  0  0  0  0  0  0  0
  1  2  1  0  0  0  0
  1 21  1  0  0  0  0
  1 22  1  0  0  0  0
  1 23  1  0  0  0  0
  2  3  1  0  0  0  0
  3  4  1  0  0  0  0
  3 24  1  0  0  0  0
  3 25  1  0  0  0  0
  4  5  1  0  0  0  0
  4 26  1  0  0  0  0
  4 27  1  0  0  0  0
  5 20  1  0  0  0  0
  5  6  1  0  0  0  0
  5 45  1  0  0  0  0
  6  7  1  0  0  0  0
  6 28  1  0  0  0  0
  6 29  1  0  0  0  0
  7  8  1  0  0  0  0
  7 30  1  0  0  0  0
  7 31  1  0  0  0  0
  8  9  1  0  0  0  0
  8 19  1  0  0  0  0
  8 32  1  0  0  0  0
  9 10  1  0  0  0  0
  9 33  1  0  0  0  0
  9 34  1  0  0  0  0
 10 11  1  0  0  0  0
 10 35  1  0  0  0  0
 11 12  2  0  0  0  0
 11 13  1  0  0  0  0
 13 14  1  0  0  0  0
 13 36  1  0  0  0  0
 13 37  1  0  0  0  0
 14 18  1  0  0  0  0
 14 15  1  0  0  0  0
 15 16  2  0  0  0  0
 15 38  1  0  0  0  0
 16 17  1  0  0  0  0
 16 39  1  0  0  0  0
 17 18  2  0  0  0  0
 17 40  1  0  0  0  0
 19 20  1  0  0  0  0
 19 41  1  0  0  0  0
 19 42  1  0  0  0  0
 20 43  1  0  0  0  0
 20 44  1  0  0  0  0
M  CHG  1   5   1
M  END
> <s_m_source_file>
AV-unprocessed.smi

> <i_m_source_file_index>
1118

> <i_lp_mmshare_version>
43012

> <i_f3d_flags>
0

> <s_epik_input>
W0NIM11PW0NIMl1bQ0gyXU4xW0NIMl1bQ0gyXVtDSF0oW0NIMl1bQ0gyXTEpW0NIMl1bTkhdQyg9TylbQ0gyXW4yW2NIXVtjSF1bY0hdbjI=

> <s_epik_cmdline>
J2VwaWtfcHl0aG9uJywgJy1waCcsICc3LjAnLCAnLXRuJywgJzgnLCAnLW1hJywgJzIwMCcsICctbWV0YWxfYmluZGluZycsICctaW1hZScsICc8aW5maWxlLm1hZT4nLCAnLW9tYWUnLCAnPG91dGZpbGUubWFlPic=

> <r_lp_tautomer_probability>
1

> <r_epik_Ionization_Penalty>
0.00991549

> <r_epik_Ionization_Penalty_Charging>
0.00990284

> <r_epik_Ionization_Penalty_Neutral>
1.26554e-05

> <r_epik_State_Penalty>
0.00754525

> <r_epik_Charging_Adjusted_Penalty>
0.0174481

> <i_epik_Tot_Q>
1

> <i_epik_Tot_abs_Q>
1

> <r_epik_Metal_State_Penalty>
0.00754527

> <b_epik_Metal_Only>
0

> <s_lp_Force_Field>
OPLS_2005

> <r_lp_Energy>
19.0863

> <b_lp_Chiralities_Consistent>
1

> <s_lp_Variant>
AV-unprocessed.smi:1118-1

> <Gold.Version>
5.8.1

> <Gold.Id.Protein>
6NUR|6NUR_protein|mol2

> <Gold.PLP.Fitness>
43.8327

> <Gold.PLP.PLP>
-33.3256

> <Gold.PLP.part.hbond>
-2.0000

> <Gold.PLP.part.metal>
0.0000

> <Gold.PLP.part.buried>
-1.8064

> <Gold.PLP.part.nonpolar>
-30.4295

> <Gold.PLP.part.repulsive>
0.2353

> <Gold.PLP.ligand.clash>
0.0000

> <Gold.PLP.ligand.torsion>
0.7223

> <Gold.PLP.Chemscore.Hbond>
2.9440

> <Gold.PLP.Chemscore.CHOScore>
1.0000

> <Gold.PLP.Chemscore.Metal>
0.0000

> <Gold.Chemscore.Hbonds>
donor molecule, donor type, donor heavy atom, donor atom, acceptor molecule, acceptor atom, score
      L1  H     5    45       P1 10175  2.00
      P1  H  7989  7998       L1    12  0.91
      L1  C    15    38       P1  8028  1.00

> <Gold.PLP.Chemscore.Internal.Correction>
0.1196

> <Gold.Rescore>
     Score         DG    S(hbond)    S(metal)    S(lipo)     H(rot)  DE(clash)    DE(int)     intcor
     15.09     -16.01       1.95        0.00      82.83       2.22       0.40       0.53       ----

> <Gold.Chemscore.Fitness>
15.0884

> <Gold.Chemscore.DG>
-16.0148

> <Gold.Chemscore.ZeroCoef>
-5.4800

> <Gold.Chemscore.Hbond>
1.9517

> <Gold.Chemscore.Metal>
0.0000

> <Gold.Chemscore.Lipo>
82.8255

> <Gold.Chemscore.Internal_Hbond>
0.0000

> <Gold.Chemscore.DEClash>
0.3976

> <Gold.Chemscore.DEInternal>
0.5289

> <Gold.Chemscore.Rot>
2.2166

> <Gold.Chemscore.Internal.Correction>
   9.000000E+99

> <Gold.Chemscore.Hbonds>
donor molecule, donor type, donor heavy atom, donor atom, acceptor molecule, acceptor atom, score
      L1  H     5    45       P1 10175  1.00
      P1  H  7989  7998       L1    12  0.90

> <Gold.Chemscore.Hbond.Weighted>
-6.5188

> <Gold.Chemscore.Metal.Weighted>
-0.0000

> <Gold.Chemscore.Lipo.Weighted>
-9.6906

> <Gold.Chemscore.Internal_Hbond.Weighted>
0.0000

> <Gold.Chemscore.DEClash.Weighted>
0.3976

> <Gold.Chemscore.DEInternal.Weighted>
0.5289

> <Gold.Chemscore.Rot.Weighted>
5.6745

> <Gold.Chemscore.Internal.Correction.Weighted>
   9.000000E+99

> <Gold.Protein.RotatedTorsions>
[ 6907 6896 6895 6894 ] final -149.85 input  -60.11 | X-H torsion
[ 7974 7965 7964 7962 ] final  -85.14 input  175.53 | X-H torsion
[ 8008 7997 7996 7995 ] final -100.69 input   59.86 | X-H torsion
[ 10167 10162 10161 10158 ] final  -19.24 input  -65.29 | X-H torsion
[ 10718 10713 10712 10709 ] final   23.97 input   66.30 | X-H torsion
[ 10763 10752 10751 10750 ] final -159.01 input  -60.55 | X-H torsion
[ 11005 11000 10999 10996 ] final  -30.64 input  -57.11 | X-H torsion

> <Gold.Protein.ActiveResidues>
 VAL166  LYS551  ARG553  GLY616  TRP617  ASP618  TYR619  PRO620  LYS621  CYS622 
 ASP623  PHE694  ASN695  SER759  ASP760  ASP761  ALA762  ILE779  LEU786  VAL792 
 PHE793  MET794  SER795  GLU796  ALA797  LYS798  CYS799  TRP800  GLU811  SER814 

> <Gold.Protein.RotatedAtoms>
  151.1900  133.4673  159.2594 H   0  0  0  0  0  0  0  0  0  0  0  0  # atno 6907 bound_to 6896
  151.1173  135.0060  159.8532 H   0  0  0  0  0  0  0  0  0  0  0  0  # atno 6908 bound_to 6896
  152.5454  134.1814  159.8690 H   0  0  0  0  0  0  0  0  0  0  0  0  # atno 6909 bound_to 6896
  145.4972  140.9549  143.1779 H   0  0  0  0  0  0  0  0  0  0  0  0  # atno 7974 bound_to 7965
  154.8322  140.0439  157.1484 H   0  0  0  0  0  0  0  0  0  0  0  0  # atno 8008 bound_to 7997
  154.9140  140.3017  155.5231 H   0  0  0  0  0  0  0  0  0  0  0  0  # atno 8009 bound_to 7997
  156.2987  140.2353  156.4183 H   0  0  0  0  0  0  0  0  0  0  0  0  # atno 8010 bound_to 7997
  140.7266  143.4838  151.0082 H   0  0  0  0  0  0  0  0  0  0  0  0  # atno 10167 bound_to 10162
  157.1734  130.6770  149.6086 H   0  0  0  0  0  0  0  0  0  0  0  0  # atno 10718 bound_to 10713
  154.7510  135.3092  154.8557 H   0  0  0  0  0  0  0  0  0  0  0  0  # atno 10763 bound_to 10752
  153.9344  135.6781  153.4749 H   0  0  0  0  0  0  0  0  0  0  0  0  # atno 10764 bound_to 10752
  153.1106  135.4868  154.8957 H   0  0  0  0  0  0  0  0  0  0  0  0  # atno 10765 bound_to 10752
  140.9400  133.7284  156.1062 H   0  0  0  0  0  0  0  0  0  0  0  0  # atno 11005 bound_to 11000
  144.7800  139.6546  143.7158 LP  0  0  0  0  0  0  0  0  0  0  0  0  # atno 17320 bound_to 7965
  146.2248  139.5702  142.9594 LP  0  0  0  0  0  0  0  0  0  0  0  0  # atno 17321 bound_to 7965
  139.8538  143.7403  152.3177 LP  0  0  0  0  0  0  0  0  0  0  0  0  # atno 17342 bound_to 10162
  139.7594  144.7511  151.0386 LP  0  0  0  0  0  0  0  0  0  0  0  0  # atno 17343 bound_to 10162
  155.9735  130.4671  150.6313 LP  0  0  0  0  0  0  0  0  0  0  0  0  # atno 17370 bound_to 10713
  157.4021  131.0811  151.1298 LP  0  0  0  0  0  0  0  0  0  0  0  0  # atno 17371 bound_to 10713
  140.7747  134.3793  157.5500 LP  0  0  0  0  0  0  0  0  0  0  0  0  # atno 17394 bound_to 11000
  139.8818  134.9044  156.2876 LP  0  0  0  0  0  0  0  0  0  0  0  0  # atno 17395 bound_to 11000

$$$$
