AV-unprocessed.smi:3281|AV-procd|sdf|12559|dock1
  -GOLD-   2272018483D 1   1.00000     0.00000
 Structure written by MMmdl.
 36 37  0  0  0  0  0  0  0  0  1 V2000
  150.4874  136.1075  155.2989 C   0  0  0  0  0  0  0  0  0  0  0  0
  150.8456  137.2467  154.3386 C   0  0  0  0  0  0  0  0  0  0  0  0
  150.1008  138.5101  154.6192 C   0  0  0  0  0  0  0  0  0  0  0  0
  149.1618  139.1221  153.8262 C   0  0  0  0  0  0  0  0  0  0  0  0
  148.6370  140.2949  154.3733 N   0  0  0  0  0  0  0  0  0  0  0  0
  149.1719  140.5881  155.5610 C   0  0  0  0  0  0  0  0  0  0  0  0
  148.7579  141.7684  156.3802 C   0  0  0  0  0  0  0  0  0  0  0  0
  149.7635  142.1220  157.4877 C   0  0  0  0  0  0  0  0  0  0  0  0
  150.9061  142.8326  156.9288 N   0  0  0  0  0  0  0  0  0  0  0  0
  151.8538  143.2444  157.9561 C   0  0  1  0  0  0  0  0  0  0  0  0
  151.2317  144.3496  158.8388 C   0  0  0  0  0  0  0  0  0  0  0  0
  152.1809  144.8201  159.9529 C   0  0  0  0  0  0  0  0  0  0  0  0
  152.5663  143.6872  160.9137 C   0  0  0  0  0  0  0  0  0  0  0  0
  153.4572  142.3690  160.0454 S   0  0  0  0  0  0  0  0  0  0  0  0
  152.2114  141.9954  158.7818 C   0  0  0  0  0  0  0  0  0  0  0  0
  150.3633  139.4061  156.0935 S   0  0  0  0  0  0  0  0  0  0  0  0
  151.0564  135.2082  155.0630 H   0  0  0  0  0  0  0  0  0  0  0  0
  149.4282  135.8563  155.2375 H   0  0  0  0  0  0  0  0  0  0  0  0
  150.7082  136.3803  156.3312 H   0  0  0  0  0  0  0  0  0  0  0  0
  151.9180  137.4369  154.3922 H   0  0  0  0  0  0  0  0  0  0  0  0
  150.6469  136.9314  153.3139 H   0  0  0  0  0  0  0  0  0  0  0  0
  148.8051  138.7905  152.8621 H   0  0  0  0  0  0  0  0  0  0  0  0
  148.6068  142.6218  155.7179 H   0  0  0  0  0  0  0  0  0  0  0  0
  147.7868  141.5527  156.8272 H   0  0  0  0  0  0  0  0  0  0  0  0
  149.2828  142.7577  158.2321 H   0  0  0  0  0  0  0  0  0  0  0  0
  150.0791  141.2119  157.9971 H   0  0  0  0  0  0  0  0  0  0  0  0
  150.5707  143.6479  156.4356 H   0  0  0  0  0  0  0  0  0  0  0  0
  152.7636  143.6132  157.4798 H   0  0  0  0  0  0  0  0  0  0  0  0
  150.9629  145.2147  158.2329 H   0  0  0  0  0  0  0  0  0  0  0  0
  150.3016  143.9910  159.2825 H   0  0  0  0  0  0  0  0  0  0  0  0
  153.0806  145.2526  159.5136 H   0  0  0  0  0  0  0  0  0  0  0  0
  151.7017  145.6206  160.5170 H   0  0  0  0  0  0  0  0  0  0  0  0
  153.2002  144.0696  161.7138 H   0  0  0  0  0  0  0  0  0  0  0  0
  151.6763  143.2670  161.3833 H   0  0  0  0  0  0  0  0  0  0  0  0
  151.3251  141.5887  159.2710 H   0  0  0  0  0  0  0  0  0  0  0  0
  152.6091  141.2112  158.1363 H   0  0  0  0  0  0  0  0  0  0  0  0
  1  2  1  0  0  0  0
  1 17  1  0  0  0  0
  1 18  1  0  0  0  0
  1 19  1  0  0  0  0
  2  3  1  0  0  0  0
  2 20  1  0  0  0  0
  2 21  1  0  0  0  0
  3 16  1  0  0  0  0
  3  4  2  0  0  0  0
  4  5  1  0  0  0  0
  4 22  1  0  0  0  0
  5  6  2  0  0  0  0
  6  7  1  0  0  0  0
  6 16  1  0  0  0  0
  7  8  1  0  0  0  0
  7 23  1  0  0  0  0
  7 24  1  0  0  0  0
  8  9  1  0  0  0  0
  8 25  1  0  0  0  0
  8 26  1  0  0  0  0
  9 10  1  0  0  0  0
  9 27  1  0  0  0  0
 10 15  1  0  0  0  0
 10 11  1  0  0  0  0
 10 28  1  0  0  0  0
 11 12  1  0  0  0  0
 11 29  1  0  0  0  0
 11 30  1  0  0  0  0
 12 13  1  0  0  0  0
 12 31  1  0  0  0  0
 12 32  1  0  0  0  0
 13 14  1  0  0  0  0
 13 33  1  0  0  0  0
 13 34  1  0  0  0  0
 14 15  1  0  0  0  0
 15 35  1  0  0  0  0
 15 36  1  0  0  0  0
M  END
> <s_m_source_file>
AV-unprocessed.smi

> <i_m_source_file_index>
3281

> <i_lp_mmshare_version>
43012

> <i_f3d_flags>
0

> <s_epik_input>
W0NIM11bQ0gyXWMxW2NIXW5jKHMxKVtDSDJdW0NIMl1bTkhdW0NAQEhdMltDSDJdW0NIMl1bQ0gyXVNbQ0gyXTI=

> <s_epik_cmdline>
J2VwaWtfcHl0aG9uJywgJy1waCcsICc3LjAnLCAnLXRuJywgJzgnLCAnLW1hJywgJzIwMCcsICctbWV0YWxfYmluZGluZycsICctaW1hZScsICc8aW5maWxlLm1hZT4nLCAnLW9tYWUnLCAnPG91dGZpbGUubWFlPic=

> <r_epik_Ionization_Penalty>
2.53829

> <r_epik_Ionization_Penalty_Charging>
0

> <r_epik_Ionization_Penalty_Neutral>
2.53829

> <r_epik_State_Penalty>
2.70274

> <r_epik_Charging_Adjusted_Penalty>
2.70274

> <i_epik_Tot_Q>
0

> <i_epik_Tot_abs_Q>
0

> <r_epik_Metal_State_Penalty>
2.69977

> <b_epik_Metal_Only>
0

> <s_lp_Force_Field>
OPLS_2005

> <r_lp_Energy>
0.42492

> <b_lp_Chiralities_Consistent>
1

> <s_lp_Variant>
AV-unprocessed.smi:3281-4

> <Gold.Version>
5.8.1

> <Gold.Id.Protein>
6NUR|6NUR_protein|mol2

> <Gold.PLP.Fitness>
40.7471

> <Gold.PLP.PLP>
-33.5561

> <Gold.PLP.part.hbond>
-1.0000

> <Gold.PLP.part.metal>
0.0000

> <Gold.PLP.part.buried>
-3.0689

> <Gold.PLP.part.nonpolar>
-29.9616

> <Gold.PLP.part.repulsive>
0.1085

> <Gold.PLP.ligand.clash>
0.0000

> <Gold.PLP.ligand.torsion>
0.3910

> <Gold.PLP.Chemscore.Hbond>
1.0000

> <Gold.PLP.Chemscore.CHOScore>
1.6452

> <Gold.PLP.Chemscore.Metal>
0.0000

> <Gold.Chemscore.Hbonds>
donor molecule, donor type, donor heavy atom, donor atom, acceptor molecule, acceptor atom, score
      L1  H     9    27       P1  8028  0.72
      L1  C     4    22       P1  7948  0.50
      L1  C     4    22       P1  7957  0.67

> <Gold.PLP.Chemscore.Internal.Correction>
0.0375

> <Gold.Rescore>
     Score         DG    S(hbond)    S(metal)    S(lipo)     H(rot)  DE(clash)    DE(int)     intcor
     18.23     -18.65       0.98        0.00     112.96       1.30       0.02       0.40       ----

> <Gold.Chemscore.Fitness>
18.2341

> <Gold.Chemscore.DG>
-18.6505

> <Gold.Chemscore.ZeroCoef>
-5.4800

> <Gold.Chemscore.Hbond>
0.9807

> <Gold.Chemscore.Metal>
0.0000

> <Gold.Chemscore.Lipo>
112.9552

> <Gold.Chemscore.Internal_Hbond>
0.0000

> <Gold.Chemscore.DEClash>
0.0197

> <Gold.Chemscore.DEInternal>
0.3967

> <Gold.Chemscore.Rot>
1.2972

> <Gold.Chemscore.Internal.Correction>
   9.000000E+99

> <Gold.Chemscore.Hbonds>
donor molecule, donor type, donor heavy atom, donor atom, acceptor molecule, acceptor atom, score
      L1  H     9    27       P1  8028  0.69

> <Gold.Chemscore.Hbond.Weighted>
-3.2755

> <Gold.Chemscore.Metal.Weighted>
-0.0000

> <Gold.Chemscore.Lipo.Weighted>
-13.2158

> <Gold.Chemscore.Internal_Hbond.Weighted>
0.0000

> <Gold.Chemscore.DEClash.Weighted>
0.0197

> <Gold.Chemscore.DEInternal.Weighted>
0.3967

> <Gold.Chemscore.Rot.Weighted>
3.3208

> <Gold.Chemscore.Internal.Correction.Weighted>
   9.000000E+99

> <Gold.Protein.RotatedTorsions>
[ 6907 6896 6895 6894 ] final -171.55 input  -60.11 | X-H torsion
[ 7974 7965 7964 7962 ] final  156.93 input  175.53 | X-H torsion
[ 8008 7997 7996 7995 ] final  -84.12 input   59.86 | X-H torsion
[ 10167 10162 10161 10158 ] final   29.27 input  -65.29 | X-H torsion
[ 10718 10713 10712 10709 ] final  -84.04 input   66.30 | X-H torsion
[ 10763 10752 10751 10750 ] final   32.08 input  -60.55 | X-H torsion
[ 11005 11000 10999 10996 ] final   21.74 input  -57.11 | X-H torsion

> <Gold.Protein.ActiveResidues>
 VAL166  LYS551  ARG553  GLY616  TRP617  ASP618  TYR619  PRO620  LYS621  CYS622 
 ASP623  PHE694  ASN695  SER759  ASP760  ASP761  ALA762  ILE779  LEU786  VAL792 
 PHE793  MET794  SER795  GLU796  ALA797  LYS798  CYS799  TRP800  GLU811  SER814 

> <Gold.Protein.RotatedAtoms>
  151.5256  133.3458  159.2908 H   0  0  0  0  0  0  0  0  0  0  0  0  # atno 6907 bound_to 6896
  150.8625  134.7983  159.7105 H   0  0  0  0  0  0  0  0  0  0  0  0  # atno 6908 bound_to 6896
  152.4640  134.5127  159.9810 H   0  0  0  0  0  0  0  0  0  0  0  0  # atno 6909 bound_to 6896
  144.7933  139.7271  143.6212 H   0  0  0  0  0  0  0  0  0  0  0  0  # atno 7974 bound_to 7965
  154.6264  140.0609  156.9678 H   0  0  0  0  0  0  0  0  0  0  0  0  # atno 8008 bound_to 7997
  155.1736  140.3293  155.4369 H   0  0  0  0  0  0  0  0  0  0  0  0  # atno 8009 bound_to 7997
  156.2459  140.1910  156.6836 H   0  0  0  0  0  0  0  0  0  0  0  0  # atno 8010 bound_to 7997
  140.4780  144.0660  150.6256 H   0  0  0  0  0  0  0  0  0  0  0  0  # atno 10167 bound_to 10162
  156.0011  130.4685  150.4349 H   0  0  0  0  0  0  0  0  0  0  0  0  # atno 10718 bound_to 10713
  153.0281  135.6422  154.1300 H   0  0  0  0  0  0  0  0  0  0  0  0  # atno 10763 bound_to 10752
  154.1026  135.2858  155.3250 H   0  0  0  0  0  0  0  0  0  0  0  0  # atno 10764 bound_to 10752
  154.6388  135.5467  153.7828 H   0  0  0  0  0  0  0  0  0  0  0  0  # atno 10765 bound_to 10752
  140.3883  134.1847  155.7663 H   0  0  0  0  0  0  0  0  0  0  0  0  # atno 11005 bound_to 11000
  146.2193  139.5606  142.9629 LP  0  0  0  0  0  0  0  0  0  0  0  0  # atno 17320 bound_to 7965
  145.5737  141.0391  143.2160 LP  0  0  0  0  0  0  0  0  0  0  0  0  # atno 17321 bound_to 7965
  140.3893  143.2761  152.0078 LP  0  0  0  0  0  0  0  0  0  0  0  0  # atno 17342 bound_to 10162
  139.4829  144.6090  151.7468 LP  0  0  0  0  0  0  0  0  0  0  0  0  # atno 17343 bound_to 10162
  157.2395  131.0522  151.2445 LP  0  0  0  0  0  0  0  0  0  0  0  0  # atno 17370 bound_to 10713
  157.3634  130.7143  149.6516 LP  0  0  0  0  0  0  0  0  0  0  0  0  # atno 17371 bound_to 10713
  141.1900  133.8227  157.0936 LP  0  0  0  0  0  0  0  0  0  0  0  0  # atno 17394 bound_to 11000
  140.0426  134.9846  157.0990 LP  0  0  0  0  0  0  0  0  0  0  0  0  # atno 17395 bound_to 11000

$$$$
