AV-unprocessed.smi:858|AV-procd|sdf|3962|dock5
  -GOLD-   22720 1433D 1   1.00000     0.00000
 Structure written by MMmdl.
 44 45  0  0  0  0  0  0  0  0  1 V2000
  146.5868  132.4580  151.8192 C   0  0  0  0  0  0  0  0  0  0  0  0
  145.6051  133.2208  150.9248 C   0  0  0  0  0  0  0  0  0  0  0  0
  145.1174  132.6279  149.9617 O   0  0  0  0  0  0  0  0  0  0  0  0
  145.3059  134.5110  151.2139 N   0  0  0  0  0  0  0  0  0  0  0  0
  144.3541  135.2446  150.3746 C   0  0  0  0  0  0  0  0  0  0  0  0
  145.8843  135.2544  152.3455 C   0  0  0  0  0  0  0  0  0  0  0  0
  145.6086  136.7636  152.2911 C   0  0  0  0  0  0  0  0  0  0  0  0
  144.4626  137.2017  152.4002 O   0  0  0  0  0  0  0  0  0  0  0  0
  146.6808  137.5486  152.1050 N   0  0  0  0  0  0  0  0  0  0  0  0
  146.6484  139.0020  151.9908 C   0  0  0  0  0  0  0  0  0  0  0  0
  147.3937  139.6866  153.1215 C   0  0  0  0  0  0  0  0  0  0  0  0
  147.0527  140.9908  153.5287 C   0  0  0  0  0  0  0  0  0  0  0  0
  147.7614  141.5795  154.5933 C   0  0  0  0  0  0  0  0  0  0  0  0
  148.7926  140.8449  155.2261 C   0  0  0  0  0  0  0  0  0  0  0  0
  149.5111  141.4145  156.2989 N   0  0  0  0  0  0  0  0  0  0  0  0
  150.7060  140.6852  156.7154 C   0  0  0  0  0  0  0  0  0  0  0  0
  151.5575  141.5492  157.6618 C   0  0  0  0  0  0  0  0  0  0  0  0
  150.7649  141.9889  158.7599 O   0  0  0  0  0  0  0  0  0  0  0  0
  149.6687  142.7916  158.3342 C   0  0  0  0  0  0  0  0  0  0  0  0
  148.7496  141.9675  157.4171 C   0  0  0  0  0  0  0  0  0  0  0  0
  149.1121  139.5866  154.8336 N   0  0  0  0  0  0  0  0  0  0  0  0
  148.4325  139.0286  153.8097 C   0  0  0  0  0  0  0  0  0  0  0  0
  147.5854  132.8902  151.7552 H   0  0  0  0  0  0  0  0  0  0  0  0
  146.6570  131.4153  151.5069 H   0  0  0  0  0  0  0  0  0  0  0  0
  146.2620  132.4696  152.8596 H   0  0  0  0  0  0  0  0  0  0  0  0
  144.7982  135.4701  149.4041 H   0  0  0  0  0  0  0  0  0  0  0  0
  144.0481  136.1874  150.8298 H   0  0  0  0  0  0  0  0  0  0  0  0
  143.4449  134.6640  150.2089 H   0  0  0  0  0  0  0  0  0  0  0  0
  145.5346  134.8520  153.2969 H   0  0  0  0  0  0  0  0  0  0  0  0
  146.9656  135.1118  152.3637 H   0  0  0  0  0  0  0  0  0  0  0  0
  147.5845  137.1055  152.0232 H   0  0  0  0  0  0  0  0  0  0  0  0
  147.0551  139.3250  151.0307 H   0  0  0  0  0  0  0  0  0  0  0  0
  145.6065  139.3233  152.0023 H   0  0  0  0  0  0  0  0  0  0  0  0
  146.2569  141.5320  153.0383 H   0  0  0  0  0  0  0  0  0  0  0  0
  147.4966  142.5733  154.9220 H   0  0  0  0  0  0  0  0  0  0  0  0
  150.3990  139.7695  157.2225 H   0  0  0  0  0  0  0  0  0  0  0  0
  151.3143  140.3863  155.8628 H   0  0  0  0  0  0  0  0  0  0  0  0
  152.3993  140.9705  158.0422 H   0  0  0  0  0  0  0  0  0  0  0  0
  151.9749  142.4082  157.1338 H   0  0  0  0  0  0  0  0  0  0  0  0
  149.1168  143.1332  159.2100 H   0  0  0  0  0  0  0  0  0  0  0  0
  150.0337  143.6825  157.8203 H   0  0  0  0  0  0  0  0  0  0  0  0
  147.9437  142.6024  157.0471 H   0  0  0  0  0  0  0  0  0  0  0  0
  148.2922  141.1534  157.9812 H   0  0  0  0  0  0  0  0  0  0  0  0
  148.7236  138.0249  153.5369 H   0  0  0  0  0  0  0  0  0  0  0  0
  1  2  1  0  0  0  0
  1 23  1  0  0  0  0
  1 24  1  0  0  0  0
  1 25  1  0  0  0  0
  2  3  2  0  0  0  0
  2  4  1  0  0  0  0
  4  5  1  0  0  0  0
  4  6  1  0  0  0  0
  5 26  1  0  0  0  0
  5 27  1  0  0  0  0
  5 28  1  0  0  0  0
  6  7  1  0  0  0  0
  6 29  1  0  0  0  0
  6 30  1  0  0  0  0
  7  8  2  0  0  0  0
  7  9  1  0  0  0  0
  9 10  1  0  0  0  0
  9 31  1  0  0  0  0
 10 11  1  0  0  0  0
 10 32  1  0  0  0  0
 10 33  1  0  0  0  0
 11 22  1  0  0  0  0
 11 12  2  0  0  0  0
 12 13  1  0  0  0  0
 12 34  1  0  0  0  0
 13 14  2  0  0  0  0
 13 35  1  0  0  0  0
 14 15  1  0  0  0  0
 14 21  1  0  0  0  0
 15 20  1  0  0  0  0
 15 16  1  0  0  0  0
 16 17  1  0  0  0  0
 16 36  1  0  0  0  0
 16 37  1  0  0  0  0
 17 18  1  0  0  0  0
 17 38  1  0  0  0  0
 17 39  1  0  0  0  0
 18 19  1  0  0  0  0
 19 20  1  0  0  0  0
 19 40  1  0  0  0  0
 19 41  1  0  0  0  0
 20 42  1  0  0  0  0
 20 43  1  0  0  0  0
 21 22  2  0  0  0  0
 22 44  1  0  0  0  0
M  END
> <s_m_source_file>
AV-unprocessed.smi

> <i_m_source_file_index>
858

> <i_lp_mmshare_version>
43012

> <i_f3d_flags>
0

> <s_epik_input>
W0NIM11DKD1PKU4oW0NIM10pW0NIMl1DKD1PKVtOSF1bQ0gyXWMxW2NIXVtjSF1jKG5bY0hdMSlOMltDSDJdW0NIMl1PW0NIMl1bQ0gyXTI=

> <s_epik_cmdline>
J2VwaWtfcHl0aG9uJywgJy1waCcsICc3LjAnLCAnLXRuJywgJzgnLCAnLW1hJywgJzIwMCcsICctbWV0YWxfYmluZGluZycsICctaW1hZScsICc8aW5maWxlLm1hZT4nLCAnLW9tYWUnLCAnPG91dGZpbGUubWFlPic=

> <r_lp_tautomer_probability>
1

> <r_epik_Ionization_Penalty>
0.00462928

> <r_epik_Ionization_Penalty_Charging>
0

> <r_epik_Ionization_Penalty_Neutral>
0.00462928

> <r_epik_State_Penalty>
0.00334737

> <r_epik_Charging_Adjusted_Penalty>
0.00334737

> <i_epik_Tot_Q>
0

> <i_epik_Tot_abs_Q>
0

> <r_epik_Metal_State_Penalty>
-0

> <b_epik_Metal_Only>
0

> <s_lp_Force_Field>
OPLS_2005

> <r_lp_Energy>
20.1823

> <b_lp_Chiralities_Consistent>
1

> <s_lp_Variant>
AV-unprocessed.smi:858-1

> <Gold.Version>
5.8.1

> <Gold.Id.Protein>
6NUR|6NUR_protein|mol2

> <Gold.PLP.Fitness>
39.4519

> <Gold.PLP.PLP>
-34.5348

> <Gold.PLP.part.hbond>
-1.0000

> <Gold.PLP.part.metal>
0.0000

> <Gold.PLP.part.buried>
-2.4591

> <Gold.PLP.part.nonpolar>
-31.7371

> <Gold.PLP.part.repulsive>
1.8867

> <Gold.PLP.ligand.clash>
0.0551

> <Gold.PLP.ligand.torsion>
0.6987

> <Gold.PLP.Chemscore.Hbond>
1.0000

> <Gold.PLP.Chemscore.CHOScore>
1.0000

> <Gold.PLP.Chemscore.Metal>
0.0000

> <Gold.Chemscore.Hbonds>
donor molecule, donor type, donor heavy atom, donor atom, acceptor molecule, acceptor atom, score
      L1  H     9    31       P1  7948  1.00
      L1  C    22    44       P1  7948  1.00

> <Gold.PLP.Chemscore.Internal.Correction>
0.3697

> <Gold.Rescore>
     Score         DG    S(hbond)    S(metal)    S(lipo)     H(rot)  DE(clash)    DE(int)     intcor
      9.99     -12.36       1.00        0.00      73.95       2.00       0.17       2.21       ----

> <Gold.Chemscore.Fitness>
9.9852

> <Gold.Chemscore.DG>
-12.3623

> <Gold.Chemscore.ZeroCoef>
-5.4800

> <Gold.Chemscore.Hbond>
0.9997

> <Gold.Chemscore.Metal>
0.0000

> <Gold.Chemscore.Lipo>
73.9490

> <Gold.Chemscore.Internal_Hbond>
0.0000

> <Gold.Chemscore.DEClash>
0.1678

> <Gold.Chemscore.DEInternal>
2.2093

> <Gold.Chemscore.Rot>
1.9956

> <Gold.Chemscore.Internal.Correction>
   9.000000E+99

> <Gold.Chemscore.Hbonds>
donor molecule, donor type, donor heavy atom, donor atom, acceptor molecule, acceptor atom, score
      L1  H     9    31       P1  7948  0.99

> <Gold.Chemscore.Hbond.Weighted>
-3.3390

> <Gold.Chemscore.Metal.Weighted>
-0.0000

> <Gold.Chemscore.Lipo.Weighted>
-8.6520

> <Gold.Chemscore.Internal_Hbond.Weighted>
0.0000

> <Gold.Chemscore.DEClash.Weighted>
0.1678

> <Gold.Chemscore.DEInternal.Weighted>
2.2093

> <Gold.Chemscore.Rot.Weighted>
5.1087

> <Gold.Chemscore.Internal.Correction.Weighted>
   9.000000E+99

> <Gold.Protein.RotatedTorsions>
[ 6907 6896 6895 6894 ] final   87.06 input  -60.11 | X-H torsion
[ 7974 7965 7964 7962 ] final -158.45 input  175.53 | X-H torsion
[ 8008 7997 7996 7995 ] final  166.26 input   59.86 | X-H torsion
[ 10167 10162 10161 10158 ] final  -28.72 input  -65.29 | X-H torsion
[ 10718 10713 10712 10709 ] final -123.36 input   66.30 | X-H torsion
[ 10763 10752 10751 10750 ] final   29.27 input  -60.55 | X-H torsion
[ 11005 11000 10999 10996 ] final  145.12 input  -57.11 | X-H torsion

> <Gold.Protein.ActiveResidues>
 VAL166  LYS551  ARG553  GLY616  TRP617  ASP618  TYR619  PRO620  LYS621  CYS622 
 ASP623  PHE694  ASN695  SER759  ASP760  ASP761  ALA762  ILE779  LEU786  VAL792 
 PHE793  MET794  SER795  GLU796  ALA797  LYS798  CYS799  TRP800  GLU811  SER814 

> <Gold.Protein.RotatedAtoms>
  152.5405  134.2334  159.8833 H   0  0  0  0  0  0  0  0  0  0  0  0  # atno 6907 bound_to 6896
  151.2305  133.4446  159.2611 H   0  0  0  0  0  0  0  0  0  0  0  0  # atno 6908 bound_to 6896
  151.0720  134.9817  159.8369 H   0  0  0  0  0  0  0  0  0  0  0  0  # atno 6909 bound_to 6896
  144.7505  140.3825  143.6052 H   0  0  0  0  0  0  0  0  0  0  0  0  # atno 7974 bound_to 7965
  156.1733  140.1648  156.8409 H   0  0  0  0  0  0  0  0  0  0  0  0  # atno 8008 bound_to 7997
  154.5279  140.0763  156.8327 H   0  0  0  0  0  0  0  0  0  0  0  0  # atno 8009 bound_to 7997
  155.3467  140.3387  155.4241 H   0  0  0  0  0  0  0  0  0  0  0  0  # atno 8010 bound_to 7997
  140.7267  143.3987  151.1302 H   0  0  0  0  0  0  0  0  0  0  0  0  # atno 10167 bound_to 10162
  156.1496  130.6525  150.9893 H   0  0  0  0  0  0  0  0  0  0  0  0  # atno 10718 bound_to 10713
  153.0440  135.6493  154.0865 H   0  0  0  0  0  0  0  0  0  0  0  0  # atno 10763 bound_to 10752
  154.0566  135.2891  155.3333 H   0  0  0  0  0  0  0  0  0  0  0  0  # atno 10764 bound_to 10752
  154.6685  135.5365  153.8173 H   0  0  0  0  0  0  0  0  0  0  0  0  # atno 10765 bound_to 10752
  140.0687  134.9164  157.1308 H   0  0  0  0  0  0  0  0  0  0  0  0  # atno 11005 bound_to 11000
  145.6962  139.1650  143.2619 LP  0  0  0  0  0  0  0  0  0  0  0  0  # atno 17320 bound_to 7965
  146.1448  140.7008  142.9350 LP  0  0  0  0  0  0  0  0  0  0  0  0  # atno 17321 bound_to 7965
  139.7603  143.8645  152.3098 LP  0  0  0  0  0  0  0  0  0  0  0  0  # atno 17342 bound_to 10162
  139.8528  144.7156  150.9193 LP  0  0  0  0  0  0  0  0  0  0  0  0  # atno 17343 bound_to 10162
  157.6645  131.0874  150.7760 LP  0  0  0  0  0  0  0  0  0  0  0  0  # atno 17370 bound_to 10713
  156.7829  130.4865  149.5398 LP  0  0  0  0  0  0  0  0  0  0  0  0  # atno 17371 bound_to 10713
  140.3660  134.2442  155.7182 LP  0  0  0  0  0  0  0  0  0  0  0  0  # atno 17394 bound_to 11000
  141.2003  133.7991  157.0496 LP  0  0  0  0  0  0  0  0  0  0  0  0  # atno 17395 bound_to 11000

$$$$
