AV-unprocessed.smi:1436|AV-procd|sdf|5860|dock7
  -GOLD-   22720 5533D 1   1.00000     0.00000
 Structure written by MMmdl.
 43 44  0  0  0  0  0  0  0  0  1 V2000
  151.6714  142.7411  159.5100 C   0  0  0  0  0  0  0  0  0  0  0  0
  151.8890  141.5319  158.6471 C   0  0  0  0  0  0  0  0  0  0  0  0
  152.5364  140.4886  159.1379 N   0  0  0  0  0  0  0  0  0  0  0  0
  152.5864  139.5484  158.1045 O   0  0  0  0  0  0  0  0  0  0  0  0
  151.9610  140.0701  157.0187 C   0  0  0  0  0  0  0  0  0  0  0  0
  151.9123  139.2166  155.7969 C   0  0  0  0  0  0  0  0  0  0  0  0
  151.4926  141.3251  157.2941 C   0  0  0  0  0  0  0  0  0  0  0  0
  150.7413  142.2674  156.3865 C   0  0  0  0  0  0  0  0  0  0  0  0
  149.4214  141.6423  155.9245 C   0  0  0  0  0  0  0  0  0  0  0  0
  148.9284  140.6964  156.5404 O   0  0  0  0  0  0  0  0  0  0  0  0
  148.8620  142.1813  154.8302 N   0  0  0  0  0  0  0  0  0  0  0  0
  147.6296  141.7252  154.1913 C   0  0  1  0  0  0  0  0  0  0  0  0
  147.5423  140.1909  154.2169 C   0  0  0  0  0  0  0  0  0  0  0  0
  146.3807  142.4322  154.7729 C   0  0  0  0  0  0  0  0  0  0  0  0
  145.9989  143.7111  154.1656 N   0  0  0  0  0  0  0  0  0  0  0  0
  144.6612  144.1081  154.5932 C   0  0  0  0  0  0  0  0  0  0  0  0
  144.2331  145.4524  153.9798 C   0  0  0  0  0  0  0  0  0  0  0  0
  144.3013  145.3699  152.5603 O   0  0  0  0  0  0  0  0  0  0  0  0
  145.6034  145.0321  152.0950 C   0  0  0  0  0  0  0  0  0  0  0  0
  146.0387  143.6884  152.7048 C   0  0  0  0  0  0  0  0  0  0  0  0
  152.3971  143.5193  159.2732 H   0  0  0  0  0  0  0  0  0  0  0  0
  151.7716  142.5043  160.5696 H   0  0  0  0  0  0  0  0  0  0  0  0
  150.6752  143.1569  159.3579 H   0  0  0  0  0  0  0  0  0  0  0  0
  152.3431  139.7415  154.9441 H   0  0  0  0  0  0  0  0  0  0  0  0
  150.8831  138.9567  155.5496 H   0  0  0  0  0  0  0  0  0  0  0  0
  152.4702  138.2908  155.9397 H   0  0  0  0  0  0  0  0  0  0  0  0
  150.5118  143.2064  156.8907 H   0  0  0  0  0  0  0  0  0  0  0  0
  151.3472  142.5302  155.5184 H   0  0  0  0  0  0  0  0  0  0  0  0
  149.3362  142.9582  154.3933 H   0  0  0  0  0  0  0  0  0  0  0  0
  147.6903  142.0095  153.1393 H   0  0  0  0  0  0  0  0  0  0  0  0
  146.6377  139.8438  153.7170 H   0  0  0  0  0  0  0  0  0  0  0  0
  147.5294  139.8028  155.2357 H   0  0  0  0  0  0  0  0  0  0  0  0
  148.3939  139.7424  153.7047 H   0  0  0  0  0  0  0  0  0  0  0  0
  145.5290  141.7500  154.7725 H   0  0  0  0  0  0  0  0  0  0  0  0
  146.5975  142.6159  155.8261 H   0  0  0  0  0  0  0  0  0  0  0  0
  143.9398  143.3392  154.3123 H   0  0  0  0  0  0  0  0  0  0  0  0
  144.6273  144.1845  155.6807 H   0  0  0  0  0  0  0  0  0  0  0  0
  143.2124  145.6966  154.2745 H   0  0  0  0  0  0  0  0  0  0  0  0
  144.8727  146.2615  154.3359 H   0  0  0  0  0  0  0  0  0  0  0  0
  145.5875  144.9671  151.0070 H   0  0  0  0  0  0  0  0  0  0  0  0
  146.3082  145.8219  152.3594 H   0  0  0  0  0  0  0  0  0  0  0  0
  147.0452  143.4647  152.3555 H   0  0  0  0  0  0  0  0  0  0  0  0
  145.3899  142.8965  152.3304 H   0  0  0  0  0  0  0  0  0  0  0  0
  1  2  1  0  0  0  0
  1 21  1  0  0  0  0
  1 22  1  0  0  0  0
  1 23  1  0  0  0  0
  2  7  1  0  0  0  0
  2  3  2  0  0  0  0
  3  4  1  0  0  0  0
  4  5  1  0  0  0  0
  5  6  1  0  0  0  0
  5  7  2  0  0  0  0
  6 24  1  0  0  0  0
  6 25  1  0  0  0  0
  6 26  1  0  0  0  0
  7  8  1  0  0  0  0
  8  9  1  0  0  0  0
  8 27  1  0  0  0  0
  8 28  1  0  0  0  0
  9 10  2  0  0  0  0
  9 11  1  0  0  0  0
 11 12  1  0  0  0  0
 11 29  1  0  0  0  0
 12 13  1  0  0  0  0
 12 14  1  0  0  0  0
 12 30  1  0  0  0  0
 13 31  1  0  0  0  0
 13 32  1  0  0  0  0
 13 33  1  0  0  0  0
 14 15  1  0  0  0  0
 14 34  1  0  0  0  0
 14 35  1  0  0  0  0
 15 20  1  0  0  0  0
 15 16  1  0  0  0  0
 16 17  1  0  0  0  0
 16 36  1  0  0  0  0
 16 37  1  0  0  0  0
 17 18  1  0  0  0  0
 17 38  1  0  0  0  0
 17 39  1  0  0  0  0
 18 19  1  0  0  0  0
 19 20  1  0  0  0  0
 19 40  1  0  0  0  0
 19 41  1  0  0  0  0
 20 42  1  0  0  0  0
 20 43  1  0  0  0  0
M  END
> <s_m_source_file>
AV-unprocessed.smi

> <i_m_source_file_index>
1436

> <i_lp_mmshare_version>
43012

> <i_f3d_flags>
0

> <s_epik_input>
W0NIM11jMW5vYyhbQ0gzXSljMVtDSDJdQyg9TylbTkhdW0NASF0oW0NIM10pW0NIMl1OMltDSDJdW0NIMl1PW0NIMl1bQ0gyXTI=

> <s_epik_cmdline>
J2VwaWtfcHl0aG9uJywgJy1waCcsICc3LjAnLCAnLXRuJywgJzgnLCAnLW1hJywgJzIwMCcsICctbWV0YWxfYmluZGluZycsICctaW1hZScsICc8aW5maWxlLm1hZT4nLCAnLW9tYWUnLCAnPG91dGZpbGUubWFlPic=

> <r_epik_Ionization_Penalty>
0.234179

> <r_epik_Ionization_Penalty_Charging>
0

> <r_epik_Ionization_Penalty_Neutral>
0.234179

> <r_epik_State_Penalty>
0.224936

> <r_epik_Charging_Adjusted_Penalty>
0.224936

> <i_epik_Tot_Q>
0

> <i_epik_Tot_abs_Q>
0

> <r_epik_Metal_State_Penalty>
0.224936

> <b_epik_Metal_Only>
0

> <s_lp_Force_Field>
OPLS_2005

> <r_lp_Energy>
22.5578

> <b_lp_Chiralities_Consistent>
1

> <s_lp_Variant>
AV-unprocessed.smi:1436-2

> <Gold.Version>
5.8.1

> <Gold.Id.Protein>
6NUR|6NUR_protein|mol2

> <Gold.PLP.Fitness>
37.2263

> <Gold.PLP.PLP>
-35.2868

> <Gold.PLP.part.hbond>
-3.0000

> <Gold.PLP.part.metal>
0.0000

> <Gold.PLP.part.buried>
-4.2312

> <Gold.PLP.part.nonpolar>
-28.6118

> <Gold.PLP.part.repulsive>
0.5601

> <Gold.PLP.ligand.clash>
0.0000

> <Gold.PLP.ligand.torsion>
1.0868

> <Gold.PLP.Chemscore.Hbond>
1.3480

> <Gold.PLP.Chemscore.CHOScore>
0.0000

> <Gold.PLP.Chemscore.Metal>
0.0000

> <Gold.Chemscore.Hbonds>
donor molecule, donor type, donor heavy atom, donor atom, acceptor molecule, acceptor atom, score
      L1  H    11    29       P1  8028  0.08
      P1  H  7997  8009       L1     4  0.08

> <Gold.PLP.Chemscore.Internal.Correction>
0.0691

> <Gold.Rescore>
     Score         DG    S(hbond)    S(metal)    S(lipo)     H(rot)  DE(clash)    DE(int)     intcor
     10.80     -13.46       0.81        0.00      82.71       1.71       0.18       2.48       ----

> <Gold.Chemscore.Fitness>
10.7988

> <Gold.Chemscore.DG>
-13.4585

> <Gold.Chemscore.ZeroCoef>
-5.4800

> <Gold.Chemscore.Hbond>
0.8056

> <Gold.Chemscore.Metal>
0.0000

> <Gold.Chemscore.Lipo>
82.7071

> <Gold.Chemscore.Internal_Hbond>
0.0000

> <Gold.Chemscore.DEClash>
0.1800

> <Gold.Chemscore.DEInternal>
2.4797

> <Gold.Chemscore.Rot>
1.7145

> <Gold.Chemscore.Internal.Correction>
   9.000000E+99

> <Gold.Chemscore.Hbonds>
donor molecule, donor type, donor heavy atom, donor atom, acceptor molecule, acceptor atom, score
      L1  H    11    29       P1  8028  0.08

> <Gold.Chemscore.Hbond.Weighted>
-2.6909

> <Gold.Chemscore.Metal.Weighted>
-0.0000

> <Gold.Chemscore.Lipo.Weighted>
-9.6767

> <Gold.Chemscore.Internal_Hbond.Weighted>
0.0000

> <Gold.Chemscore.DEClash.Weighted>
0.1800

> <Gold.Chemscore.DEInternal.Weighted>
2.4797

> <Gold.Chemscore.Rot.Weighted>
4.3891

> <Gold.Chemscore.Internal.Correction.Weighted>
   9.000000E+99

> <Gold.Protein.RotatedTorsions>
[ 6907 6896 6895 6894 ] final  -21.41 input  -60.11 | X-H torsion
[ 7974 7965 7964 7962 ] final  -86.63 input  175.53 | X-H torsion
[ 8008 7997 7996 7995 ] final  150.36 input   59.86 | X-H torsion
[ 10167 10162 10161 10158 ] final  163.86 input  -65.29 | X-H torsion
[ 10718 10713 10712 10709 ] final  129.98 input   66.30 | X-H torsion
[ 10763 10752 10751 10750 ] final -144.85 input  -60.55 | X-H torsion
[ 11005 11000 10999 10996 ] final  -53.23 input  -57.11 | X-H torsion

> <Gold.Protein.ActiveResidues>
 VAL166  LYS551  ARG553  GLY616  TRP617  ASP618  TYR619  PRO620  LYS621  CYS622 
 ASP623  PHE694  ASN695  SER759  ASP760  ASP761  ALA762  ILE779  LEU786  VAL792 
 PHE793  MET794  SER795  GLU796  ALA797  LYS798  CYS799  TRP800  GLU811  SER814 

> <Gold.Protein.RotatedAtoms>
  151.2338  135.0564  159.8997 H   0  0  0  0  0  0  0  0  0  0  0  0  # atno 6907 bound_to 6896
  152.5401  134.0508  159.8119 H   0  0  0  0  0  0  0  0  0  0  0  0  # atno 6908 bound_to 6896
  151.0692  133.5432  159.2660 H   0  0  0  0  0  0  0  0  0  0  0  0  # atno 6909 bound_to 6896
  145.4773  140.9558  143.1884 H   0  0  0  0  0  0  0  0  0  0  0  0  # atno 7974 bound_to 7965
  156.2719  140.2077  156.6004 H   0  0  0  0  0  0  0  0  0  0  0  0  # atno 8008 bound_to 7997
  154.6911  140.0530  157.0388 H   0  0  0  0  0  0  0  0  0  0  0  0  # atno 8009 bound_to 7997
  155.0865  140.3192  155.4589 H   0  0  0  0  0  0  0  0  0  0  0  0  # atno 8010 bound_to 7997
  139.4880  144.4294  151.9089 H   0  0  0  0  0  0  0  0  0  0  0  0  # atno 10167 bound_to 10162
  157.5104  131.1096  150.9301 H   0  0  0  0  0  0  0  0  0  0  0  0  # atno 10718 bound_to 10713
  154.8410  135.3429  154.6411 H   0  0  0  0  0  0  0  0  0  0  0  0  # atno 10763 bound_to 10752
  153.7023  135.6969  153.5064 H   0  0  0  0  0  0  0  0  0  0  0  0  # atno 10764 bound_to 10752
  153.2514  135.4352  155.0755 H   0  0  0  0  0  0  0  0  0  0  0  0  # atno 10765 bound_to 10752
  141.0965  133.6624  156.4142 H   0  0  0  0  0  0  0  0  0  0  0  0  # atno 11005 bound_to 11000
  144.7910  139.6329  143.7113 LP  0  0  0  0  0  0  0  0  0  0  0  0  # atno 17320 bound_to 7965
  146.2362  139.5910  142.9522 LP  0  0  0  0  0  0  0  0  0  0  0  0  # atno 17321 bound_to 7965
  140.3741  144.2818  150.5916 LP  0  0  0  0  0  0  0  0  0  0  0  0  # atno 17342 bound_to 10162
  140.5292  143.2247  151.8266 LP  0  0  0  0  0  0  0  0  0  0  0  0  # atno 17343 bound_to 10162
  156.9943  130.5575  149.5306 LP  0  0  0  0  0  0  0  0  0  0  0  0  # atno 17370 bound_to 10713
  156.0285  130.5378  150.8472 LP  0  0  0  0  0  0  0  0  0  0  0  0  # atno 17371 bound_to 10713
  140.5126  134.6380  157.5290 LP  0  0  0  0  0  0  0  0  0  0  0  0  # atno 17394 bound_to 11000
  139.9804  134.7147  155.9871 LP  0  0  0  0  0  0  0  0  0  0  0  0  # atno 17395 bound_to 11000

$$$$
