AV-unprocessed.smi:1308|AV-procd|sdf|5443|dock2
  -GOLD-   22720 5 13D 1   1.00000     0.00000
 Structure written by MMmdl.
 44 44  0  0  0  0  0  0  0  0  2 V2000
  152.9090  138.5768  154.6830 C   0  0  0  0  0  0  0  0  0  0  0  0
  152.1433  139.5921  155.5040 C   0  0  0  0  0  0  0  0  0  0  0  0
  152.4354  139.7462  156.7387 N   0  0  0  0  0  0  0  0  0  0  0  0
  151.7320  140.6923  157.5028 C   0  0  0  0  0  0  0  0  0  0  0  0
  152.1695  140.8284  158.9508 C   0  0  0  0  0  0  0  0  0  0  0  0
  150.7372  141.4463  156.9521 C   0  0  0  0  0  0  0  0  0  0  0  0
  149.9666  142.5133  157.7321 C   0  0  0  0  0  0  0  0  0  0  0  0
  148.4693  142.2409  157.8772 C   0  0  0  0  0  0  0  0  0  0  0  0
  148.0468  141.0865  157.8217 O   0  0  0  0  0  0  0  0  0  0  0  0
  147.6940  143.3147  158.1075 N   0  0  0  0  0  0  0  0  0  0  0  0
  146.2934  143.3246  158.5329 C   0  0  1  0  0  0  0  0  0  0  0  0
  146.0808  144.1697  159.8014 C   0  0  0  0  0  0  0  0  0  0  0  0
  145.3427  143.7270  157.3821 C   0  0  0  0  0  0  0  0  0  0  0  0
  145.8946  143.4060  155.9766 C   0  0  0  0  0  0  0  0  0  0  0  0
  145.3803  144.3457  154.8684 C   0  0  0  0  0  0  0  0  0  0  0  0
  143.8529  144.2792  154.7037 C   0  0  0  0  0  0  0  0  0  0  0  0
  146.0808  144.0449  153.5343 C   0  0  0  0  0  0  0  0  0  0  0  0
  150.4306  141.2361  155.5257 C   0  0  0  0  0  0  0  0  0  0  0  0
  149.5533  141.9000  154.9747 O   0  0  0  0  0  0  0  0  0  0  0  0
  151.1582  140.3001  154.8531 N   0  5  0  0  0  0  0  0  0  0  0  0
  153.7368  138.1531  155.2533 H   0  0  0  0  0  0  0  0  0  0  0  0
  153.3175  139.0444  153.7865 H   0  0  0  0  0  0  0  0  0  0  0  0
  152.2491  137.7637  154.3796 H   0  0  0  0  0  0  0  0  0  0  0  0
  151.3316  140.6531  159.6256 H   0  0  0  0  0  0  0  0  0  0  0  0
  152.5662  141.8265  159.1376 H   0  0  0  0  0  0  0  0  0  0  0  0
  152.9519  140.1093  159.1958 H   0  0  0  0  0  0  0  0  0  0  0  0
  150.3907  142.6635  158.7251 H   0  0  0  0  0  0  0  0  0  0  0  0
  150.0979  143.4710  157.2281 H   0  0  0  0  0  0  0  0  0  0  0  0
  148.1574  144.2125  158.1086 H   0  0  0  0  0  0  0  0  0  0  0  0
  146.0649  142.2915  158.7969 H   0  0  0  0  0  0  0  0  0  0  0  0
  145.0675  144.0459  160.1837 H   0  0  0  0  0  0  0  0  0  0  0  0
  146.2292  145.2328  159.6132 H   0  0  0  0  0  0  0  0  0  0  0  0
  146.7686  143.8703  160.5928 H   0  0  0  0  0  0  0  0  0  0  0  0
  144.3925  143.2116  157.5217 H   0  0  0  0  0  0  0  0  0  0  0  0
  145.1166  144.7917  157.4479 H   0  0  0  0  0  0  0  0  0  0  0  0
  146.9818  143.4772  155.9954 H   0  0  0  0  0  0  0  0  0  0  0  0
  145.6704  142.3699  155.7204 H   0  0  0  0  0  0  0  0  0  0  0  0
  145.6444  145.3676  155.1441 H   0  0  0  0  0  0  0  0  0  0  0  0
  143.5237  143.2672  154.4658 H   0  0  0  0  0  0  0  0  0  0  0  0
  143.5172  144.9346  153.8997 H   0  0  0  0  0  0  0  0  0  0  0  0
  143.3367  144.5943  155.6102 H   0  0  0  0  0  0  0  0  0  0  0  0
  145.8678  143.0314  153.1936 H   0  0  0  0  0  0  0  0  0  0  0  0
  147.1632  144.1438  153.6261 H   0  0  0  0  0  0  0  0  0  0  0  0
  145.7560  144.7344  152.7548 H   0  0  0  0  0  0  0  0  0  0  0  0
  1  2  1  0  0  0  0
  1 21  1  0  0  0  0
  1 22  1  0  0  0  0
  1 23  1  0  0  0  0
  2 20  1  0  0  0  0
  2  3  2  0  0  0  0
  3  4  1  0  0  0  0
  4  5  1  0  0  0  0
  4  6  2  0  0  0  0
  5 24  1  0  0  0  0
  5 25  1  0  0  0  0
  5 26  1  0  0  0  0
  6  7  1  0  0  0  0
  6 18  1  0  0  0  0
  7  8  1  0  0  0  0
  7 27  1  0  0  0  0
  7 28  1  0  0  0  0
  8  9  2  0  0  0  0
  8 10  1  0  0  0  0
 10 11  1  0  0  0  0
 10 29  1  0  0  0  0
 11 12  1  0  0  0  0
 11 13  1  0  0  0  0
 11 30  1  0  0  0  0
 12 31  1  0  0  0  0
 12 32  1  0  0  0  0
 12 33  1  0  0  0  0
 13 14  1  0  0  0  0
 13 34  1  0  0  0  0
 13 35  1  0  0  0  0
 14 15  1  0  0  0  0
 14 36  1  0  0  0  0
 14 37  1  0  0  0  0
 15 16  1  0  0  0  0
 15 17  1  0  0  0  0
 15 38  1  0  0  0  0
 16 39  1  0  0  0  0
 16 40  1  0  0  0  0
 16 41  1  0  0  0  0
 17 42  1  0  0  0  0
 17 43  1  0  0  0  0
 17 44  1  0  0  0  0
 18 19  2  0  0  0  0
 18 20  1  0  0  0  0
M  CHG  1  20  -1
M  END
> <s_m_source_file>
AV-unprocessed.smi

> <i_m_source_file_index>
1308

> <i_lp_mmshare_version>
43012

> <i_f3d_flags>
0

> <s_epik_input>
W0NIM11jMW5jKFtDSDNdKWMoYyg9TylbbkhdMSlbQ0gyXUMoPU8pW05IXVtDQEhdKFtDSDNdKVtDSDJdW0NIMl1bQ0hdKFtDSDNdKVtDSDNd

> <s_epik_cmdline>
J2VwaWtfcHl0aG9uJywgJy1waCcsICc3LjAnLCAnLXRuJywgJzgnLCAnLW1hJywgJzIwMCcsICctbWV0YWxfYmluZGluZycsICctaW1hZScsICc8aW5maWxlLm1hZT4nLCAnLW9tYWUnLCAnPG91dGZpbGUubWFlPic=

> <r_lp_tautomer_probability>
0.839158

> <r_epik_Ionization_Penalty>
6.61719

> <r_epik_Ionization_Penalty_Charging>
7.20681e-08

> <r_epik_Ionization_Penalty_Neutral>
6.61719

> <r_epik_State_Penalty>
4.43758

> <r_epik_Charging_Adjusted_Penalty>
4.43758

> <i_epik_Tot_Q>
-1

> <i_epik_Tot_abs_Q>
1

> <r_epik_Metal_State_Penalty>
0.801586

> <b_epik_Metal_Only>
1

> <s_lp_Force_Field>
OPLS_2005

> <r_lp_Energy>
8.11692

> <b_lp_Chiralities_Consistent>
1

> <s_lp_Variant>
AV-unprocessed.smi:1308-6

> <Gold.Version>
5.8.1

> <Gold.Id.Protein>
6NUR|6NUR_protein|mol2

> <Gold.PLP.Fitness>
41.7470

> <Gold.PLP.PLP>
-34.9047

> <Gold.PLP.part.hbond>
-4.1110

> <Gold.PLP.part.metal>
0.0000

> <Gold.PLP.part.buried>
-5.7739

> <Gold.PLP.part.nonpolar>
-25.4848

> <Gold.PLP.part.repulsive>
0.3120

> <Gold.PLP.ligand.clash>
0.0000

> <Gold.PLP.ligand.torsion>
1.0021

> <Gold.PLP.Chemscore.Hbond>
2.9120

> <Gold.PLP.Chemscore.CHOScore>
0.0000

> <Gold.PLP.Chemscore.Metal>
0.0000

> <Gold.Chemscore.Hbonds>
donor molecule, donor type, donor heavy atom, donor atom, acceptor molecule, acceptor atom, score
      L1  H    10    29       P1  8029  0.72
      P1  H  7989  7998       L1    20  1.00
      P1  H  7997  8009       L1     3  1.00

> <Gold.PLP.Chemscore.Internal.Correction>
0.1105

> <Gold.Rescore>
     Score         DG    S(hbond)    S(metal)    S(lipo)     H(rot)  DE(clash)    DE(int)     intcor
     10.78     -12.11       1.42        0.00      57.97       1.91       0.32       1.01       ----

> <Gold.Chemscore.Fitness>
10.7797

> <Gold.Chemscore.DG>
-12.1089

> <Gold.Chemscore.ZeroCoef>
-5.4800

> <Gold.Chemscore.Hbond>
1.4195

> <Gold.Chemscore.Metal>
0.0000

> <Gold.Chemscore.Lipo>
57.9679

> <Gold.Chemscore.Internal_Hbond>
0.0000

> <Gold.Chemscore.DEClash>
0.3214

> <Gold.Chemscore.DEInternal>
1.0078

> <Gold.Chemscore.Rot>
1.9118

> <Gold.Chemscore.Internal.Correction>
   9.000000E+99

> <Gold.Chemscore.Hbonds>
donor molecule, donor type, donor heavy atom, donor atom, acceptor molecule, acceptor atom, score
      L1  H    10    29       P1  8029  0.18
      P1  H  7989  7998       L1    20  0.57
      P1  H  7997  8009       L1     3  0.33

> <Gold.Chemscore.Hbond.Weighted>
-4.7410

> <Gold.Chemscore.Metal.Weighted>
-0.0000

> <Gold.Chemscore.Lipo.Weighted>
-6.7822

> <Gold.Chemscore.Internal_Hbond.Weighted>
0.0000

> <Gold.Chemscore.DEClash.Weighted>
0.3214

> <Gold.Chemscore.DEInternal.Weighted>
1.0078

> <Gold.Chemscore.Rot.Weighted>
4.8943

> <Gold.Chemscore.Internal.Correction.Weighted>
   9.000000E+99

> <Gold.Protein.RotatedTorsions>
[ 6907 6896 6895 6894 ] final   19.39 input  -60.11 | X-H torsion
[ 7974 7965 7964 7962 ] final  -53.65 input  175.53 | X-H torsion
[ 8008 7997 7996 7995 ] final  175.58 input   59.86 | X-H torsion
[ 10167 10162 10161 10158 ] final   15.28 input  -65.29 | X-H torsion
[ 10718 10713 10712 10709 ] final -148.12 input   66.30 | X-H torsion
[ 10763 10752 10751 10750 ] final -179.22 input  -60.55 | X-H torsion
[ 11005 11000 10999 10996 ] final   53.36 input  -57.11 | X-H torsion

> <Gold.Protein.ActiveResidues>
 VAL166  LYS551  ARG553  GLY616  TRP617  ASP618  TYR619  PRO620  LYS621  CYS622 
 ASP623  PHE694  ASN695  SER759  ASP760  ASP761  ALA762  ILE779  LEU786  VAL792 
 PHE793  MET794  SER795  GLU796  ALA797  LYS798  CYS799  TRP800  GLU811  SER814 

> <Gold.Protein.RotatedAtoms>
  151.8802  135.0456  160.0487 H   0  0  0  0  0  0  0  0  0  0  0  0  # atno 6907 bound_to 6896
  152.2519  133.5218  159.5339 H   0  0  0  0  0  0  0  0  0  0  0  0  # atno 6908 bound_to 6896
  150.7086  134.0865  159.3959 H   0  0  0  0  0  0  0  0  0  0  0  0  # atno 6909 bound_to 6896
  145.8945  140.8044  142.9775 H   0  0  0  0  0  0  0  0  0  0  0  0  # atno 7974 bound_to 7965
  156.0856  140.1405  156.9658 H   0  0  0  0  0  0  0  0  0  0  0  0  # atno 8008 bound_to 7997
  154.4610  140.0943  156.6942 H   0  0  0  0  0  0  0  0  0  0  0  0  # atno 8009 bound_to 7997
  155.5005  140.3451  155.4372 H   0  0  0  0  0  0  0  0  0  0  0  0  # atno 8010 bound_to 7997
  140.5878  143.8855  150.6846 H   0  0  0  0  0  0  0  0  0  0  0  0  # atno 10167 bound_to 10162
  156.4162  130.8006  151.2226 H   0  0  0  0  0  0  0  0  0  0  0  0  # atno 10718 bound_to 10713
  154.5379  135.2804  155.1122 H   0  0  0  0  0  0  0  0  0  0  0  0  # atno 10763 bound_to 10752
  154.2616  135.6320  153.5280 H   0  0  0  0  0  0  0  0  0  0  0  0  # atno 10764 bound_to 10752
  152.9972  135.5607  154.5910 H   0  0  0  0  0  0  0  0  0  0  0  0  # atno 10765 bound_to 10752
  140.0773  134.5387  155.8983 H   0  0  0  0  0  0  0  0  0  0  0  0  # atno 11005 bound_to 11000
  144.6732  140.1580  143.7424 LP  0  0  0  0  0  0  0  0  0  0  0  0  # atno 17320 bound_to 7965
  145.8868  139.2353  143.1573 LP  0  0  0  0  0  0  0  0  0  0  0  0  # atno 17321 bound_to 7965
  140.2370  143.3692  152.1518 LP  0  0  0  0  0  0  0  0  0  0  0  0  # atno 17342 bound_to 10162
  139.5208  144.7038  151.5414 LP  0  0  0  0  0  0  0  0  0  0  0  0  # atno 17343 bound_to 10162
  157.7508  131.0242  150.3867 LP  0  0  0  0  0  0  0  0  0  0  0  0  # atno 17370 bound_to 10713
  156.4175  130.3946  149.6848 LP  0  0  0  0  0  0  0  0  0  0  0  0  # atno 17371 bound_to 10713
  141.2034  133.6632  156.6061 LP  0  0  0  0  0  0  0  0  0  0  0  0  # atno 17394 bound_to 11000
  140.3539  134.7745  157.4486 LP  0  0  0  0  0  0  0  0  0  0  0  0  # atno 17395 bound_to 11000

$$$$
