AV-unprocessed.smi:114|AV-procd|sdf|1115|dock3
  -GOLD-   2262018233D 1   1.00000     0.00000
 Structure written by MMmdl.
 32 34  0  0  0  0  0  0  0  0  1 V2000
  152.9300  140.1412  159.0710 N   0  0  0  0  0  0  0  0  0  0  0  0
  152.2777  140.1168  157.9002 C   0  0  0  0  0  0  0  0  0  0  0  0
  152.8348  139.4451  156.8656 N   0  0  0  0  0  0  0  0  0  0  0  0
  152.2164  139.3972  155.6792 C   0  0  0  0  0  0  0  0  0  0  0  0
  152.8430  138.7020  154.7012 F   0  0  0  0  0  0  0  0  0  0  0  0
  151.0487  139.9600  155.3506 N   0  0  0  0  0  0  0  0  0  0  0  0
  150.4833  140.6386  156.3907 C   0  0  0  0  0  0  0  0  0  0  0  0
  151.0336  140.7618  157.6945 C   0  0  0  0  0  0  0  0  0  0  0  0
  150.1890  141.5172  158.4962 N   0  0  0  0  0  0  0  0  0  0  0  0
  149.1951  141.8216  157.7050 C   0  0  0  0  0  0  0  0  0  0  0  0
  149.2936  141.3383  156.4187 N   0  0  0  0  0  0  0  0  0  0  0  0
  148.3225  141.5254  155.2985 C   0  0  2  0  0  0  0  0  0  0  0  0
  147.0628  141.1310  155.7476 O   0  0  0  0  0  0  0  0  0  0  0  0
  146.4013  140.3879  154.7307 C   0  0  2  0  0  0  0  0  0  0  0  0
  145.3425  139.4712  155.3621 C   0  0  0  0  0  0  0  0  0  0  0  0
  144.8246  138.5874  154.3910 O   0  0  0  0  0  0  0  0  0  0  0  0
  147.5549  139.6268  154.0747 C   0  0  1  0  0  0  0  0  0  0  0  0
  147.2378  139.1627  152.7753 O   0  0  0  0  0  0  0  0  0  0  0  0
  148.6952  140.6431  154.0953 C   0  0  1  0  0  0  0  0  0  0  0  0
  148.7514  141.4109  152.9068 O   0  0  0  0  0  0  0  0  0  0  0  0
  148.3436  142.5951  155.0851 H   0  0  0  0  0  0  0  0  0  0  0  0
  145.9565  141.0768  154.0094 H   0  0  0  0  0  0  0  0  0  0  0  0
  147.8263  138.7694  154.6910 H   0  0  0  0  0  0  0  0  0  0  0  0
  149.6623  140.1604  154.2439 H   0  0  0  0  0  0  0  0  0  0  0  0
  152.5338  140.6369  159.8567 H   0  0  0  0  0  0  0  0  0  0  0  0
  153.8148  139.6642  159.1658 H   0  0  0  0  0  0  0  0  0  0  0  0
  148.3575  142.4161  158.0405 H   0  0  0  0  0  0  0  0  0  0  0  0
  145.7920  138.8641  156.1483 H   0  0  0  0  0  0  0  0  0  0  0  0
  144.5393  140.0497  155.8200 H   0  0  0  0  0  0  0  0  0  0  0  0
  144.5068  139.0963  153.6608 H   0  0  0  0  0  0  0  0  0  0  0  0
  147.9647  139.3567  152.2036 H   0  0  0  0  0  0  0  0  0  0  0  0
  148.6944  140.8227  152.1691 H   0  0  0  0  0  0  0  0  0  0  0  0
  1  2  1  0  0  0  0
  1 25  1  0  0  0  0
  1 26  1  0  0  0  0
  2  8  1  0  0  0  0
  2  3  2  0  0  0  0
  3  4  1  0  0  0  0
  4  5  1  0  0  0  0
  4  6  2  0  0  0  0
  6  7  1  0  0  0  0
  7 11  1  0  0  0  0
  7  8  2  0  0  0  0
  8  9  1  0  0  0  0
  9 10  2  0  0  0  0
 10 11  1  0  0  0  0
 10 27  1  0  0  0  0
 11 12  1  0  0  0  0
 12 21  1  0  0  0  0
 12 19  1  0  0  0  0
 12 13  1  0  0  0  0
 13 14  1  0  0  0  0
 14 22  1  0  0  0  0
 14 15  1  0  0  0  0
 14 17  1  0  0  0  0
 15 16  1  0  0  0  0
 15 28  1  0  0  0  0
 15 29  1  0  0  0  0
 16 30  1  0  0  0  0
 17 23  1  0  0  0  0
 17 18  1  0  0  0  0
 17 19  1  0  0  0  0
 18 31  1  0  0  0  0
 19 24  1  0  0  0  0
 19 20  1  0  0  0  0
 20 32  1  0  0  0  0
M  END
> <s_m_source_file>
AV-unprocessed.smi

> <i_m_source_file_index>
114

> <i_lp_mmshare_version>
43012

> <i_f3d_flags>
0

> <s_epik_input>
RmMobjEpbmMoW05IMl0pYyhjMTIpbltjSF1uMltDQEBIXTNPW0NASF0oW0NIMl1bT0hdKVtDQEBIXShbT0hdKVtDQEBIXTNbT0hd

> <s_epik_cmdline>
J2VwaWtfcHl0aG9uJywgJy1waCcsICc3LjAnLCAnLXRuJywgJzgnLCAnLW1hJywgJzIwMCcsICctbWV0YWxfYmluZGluZycsICctaW1hZScsICc8aW5maWxlLm1hZT4nLCAnLW9tYWUnLCAnPG91dGZpbGUubWFlPic=

> <r_lp_tautomer_probability>
1

> <r_epik_Ionization_Penalty>
1.13199e-05

> <r_epik_Ionization_Penalty_Charging>
0

> <r_epik_Ionization_Penalty_Neutral>
1.13199e-05

> <r_epik_State_Penalty>
-0

> <r_epik_Charging_Adjusted_Penalty>
0

> <i_epik_Tot_Q>
0

> <i_epik_Tot_abs_Q>
0

> <r_epik_Metal_State_Penalty>
-0

> <b_epik_Metal_Only>
0

> <s_epik_Chemistry_Notes>
This compound contains an acetal/aminal-like group ( X-CH(R)-Y where X, Y are N, S, or O) that may be acid/base labile, releasing an aldehyde.

> <s_lp_Force_Field>
OPLS_2005

> <r_lp_Energy>
39.1628

> <b_lp_Chiralities_Consistent>
1

> <s_lp_Variant>
AV-unprocessed.smi:114-9

> <Gold.Version>
5.8.1

> <Gold.Id.Protein>
6NUR|6NUR_protein|mol2

> <Gold.PLP.Fitness>
42.1348

> <Gold.PLP.PLP>
-25.6753

> <Gold.PLP.part.hbond>
-5.2552

> <Gold.PLP.part.metal>
0.0000

> <Gold.PLP.part.buried>
-0.1973

> <Gold.PLP.part.nonpolar>
-20.0694

> <Gold.PLP.part.repulsive>
0.2223

> <Gold.PLP.ligand.clash>
0.0000

> <Gold.PLP.ligand.torsion>
0.1459

> <Gold.PLP.Chemscore.Hbond>
5.5795

> <Gold.PLP.Chemscore.CHOScore>
0.0000

> <Gold.PLP.Chemscore.Metal>
0.0000

> <Gold.Chemscore.Hbonds>
donor molecule, donor type, donor heavy atom, donor atom, acceptor molecule, acceptor atom, score
      L1  H    16    30       P1 10175  1.00
      L1  H    18    31       P1  7957  0.98
      L1  H    20    32       P1  7957  0.83
      P1  H  7989  7998       L1     6  0.68
      P1  H  7997  8009       L1     3  0.95
      P1  H  8011  8017       L1    20  0.86

> <Gold.PLP.Chemscore.Internal.Correction>
0.0128

> <Gold.Rescore>
     Score         DG    S(hbond)    S(metal)    S(lipo)     H(rot)  DE(clash)    DE(int)     intcor
      7.14     -10.73       3.83        0.00      23.73       4.03       2.03       1.56       ----

> <Gold.Chemscore.Fitness>
7.1389

> <Gold.Chemscore.DG>
-10.7273

> <Gold.Chemscore.ZeroCoef>
-5.4800

> <Gold.Chemscore.Hbond>
3.8271

> <Gold.Chemscore.Metal>
0.0000

> <Gold.Chemscore.Lipo>
23.7260

> <Gold.Chemscore.Internal_Hbond>
0.0000

> <Gold.Chemscore.DEClash>
2.0271

> <Gold.Chemscore.DEInternal>
1.5613

> <Gold.Chemscore.Rot>
4.0277

> <Gold.Chemscore.Internal.Correction>
   9.000000E+99

> <Gold.Chemscore.Hbonds>
donor molecule, donor type, donor heavy atom, donor atom, acceptor molecule, acceptor atom, score
      L1  H    16    30       P1 10175  0.97
      L1  H    18    31       P1  7957  0.91
      L1  H    20    32       P1  7957  0.79
      P1  H  7989  7998       L1     6  0.15
      P1  H  7997  8009       L1     3  0.18
      P1  H  8011  8017       L1    20  0.16

> <Gold.Chemscore.Hbond.Weighted>
-12.7824

> <Gold.Chemscore.Metal.Weighted>
-0.0000

> <Gold.Chemscore.Lipo.Weighted>
-2.7759

> <Gold.Chemscore.Internal_Hbond.Weighted>
0.0000

> <Gold.Chemscore.DEClash.Weighted>
2.0271

> <Gold.Chemscore.DEInternal.Weighted>
1.5613

> <Gold.Chemscore.Rot.Weighted>
10.3110

> <Gold.Chemscore.Internal.Correction.Weighted>
   9.000000E+99

> <Gold.Protein.RotatedTorsions>
[ 6907 6896 6895 6894 ] final  142.17 input  -60.11 | X-H torsion
[ 7974 7965 7964 7962 ] final  -33.41 input  175.53 | X-H torsion
[ 8008 7997 7996 7995 ] final -162.23 input   59.86 | X-H torsion
[ 10167 10162 10161 10158 ] final    7.56 input  -65.29 | X-H torsion
[ 10718 10713 10712 10709 ] final  106.08 input   66.30 | X-H torsion
[ 10763 10752 10751 10750 ] final   12.69 input  -60.55 | X-H torsion
[ 11005 11000 10999 10996 ] final  -66.46 input  -57.11 | X-H torsion

> <Gold.Protein.ActiveResidues>
 VAL166  LYS551  ARG553  GLY616  TRP617  ASP618  TYR619  PRO620  LYS621  CYS622 
 ASP623  PHE694  ASN695  SER759  ASP760  ASP761  ALA762  ILE779  LEU786  VAL792 
 PHE793  MET794  SER795  GLU796  ALA797  LYS798  CYS799  TRP800  GLU811  SER814 

> <Gold.Protein.RotatedAtoms>
  152.2220  133.4990  159.5167 H   0  0  0  0  0  0  0  0  0  0  0  0  # atno 6907 bound_to 6896
  150.7015  134.1330  159.4086 H   0  0  0  0  0  0  0  0  0  0  0  0  # atno 6908 bound_to 6896
  151.9251  135.0281  160.0576 H   0  0  0  0  0  0  0  0  0  0  0  0  # atno 6909 bound_to 6896
  146.0913  140.5913  142.8863 H   0  0  0  0  0  0  0  0  0  0  0  0  # atno 7974 bound_to 7965
  155.8038  140.0895  157.1942 H   0  0  0  0  0  0  0  0  0  0  0  0  # atno 8008 bound_to 7997
  154.3981  140.1467  156.3365 H   0  0  0  0  0  0  0  0  0  0  0  0  # atno 8009 bound_to 7997
  155.8435  140.3438  155.5650 H   0  0  0  0  0  0  0  0  0  0  0  0  # atno 8010 bound_to 7997
  140.6365  143.7874  150.7366 H   0  0  0  0  0  0  0  0  0  0  0  0  # atno 10167 bound_to 10162
  157.6682  131.0842  150.5952 H   0  0  0  0  0  0  0  0  0  0  0  0  # atno 10718 bound_to 10713
  153.1796  135.6825  153.8496 H   0  0  0  0  0  0  0  0  0  0  0  0  # atno 10763 bound_to 10752
  153.7832  135.3179  155.3369 H   0  0  0  0  0  0  0  0  0  0  0  0  # atno 10764 bound_to 10752
  154.8051  135.4753  154.0467 H   0  0  0  0  0  0  0  0  0  0  0  0  # atno 10765 bound_to 10752
  141.1482  133.6700  156.6142 H   0  0  0  0  0  0  0  0  0  0  0  0  # atno 11005 bound_to 11000
  144.7362  140.4815  143.6902 LP  0  0  0  0  0  0  0  0  0  0  0  0  # atno 17320 bound_to 7965
  145.6034  139.1506  143.3116 LP  0  0  0  0  0  0  0  0  0  0  0  0  # atno 17321 bound_to 7965
  140.1497  143.4369  152.2139 LP  0  0  0  0  0  0  0  0  0  0  0  0  # atno 17342 bound_to 10162
  139.5575  144.7383  151.4251 LP  0  0  0  0  0  0  0  0  0  0  0  0  # atno 17343 bound_to 10162
  156.6253  130.4417  149.5807 LP  0  0  0  0  0  0  0  0  0  0  0  0  # atno 17370 bound_to 10713
  156.2324  130.6802  151.1476 LP  0  0  0  0  0  0  0  0  0  0  0  0  # atno 17371 bound_to 10713
  140.3591  134.7703  157.4521 LP  0  0  0  0  0  0  0  0  0  0  0  0  # atno 17394 bound_to 11000
  140.0800  134.5745  155.8551 LP  0  0  0  0  0  0  0  0  0  0  0  0  # atno 17395 bound_to 11000

$$$$
