AV-unprocessed.smi:1667|AV-procd|sdf|6677|dock4
  -GOLD-   22720 7393D 1   1.00000     0.00000
 Structure written by MMmdl.
 46 48  0  0  0  0  0  0  0  0  2 V2000
  150.6937  134.0731  154.4208 C   0  0  0  0  0  0  0  0  0  0  0  0
  151.3229  135.4172  154.7700 C   0  0  0  0  0  0  0  0  0  0  0  0
  152.3847  135.4606  155.3906 O   0  0  0  0  0  0  0  0  0  0  0  0
  150.6534  136.5089  154.3690 N   0  0  0  0  0  0  0  0  0  0  0  0
  151.0822  137.8852  154.5987 C   0  0  1  0  0  0  0  0  0  0  0  0
  152.1939  138.2573  153.6077 C   0  0  0  0  0  0  0  0  0  0  0  0
  149.9391  138.8527  154.4991 C   0  0  0  0  0  0  0  0  0  0  0  0
  149.0524  138.9355  153.4664 N   0  3  0  0  0  0  0  0  0  0  0  0
  148.1311  139.9527  153.7124 C   0  0  0  0  0  0  0  0  0  0  0  0
  147.0598  140.4113  152.9523 C   0  0  0  0  0  0  0  0  0  0  0  0
  146.3151  141.4814  153.4895 C   0  0  0  0  0  0  0  0  0  0  0  0
  146.6449  142.0514  154.7360 C   0  0  0  0  0  0  0  0  0  0  0  0
  147.7309  141.5745  155.4990 C   0  0  0  0  0  0  0  0  0  0  0  0
  148.4644  140.5163  154.9611 C   0  0  0  0  0  0  0  0  0  0  0  0
  149.5839  139.8040  155.4114 N   0  0  0  0  0  0  0  0  0  0  0  0
  150.1976  140.1527  156.7040 C   0  0  0  0  0  0  0  0  0  0  0  0
  151.4707  141.0061  156.5379 C   0  0  2  0  0  0  0  0  0  0  0  0
  152.5505  140.1387  156.2616 O   0  0  0  0  0  0  0  0  0  0  0  0
  151.7343  141.8946  157.7456 C   0  0  0  0  0  0  0  0  0  0  0  0
  151.4534  143.2783  157.7008 C   0  0  0  0  0  0  0  0  0  0  0  0
  151.7271  144.0941  158.8157 C   0  0  0  0  0  0  0  0  0  0  0  0
  152.2850  143.5327  159.9802 C   0  0  0  0  0  0  0  0  0  0  0  0
  152.5693  142.1546  160.0297 C   0  0  0  0  0  0  0  0  0  0  0  0
  153.1115  141.6143  161.1464 F   0  0  0  0  0  0  0  0  0  0  0  0
  152.2933  141.3381  158.9164 C   0  0  0  0  0  0  0  0  0  0  0  0
  151.5063  137.9400  155.6018 H   0  0  0  0  0  0  0  0  0  0  0  0
  149.7160  133.9765  154.8934 H   0  0  0  0  0  0  0  0  0  0  0  0
  151.3213  133.2499  154.7642 H   0  0  0  0  0  0  0  0  0  0  0  0
  150.5683  133.9785  153.3418 H   0  0  0  0  0  0  0  0  0  0  0  0
  149.7913  136.3766  153.8600 H   0  0  0  0  0  0  0  0  0  0  0  0
  152.5546  139.2705  153.7886 H   0  0  0  0  0  0  0  0  0  0  0  0
  151.8455  138.2076  152.5754 H   0  0  0  0  0  0  0  0  0  0  0  0
  153.0459  137.5836  153.7034 H   0  0  0  0  0  0  0  0  0  0  0  0
  146.8069  139.9771  151.9962 H   0  0  0  0  0  0  0  0  0  0  0  0
  145.4754  141.8735  152.9340 H   0  0  0  0  0  0  0  0  0  0  0  0
  146.0534  142.8718  155.1155 H   0  0  0  0  0  0  0  0  0  0  0  0
  147.9726  142.0254  156.4496 H   0  0  0  0  0  0  0  0  0  0  0  0
  149.4657  140.6483  157.3412 H   0  0  0  0  0  0  0  0  0  0  0  0
  150.4381  139.2147  157.2057 H   0  0  0  0  0  0  0  0  0  0  0  0
  151.3588  141.6430  155.6597 H   0  0  0  0  0  0  0  0  0  0  0  0
  152.2082  139.2704  156.1132 H   0  0  0  0  0  0  0  0  0  0  0  0
  151.0348  143.7208  156.8086 H   0  0  0  0  0  0  0  0  0  0  0  0
  151.5114  145.1516  158.7764 H   0  0  0  0  0  0  0  0  0  0  0  0
  152.4960  144.1593  160.8344 H   0  0  0  0  0  0  0  0  0  0  0  0
  152.5216  140.2832  158.9599 H   0  0  0  0  0  0  0  0  0  0  0  0
  149.0813  138.3376  152.6507 H   0  0  0  0  0  0  0  0  0  0  0  0
  1  2  1  0  0  0  0
  1 27  1  0  0  0  0
  1 28  1  0  0  0  0
  1 29  1  0  0  0  0
  2  3  2  0  0  0  0
  2  4  1  0  0  0  0
  4  5  1  0  0  0  0
  4 30  1  0  0  0  0
  5 26  1  0  0  0  0
  5  6  1  0  0  0  0
  5  7  1  0  0  0  0
  6 31  1  0  0  0  0
  6 32  1  0  0  0  0
  6 33  1  0  0  0  0
  7 15  1  0  0  0  0
  7  8  2  0  0  0  0
  8  9  1  0  0  0  0
  8 46  1  0  0  0  0
  9 14  2  0  0  0  0
  9 10  1  0  0  0  0
 10 11  2  0  0  0  0
 10 34  1  0  0  0  0
 11 12  1  0  0  0  0
 11 35  1  0  0  0  0
 12 13  2  0  0  0  0
 12 36  1  0  0  0  0
 13 14  1  0  0  0  0
 13 37  1  0  0  0  0
 14 15  1  0  0  0  0
 15 16  1  0  0  0  0
 16 17  1  0  0  0  0
 16 38  1  0  0  0  0
 16 39  1  0  0  0  0
 17 18  1  0  0  0  0
 17 19  1  0  0  0  0
 17 40  1  0  0  0  0
 18 41  1  0  0  0  0
 19 25  1  0  0  0  0
 19 20  2  0  0  0  0
 20 21  1  0  0  0  0
 20 42  1  0  0  0  0
 21 22  2  0  0  0  0
 21 43  1  0  0  0  0
 22 23  1  0  0  0  0
 22 44  1  0  0  0  0
 23 24  1  0  0  0  0
 23 25  2  0  0  0  0
 25 45  1  0  0  0  0
M  CHG  1   8   1
M  END
> <s_m_source_file>
AV-unprocessed.smi

> <i_m_source_file_index>
1667

> <i_lp_mmshare_version>
43012

> <i_f3d_flags>
0

> <s_epik_input>
W0NIM11DKD1PKVtOSF1bQ0BASF0oW0NIM10pYyhuMSluKGMoYzEyKVtjSF1bY0hdW2NIXVtjSF0yKVtDSDJdW0NASF0oW09IXSljM1tjSF1bY0hdW2NIXWMoRilbY0hdMw==

> <s_epik_cmdline>
J2VwaWtfcHl0aG9uJywgJy1waCcsICc3LjAnLCAnLXRuJywgJzgnLCAnLW1hJywgJzIwMCcsICctbWV0YWxfYmluZGluZycsICctaW1hZScsICc8aW5maWxlLm1hZT4nLCAnLW9tYWUnLCAnPG91dGZpbGUubWFlPic=

> <r_epik_Ionization_Penalty>
0.950383

> <r_epik_Ionization_Penalty_Charging>
0.950379

> <r_epik_Ionization_Penalty_Neutral>
3.60962e-06

> <r_epik_State_Penalty>
0.994584

> <r_epik_Charging_Adjusted_Penalty>
1.94496

> <i_epik_Tot_Q>
1

> <i_epik_Tot_abs_Q>
1

> <r_epik_Metal_State_Penalty>
1.10485

> <b_epik_Metal_Only>
0

> <s_lp_Force_Field>
OPLS_2005

> <r_lp_Energy>
12.0521

> <b_lp_Chiralities_Consistent>
1

> <s_lp_Variant>
AV-unprocessed.smi:1667-5

> <Gold.Version>
5.8.1

> <Gold.Id.Protein>
6NUR|6NUR_protein|mol2

> <Gold.PLP.Fitness>
57.1386

> <Gold.PLP.PLP>
-47.9159

> <Gold.PLP.part.hbond>
-3.9815

> <Gold.PLP.part.metal>
0.0000

> <Gold.PLP.part.buried>
0.6626

> <Gold.PLP.part.nonpolar>
-44.2488

> <Gold.PLP.part.repulsive>
0.1181

> <Gold.PLP.ligand.clash>
0.0000

> <Gold.PLP.ligand.torsion>
1.3951

> <Gold.PLP.Chemscore.Hbond>
3.9825

> <Gold.PLP.Chemscore.CHOScore>
0.0000

> <Gold.PLP.Chemscore.Metal>
0.0000

> <Gold.Chemscore.Hbonds>
donor molecule, donor type, donor heavy atom, donor atom, acceptor molecule, acceptor atom, score
      L1  H     4    30       P1  7948  0.61
      L1  H     8    46       P1  7948  1.03
      P1  H  7997  8009       L1    18  1.00

> <Gold.PLP.Chemscore.Internal.Correction>
0.0655

> <Gold.Rescore>
     Score         DG    S(hbond)    S(metal)    S(lipo)     H(rot)  DE(clash)    DE(int)     intcor
     21.32     -22.99       2.70        0.00     128.13       2.53       0.83       0.84       ----

> <Gold.Chemscore.Fitness>
21.3243

> <Gold.Chemscore.DG>
-22.9866

> <Gold.Chemscore.ZeroCoef>
-5.4800

> <Gold.Chemscore.Hbond>
2.6950

> <Gold.Chemscore.Metal>
0.0000

> <Gold.Chemscore.Lipo>
128.1275

> <Gold.Chemscore.Internal_Hbond>
0.0000

> <Gold.Chemscore.DEClash>
0.8268

> <Gold.Chemscore.DEInternal>
0.8355

> <Gold.Chemscore.Rot>
2.5335

> <Gold.Chemscore.Internal.Correction>
   9.000000E+99

> <Gold.Chemscore.Hbonds>
donor molecule, donor type, donor heavy atom, donor atom, acceptor molecule, acceptor atom, score
      L1  H     4    30       P1  7948  0.24
      L1  H     8    46       P1  7948  0.49
      P1  H  7997  8009       L1    18  0.81

> <Gold.Chemscore.Hbond.Weighted>
-9.0013

> <Gold.Chemscore.Metal.Weighted>
-0.0000

> <Gold.Chemscore.Lipo.Weighted>
-14.9909

> <Gold.Chemscore.Internal_Hbond.Weighted>
0.0000

> <Gold.Chemscore.DEClash.Weighted>
0.8268

> <Gold.Chemscore.DEInternal.Weighted>
0.8355

> <Gold.Chemscore.Rot.Weighted>
6.4856

> <Gold.Chemscore.Internal.Correction.Weighted>
   9.000000E+99

> <Gold.Protein.RotatedTorsions>
[ 6907 6896 6895 6894 ] final  131.26 input  -60.11 | X-H torsion
[ 7974 7965 7964 7962 ] final -177.49 input  175.53 | X-H torsion
[ 8008 7997 7996 7995 ] final -154.03 input   59.86 | X-H torsion
[ 10167 10162 10161 10158 ] final   73.03 input  -65.29 | X-H torsion
[ 10718 10713 10712 10709 ] final -111.54 input   66.30 | X-H torsion
[ 10763 10752 10751 10750 ] final  103.29 input  -60.55 | X-H torsion
[ 11005 11000 10999 10996 ] final  -46.74 input  -57.11 | X-H torsion

> <Gold.Protein.ActiveResidues>
 VAL166  LYS551  ARG553  GLY616  TRP617  ASP618  TYR619  PRO620  LYS621  CYS622 
 ASP623  PHE694  ASN695  SER759  ASP760  ASP761  ALA762  ILE779  LEU786  VAL792 
 PHE793  MET794  SER795  GLU796  ALA797  LYS798  CYS799  TRP800  GLU811  SER814 

> <Gold.Protein.RotatedAtoms>
  152.3444  133.6104  159.5899 H   0  0  0  0  0  0  0  0  0  0  0  0  # atno 6907 bound_to 6896
  150.7498  133.9672  159.3543 H   0  0  0  0  0  0  0  0  0  0  0  0  # atno 6908 bound_to 6896
  151.7532  135.0828  160.0385 H   0  0  0  0  0  0  0  0  0  0  0  0  # atno 6909 bound_to 6896
  144.7128  140.1012  143.6416 H   0  0  0  0  0  0  0  0  0  0  0  0  # atno 7974 bound_to 7965
  155.6801  140.0743  157.2488 H   0  0  0  0  0  0  0  0  0  0  0  0  # atno 8008 bound_to 7997
  154.4107  140.1683  156.2025 H   0  0  0  0  0  0  0  0  0  0  0  0  # atno 8009 bound_to 7997
  155.9542  140.3375  155.6437 H   0  0  0  0  0  0  0  0  0  0  0  0  # atno 8010 bound_to 7997
  140.0288  144.5482  150.7523 H   0  0  0  0  0  0  0  0  0  0  0  0  # atno 10167 bound_to 10162
  156.0653  130.5873  150.8388 H   0  0  0  0  0  0  0  0  0  0  0  0  # atno 10718 bound_to 10713
  153.3508  135.3981  155.1644 H   0  0  0  0  0  0  0  0  0  0  0  0  # atno 10763 bound_to 10752
  154.8662  135.3656  154.5225 H   0  0  0  0  0  0  0  0  0  0  0  0  # atno 10764 bound_to 10752
  153.5676  135.7079  153.5579 H   0  0  0  0  0  0  0  0  0  0  0  0  # atno 10765 bound_to 10752
  141.0597  133.6713  156.3198 H   0  0  0  0  0  0  0  0  0  0  0  0  # atno 11005 bound_to 11000
  145.9536  139.2751  143.1197 LP  0  0  0  0  0  0  0  0  0  0  0  0  # atno 17320 bound_to 7965
  145.9296  140.9058  143.0363 LP  0  0  0  0  0  0  0  0  0  0  0  0  # atno 17321 bound_to 7965
  140.7311  143.2690  151.3949 LP  0  0  0  0  0  0  0  0  0  0  0  0  # atno 17342 bound_to 10162
  139.6090  144.1138  152.2279 LP  0  0  0  0  0  0  0  0  0  0  0  0  # atno 17343 bound_to 10162
  157.5691  131.0946  150.9445 LP  0  0  0  0  0  0  0  0  0  0  0  0  # atno 17370 bound_to 10713
  156.9666  130.5475  149.5288 LP  0  0  0  0  0  0  0  0  0  0  0  0  # atno 17371 bound_to 10713
  140.5892  134.5667  157.5496 LP  0  0  0  0  0  0  0  0  0  0  0  0  # atno 17394 bound_to 11000
  139.9422  134.7767  156.0650 LP  0  0  0  0  0  0  0  0  0  0  0  0  # atno 17395 bound_to 11000

$$$$
