AV-unprocessed.smi:273|AV-procd|sdf|2057|dock1
  -GOLD-   2262021303D 1   1.00000     0.00000
 Structure written by MMmdl.
 59 62  0  0  0  0  0  0  0  0  1 V2000
  147.5841  144.6979  160.3562 C   0  0  0  0  0  0  0  0  0  0  0  0
  148.9050  145.4771  160.4019 C   0  0  0  0  0  0  0  0  0  0  0  0
  149.8924  144.9062  159.4935 N   0  0  0  0  0  0  0  0  0  0  0  0
  151.1206  144.4947  159.8452 C   0  0  0  0  0  0  0  0  0  0  0  0
  151.5472  144.5781  160.9969 O   0  0  0  0  0  0  0  0  0  0  0  0
  151.9861  143.8964  158.7202 C   0  0  0  0  0  0  0  0  0  0  0  0
  151.2269  142.8426  157.8829 C   0  0  0  0  0  0  0  0  0  0  0  0
  151.0863  141.4866  158.5996 C   0  0  0  0  0  0  0  0  0  0  0  0
  152.3860  141.0002  159.0607 N   0  0  0  0  0  0  0  0  0  0  0  0
  152.4132  139.6817  159.3848 C   0  0  0  0  0  0  0  0  0  0  0  0
  151.7359  138.7813  158.6222 N   0  0  0  0  0  0  0  0  0  0  0  0
  151.7620  137.4806  158.9267 C   0  0  0  0  0  0  0  0  0  0  0  0
  152.3896  136.8722  159.9345 N   0  0  0  0  0  0  0  0  0  0  0  0
  153.0672  137.7687  160.7064 C   0  0  0  0  0  0  0  0  0  0  0  0
  153.1299  139.1773  160.5073 C   0  0  0  0  0  0  0  0  0  0  0  0
  153.8999  139.7601  161.5078 N   0  0  0  0  0  0  0  0  0  0  0  0
  154.2791  138.7540  162.2477 C   0  0  0  0  0  0  0  0  0  0  0  0
  153.8318  137.5204  161.8325 N   0  0  0  0  0  0  0  0  0  0  0  0
  154.0939  136.2389  162.4661 C   0  0  0  0  0  0  0  0  0  0  0  0
  154.9472  136.3445  163.7568 C   0  0  1  0  0  0  0  0  0  0  0  0
  154.2426  137.2202  164.8251 C   0  0  0  0  0  0  0  0  0  0  0  0
  152.9521  136.7377  165.1341 O   0  0  0  0  0  0  0  0  0  0  0  0
  155.2939  134.9276  164.2925 C   0  0  1  0  0  0  0  0  0  0  0  0
  154.0955  134.0270  164.5445 C   0  0  0  0  0  0  0  0  0  0  0  0
  154.7312  132.6429  164.6111 C   0  0  0  0  0  0  0  0  0  0  0  0
  155.8492  132.6914  163.7333 O   0  0  0  0  0  0  0  0  0  0  0  0
  156.0981  134.0365  163.3382 C   0  0  0  0  0  0  0  0  0  0  0  0
  153.1254  141.9243  159.9226 C   0  0  0  0  0  0  0  0  0  0  0  0
  153.3102  143.2923  159.2393 C   0  0  0  0  0  0  0  0  0  0  0  0
  146.8438  145.1511  161.0156 H   0  0  0  0  0  0  0  0  0  0  0  0
  147.7210  143.6641  160.6744 H   0  0  0  0  0  0  0  0  0  0  0  0
  147.1684  144.6867  159.3483 H   0  0  0  0  0  0  0  0  0  0  0  0
  148.7308  146.5125  160.1086 H   0  0  0  0  0  0  0  0  0  0  0  0
  149.2953  145.5049  161.4206 H   0  0  0  0  0  0  0  0  0  0  0  0
  149.6180  144.8047  158.5270 H   0  0  0  0  0  0  0  0  0  0  0  0
  152.2458  144.7178  158.0502 H   0  0  0  0  0  0  0  0  0  0  0  0
  150.2396  143.2154  157.6067 H   0  0  0  0  0  0  0  0  0  0  0  0
  151.7605  142.6890  156.9442 H   0  0  0  0  0  0  0  0  0  0  0  0
  150.4192  141.5743  159.4572 H   0  0  0  0  0  0  0  0  0  0  0  0
  150.6144  140.7773  157.9209 H   0  0  0  0  0  0  0  0  0  0  0  0
  151.2009  136.8351  158.2672 H   0  0  0  0  0  0  0  0  0  0  0  0
  154.9033  138.8858  163.1195 H   0  0  0  0  0  0  0  0  0  0  0  0
  153.1396  135.7594  162.6874 H   0  0  0  0  0  0  0  0  0  0  0  0
  154.5896  135.6143  161.7232 H   0  0  0  0  0  0  0  0  0  0  0  0
  155.8805  136.8397  163.4839 H   0  0  0  0  0  0  0  0  0  0  0  0
  154.7922  137.2267  165.7654 H   0  0  0  0  0  0  0  0  0  0  0  0
  154.1762  138.2569  164.4938 H   0  0  0  0  0  0  0  0  0  0  0  0
  153.0063  135.8062  165.2838 H   0  0  0  0  0  0  0  0  0  0  0  0
  155.8504  135.0230  165.2265 H   0  0  0  0  0  0  0  0  0  0  0  0
  153.5528  134.2722  165.4575 H   0  0  0  0  0  0  0  0  0  0  0  0
  153.3980  134.0786  163.7071 H   0  0  0  0  0  0  0  0  0  0  0  0
  155.0919  132.4381  165.6198 H   0  0  0  0  0  0  0  0  0  0  0  0
  154.0365  131.8504  164.3314 H   0  0  0  0  0  0  0  0  0  0  0  0
  155.7513  134.1574  162.3111 H   0  0  0  0  0  0  0  0  0  0  0  0
  157.1661  134.2536  163.3631 H   0  0  0  0  0  0  0  0  0  0  0  0
  152.5984  142.0380  160.8701 H   0  0  0  0  0  0  0  0  0  0  0  0
  154.1068  141.5085  160.1552 H   0  0  0  0  0  0  0  0  0  0  0  0
  153.9942  143.1738  158.3982 H   0  0  0  0  0  0  0  0  0  0  0  0
  153.8010  143.9826  159.9264 H   0  0  0  0  0  0  0  0  0  0  0  0
  1  2  1  0  0  0  0
  1 30  1  0  0  0  0
  1 31  1  0  0  0  0
  1 32  1  0  0  0  0
  2  3  1  0  0  0  0
  2 33  1  0  0  0  0
  2 34  1  0  0  0  0
  3  4  1  0  0  0  0
  3 35  1  0  0  0  0
  4  5  2  0  0  0  0
  4  6  1  0  0  0  0
  6 29  1  0  0  0  0
  6  7  1  0  0  0  0
  6 36  1  0  0  0  0
  7  8  1  0  0  0  0
  7 37  1  0  0  0  0
  7 38  1  0  0  0  0
  8  9  1  0  0  0  0
  8 39  1  0  0  0  0
  8 40  1  0  0  0  0
  9 10  1  0  0  0  0
  9 28  1  0  0  0  0
 10 15  1  0  0  0  0
 10 11  2  0  0  0  0
 11 12  1  0  0  0  0
 12 13  2  0  0  0  0
 12 41  1  0  0  0  0
 13 14  1  0  0  0  0
 14 18  1  0  0  0  0
 14 15  2  0  0  0  0
 15 16  1  0  0  0  0
 16 17  2  0  0  0  0
 17 18  1  0  0  0  0
 17 42  1  0  0  0  0
 18 19  1  0  0  0  0
 19 20  1  0  0  0  0
 19 43  1  0  0  0  0
 19 44  1  0  0  0  0
 20 21  1  0  0  0  0
 20 23  1  0  0  0  0
 20 45  1  0  0  0  0
 21 22  1  0  0  0  0
 21 46  1  0  0  0  0
 21 47  1  0  0  0  0
 22 48  1  0  0  0  0
 23 27  1  0  0  0  0
 23 24  1  0  0  0  0
 23 49  1  0  0  0  0
 24 25  1  0  0  0  0
 24 50  1  0  0  0  0
 24 51  1  0  0  0  0
 25 26  1  0  0  0  0
 25 52  1  0  0  0  0
 25 53  1  0  0  0  0
 26 27  1  0  0  0  0
 27 54  1  0  0  0  0
 27 55  1  0  0  0  0
 28 29  1  0  0  0  0
 28 56  1  0  0  0  0
 28 57  1  0  0  0  0
 29 58  1  0  0  0  0
 29 59  1  0  0  0  0
M  END
> <s_m_source_file>
AV-unprocessed.smi

> <i_m_source_file_index>
273

> <i_lp_mmshare_version>
43012

> <i_f3d_flags>
0

> <s_epik_input>
W0NIM11bQ0gyXVtOSF1DKD1PKVtDSF0xW0NIMl1bQ0gyXU4oW0NIMl1bQ0gyXTEpYyhuW2NIXW4yKWMoYzIzKW5bY0hdbjNbQ0gyXVtDQEhdKFtDSDJdW09IXSlbQ0BASF00W0NIMl1bQ0gyXU9bQ0gyXTQ=

> <s_epik_cmdline>
J2VwaWtfcHl0aG9uJywgJy1waCcsICc3LjAnLCAnLXRuJywgJzgnLCAnLW1hJywgJzIwMCcsICctbWV0YWxfYmluZGluZycsICctaW1hZScsICc8aW5maWxlLm1hZT4nLCAnLW9tYWUnLCAnPG91dGZpbGUubWFlPic=

> <r_lp_tautomer_probability>
1

> <r_epik_Ionization_Penalty>
0.00226556

> <r_epik_Ionization_Penalty_Charging>
0

> <r_epik_Ionization_Penalty_Neutral>
0.00226556

> <r_epik_State_Penalty>
0.00139883

> <r_epik_Charging_Adjusted_Penalty>
0.00139883

> <i_epik_Tot_Q>
0

> <i_epik_Tot_abs_Q>
0

> <r_epik_Metal_State_Penalty>
-0

> <b_epik_Metal_Only>
0

> <s_lp_Force_Field>
OPLS_2005

> <r_lp_Energy>
41.2023

> <b_lp_Chiralities_Consistent>
1

> <s_lp_Variant>
AV-unprocessed.smi:273-4

> <Gold.Version>
5.8.1

> <Gold.Id.Protein>
6NUR|6NUR_protein|mol2

> <Gold.PLP.Fitness>
51.2588

> <Gold.PLP.PLP>
-48.5770

> <Gold.PLP.part.hbond>
-3.6099

> <Gold.PLP.part.metal>
0.0000

> <Gold.PLP.part.buried>
-7.2019

> <Gold.PLP.part.nonpolar>
-38.9390

> <Gold.PLP.part.repulsive>
0.3892

> <Gold.PLP.ligand.clash>
0.0154

> <Gold.PLP.ligand.torsion>
0.5339

> <Gold.PLP.Chemscore.Hbond>
1.0296

> <Gold.PLP.Chemscore.CHOScore>
0.0000

> <Gold.PLP.Chemscore.Metal>
0.0000

> <Gold.Chemscore.Hbonds>
donor molecule, donor type, donor heavy atom, donor atom, acceptor molecule, acceptor atom, score
      L1  H     3    35       P1  8029  0.03
      P1  H  6896  6908       L1    13  1.00
      P1  H  6924  6935       L1    22  0.39

> <Gold.PLP.Chemscore.Internal.Correction>
0.6761

> <Gold.Rescore>
     Score         DG    S(hbond)    S(metal)    S(lipo)     H(rot)  DE(clash)    DE(int)     intcor
      9.58     -12.82       0.89        0.00     107.84       3.22       0.40       2.84       ----

> <Gold.Chemscore.Fitness>
9.5813

> <Gold.Chemscore.DG>
-12.8245

> <Gold.Chemscore.ZeroCoef>
-5.4800

> <Gold.Chemscore.Hbond>
0.8926

> <Gold.Chemscore.Metal>
0.0000

> <Gold.Chemscore.Lipo>
107.8429

> <Gold.Chemscore.Internal_Hbond>
0.0000

> <Gold.Chemscore.DEClash>
0.4044

> <Gold.Chemscore.DEInternal>
2.8389

> <Gold.Chemscore.Rot>
3.2244

> <Gold.Chemscore.Internal.Correction>
   9.000000E+99

> <Gold.Chemscore.Hbonds>
donor molecule, donor type, donor heavy atom, donor atom, acceptor molecule, acceptor atom, score
      L1  H     3    35       P1  8029  0.03
      P1  H  6896  6908       L1    13  0.82
      P1  H  6924  6935       L1    22  0.37

> <Gold.Chemscore.Hbond.Weighted>
-2.9814

> <Gold.Chemscore.Metal.Weighted>
-0.0000

> <Gold.Chemscore.Lipo.Weighted>
-12.6176

> <Gold.Chemscore.Internal_Hbond.Weighted>
0.0000

> <Gold.Chemscore.DEClash.Weighted>
0.4044

> <Gold.Chemscore.DEInternal.Weighted>
2.8389

> <Gold.Chemscore.Rot.Weighted>
8.2545

> <Gold.Chemscore.Internal.Correction.Weighted>
   9.000000E+99

> <Gold.Protein.RotatedTorsions>
[ 6907 6896 6895 6894 ] final  -96.32 input  -60.11 | X-H torsion
[ 7974 7965 7964 7962 ] final   87.92 input  175.53 | X-H torsion
[ 8008 7997 7996 7995 ] final  -68.21 input   59.86 | X-H torsion
[ 10167 10162 10161 10158 ] final -131.57 input  -65.29 | X-H torsion
[ 10718 10713 10712 10709 ] final -121.13 input   66.30 | X-H torsion
[ 10763 10752 10751 10750 ] final -100.02 input  -60.55 | X-H torsion
[ 11005 11000 10999 10996 ] final -173.23 input  -57.11 | X-H torsion

> <Gold.Protein.ActiveResidues>
 VAL166  LYS551  ARG553  GLY616  TRP617  ASP618  TYR619  PRO620  LYS621  CYS622 
 ASP623  PHE694  ASN695  SER759  ASP760  ASP761  ALA762  ILE779  LEU786  VAL792 
 PHE793  MET794  SER795  GLU796  ALA797  LYS798  CYS799  TRP800  GLU811  SER814 

> <Gold.Protein.RotatedAtoms>
  150.6986  134.1521  159.4143 H   0  0  0  0  0  0  0  0  0  0  0  0  # atno 6907 bound_to 6896
  151.9503  135.0170  160.0551 H   0  0  0  0  0  0  0  0  0  0  0  0  # atno 6908 bound_to 6896
  152.2016  133.4810  159.5098 H   0  0  0  0  0  0  0  0  0  0  0  0  # atno 6909 bound_to 6896
  145.5526  139.2297  143.2504 H   0  0  0  0  0  0  0  0  0  0  0  0  # atno 7974 bound_to 7965
  154.4852  140.0877  156.7470 H   0  0  0  0  0  0  0  0  0  0  0  0  # atno 8008 bound_to 7997
  155.4368  140.3452  155.4267 H   0  0  0  0  0  0  0  0  0  0  0  0  # atno 8009 bound_to 7997
  156.1251  140.1485  156.9136 H   0  0  0  0  0  0  0  0  0  0  0  0  # atno 8010 bound_to 7997
  139.9176  143.6420  152.2561 H   0  0  0  0  0  0  0  0  0  0  0  0  # atno 10167 bound_to 10162
  156.1313  130.6397  150.9625 H   0  0  0  0  0  0  0  0  0  0  0  0  # atno 10718 bound_to 10713
  154.7545  135.4950  153.9350 H   0  0  0  0  0  0  0  0  0  0  0  0  # atno 10763 bound_to 10752
  153.1181  135.6725  153.9391 H   0  0  0  0  0  0  0  0  0  0  0  0  # atno 10764 bound_to 10752
  153.9131  135.3096  155.3427 H   0  0  0  0  0  0  0  0  0  0  0  0  # atno 10765 bound_to 10752
  140.4881  134.6011  157.4944 H   0  0  0  0  0  0  0  0  0  0  0  0  # atno 11005 bound_to 11000
  146.1906  140.6349  142.9147 LP  0  0  0  0  0  0  0  0  0  0  0  0  # atno 17320 bound_to 7965
  144.7522  140.5219  143.6794 LP  0  0  0  0  0  0  0  0  0  0  0  0  # atno 17321 bound_to 7965
  139.6889  144.7649  151.1474 LP  0  0  0  0  0  0  0  0  0  0  0  0  # atno 17342 bound_to 10162
  140.7670  143.5617  150.9091 LP  0  0  0  0  0  0  0  0  0  0  0  0  # atno 17343 bound_to 10162
  157.6490  131.0900  150.8091 LP  0  0  0  0  0  0  0  0  0  0  0  0  # atno 17370 bound_to 10713
  156.8176  130.4973  149.5347 LP  0  0  0  0  0  0  0  0  0  0  0  0  # atno 17371 bound_to 10713
  139.9786  134.7174  155.9902 LP  0  0  0  0  0  0  0  0  0  0  0  0  # atno 17394 bound_to 11000
  141.1498  133.6550  156.3978 LP  0  0  0  0  0  0  0  0  0  0  0  0  # atno 17395 bound_to 11000

$$$$
