AV-unprocessed.smi:1877|AV-procd|sdf|7622|dock1
  -GOLD-   22720 9353D 1   1.00000     0.00000
 Structure written by MMmdl.
 32 34  0  0  0  0  0  0  0  0  1 V2000
  153.1685  139.7628  158.0273 O   0  0  0  0  0  0  0  0  0  0  0  0
  152.0875  140.6588  158.1882 C   0  0  2  0  0  0  0  0  0  0  0  0
  151.7383  141.2421  156.8052 C   0  0  0  0  0  0  0  0  0  0  0  0
  150.8326  140.3850  156.0619 N   0  0  0  0  0  0  0  0  0  0  0  0
  151.0201  139.0916  155.7353 C   0  0  0  0  0  0  0  0  0  0  0  0
  150.0589  138.4939  155.0368 N   0  0  0  0  0  0  0  0  0  0  0  0
  149.1381  139.5181  154.8958 C   0  0  0  0  0  0  0  0  0  0  0  0
  147.8816  139.5403  154.2492 C   0  0  0  0  0  0  0  0  0  0  0  0
  147.1067  140.7189  154.2341 C   0  0  0  0  0  0  0  0  0  0  0  0
  147.5747  141.8910  154.8630 C   0  0  0  0  0  0  0  0  0  0  0  0
  148.8236  141.8933  155.5133 C   0  0  0  0  0  0  0  0  0  0  0  0
  149.5926  140.7151  155.5274 C   0  0  0  0  0  0  0  0  0  0  0  0
  152.3856  141.7475  159.2131 C   0  0  0  0  0  0  0  0  0  0  0  0
  151.8127  143.0315  159.0742 C   0  0  0  0  0  0  0  0  0  0  0  0
  152.0689  144.0333  160.0297 C   0  0  0  0  0  0  0  0  0  0  0  0
  151.5156  145.2608  159.8883 F   0  0  0  0  0  0  0  0  0  0  0  0
  152.8979  143.7580  161.1333 C   0  0  0  0  0  0  0  0  0  0  0  0
  153.4690  142.4798  161.2812 C   0  0  0  0  0  0  0  0  0  0  0  0
  153.2144  141.4761  160.3262 C   0  0  0  0  0  0  0  0  0  0  0  0
  153.7638  140.2486  160.4907 F   0  0  0  0  0  0  0  0  0  0  0  0
  153.2597  139.2580  158.8210 H   0  0  0  0  0  0  0  0  0  0  0  0
  151.2494  140.0566  158.5404 H   0  0  0  0  0  0  0  0  0  0  0  0
  151.2898  142.2319  156.9037 H   0  0  0  0  0  0  0  0  0  0  0  0
  152.6430  141.3673  156.2086 H   0  0  0  0  0  0  0  0  0  0  0  0
  151.9168  138.5609  156.0206 H   0  0  0  0  0  0  0  0  0  0  0  0
  147.5129  138.6488  153.7638 H   0  0  0  0  0  0  0  0  0  0  0  0
  146.1477  140.7237  153.7372 H   0  0  0  0  0  0  0  0  0  0  0  0
  146.9741  142.7887  154.8458 H   0  0  0  0  0  0  0  0  0  0  0  0
  149.1867  142.7889  155.9951 H   0  0  0  0  0  0  0  0  0  0  0  0
  151.1689  143.2515  158.2352 H   0  0  0  0  0  0  0  0  0  0  0  0
  153.0934  144.5254  161.8676 H   0  0  0  0  0  0  0  0  0  0  0  0
  154.1017  142.2677  162.1304 H   0  0  0  0  0  0  0  0  0  0  0  0
  1  2  1  0  0  0  0
  1 21  1  0  0  0  0
  2  3  1  0  0  0  0
  2 13  1  0  0  0  0
  2 22  1  0  0  0  0
  3  4  1  0  0  0  0
  3 23  1  0  0  0  0
  3 24  1  0  0  0  0
  4 12  1  0  0  0  0
  4  5  1  0  0  0  0
  5  6  2  0  0  0  0
  5 25  1  0  0  0  0
  6  7  1  0  0  0  0
  7 12  2  0  0  0  0
  7  8  1  0  0  0  0
  8  9  2  0  0  0  0
  8 26  1  0  0  0  0
  9 10  1  0  0  0  0
  9 27  1  0  0  0  0
 10 11  2  0  0  0  0
 10 28  1  0  0  0  0
 11 12  1  0  0  0  0
 11 29  1  0  0  0  0
 13 19  1  0  0  0  0
 13 14  2  0  0  0  0
 14 15  1  0  0  0  0
 14 30  1  0  0  0  0
 15 16  1  0  0  0  0
 15 17  2  0  0  0  0
 17 18  1  0  0  0  0
 17 31  1  0  0  0  0
 18 19  2  0  0  0  0
 18 32  1  0  0  0  0
 19 20  1  0  0  0  0
M  END
> <s_m_source_file>
AV-unprocessed.smi

> <i_m_source_file_index>
1877

> <i_lp_mmshare_version>
43012

> <i_f3d_flags>
0

> <s_epik_input>
RmMxW2NIXVtjSF1jKEYpW2NIXWMxW0NASF0oW09IXSlbQ0gyXW4oW2NIXW4yKWMoYzIzKVtjSF1bY0hdW2NIXVtjSF0z

> <s_epik_cmdline>
J2VwaWtfcHl0aG9uJywgJy1waCcsICc3LjAnLCAnLXRuJywgJzgnLCAnLW1hJywgJzIwMCcsICctbWV0YWxfYmluZGluZycsICctaW1hZScsICc8aW5maWxlLm1hZT4nLCAnLW9tYWUnLCAnPG91dGZpbGUubWFlPic=

> <r_epik_Ionization_Penalty>
0.0696522

> <r_epik_Ionization_Penalty_Charging>
0

> <r_epik_Ionization_Penalty_Neutral>
0.0696522

> <r_epik_State_Penalty>
0.0610247

> <r_epik_Charging_Adjusted_Penalty>
0.0610247

> <i_epik_Tot_Q>
0

> <i_epik_Tot_abs_Q>
0

> <r_epik_Metal_State_Penalty>
6.42746e-05

> <b_epik_Metal_Only>
0

> <s_lp_Force_Field>
OPLS_2005

> <r_lp_Energy>
11.8113

> <b_lp_Chiralities_Consistent>
1

> <s_lp_Variant>
AV-unprocessed.smi:1877-1

> <Gold.Version>
5.8.1

> <Gold.Id.Protein>
6NUR|6NUR_protein|mol2

> <Gold.PLP.Fitness>
49.5434

> <Gold.PLP.PLP>
-48.6669

> <Gold.PLP.part.hbond>
-1.0000

> <Gold.PLP.part.metal>
0.0000

> <Gold.PLP.part.buried>
-2.3207

> <Gold.PLP.part.nonpolar>
-43.8552

> <Gold.PLP.part.repulsive>
0.2177

> <Gold.PLP.ligand.clash>
0.0000

> <Gold.PLP.ligand.torsion>
1.0690

> <Gold.PLP.Chemscore.Hbond>
1.0000

> <Gold.PLP.Chemscore.CHOScore>
0.0000

> <Gold.PLP.Chemscore.Metal>
0.0000

> <Gold.Chemscore.Hbonds>
donor molecule, donor type, donor heavy atom, donor atom, acceptor molecule, acceptor atom, score
      P1  H  7997  8010       L1     1  1.00

> <Gold.PLP.Chemscore.Internal.Correction>
0.0144

> <Gold.Rescore>
     Score         DG    S(hbond)    S(metal)    S(lipo)     H(rot)  DE(clash)    DE(int)     intcor
     14.53     -17.20       0.96        0.00     116.63       2.00       0.02       2.66       ----

> <Gold.Chemscore.Fitness>
14.5317

> <Gold.Chemscore.DG>
-17.2032

> <Gold.Chemscore.ZeroCoef>
-5.4800

> <Gold.Chemscore.Hbond>
0.9603

> <Gold.Chemscore.Metal>
0.0000

> <Gold.Chemscore.Lipo>
116.6336

> <Gold.Chemscore.Internal_Hbond>
0.0000

> <Gold.Chemscore.DEClash>
0.0153

> <Gold.Chemscore.DEInternal>
2.6562

> <Gold.Chemscore.Rot>
2.0040

> <Gold.Chemscore.Internal.Correction>
   9.000000E+99

> <Gold.Chemscore.Hbonds>
donor molecule, donor type, donor heavy atom, donor atom, acceptor molecule, acceptor atom, score
      P1  H  7997  8010       L1     1  0.92

> <Gold.Chemscore.Hbond.Weighted>
-3.2074

> <Gold.Chemscore.Metal.Weighted>
-0.0000

> <Gold.Chemscore.Lipo.Weighted>
-13.6461

> <Gold.Chemscore.Internal_Hbond.Weighted>
0.0000

> <Gold.Chemscore.DEClash.Weighted>
0.0153

> <Gold.Chemscore.DEInternal.Weighted>
2.6562

> <Gold.Chemscore.Rot.Weighted>
5.1303

> <Gold.Chemscore.Internal.Correction.Weighted>
   9.000000E+99

> <Gold.Protein.RotatedTorsions>
[ 6907 6896 6895 6894 ] final  -80.73 input  -60.11 | X-H torsion
[ 7974 7965 7964 7962 ] final  -17.66 input  175.53 | X-H torsion
[ 8008 7997 7996 7995 ] final   54.62 input   59.86 | X-H torsion
[ 10167 10162 10161 10158 ] final -154.72 input  -65.29 | X-H torsion
[ 10718 10713 10712 10709 ] final  -84.10 input   66.30 | X-H torsion
[ 10763 10752 10751 10750 ] final  -23.74 input  -60.55 | X-H torsion
[ 11005 11000 10999 10996 ] final  109.59 input  -57.11 | X-H torsion

> <Gold.Protein.ActiveResidues>
 VAL166  LYS551  ARG553  GLY616  TRP617  ASP618  TYR619  PRO620  LYS621  CYS622 
 ASP623  PHE694  ASN695  SER759  ASP760  ASP761  ALA762  ILE779  LEU786  VAL792 
 PHE793  MET794  SER795  GLU796  ALA797  LYS798  CYS799  TRP800  GLU811  SER814 

> <Gold.Protein.RotatedAtoms>
  150.6924  134.3925  159.5082 H   0  0  0  0  0  0  0  0  0  0  0  0  # atno 6907 bound_to 6896
  152.1711  134.8831  160.0543 H   0  0  0  0  0  0  0  0  0  0  0  0  # atno 6908 bound_to 6896
  151.9857  133.3738  159.4161 H   0  0  0  0  0  0  0  0  0  0  0  0  # atno 6909 bound_to 6896
  146.1930  140.3811  142.8451 H   0  0  0  0  0  0  0  0  0  0  0  0  # atno 7974 bound_to 7965
  155.4877  140.3470  155.4350 H   0  0  0  0  0  0  0  0  0  0  0  0  # atno 8008 bound_to 7997
  156.0997  140.1432  156.9512 H   0  0  0  0  0  0  0  0  0  0  0  0  # atno 8009 bound_to 7997
  154.4686  140.0909  156.7063 H   0  0  0  0  0  0  0  0  0  0  0  0  # atno 8010 bound_to 7997
  139.6990  143.9295  152.2420 H   0  0  0  0  0  0  0  0  0  0  0  0  # atno 10167 bound_to 10162
  156.0010  130.4687  150.4358 H   0  0  0  0  0  0  0  0  0  0  0  0  # atno 10718 bound_to 10713
  153.6727  135.6971  153.5142 H   0  0  0  0  0  0  0  0  0  0  0  0  # atno 10763 bound_to 10752
  153.2545  135.4264  155.0831 H   0  0  0  0  0  0  0  0  0  0  0  0  # atno 10764 bound_to 10752
  154.8422  135.3539  154.6271 H   0  0  0  0  0  0  0  0  0  0  0  0  # atno 10765 bound_to 10752
  139.8865  134.9462  156.6148 H   0  0  0  0  0  0  0  0  0  0  0  0  # atno 11005 bound_to 11000
  144.8524  140.7020  143.6160 LP  0  0  0  0  0  0  0  0  0  0  0  0  # atno 17320 bound_to 7965
  145.3733  139.1653  143.4320 LP  0  0  0  0  0  0  0  0  0  0  0  0  # atno 17321 bound_to 7965
  139.9132  144.6844  150.8540 LP  0  0  0  0  0  0  0  0  0  0  0  0  # atno 17342 bound_to 10162
  140.7704  143.3428  151.2172 LP  0  0  0  0  0  0  0  0  0  0  0  0  # atno 17343 bound_to 10162
  157.2403  131.0524  151.2440 LP  0  0  0  0  0  0  0  0  0  0  0  0  # atno 17370 bound_to 10713
  157.3626  130.7139  149.6512 LP  0  0  0  0  0  0  0  0  0  0  0  0  # atno 17371 bound_to 10713
  140.7784  133.8680  155.8547 LP  0  0  0  0  0  0  0  0  0  0  0  0  # atno 17394 bound_to 11000
  140.9782  134.1441  157.4518 LP  0  0  0  0  0  0  0  0  0  0  0  0  # atno 17395 bound_to 11000

$$$$
