AV-unprocessed.smi:1768|AV-procd|sdf|7145|dock4
  -GOLD-   22720 8383D 1   1.00000     0.00000
 Structure written by MMmdl.
 33 34  0  0  0  0  0  0  0  0  1 V2000
  144.2022  146.3754  163.4959 C   0  0  0  0  0  0  0  0  0  0  0  0
  145.0227  146.1334  162.2751 C   0  0  0  0  0  0  0  0  0  0  0  0
  144.4961  146.0726  161.0459 N   0  0  0  0  0  0  0  0  0  0  0  0
  145.4576  145.8395  160.0726 N   0  0  0  0  0  0  0  0  0  0  0  0
  146.6854  145.7303  160.5986 C   0  0  0  0  0  0  0  0  0  0  0  0
  147.8557  145.4913  159.8308 N   0  0  0  0  0  0  0  0  0  0  0  0
  149.1134  145.2981  160.2651 C   0  0  0  0  0  0  0  0  0  0  0  0
  149.4655  145.2974  161.4448 O   0  0  0  0  0  0  0  0  0  0  0  0
  149.9521  145.1019  159.2370 N   0  0  0  0  0  0  0  0  0  0  0  0
  151.3857  144.8368  159.3387 C   0  0  2  0  0  0  0  0  0  0  0  0
  151.9274  144.4991  157.9412 C   0  0  0  0  0  0  0  0  0  0  0  0
  151.6225  143.7005  160.3521 C   0  0  1  0  0  0  0  0  0  0  0  0
  152.1594  142.4026  159.7452 C   0  0  0  0  0  0  0  0  0  0  0  0
  152.9211  141.7517  160.8905 C   0  0  0  0  0  0  0  0  0  0  0  0
  153.0416  142.8608  161.9386 C   0  0  0  0  0  0  0  0  0  0  0  0
  152.6555  144.0476  161.2617 O   0  0  0  0  0  0  0  0  0  0  0  0
  146.7656  145.9042  162.3437 S   0  0  0  0  0  0  0  0  0  0  0  0
  143.1543  146.5253  163.2332 H   0  0  0  0  0  0  0  0  0  0  0  0
  144.5617  147.2635  164.0159 H   0  0  0  0  0  0  0  0  0  0  0  0
  144.2751  145.5209  164.1688 H   0  0  0  0  0  0  0  0  0  0  0  0
  147.7183  145.4602  158.8317 H   0  0  0  0  0  0  0  0  0  0  0  0
  149.5659  145.1207  158.3048 H   0  0  0  0  0  0  0  0  0  0  0  0
  151.9103  145.7257  159.6936 H   0  0  0  0  0  0  0  0  0  0  0  0
  153.0045  144.3333  157.9620 H   0  0  0  0  0  0  0  0  0  0  0  0
  151.7384  145.3139  157.2412 H   0  0  0  0  0  0  0  0  0  0  0  0
  151.4593  143.5996  157.5401 H   0  0  0  0  0  0  0  0  0  0  0  0
  150.7111  143.4954  160.9178 H   0  0  0  0  0  0  0  0  0  0  0  0
  151.3671  141.7662  159.3500 H   0  0  0  0  0  0  0  0  0  0  0  0
  152.8503  142.6237  158.9304 H   0  0  0  0  0  0  0  0  0  0  0  0
  152.3848  140.8929  161.2956 H   0  0  0  0  0  0  0  0  0  0  0  0
  153.9007  141.4089  160.5557 H   0  0  0  0  0  0  0  0  0  0  0  0
  152.3550  142.6820  162.7676 H   0  0  0  0  0  0  0  0  0  0  0  0
  154.0496  142.9485  162.3439 H   0  0  0  0  0  0  0  0  0  0  0  0
  1  2  1  0  0  0  0
  1 18  1  0  0  0  0
  1 19  1  0  0  0  0
  1 20  1  0  0  0  0
  2 17  1  0  0  0  0
  2  3  2  0  0  0  0
  3  4  1  0  0  0  0
  4  5  2  0  0  0  0
  5  6  1  0  0  0  0
  5 17  1  0  0  0  0
  6  7  1  0  0  0  0
  6 21  1  0  0  0  0
  7  8  2  0  0  0  0
  7  9  1  0  0  0  0
  9 10  1  0  0  0  0
  9 22  1  0  0  0  0
 10 11  1  0  0  0  0
 10 12  1  0  0  0  0
 10 23  1  0  0  0  0
 11 24  1  0  0  0  0
 11 25  1  0  0  0  0
 11 26  1  0  0  0  0
 12 16  1  0  0  0  0
 12 13  1  0  0  0  0
 12 27  1  0  0  0  0
 13 14  1  0  0  0  0
 13 28  1  0  0  0  0
 13 29  1  0  0  0  0
 14 15  1  0  0  0  0
 14 30  1  0  0  0  0
 14 31  1  0  0  0  0
 15 16  1  0  0  0  0
 15 32  1  0  0  0  0
 15 33  1  0  0  0  0
M  END
> <s_m_source_file>
AV-unprocessed.smi

> <i_m_source_file_index>
1768

> <i_lp_mmshare_version>
43012

> <i_f3d_flags>
0

> <s_epik_input>
W0NIM11jMW5uYyhzMSlbTkhdQyg9TylbTkhdW0NASF0oW0NIM10pW0NAQEhdMltDSDJdW0NIMl1bQ0gyXU8y

> <s_epik_cmdline>
J2VwaWtfcHl0aG9uJywgJy1waCcsICc3LjAnLCAnLXRuJywgJzgnLCAnLW1hJywgJzIwMCcsICctbWV0YWxfYmluZGluZycsICctaW1hZScsICc8aW5maWxlLm1hZT4nLCAnLW9tYWUnLCAnPG91dGZpbGUubWFlPic=

> <r_lp_tautomer_probability>
1

> <r_epik_Ionization_Penalty>
0.000523083

> <r_epik_Ionization_Penalty_Charging>
0

> <r_epik_Ionization_Penalty_Neutral>
0.000523083

> <r_epik_State_Penalty>
-0

> <r_epik_Charging_Adjusted_Penalty>
0

> <i_epik_Tot_Q>
0

> <i_epik_Tot_abs_Q>
0

> <r_epik_Metal_State_Penalty>
0.223408

> <b_epik_Metal_Only>
0

> <s_lp_Force_Field>
OPLS_2005

> <r_lp_Energy>
16.8898

> <b_lp_Chiralities_Consistent>
1

> <s_lp_Variant>
AV-unprocessed.smi:1768-3

> <Gold.Version>
5.8.1

> <Gold.Id.Protein>
6NUR|6NUR_protein|mol2

> <Gold.PLP.Fitness>
44.5880

> <Gold.PLP.PLP>
-40.3345

> <Gold.PLP.part.hbond>
-3.0000

> <Gold.PLP.part.metal>
0.0000

> <Gold.PLP.part.buried>
-7.9844

> <Gold.PLP.part.nonpolar>
-31.1894

> <Gold.PLP.part.repulsive>
0.8712

> <Gold.PLP.ligand.clash>
0.0000

> <Gold.PLP.ligand.torsion>
1.4606

> <Gold.PLP.Chemscore.Hbond>
2.3845

> <Gold.PLP.Chemscore.CHOScore>
0.0000

> <Gold.PLP.Chemscore.Metal>
0.0000

> <Gold.Chemscore.Hbonds>
donor molecule, donor type, donor heavy atom, donor atom, acceptor molecule, acceptor atom, score
      L1  H     6    21       P1  8029  1.00
      L1  H     9    22       P1  8029  0.61

> <Gold.PLP.Chemscore.Internal.Correction>
0.0212

> <Gold.Rescore>
     Score         DG    S(hbond)    S(metal)    S(lipo)     H(rot)  DE(clash)    DE(int)     intcor
     16.31     -19.63       2.11        0.00      89.00       1.29       0.05       3.27       ----

> <Gold.Chemscore.Fitness>
16.3147

> <Gold.Chemscore.DG>
-19.6290

> <Gold.Chemscore.ZeroCoef>
-5.4800

> <Gold.Chemscore.Hbond>
2.1087

> <Gold.Chemscore.Metal>
0.0000

> <Gold.Chemscore.Lipo>
89.0016

> <Gold.Chemscore.Internal_Hbond>
0.0000

> <Gold.Chemscore.DEClash>
0.0480

> <Gold.Chemscore.DEInternal>
3.2664

> <Gold.Chemscore.Rot>
1.2919

> <Gold.Chemscore.Internal.Correction>
   9.000000E+99

> <Gold.Chemscore.Hbonds>
donor molecule, donor type, donor heavy atom, donor atom, acceptor molecule, acceptor atom, score
      L1  H     6    21       P1  8029  0.98
      L1  H     9    22       P1  8029  0.30

> <Gold.Chemscore.Hbond.Weighted>
-7.0430

> <Gold.Chemscore.Metal.Weighted>
-0.0000

> <Gold.Chemscore.Lipo.Weighted>
-10.4132

> <Gold.Chemscore.Internal_Hbond.Weighted>
0.0000

> <Gold.Chemscore.DEClash.Weighted>
0.0480

> <Gold.Chemscore.DEInternal.Weighted>
3.2664

> <Gold.Chemscore.Rot.Weighted>
3.3072

> <Gold.Chemscore.Internal.Correction.Weighted>
   9.000000E+99

> <Gold.Protein.RotatedTorsions>
[ 6907 6896 6895 6894 ] final   99.51 input  -60.11 | X-H torsion
[ 7974 7965 7964 7962 ] final   64.24 input  175.53 | X-H torsion
[ 8008 7997 7996 7995 ] final -175.43 input   59.86 | X-H torsion
[ 10167 10162 10161 10158 ] final -149.84 input  -65.29 | X-H torsion
[ 10718 10713 10712 10709 ] final -148.09 input   66.30 | X-H torsion
[ 10763 10752 10751 10750 ] final  -24.81 input  -60.55 | X-H torsion
[ 11005 11000 10999 10996 ] final -179.25 input  -57.11 | X-H torsion

> <Gold.Protein.ActiveResidues>
 VAL166  LYS551  ARG553  GLY616  TRP617  ASP618  TYR619  PRO620  LYS621  CYS622 
 ASP623  PHE694  ASN695  SER759  ASP760  ASP761  ALA762  ILE779  LEU786  VAL792 
 PHE793  MET794  SER795  GLU796  ALA797  LYS798  CYS799  TRP800  GLU811  SER814 

> <Gold.Protein.RotatedAtoms>
  152.5390  134.0418  159.8070 H   0  0  0  0  0  0  0  0  0  0  0  0  # atno 6907 bound_to 6896
  151.0572  133.5566  159.2644 H   0  0  0  0  0  0  0  0  0  0  0  0  # atno 6908 bound_to 6896
  151.2478  135.0619  159.9104 H   0  0  0  0  0  0  0  0  0  0  0  0  # atno 6909 bound_to 6896
  145.8525  139.3263  143.0867 H   0  0  0  0  0  0  0  0  0  0  0  0  # atno 7974 bound_to 7965
  155.9825  140.1184  157.0714 H   0  0  0  0  0  0  0  0  0  0  0  0  # atno 8008 bound_to 7997
  154.4187  140.1142  156.5522 H   0  0  0  0  0  0  0  0  0  0  0  0  # atno 8009 bound_to 7997
  155.6452  140.3473  155.4731 H   0  0  0  0  0  0  0  0  0  0  0  0  # atno 8010 bound_to 7997
  139.7407  143.8667  152.2561 H   0  0  0  0  0  0  0  0  0  0  0  0  # atno 10167 bound_to 10162
  156.4158  130.8004  151.2225 H   0  0  0  0  0  0  0  0  0  0  0  0  # atno 10718 bound_to 10713
  153.6897  135.6962  153.5093 H   0  0  0  0  0  0  0  0  0  0  0  0  # atno 10763 bound_to 10752
  153.2422  135.4302  155.0709 H   0  0  0  0  0  0  0  0  0  0  0  0  # atno 10764 bound_to 10752
  154.8376  135.3510  154.6439 H   0  0  0  0  0  0  0  0  0  0  0  0  # atno 10765 bound_to 10752
  140.4208  134.6607  157.4663 H   0  0  0  0  0  0  0  0  0  0  0  0  # atno 11005 bound_to 11000
  145.9341  140.9027  143.0341 LP  0  0  0  0  0  0  0  0  0  0  0  0  # atno 17320 bound_to 7965
  144.6728  140.1459  143.7433 LP  0  0  0  0  0  0  0  0  0  0  0  0  # atno 17321 bound_to 7965
  139.8617  144.7114  150.9092 LP  0  0  0  0  0  0  0  0  0  0  0  0  # atno 17342 bound_to 10162
  140.7785  143.3812  151.1473 LP  0  0  0  0  0  0  0  0  0  0  0  0  # atno 17343 bound_to 10162
  157.7508  131.0243  150.3872 LP  0  0  0  0  0  0  0  0  0  0  0  0  # atno 17370 bound_to 10713
  156.4179  130.3947  149.6845 LP  0  0  0  0  0  0  0  0  0  0  0  0  # atno 17371 bound_to 10713
  140.0202  134.6559  155.9251 LP  0  0  0  0  0  0  0  0  0  0  0  0  # atno 17394 bound_to 11000
  141.1785  133.6543  156.4923 LP  0  0  0  0  0  0  0  0  0  0  0  0  # atno 17395 bound_to 11000

$$$$
