AV-unprocessed.smi:1366|AV-procd|sdf|5570|dock6
  -GOLD-   22720 5163D 1   1.00000     0.00000
 Structure written by MMmdl.
 31 32  0  0  0  0  0  0  0  0  1 V2000
  145.8884  138.1395  152.3309 N   0  0  0  0  0  0  0  0  0  0  0  0
  146.6613  138.7831  152.9029 C   0  0  0  0  0  0  0  0  0  0  0  0
  147.6340  139.5933  153.6230 C   0  0  0  0  0  0  0  0  0  0  0  0
  148.9159  139.0786  153.9168 C   0  0  0  0  0  0  0  0  0  0  0  0
  149.8413  139.8017  154.5842 N   0  0  0  0  0  0  0  0  0  0  0  0
  149.4765  141.0320  154.9482 C   0  0  0  0  0  0  0  0  0  0  0  0
  150.6857  141.9800  155.8324 S   0  0  0  0  0  0  0  0  0  0  0  0
  149.8262  142.1332  157.4218 C   0  0  0  0  0  0  0  0  0  0  0  0
  150.7565  142.6519  158.5263 C   0  0  2  0  0  0  0  0  0  0  0  0
  151.4717  143.9530  158.1132 C   0  0  0  0  0  0  0  0  0  0  0  0
  152.4535  144.3977  159.2033 C   0  0  0  0  0  0  0  0  0  0  0  0
  153.3986  143.2424  159.5499 C   0  0  0  0  0  0  0  0  0  0  0  0
  152.5937  141.9772  159.8862 C   0  0  0  0  0  0  0  0  0  0  0  0
  151.7330  141.6487  158.8003 O   0  0  0  0  0  0  0  0  0  0  0  0
  148.3038  141.6309  154.7325 N   0  0  0  0  0  0  0  0  0  0  0  0
  147.3713  140.9148  154.0672 C   0  0  0  0  0  0  0  0  0  0  0  0
  146.1475  141.5507  153.8502 N   0  0  0  0  0  0  0  0  0  0  0  0
  149.2052  138.0813  153.6179 H   0  0  0  0  0  0  0  0  0  0  0  0
  148.9725  142.8010  157.3000 H   0  0  0  0  0  0  0  0  0  0  0  0
  149.4308  141.1538  157.6927 H   0  0  0  0  0  0  0  0  0  0  0  0
  150.1657  142.8337  159.4261 H   0  0  0  0  0  0  0  0  0  0  0  0
  152.0126  143.7952  157.1791 H   0  0  0  0  0  0  0  0  0  0  0  0
  150.7441  144.7425  157.9236 H   0  0  0  0  0  0  0  0  0  0  0  0
  153.0208  145.2683  158.8729 H   0  0  0  0  0  0  0  0  0  0  0  0
  151.9019  144.7011  160.0941 H   0  0  0  0  0  0  0  0  0  0  0  0
  154.0568  143.0403  158.7039 H   0  0  0  0  0  0  0  0  0  0  0  0
  154.0400  143.5168  160.3876 H   0  0  0  0  0  0  0  0  0  0  0  0
  153.2687  141.1404  160.0658 H   0  0  0  0  0  0  0  0  0  0  0  0
  152.0104  142.1164  160.7976 H   0  0  0  0  0  0  0  0  0  0  0  0
  145.3909  141.0920  153.3634 H   0  0  0  0  0  0  0  0  0  0  0  0
  145.9790  142.4905  154.1796 H   0  0  0  0  0  0  0  0  0  0  0  0
  1  2  3  0  0  0  0
  2  3  1  0  0  0  0
  3 16  1  0  0  0  0
  3  4  2  0  0  0  0
  4  5  1  0  0  0  0
  4 18  1  0  0  0  0
  5  6  2  0  0  0  0
  6  7  1  0  0  0  0
  6 15  1  0  0  0  0
  7  8  1  0  0  0  0
  8  9  1  0  0  0  0
  8 19  1  0  0  0  0
  8 20  1  0  0  0  0
  9 14  1  0  0  0  0
  9 10  1  0  0  0  0
  9 21  1  0  0  0  0
 10 11  1  0  0  0  0
 10 22  1  0  0  0  0
 10 23  1  0  0  0  0
 11 12  1  0  0  0  0
 11 24  1  0  0  0  0
 11 25  1  0  0  0  0
 12 13  1  0  0  0  0
 12 26  1  0  0  0  0
 12 27  1  0  0  0  0
 13 14  1  0  0  0  0
 13 28  1  0  0  0  0
 13 29  1  0  0  0  0
 15 16  2  0  0  0  0
 16 17  1  0  0  0  0
 17 30  1  0  0  0  0
 17 31  1  0  0  0  0
M  END
> <s_m_source_file>
AV-unprocessed.smi

> <i_m_source_file_index>
1366

> <i_lp_mmshare_version>
43012

> <i_f3d_flags>
0

> <s_epik_input>
TiNDYzFbY0hdbmMobmMxW05IMl0pU1tDSDJdW0NAQEhdMltDSDJdW0NIMl1bQ0gyXVtDSDJdTzI=

> <s_epik_cmdline>
J2VwaWtfcHl0aG9uJywgJy1waCcsICc3LjAnLCAnLXRuJywgJzgnLCAnLW1hJywgJzIwMCcsICctbWV0YWxfYmluZGluZycsICctaW1hZScsICc8aW5maWxlLm1hZT4nLCAnLW9tYWUnLCAnPG91dGZpbGUubWFlPic=

> <r_lp_tautomer_probability>
1

> <r_epik_Ionization_Penalty>
5.69531e-05

> <r_epik_Ionization_Penalty_Charging>
0

> <r_epik_Ionization_Penalty_Neutral>
5.69531e-05

> <r_epik_State_Penalty>
-0

> <r_epik_Charging_Adjusted_Penalty>
0

> <i_epik_Tot_Q>
0

> <i_epik_Tot_abs_Q>
0

> <r_epik_Metal_State_Penalty>
-0

> <b_epik_Metal_Only>
0

> <s_lp_Force_Field>
OPLS_2005

> <r_lp_Energy>
5.78872

> <b_lp_Chiralities_Consistent>
1

> <s_lp_Variant>
AV-unprocessed.smi:1366-1

> <Gold.Version>
5.8.1

> <Gold.Id.Protein>
6NUR|6NUR_protein|mol2

> <Gold.PLP.Fitness>
39.1986

> <Gold.PLP.PLP>
-33.3074

> <Gold.PLP.part.hbond>
-1.0401

> <Gold.PLP.part.metal>
0.0000

> <Gold.PLP.part.buried>
-3.8754

> <Gold.PLP.part.nonpolar>
-29.0930

> <Gold.PLP.part.repulsive>
0.5752

> <Gold.PLP.ligand.clash>
0.0000

> <Gold.PLP.ligand.torsion>
0.0916

> <Gold.PLP.Chemscore.Hbond>
1.0244

> <Gold.PLP.Chemscore.CHOScore>
1.0000

> <Gold.PLP.Chemscore.Metal>
0.0000

> <Gold.Chemscore.Hbonds>
donor molecule, donor type, donor heavy atom, donor atom, acceptor molecule, acceptor atom, score
      L1  H    17    30       P1 10175  1.00
      P1  H  7989  7998       L1     5  0.05
      L1  C     4    18       P1  7948  0.98

> <Gold.PLP.Chemscore.Internal.Correction>
0.0012

> <Gold.Rescore>
     Score         DG    S(hbond)    S(metal)    S(lipo)     H(rot)  DE(clash)    DE(int)     intcor
     13.68     -13.87       0.92        0.00      83.08       1.73       0.14       0.05       ----

> <Gold.Chemscore.Fitness>
13.6800

> <Gold.Chemscore.DG>
-13.8670

> <Gold.Chemscore.ZeroCoef>
-5.4800

> <Gold.Chemscore.Hbond>
0.9242

> <Gold.Chemscore.Metal>
0.0000

> <Gold.Chemscore.Lipo>
83.0783

> <Gold.Chemscore.Internal_Hbond>
0.0000

> <Gold.Chemscore.DEClash>
0.1407

> <Gold.Chemscore.DEInternal>
0.0463

> <Gold.Chemscore.Rot>
1.7266

> <Gold.Chemscore.Internal.Correction>
   9.000000E+99

> <Gold.Chemscore.Hbonds>
donor molecule, donor type, donor heavy atom, donor atom, acceptor molecule, acceptor atom, score
      L1  H    17    30       P1 10175  0.43

> <Gold.Chemscore.Hbond.Weighted>
-3.0868

> <Gold.Chemscore.Metal.Weighted>
-0.0000

> <Gold.Chemscore.Lipo.Weighted>
-9.7202

> <Gold.Chemscore.Internal_Hbond.Weighted>
0.0000

> <Gold.Chemscore.DEClash.Weighted>
0.1407

> <Gold.Chemscore.DEInternal.Weighted>
0.0463

> <Gold.Chemscore.Rot.Weighted>
4.4200

> <Gold.Chemscore.Internal.Correction.Weighted>
   9.000000E+99

> <Gold.Protein.RotatedTorsions>
[ 6907 6896 6895 6894 ] final  110.02 input  -60.11 | X-H torsion
[ 7974 7965 7964 7962 ] final  137.61 input  175.53 | X-H torsion
[ 8008 7997 7996 7995 ] final   19.04 input   59.86 | X-H torsion
[ 10167 10162 10161 10158 ] final -111.68 input  -65.29 | X-H torsion
[ 10718 10713 10712 10709 ] final  168.76 input   66.30 | X-H torsion
[ 10763 10752 10751 10750 ] final   92.49 input  -60.55 | X-H torsion
[ 11005 11000 10999 10996 ] final   85.48 input  -57.11 | X-H torsion

> <Gold.Protein.ActiveResidues>
 VAL166  LYS551  ARG553  GLY616  TRP617  ASP618  TYR619  PRO620  LYS621  CYS622 
 ASP623  PHE694  ASN695  SER759  ASP760  ASP761  ALA762  ILE779  LEU786  VAL792 
 PHE793  MET794  SER795  GLU796  ALA797  LYS798  CYS799  TRP800  GLU811  SER814 

> <Gold.Protein.RotatedAtoms>
  152.5040  133.8860  159.7369 H   0  0  0  0  0  0  0  0  0  0  0  0  # atno 6907 bound_to 6896
  150.9311  133.6757  159.2817 H   0  0  0  0  0  0  0  0  0  0  0  0  # atno 6908 bound_to 6896
  151.4101  135.0988  159.9635 H   0  0  0  0  0  0  0  0  0  0  0  0  # atno 6909 bound_to 6896
  144.9452  139.4884  143.5553 H   0  0  0  0  0  0  0  0  0  0  0  0  # atno 7974 bound_to 7965
  154.9149  140.3019  155.5246 H   0  0  0  0  0  0  0  0  0  0  0  0  # atno 8008 bound_to 7997
  156.3013  140.2382  156.4128 H   0  0  0  0  0  0  0  0  0  0  0  0  # atno 8009 bound_to 7997
  154.8388  140.0415  157.1516 H   0  0  0  0  0  0  0  0  0  0  0  0  # atno 8010 bound_to 7997
  140.1310  143.4361  152.1627 H   0  0  0  0  0  0  0  0  0  0  0  0  # atno 10167 bound_to 10162
  157.0324  131.0263  151.2740 H   0  0  0  0  0  0  0  0  0  0  0  0  # atno 10718 bound_to 10713
  153.2198  135.4359  155.0476 H   0  0  0  0  0  0  0  0  0  0  0  0  # atno 10763 bound_to 10752
  154.8244  135.3353  154.6945 H   0  0  0  0  0  0  0  0  0  0  0  0  # atno 10764 bound_to 10752
  153.7377  135.7007  153.5030 H   0  0  0  0  0  0  0  0  0  0  0  0  # atno 10765 bound_to 10752
  139.8970  134.8289  156.2587 H   0  0  0  0  0  0  0  0  0  0  0  0  # atno 11005 bound_to 11000
  146.3301  139.8498  142.8875 LP  0  0  0  0  0  0  0  0  0  0  0  0  # atno 17320 bound_to 7965
  145.2929  141.0172  143.3652 LP  0  0  0  0  0  0  0  0  0  0  0  0  # atno 17321 bound_to 7965
  139.5520  144.7344  151.4407 LP  0  0  0  0  0  0  0  0  0  0  0  0  # atno 17342 bound_to 10162
  140.6817  143.8067  150.7130 LP  0  0  0  0  0  0  0  0  0  0  0  0  # atno 17343 bound_to 10162
  157.5167  130.7972  149.7764 LP  0  0  0  0  0  0  0  0  0  0  0  0  # atno 17370 bound_to 10713
  156.0065  130.3853  150.2413 LP  0  0  0  0  0  0  0  0  0  0  0  0  # atno 17371 bound_to 10713
  141.0176  133.7059  156.1215 LP  0  0  0  0  0  0  0  0  0  0  0  0  # atno 17394 bound_to 11000
  140.7279  134.4287  157.5569 LP  0  0  0  0  0  0  0  0  0  0  0  0  # atno 17395 bound_to 11000

$$$$
