AV-unprocessed.smi:2133|AV-procd|sdf|8692|dock6
  -GOLD-   2272011453D 1   1.00000     0.00000
 Structure written by MMmdl.
 45 47  0  0  0  0  0  0  0  0  1 V2000
  146.6472  134.9083  162.7818 C   0  0  0  0  0  0  0  0  0  0  0  0
  147.3381  134.7489  161.4882 N   0  0  0  0  0  0  0  0  0  0  0  0
  147.7414  135.8784  160.8252 C   0  0  0  0  0  0  0  0  0  0  0  0
  147.5795  137.0288  161.2329 O   0  0  0  0  0  0  0  0  0  0  0  0
  148.4079  135.6099  159.5466 C   0  0  0  0  0  0  0  0  0  0  0  0
  148.6157  134.3569  159.0742 C   0  0  0  0  0  0  0  0  0  0  0  0
  149.2711  134.3782  157.8485 N   0  0  0  0  0  0  0  0  0  0  0  0
  149.4257  135.6859  157.6399 C   0  0  0  0  0  0  0  0  0  0  0  0
  148.9387  136.4919  158.6053 N   0  0  0  0  0  0  0  0  0  0  0  0
  148.9868  137.9462  158.6042 C   0  0  0  0  0  0  0  0  0  0  0  0
  149.9802  138.5040  157.5658 C   0  0  2  0  0  0  0  0  0  0  0  0
  151.3088  138.2267  157.9616 O   0  0  0  0  0  0  0  0  0  0  0  0
  149.8334  140.0202  157.3734 C   0  0  0  0  0  0  0  0  0  0  0  0
  151.0252  140.5263  156.7953 O   0  0  0  0  0  0  0  0  0  0  0  0
  150.9761  141.9234  156.5556 C   0  0  0  0  0  0  0  0  0  0  0  0
  151.4564  142.7249  157.7514 C   0  0  0  0  0  0  0  0  0  0  0  0
  151.4939  144.1352  157.7003 C   0  0  0  0  0  0  0  0  0  0  0  0
  151.9559  144.8726  158.8081 C   0  0  0  0  0  0  0  0  0  0  0  0
  152.3892  144.2036  159.9690 C   0  0  0  0  0  0  0  0  0  0  0  0
  152.3625  142.7967  160.0212 C   0  0  0  0  0  0  0  0  0  0  0  0
  151.9001  142.0590  158.9137 C   0  0  0  0  0  0  0  0  0  0  0  0
  148.1658  133.2557  159.8433 N   0  0  0  0  0  0  0  0  0  0  0  0
  148.4105  131.9163  159.3001 C   0  0  0  0  0  0  0  0  0  0  0  0
  147.5261  133.4507  161.0437 C   0  0  0  0  0  0  0  0  0  0  0  0
  147.1291  132.4901  161.7088 O   0  0  0  0  0  0  0  0  0  0  0  0
  146.5145  135.9401  163.1085 H   0  0  0  0  0  0  0  0  0  0  0  0
  147.2018  134.4027  163.5738 H   0  0  0  0  0  0  0  0  0  0  0  0
  145.6497  134.4678  162.7372 H   0  0  0  0  0  0  0  0  0  0  0  0
  149.9119  136.0719  156.7558 H   0  0  0  0  0  0  0  0  0  0  0  0
  147.9821  138.3094  158.3839 H   0  0  0  0  0  0  0  0  0  0  0  0
  149.2184  138.3101  159.6039 H   0  0  0  0  0  0  0  0  0  0  0  0
  149.8170  138.0107  156.6067 H   0  0  0  0  0  0  0  0  0  0  0  0
  151.7746  137.8708  157.2204 H   0  0  0  0  0  0  0  0  0  0  0  0
  148.9750  140.2446  156.7379 H   0  0  0  0  0  0  0  0  0  0  0  0
  149.6653  140.5042  158.3371 H   0  0  0  0  0  0  0  0  0  0  0  0
  151.5913  142.1677  155.6879 H   0  0  0  0  0  0  0  0  0  0  0  0
  149.9532  142.2253  156.3265 H   0  0  0  0  0  0  0  0  0  0  0  0
  151.1687  144.6577  156.8125 H   0  0  0  0  0  0  0  0  0  0  0  0
  151.9795  145.9516  158.7660 H   0  0  0  0  0  0  0  0  0  0  0  0
  152.7447  144.7694  160.8177 H   0  0  0  0  0  0  0  0  0  0  0  0
  152.6983  142.2830  160.9099 H   0  0  0  0  0  0  0  0  0  0  0  0
  151.8860  140.9799  158.9605 H   0  0  0  0  0  0  0  0  0  0  0  0
  148.0446  131.1014  159.9254 H   0  0  0  0  0  0  0  0  0  0  0  0
  149.4812  131.7625  159.1619 H   0  0  0  0  0  0  0  0  0  0  0  0
  147.9305  131.8171  158.3258 H   0  0  0  0  0  0  0  0  0  0  0  0
  1  2  1  0  0  0  0
  1 26  1  0  0  0  0
  1 27  1  0  0  0  0
  1 28  1  0  0  0  0
  2 24  1  0  0  0  0
  2  3  1  0  0  0  0
  3  4  2  0  0  0  0
  3  5  1  0  0  0  0
  5  9  1  0  0  0  0
  5  6  2  0  0  0  0
  6  7  1  0  0  0  0
  6 22  1  0  0  0  0
  7  8  2  0  0  0  0
  8  9  1  0  0  0  0
  8 29  1  0  0  0  0
  9 10  1  0  0  0  0
 10 11  1  0  0  0  0
 10 30  1  0  0  0  0
 10 31  1  0  0  0  0
 11 12  1  0  0  0  0
 11 13  1  0  0  0  0
 11 32  1  0  0  0  0
 12 33  1  0  0  0  0
 13 14  1  0  0  0  0
 13 34  1  0  0  0  0
 13 35  1  0  0  0  0
 14 15  1  0  0  0  0
 15 16  1  0  0  0  0
 15 36  1  0  0  0  0
 15 37  1  0  0  0  0
 16 21  1  0  0  0  0
 16 17  2  0  0  0  0
 17 18  1  0  0  0  0
 17 38  1  0  0  0  0
 18 19  2  0  0  0  0
 18 39  1  0  0  0  0
 19 20  1  0  0  0  0
 19 40  1  0  0  0  0
 20 21  2  0  0  0  0
 20 41  1  0  0  0  0
 21 42  1  0  0  0  0
 22 23  1  0  0  0  0
 22 24  1  0  0  0  0
 23 43  1  0  0  0  0
 23 44  1  0  0  0  0
 23 45  1  0  0  0  0
 24 25  2  0  0  0  0
M  END
> <s_m_source_file>
AV-unprocessed.smi

> <i_m_source_file_index>
2133

> <i_lp_mmshare_version>
43012

> <i_f3d_flags>
0

> <s_epik_input>
Tz1jMW4oW0NIM10pYyg9TyluKFtDSDNdKWMoYzEyKW5bY0hdbjJbQ0gyXVtDQEhdKFtPSF0pW0NIMl1PW0NIMl1jM1tjSF1bY0hdW2NIXVtjSF1bY0hdMw==

> <s_epik_cmdline>
J2VwaWtfcHl0aG9uJywgJy1waCcsICc3LjAnLCAnLXRuJywgJzgnLCAnLW1hJywgJzIwMCcsICctbWV0YWxfYmluZGluZycsICctaW1hZScsICc8aW5maWxlLm1hZT4nLCAnLW9tYWUnLCAnPG91dGZpbGUubWFlPic=

> <r_lp_tautomer_probability>
1

> <r_epik_Ionization_Penalty>
1.52174e-06

> <r_epik_Ionization_Penalty_Charging>
3.83535e-09

> <r_epik_Ionization_Penalty_Neutral>
1.5179e-06

> <r_epik_State_Penalty>
-0

> <r_epik_Charging_Adjusted_Penalty>
3.83535e-09

> <i_epik_Tot_Q>
0

> <i_epik_Tot_abs_Q>
0

> <r_epik_Metal_State_Penalty>
-0

> <b_epik_Metal_Only>
0

> <s_lp_Force_Field>
OPLS_2005

> <r_lp_Energy>
38.2919

> <b_lp_Chiralities_Consistent>
1

> <s_lp_Variant>
AV-unprocessed.smi:2133-1

> <Gold.Version>
5.8.1

> <Gold.Id.Protein>
6NUR|6NUR_protein|mol2

> <Gold.PLP.Fitness>
50.8867

> <Gold.PLP.PLP>
-46.4668

> <Gold.PLP.part.hbond>
-2.4093

> <Gold.PLP.part.metal>
0.0000

> <Gold.PLP.part.buried>
-5.7997

> <Gold.PLP.part.nonpolar>
-37.8993

> <Gold.PLP.part.repulsive>
0.0152

> <Gold.PLP.ligand.clash>
0.0000

> <Gold.PLP.ligand.torsion>
0.6318

> <Gold.PLP.Chemscore.Hbond>
1.8560

> <Gold.PLP.Chemscore.CHOScore>
0.0000

> <Gold.PLP.Chemscore.Metal>
0.0000

> <Gold.Chemscore.Hbonds>
donor molecule, donor type, donor heavy atom, donor atom, acceptor molecule, acceptor atom, score
      P1  H  6931  6943       L1     4  0.99
      P1  H  6934  6947       L1     4  0.87

> <Gold.PLP.Chemscore.Internal.Correction>
0.1156

> <Gold.Rescore>
     Score         DG    S(hbond)    S(metal)    S(lipo)     H(rot)  DE(clash)    DE(int)     intcor
     15.36     -16.15       1.77        0.00     104.41       2.91       0.11       0.68       ----

> <Gold.Chemscore.Fitness>
15.3610

> <Gold.Chemscore.DG>
-16.1539

> <Gold.Chemscore.ZeroCoef>
-5.4800

> <Gold.Chemscore.Hbond>
1.7711

> <Gold.Chemscore.Metal>
0.0000

> <Gold.Chemscore.Lipo>
104.4117

> <Gold.Chemscore.Internal_Hbond>
0.0000

> <Gold.Chemscore.DEClash>
0.1139

> <Gold.Chemscore.DEInternal>
0.6790

> <Gold.Chemscore.Rot>
2.9132

> <Gold.Chemscore.Internal.Correction>
   9.000000E+99

> <Gold.Chemscore.Hbonds>
donor molecule, donor type, donor heavy atom, donor atom, acceptor molecule, acceptor atom, score
      P1  H  6931  6943       L1     4  0.90
      P1  H  6934  6947       L1     4  0.81

> <Gold.Chemscore.Hbond.Weighted>
-5.9155

> <Gold.Chemscore.Metal.Weighted>
-0.0000

> <Gold.Chemscore.Lipo.Weighted>
-12.2162

> <Gold.Chemscore.Internal_Hbond.Weighted>
0.0000

> <Gold.Chemscore.DEClash.Weighted>
0.1139

> <Gold.Chemscore.DEInternal.Weighted>
0.6790

> <Gold.Chemscore.Rot.Weighted>
7.4578

> <Gold.Chemscore.Internal.Correction.Weighted>
   9.000000E+99

> <Gold.Protein.RotatedTorsions>
[ 6907 6896 6895 6894 ] final   13.16 input  -60.11 | X-H torsion
[ 7974 7965 7964 7962 ] final -176.72 input  175.53 | X-H torsion
[ 8008 7997 7996 7995 ] final  141.56 input   59.86 | X-H torsion
[ 10167 10162 10161 10158 ] final -152.06 input  -65.29 | X-H torsion
[ 10718 10713 10712 10709 ] final   51.28 input   66.30 | X-H torsion
[ 10763 10752 10751 10750 ] final   17.68 input  -60.55 | X-H torsion
[ 11005 11000 10999 10996 ] final  -26.60 input  -57.11 | X-H torsion

> <Gold.Protein.ActiveResidues>
 VAL166  LYS551  ARG553  GLY616  TRP617  ASP618  TYR619  PRO620  LYS621  CYS622 
 ASP623  PHE694  ASN695  SER759  ASP760  ASP761  ALA762  ILE779  LEU786  VAL792 
 PHE793  MET794  SER795  GLU796  ALA797  LYS798  CYS799  TRP800  GLU811  SER814 

> <Gold.Protein.RotatedAtoms>
  151.7818  135.0759  160.0374 H   0  0  0  0  0  0  0  0  0  0  0  0  # atno 6907 bound_to 6896
  152.3217  133.5857  159.5757 H   0  0  0  0  0  0  0  0  0  0  0  0  # atno 6908 bound_to 6896
  150.7373  133.9917  159.3651 H   0  0  0  0  0  0  0  0  0  0  0  0  # atno 6909 bound_to 6896
  144.7127  140.1127  143.6410 H   0  0  0  0  0  0  0  0  0  0  0  0  # atno 7974 bound_to 7965
  156.2964  140.2312  156.4585 H   0  0  0  0  0  0  0  0  0  0  0  0  # atno 8008 bound_to 7997
  154.8039  140.0447  157.1314 H   0  0  0  0  0  0  0  0  0  0  0  0  # atno 8009 bound_to 7997
  154.9501  140.3041  155.5082 H   0  0  0  0  0  0  0  0  0  0  0  0  # atno 8010 bound_to 7997
  139.7214  143.8951  152.2504 H   0  0  0  0  0  0  0  0  0  0  0  0  # atno 10167 bound_to 10162
  157.4965  130.8410  149.8265 H   0  0  0  0  0  0  0  0  0  0  0  0  # atno 10718 bound_to 10713
  153.1317  135.6741  153.9167 H   0  0  0  0  0  0  0  0  0  0  0  0  # atno 10763 bound_to 10752
  153.8651  135.3076  155.3441 H   0  0  0  0  0  0  0  0  0  0  0  0  # atno 10764 bound_to 10752
  154.7713  135.4938  153.9736 H   0  0  0  0  0  0  0  0  0  0  0  0  # atno 10765 bound_to 10752
  140.9044  133.7502  156.0586 H   0  0  0  0  0  0  0  0  0  0  0  0  # atno 11005 bound_to 11000
  145.9440  139.2688  143.1252 LP  0  0  0  0  0  0  0  0  0  0  0  0  # atno 17320 bound_to 7965
  145.9393  140.8991  143.0316 LP  0  0  0  0  0  0  0  0  0  0  0  0  # atno 17321 bound_to 7965
  139.8848  144.6998  150.8837 LP  0  0  0  0  0  0  0  0  0  0  0  0  # atno 17342 bound_to 10162
  140.7754  143.3632  151.1788 LP  0  0  0  0  0  0  0  0  0  0  0  0  # atno 17343 bound_to 10162
  156.0204  130.3798  150.1981 LP  0  0  0  0  0  0  0  0  0  0  0  0  # atno 17370 bound_to 10713
  157.0170  130.9968  151.3350 LP  0  0  0  0  0  0  0  0  0  0  0  0  # atno 17371 bound_to 10713
  140.8189  134.3312  157.5388 LP  0  0  0  0  0  0  0  0  0  0  0  0  # atno 17394 bound_to 11000
  139.8747  134.9298  156.3485 LP  0  0  0  0  0  0  0  0  0  0  0  0  # atno 17395 bound_to 11000

$$$$
