AV-unprocessed.smi:2339|AV-procd|sdf|9338|dock7
  -GOLD-   2272012563D 1   1.00000     0.00000
 Structure written by MMmdl.
 49 52  0  0  0  0  0  0  0  0  1 V2000
  148.6138  131.2495  161.1626 C   0  0  0  0  0  0  0  0  0  0  0  0
  147.2948  132.0176  161.0231 C   0  0  0  0  0  0  0  0  0  0  0  0
  147.4886  133.4536  161.1621 N   0  0  0  0  0  0  0  0  0  0  0  0
  146.8854  134.1713  162.1898 C   0  0  0  0  0  0  0  0  0  0  0  0
  146.9713  135.5086  162.3281 C   0  0  0  0  0  0  0  0  0  0  0  0
  147.7448  136.2899  161.3420 C   0  0  0  0  0  0  0  0  0  0  0  0
  147.8429  137.5137  161.4356 O   0  0  0  0  0  0  0  0  0  0  0  0
  148.3886  135.5226  160.2437 C   0  0  0  0  0  0  0  0  0  0  0  0
  149.1350  136.2721  159.3215 N   0  0  0  0  0  0  0  0  0  0  0  0
  148.8284  137.4331  158.7078 C   0  0  0  0  0  0  0  0  0  0  0  0
  147.7982  138.0806  158.8793 O   0  0  0  0  0  0  0  0  0  0  0  0
  149.7869  137.8679  157.8721 N   0  0  0  0  0  0  0  0  0  0  0  0
  149.7685  139.0911  157.0534 C   0  0  2  0  0  0  0  0  0  0  0  0
  150.5164  138.9692  155.7206 C   0  0  2  0  0  0  0  0  0  0  0  0
  150.9524  137.8506  154.8438 C   0  0  0  0  0  0  0  0  0  0  0  0
  152.3644  138.4004  154.5096 C   0  0  0  0  0  0  0  0  0  0  0  0
  152.5695  139.5341  155.3902 O   0  0  0  0  0  0  0  0  0  0  0  0
  151.7718  139.2430  156.5217 C   0  0  1  0  0  0  0  0  0  0  0  0
  150.8887  140.1382  157.4231 C   0  0  0  0  0  0  0  0  0  0  0  0
  150.6882  141.5996  156.9729 C   0  0  0  0  0  0  0  0  0  0  0  0
  150.8339  142.5036  158.1972 C   0  0  0  0  0  0  0  0  0  0  0  0
  151.7086  141.7049  159.1519 C   0  0  0  0  0  0  0  0  0  0  0  0
  151.2940  140.2583  158.8984 C   0  0  0  0  0  0  0  0  0  0  0  0
  148.2232  134.1756  160.2239 C   0  0  0  0  0  0  0  0  0  0  0  0
  148.4522  130.1782  161.0428 H   0  0  0  0  0  0  0  0  0  0  0  0
  149.0639  131.4120  162.1423 H   0  0  0  0  0  0  0  0  0  0  0  0
  149.3337  131.5630  160.4061 H   0  0  0  0  0  0  0  0  0  0  0  0
  146.8434  131.8059  160.0531 H   0  0  0  0  0  0  0  0  0  0  0  0
  146.5831  131.6705  161.7730 H   0  0  0  0  0  0  0  0  0  0  0  0
  146.3322  133.5642  162.8919 H   0  0  0  0  0  0  0  0  0  0  0  0
  146.4870  136.0235  163.1448 H   0  0  0  0  0  0  0  0  0  0  0  0
  150.0426  135.8846  159.1068 H   0  0  0  0  0  0  0  0  0  0  0  0
  150.6325  137.3178  157.8257 H   0  0  0  0  0  0  0  0  0  0  0  0
  148.7796  139.5435  156.9617 H   0  0  0  0  0  0  0  0  0  0  0  0
  150.2320  139.8202  155.0934 H   0  0  0  0  0  0  0  0  0  0  0  0
  151.0011  136.9005  155.3771 H   0  0  0  0  0  0  0  0  0  0  0  0
  150.3239  137.7347  153.9605 H   0  0  0  0  0  0  0  0  0  0  0  0
  153.1276  137.6412  154.6849 H   0  0  0  0  0  0  0  0  0  0  0  0
  152.4412  138.7246  153.4715 H   0  0  0  0  0  0  0  0  0  0  0  0
  152.1673  138.3706  157.0521 H   0  0  0  0  0  0  0  0  0  0  0  0
  151.4468  141.8726  156.2383 H   0  0  0  0  0  0  0  0  0  0  0  0
  149.7213  141.7580  156.4943 H   0  0  0  0  0  0  0  0  0  0  0  0
  151.2556  143.4793  157.9541 H   0  0  0  0  0  0  0  0  0  0  0  0
  149.8549  142.6665  158.6502 H   0  0  0  0  0  0  0  0  0  0  0  0
  152.7584  141.8388  158.8874 H   0  0  0  0  0  0  0  0  0  0  0  0
  151.5834  142.0045  160.1928 H   0  0  0  0  0  0  0  0  0  0  0  0
  150.4442  140.0183  159.5386 H   0  0  0  0  0  0  0  0  0  0  0  0
  152.0948  139.5691  159.1682 H   0  0  0  0  0  0  0  0  0  0  0  0
  148.6699  133.5390  159.4773 H   0  0  0  0  0  0  0  0  0  0  0  0
  1  2  1  0  0  0  0
  1 25  1  0  0  0  0
  1 26  1  0  0  0  0
  1 27  1  0  0  0  0
  2  3  1  0  0  0  0
  2 28  1  0  0  0  0
  2 29  1  0  0  0  0
  3 24  1  0  0  0  0
  3  4  1  0  0  0  0
  4  5  2  0  0  0  0
  4 30  1  0  0  0  0
  5  6  1  0  0  0  0
  5 31  1  0  0  0  0
  6  7  2  0  0  0  0
  6  8  1  0  0  0  0
  8  9  1  0  0  0  0
  8 24  2  0  0  0  0
  9 10  1  0  0  0  0
  9 32  1  0  0  0  0
 10 11  2  0  0  0  0
 10 12  1  0  0  0  0
 12 13  1  0  0  0  0
 12 33  1  0  0  0  0
 13 19  1  0  0  0  0
 13 14  1  0  0  0  0
 13 34  1  0  0  0  0
 14 18  1  0  0  0  0
 14 15  1  0  0  0  0
 14 35  1  0  0  0  0
 15 16  1  0  0  0  0
 15 36  1  0  0  0  0
 15 37  1  0  0  0  0
 16 17  1  0  0  0  0
 16 38  1  0  0  0  0
 16 39  1  0  0  0  0
 17 18  1  0  0  0  0
 18 19  1  0  0  0  0
 18 40  1  0  0  0  0
 19 23  1  0  0  0  0
 19 20  1  0  0  0  0
 20 21  1  0  0  0  0
 20 41  1  0  0  0  0
 20 42  1  0  0  0  0
 21 22  1  0  0  0  0
 21 43  1  0  0  0  0
 21 44  1  0  0  0  0
 22 23  1  0  0  0  0
 22 45  1  0  0  0  0
 22 46  1  0  0  0  0
 23 47  1  0  0  0  0
 23 48  1  0  0  0  0
 24 49  1  0  0  0  0
M  END
> <s_m_source_file>
AV-unprocessed.smi

> <i_m_source_file_index>
2339

> <i_lp_mmshare_version>
43012

> <i_f3d_flags>
0

> <s_epik_input>
W0NIM11bQ0gyXW4xW2NIXVtjSF1jKD1PKWMoW2NIXTEpW05IXUMoPU8pW05IXVtDQEBIXTJbQ0BASF0oW0NIMl1bQ0gyXU8zKVtDQEBIXTNDMjRbQ0gyXVtDSDJdW0NIMl1bQ0gyXTQ=

> <s_epik_cmdline>
J2VwaWtfcHl0aG9uJywgJy1waCcsICc3LjAnLCAnLXRuJywgJzgnLCAnLW1hJywgJzIwMCcsICctbWV0YWxfYmluZGluZycsICctaW1hZScsICc8aW5maWxlLm1hZT4nLCAnLW9tYWUnLCAnPG91dGZpbGUubWFlPic=

> <r_lp_tautomer_probability>
1

> <r_epik_Ionization_Penalty>
0.00145966

> <r_epik_Ionization_Penalty_Charging>
0.00143969

> <r_epik_Ionization_Penalty_Neutral>
1.99697e-05

> <r_epik_State_Penalty>
0.000961843

> <r_epik_Charging_Adjusted_Penalty>
0.00240153

> <i_epik_Tot_Q>
0

> <i_epik_Tot_abs_Q>
0

> <r_epik_Metal_State_Penalty>
-0

> <b_epik_Metal_Only>
0

> <s_lp_Force_Field>
OPLS_2005

> <r_lp_Energy>
81.9731

> <b_lp_Chiralities_Consistent>
1

> <s_lp_Variant>
AV-unprocessed.smi:2339-3

> <Gold.Version>
5.8.1

> <Gold.Id.Protein>
6NUR|6NUR_protein|mol2

> <Gold.PLP.Fitness>
46.8620

> <Gold.PLP.PLP>
-40.0932

> <Gold.PLP.part.hbond>
-3.7692

> <Gold.PLP.part.metal>
0.0000

> <Gold.PLP.part.buried>
-4.6109

> <Gold.PLP.part.nonpolar>
-32.6617

> <Gold.PLP.part.repulsive>
0.2515

> <Gold.PLP.ligand.clash>
0.0000

> <Gold.PLP.ligand.torsion>
0.5816

> <Gold.PLP.Chemscore.Hbond>
2.5520

> <Gold.PLP.Chemscore.CHOScore>
0.0000

> <Gold.PLP.Chemscore.Metal>
0.0000

> <Gold.Chemscore.Hbonds>
donor molecule, donor type, donor heavy atom, donor atom, acceptor molecule, acceptor atom, score
      P1  H  6931  6943       L1     7  0.74
      P1  H  6934  6947       L1     7  0.64
      P1  H  7997  8010       L1    17  0.98

> <Gold.PLP.Chemscore.Internal.Correction>
0.2759

> <Gold.Rescore>
     Score         DG    S(hbond)    S(metal)    S(lipo)     H(rot)  DE(clash)    DE(int)     intcor
     20.78     -21.59       2.60        0.00      89.09       1.17       0.03       0.78       ----

> <Gold.Chemscore.Fitness>
20.7825

> <Gold.Chemscore.DG>
-21.5887

> <Gold.Chemscore.ZeroCoef>
-5.4800

> <Gold.Chemscore.Hbond>
2.5965

> <Gold.Chemscore.Metal>
0.0000

> <Gold.Chemscore.Lipo>
89.0931

> <Gold.Chemscore.Internal_Hbond>
0.0000

> <Gold.Chemscore.DEClash>
0.0310

> <Gold.Chemscore.DEInternal>
0.7752

> <Gold.Chemscore.Rot>
1.1670

> <Gold.Chemscore.Internal.Correction>
   9.000000E+99

> <Gold.Chemscore.Hbonds>
donor molecule, donor type, donor heavy atom, donor atom, acceptor molecule, acceptor atom, score
      P1  H  6931  6943       L1     7  0.71
      P1  H  6934  6947       L1     7  0.64
      P1  H  7997  8010       L1    17  0.41

> <Gold.Chemscore.Hbond.Weighted>
-8.6722

> <Gold.Chemscore.Metal.Weighted>
-0.0000

> <Gold.Chemscore.Lipo.Weighted>
-10.4239

> <Gold.Chemscore.Internal_Hbond.Weighted>
0.0000

> <Gold.Chemscore.DEClash.Weighted>
0.0310

> <Gold.Chemscore.DEInternal.Weighted>
0.7752

> <Gold.Chemscore.Rot.Weighted>
2.9874

> <Gold.Chemscore.Internal.Correction.Weighted>
   9.000000E+99

> <Gold.Protein.RotatedTorsions>
[ 6907 6896 6895 6894 ] final -131.80 input  -60.11 | X-H torsion
[ 7974 7965 7964 7962 ] final   39.98 input  175.53 | X-H torsion
[ 8008 7997 7996 7995 ] final   86.12 input   59.86 | X-H torsion
[ 10167 10162 10161 10158 ] final  -75.07 input  -65.29 | X-H torsion
[ 10718 10713 10712 10709 ] final   17.27 input   66.30 | X-H torsion
[ 10763 10752 10751 10750 ] final -147.83 input  -60.55 | X-H torsion
[ 11005 11000 10999 10996 ] final    2.97 input  -57.11 | X-H torsion

> <Gold.Protein.ActiveResidues>
 VAL166  LYS551  ARG553  GLY616  TRP617  ASP618  TYR619  PRO620  LYS621  CYS622 
 ASP623  PHE694  ASN695  SER759  ASP760  ASP761  ALA762  ILE779  LEU786  VAL792 
 PHE793  MET794  SER795  GLU796  ALA797  LYS798  CYS799  TRP800  GLU811  SER814 

> <Gold.Protein.RotatedAtoms>
  150.9551  133.6506  159.2764 H   0  0  0  0  0  0  0  0  0  0  0  0  # atno 6907 bound_to 6896
  151.3849  135.0945  159.9517 H   0  0  0  0  0  0  0  0  0  0  0  0  # atno 6908 bound_to 6896
  152.5125  133.9078  159.7527 H   0  0  0  0  0  0  0  0  0  0  0  0  # atno 6909 bound_to 6896
  146.0941  139.5587  142.9457 H   0  0  0  0  0  0  0  0  0  0  0  0  # atno 7974 bound_to 7965
  155.9588  140.3395  155.6472 H   0  0  0  0  0  0  0  0  0  0  0  0  # atno 8008 bound_to 7997
  155.6825  140.0739  157.2497 H   0  0  0  0  0  0  0  0  0  0  0  0  # atno 8009 bound_to 7997
  154.4138  140.1672  156.1986 H   0  0  0  0  0  0  0  0  0  0  0  0  # atno 8010 bound_to 7997
  140.4973  143.2368  151.7809 H   0  0  0  0  0  0  0  0  0  0  0  0  # atno 10167 bound_to 10162
  157.0797  130.6382  149.5824 H   0  0  0  0  0  0  0  0  0  0  0  0  # atno 10718 bound_to 10713
  154.8265  135.3350  154.6879 H   0  0  0  0  0  0  0  0  0  0  0  0  # atno 10763 bound_to 10752
  153.7504  135.6939  153.4951 H   0  0  0  0  0  0  0  0  0  0  0  0  # atno 10764 bound_to 10752
  153.2180  135.4459  155.0407 H   0  0  0  0  0  0  0  0  0  0  0  0  # atno 10765 bound_to 10752
  140.5984  133.9859  155.8120 H   0  0  0  0  0  0  0  0  0  0  0  0  # atno 11005 bound_to 11000
  145.5982  141.0359  143.2033 LP  0  0  0  0  0  0  0  0  0  0  0  0  # atno 17320 bound_to 7965
  144.7382  139.7524  143.7321 LP  0  0  0  0  0  0  0  0  0  0  0  0  # atno 17321 bound_to 7965
  139.4864  144.4569  151.9588 LP  0  0  0  0  0  0  0  0  0  0  0  0  # atno 17342 bound_to 10162
  140.3657  144.2918  150.5927 LP  0  0  0  0  0  0  0  0  0  0  0  0  # atno 17343 bound_to 10162
  155.9927  130.4986  150.7351 LP  0  0  0  0  0  0  0  0  0  0  0  0  # atno 17370 bound_to 10713
  157.4810  131.0902  151.0536 LP  0  0  0  0  0  0  0  0  0  0  0  0  # atno 17371 bound_to 10713
  141.0889  133.9948  157.3270 LP  0  0  0  0  0  0  0  0  0  0  0  0  # atno 17394 bound_to 11000
  139.9243  135.0201  156.8178 LP  0  0  0  0  0  0  0  0  0  0  0  0  # atno 17395 bound_to 11000

$$$$
