#       Name:                AV-unprocessed.smi:449
#       Creating user name   scv26
#       Creation time:       Thu Mar 26 23:00:23 2020


#       File generated by GOLD software.
#

@<TRIPOS>MOLECULE
AV-unprocessed.smi:449
    44    45     1
SMALL
NO_CHARGES


@<TRIPOS>ATOM
      1 ****        -6.4166   4.8242   0.7599 C.3            1 S1                 0.0000
      2 ****        -4.6526   5.2349   0.7866 S.3            1 S1                 0.0000
      3 ****        -3.9595   3.5694   0.9671 C.3            1 S1                 0.0000
      4 ****        -2.4231   3.5997   0.9759 C.3            1 S1                 0.0000
      5 ****        -1.8058   2.2003   1.0537 C.2            1 S1                 0.0000
      6 ****        -2.2702   1.3702   1.8357 O.2            1 S1                 0.0000
      7 ****        -0.7588   1.9791   0.2366 N.am           1 S1                 0.0000
      8 ****        -0.0001   0.7891   0.0786 C.ar           1 S1                 0.0000
      9 ****         1.0315   0.8602  -0.8809 C.ar           1 S1                 0.0000
     10 ****         1.8395  -0.2680  -1.1167 C.ar           1 S1                 0.0000
     11 ****         1.6084  -1.4571  -0.3850 C.ar           1 S1                 0.0000
     12 ****         2.3737  -2.6289  -0.5702 N.3            1 S1                 0.0000
     13 ****         2.9380  -3.2222   0.6397 C.3            1 S1                 0.0000
     14 ****         3.4498  -4.6441   0.3499 C.3            1 S1                 0.0000
     15 ****         4.3708  -4.6139  -0.7356 O.3            1 S1                 0.0000
     16 ****         3.7616  -4.1403  -1.9320 C.3            1 S1                 0.0000
     17 ****         3.2638  -2.6994  -1.7253 C.3            1 S1                 0.0000
     18 ****         0.5499  -1.4280   0.5521 C.ar           1 S1                 0.0000
     19 ****        -0.2269  -0.3481   0.7783 N.ar           1 S1                 0.0000
     20 ****        -7.0124   5.7304   0.6526 H              1 S1                 0.0000
     21 ****        -6.7062   4.3266   1.6857 H              1 S1                 0.0000
     22 ****        -6.6406   4.1620  -0.0765 H              1 S1                 0.0000
     23 ****        -4.3419   3.1345   1.8913 H              1 S1                 0.0000
     24 ****        -4.3215   2.9511   0.1446 H              1 S1                 0.0000
     25 ****        -2.0645   4.1081   0.0795 H              1 S1                 0.0000
     26 ****        -2.0674   4.1805   1.8274 H              1 S1                 0.0000
     27 ****        -0.4796   2.7528  -0.3486 H              1 S1                 0.0000
     28 ****         1.2070   1.7703  -1.4359 H              1 S1                 0.0000
     29 ****         2.6275  -0.1951  -1.8507 H              1 S1                 0.0000
     30 ****         3.7598  -2.5953   0.9880 H              1 S1                 0.0000
     31 ****         2.2089  -3.2662   1.4474 H              1 S1                 0.0000
     32 ****         3.9510  -5.0490   1.2290 H              1 S1                 0.0000
     33 ****         2.6208  -5.3151   0.1191 H              1 S1                 0.0000
     34 ****         4.4930  -4.1717  -2.7396 H              1 S1                 0.0000
     35 ****         2.9405  -4.7986  -2.2203 H              1 S1                 0.0000
     36 ****         2.7433  -2.3669  -2.6242 H              1 S1                 0.0000
     37 ****         4.1127  -2.0323  -1.5692 H              1 S1                 0.0000
     38 ****         0.2951  -2.3021   1.1327 H              1 S1                 0.0000
     39 ****        -3.0475   1.6109   2.4169 LP             1 S1                 0.0000
     40 ****        -1.8700   0.4553   1.8895 LP             1 S1                 0.0000
     41 ****         1.6329  -3.2420  -0.8447 LP             1 S1                 0.0000
     42 ****         4.7167  -5.5390  -0.8926 LP             1 S1                 0.0000
     43 ****         5.1313  -4.0095  -0.4983 LP             1 S1                 0.0000
     44 ****        -0.9620  -0.3871   1.4551 LP             1 S1                 0.0000
@<TRIPOS>BOND
    1    1    2 1     
    2    1   20 1     
    3    1   21 1     
    4    1   22 1     
    5    2    3 1     
    6    3    4 1     
    7    3   23 1     
    8    3   24 1     
    9    4    5 1     
   10    4   25 1     
   11    4   26 1     
   12    5    6 2     
   13    5    7 am    
   14    7    8 1     
   15    7   27 1     
   16    8   19 ar    
   17    8    9 ar    
   18    9   10 ar    
   19    9   28 1     
   20   10   11 ar    
   21   10   29 1     
   22   11   12 1     
   23   11   18 ar    
   24   12   17 1     
   25   12   13 1     
   26   13   14 1     
   27   13   30 1     
   28   13   31 1     
   29   14   15 1     
   30   14   32 1     
   31   14   33 1     
   32   15   16 1     
   33   16   17 1     
   34   16   34 1     
   35   16   35 1     
   36   17   36 1     
   37   17   37 1     
   38   18   19 ar    
   39   18   38 1     
   40    6   39 1     
   41    6   40 1     
   42   12   41 1     
   43   15   42 1     
   44   15   43 1     
   45   19   44 1     
@<TRIPOS>SUBSTRUCTURE
      1 S1             1
@<TRIPOS>SET
LONE_PAIRS      STATIC     ATOMS    <user>   **** ""
6 39 40 41 42 43 44
DONOR_HYDROGENS      STATIC     ATOMS    <user>   **** ""
1 27
ATOM$BLUE        STATIC     ATOMS    COLORGROUP SYSTEM
6 39 40 41 42 43 44
ATOM$RED        STATIC     ATOMS    COLORGROUP SYSTEM
1 27
