AV-unprocessed.smi:1678|AV-procd|sdf|6728|dock5
  -GOLD-   22720 7473D 1   1.00000     0.00000
 Structure written by MMmdl.
 43 44  0  0  0  0  0  0  0  0  1 V2000
  146.4017  134.0392  151.2536 C   0  0  0  0  0  0  0  0  0  0  0  0
  146.6618  132.7669  152.0438 C   0  0  0  0  0  0  0  0  0  0  0  0
  145.9777  131.5839  151.6916 C   0  0  0  0  0  0  0  0  0  0  0  0
  146.2185  130.4085  152.4233 C   0  0  0  0  0  0  0  0  0  0  0  0
  147.1392  130.4663  153.4836 C   0  0  0  0  0  0  0  0  0  0  0  0
  147.7968  131.5922  153.8270 N   0  0  0  0  0  0  0  0  0  0  0  0
  147.5764  132.7359  153.1309 C   0  0  0  0  0  0  0  0  0  0  0  0
  148.2352  133.9603  153.4372 N   0  0  0  0  0  0  0  0  0  0  0  0
  148.7746  134.3511  154.6056 C   0  0  0  0  0  0  0  0  0  0  0  0
  148.7829  133.6899  155.6446 O   0  0  0  0  0  0  0  0  0  0  0  0
  149.3165  135.5734  154.5050 N   0  0  0  0  0  0  0  0  0  0  0  0
  149.9826  136.2815  155.5914 C   0  0  0  0  0  0  0  0  0  0  0  0
  151.1815  137.1027  155.0804 C   0  0  0  0  0  0  0  0  0  0  0  0
  150.9187  138.5440  155.1800 N   0  0  0  0  0  0  0  0  0  0  0  0
  149.7570  139.0506  154.4306 C   0  0  0  0  0  0  0  0  0  0  0  0
  148.5822  139.5005  155.3310 C   0  0  0  0  0  0  0  0  0  0  0  0
  148.9558  140.0308  156.7293 C   0  0  0  0  0  0  0  0  0  0  0  0
  150.0178  141.1499  156.7407 C   0  0  0  0  0  0  0  0  0  0  0  0
  151.3446  140.8489  156.0038 C   0  0  0  0  0  0  0  0  0  0  0  0
  151.7036  139.3560  155.9309 C   0  0  0  0  0  0  0  0  0  0  0  0
  152.6830  138.9519  156.5578 O   0  0  0  0  0  0  0  0  0  0  0  0
  145.6886  133.8670  150.4467 H   0  0  0  0  0  0  0  0  0  0  0  0
  147.3262  134.4099  150.8102 H   0  0  0  0  0  0  0  0  0  0  0  0
  145.9927  134.8138  151.9029 H   0  0  0  0  0  0  0  0  0  0  0  0
  145.2757  131.5740  150.8708 H   0  0  0  0  0  0  0  0  0  0  0  0
  145.7110  129.4872  152.1785 H   0  0  0  0  0  0  0  0  0  0  0  0
  147.3537  129.5866  154.0722 H   0  0  0  0  0  0  0  0  0  0  0  0
  148.3060  134.6145  152.6722 H   0  0  0  0  0  0  0  0  0  0  0  0
  149.2648  136.0479  153.6155 H   0  0  0  0  0  0  0  0  0  0  0  0
  149.2538  136.9436  156.0597 H   0  0  0  0  0  0  0  0  0  0  0  0
  150.2937  135.5721  156.3601 H   0  0  0  0  0  0  0  0  0  0  0  0
  152.0800  136.8519  155.6472 H   0  0  0  0  0  0  0  0  0  0  0  0
  151.4090  136.8199  154.0521 H   0  0  0  0  0  0  0  0  0  0  0  0
  150.0742  139.8794  153.7975 H   0  0  0  0  0  0  0  0  0  0  0  0
  149.3864  138.3075  153.7242 H   0  0  0  0  0  0  0  0  0  0  0  0
  147.9988  140.2522  154.7984 H   0  0  0  0  0  0  0  0  0  0  0  0
  147.9100  138.6530  155.4697 H   0  0  0  0  0  0  0  0  0  0  0  0
  148.0528  140.3979  157.2179 H   0  0  0  0  0  0  0  0  0  0  0  0
  149.2945  139.2012  157.3517 H   0  0  0  0  0  0  0  0  0  0  0  0
  149.5829  142.0547  156.3147 H   0  0  0  0  0  0  0  0  0  0  0  0
  150.2424  141.3957  157.7791 H   0  0  0  0  0  0  0  0  0  0  0  0
  151.3129  141.2552  154.9930 H   0  0  0  0  0  0  0  0  0  0  0  0
  152.1562  141.3879  156.4942 H   0  0  0  0  0  0  0  0  0  0  0  0
  1  2  1  0  0  0  0
  1 22  1  0  0  0  0
  1 23  1  0  0  0  0
  1 24  1  0  0  0  0
  2  7  1  0  0  0  0
  2  3  2  0  0  0  0
  3  4  1  0  0  0  0
  3 25  1  0  0  0  0
  4  5  2  0  0  0  0
  4 26  1  0  0  0  0
  5  6  1  0  0  0  0
  5 27  1  0  0  0  0
  6  7  2  0  0  0  0
  7  8  1  0  0  0  0
  8  9  1  0  0  0  0
  8 28  1  0  0  0  0
  9 10  2  0  0  0  0
  9 11  1  0  0  0  0
 11 12  1  0  0  0  0
 11 29  1  0  0  0  0
 12 13  1  0  0  0  0
 12 30  1  0  0  0  0
 12 31  1  0  0  0  0
 13 14  1  0  0  0  0
 13 32  1  0  0  0  0
 13 33  1  0  0  0  0
 14 20  1  0  0  0  0
 14 15  1  0  0  0  0
 15 16  1  0  0  0  0
 15 34  1  0  0  0  0
 15 35  1  0  0  0  0
 16 17  1  0  0  0  0
 16 36  1  0  0  0  0
 16 37  1  0  0  0  0
 17 18  1  0  0  0  0
 17 38  1  0  0  0  0
 17 39  1  0  0  0  0
 18 19  1  0  0  0  0
 18 40  1  0  0  0  0
 18 41  1  0  0  0  0
 19 20  1  0  0  0  0
 19 42  1  0  0  0  0
 19 43  1  0  0  0  0
 20 21  2  0  0  0  0
M  END
> <s_m_source_file>
AV-unprocessed.smi

> <i_m_source_file_index>
1678

> <i_lp_mmshare_version>
43012

> <i_f3d_flags>
0

> <s_epik_input>
W0NIM11jMVtjSF1bY0hdW2NIXW5jMVtOSF1DKD1PKVtOSF1bQ0gyXVtDSDJdTjJbQ0gyXVtDSDJdW0NIMl1bQ0gyXVtDSDJdQzI9Tw==

> <s_epik_cmdline>
J2VwaWtfcHl0aG9uJywgJy1waCcsICc3LjAnLCAnLXRuJywgJzgnLCAnLW1hJywgJzIwMCcsICctbWV0YWxfYmluZGluZycsICctaW1hZScsICc8aW5maWxlLm1hZT4nLCAnLW9tYWUnLCAnPG91dGZpbGUubWFlPic=

> <r_lp_tautomer_probability>
1

> <r_epik_Ionization_Penalty>
5.3034e-05

> <r_epik_Ionization_Penalty_Charging>
0

> <r_epik_Ionization_Penalty_Neutral>
5.3034e-05

> <r_epik_State_Penalty>
-0

> <r_epik_Charging_Adjusted_Penalty>
0

> <i_epik_Tot_Q>
0

> <i_epik_Tot_abs_Q>
0

> <r_epik_Metal_State_Penalty>
-0

> <b_epik_Metal_Only>
0

> <s_lp_Force_Field>
OPLS_2005

> <r_lp_Energy>
24.0679

> <b_lp_Chiralities_Consistent>
1

> <s_lp_Variant>
AV-unprocessed.smi:1678-1

> <Gold.Version>
5.8.1

> <Gold.Id.Protein>
6NUR|6NUR_protein|mol2

> <Gold.PLP.Fitness>
42.9605

> <Gold.PLP.PLP>
-35.2092

> <Gold.PLP.part.hbond>
-3.0000

> <Gold.PLP.part.metal>
0.0000

> <Gold.PLP.part.buried>
-2.7290

> <Gold.PLP.part.nonpolar>
-28.3634

> <Gold.PLP.part.repulsive>
0.1331

> <Gold.PLP.ligand.clash>
0.0000

> <Gold.PLP.ligand.torsion>
0.6477

> <Gold.PLP.Chemscore.Hbond>
3.0000

> <Gold.PLP.Chemscore.CHOScore>
0.0000

> <Gold.PLP.Chemscore.Metal>
0.0000

> <Gold.Chemscore.Hbonds>
donor molecule, donor type, donor heavy atom, donor atom, acceptor molecule, acceptor atom, score
      L1  H     8    28       P1  7948  1.00
      L1  H    11    29       P1  7948  1.00
      P1  H  7997  8010       L1    21  1.00

> <Gold.PLP.Chemscore.Internal.Correction>
0.0467

> <Gold.Rescore>
     Score         DG    S(hbond)    S(metal)    S(lipo)     H(rot)  DE(clash)    DE(int)     intcor
     15.85     -17.77       2.59        0.00      64.29       1.51       0.06       1.86       ----

> <Gold.Chemscore.Fitness>
15.8515

> <Gold.Chemscore.DG>
-17.7690

> <Gold.Chemscore.ZeroCoef>
-5.4800

> <Gold.Chemscore.Hbond>
2.5872

> <Gold.Chemscore.Metal>
0.0000

> <Gold.Chemscore.Lipo>
64.2854

> <Gold.Chemscore.Internal_Hbond>
0.0000

> <Gold.Chemscore.DEClash>
0.0582

> <Gold.Chemscore.DEInternal>
1.8593

> <Gold.Chemscore.Rot>
1.5131

> <Gold.Chemscore.Internal.Correction>
   9.000000E+99

> <Gold.Chemscore.Hbonds>
donor molecule, donor type, donor heavy atom, donor atom, acceptor molecule, acceptor atom, score
      L1  H     8    28       P1  7948  0.34
      L1  H    11    29       P1  7948  0.78
      P1  H  7997  8010       L1    21  0.91

> <Gold.Chemscore.Hbond.Weighted>
-8.6411

> <Gold.Chemscore.Metal.Weighted>
-0.0000

> <Gold.Chemscore.Lipo.Weighted>
-7.5214

> <Gold.Chemscore.Internal_Hbond.Weighted>
0.0000

> <Gold.Chemscore.DEClash.Weighted>
0.0582

> <Gold.Chemscore.DEInternal.Weighted>
1.8593

> <Gold.Chemscore.Rot.Weighted>
3.8735

> <Gold.Chemscore.Internal.Correction.Weighted>
   9.000000E+99

> <Gold.Protein.RotatedTorsions>
[ 6907 6896 6895 6894 ] final  103.61 input  -60.11 | X-H torsion
[ 7974 7965 7964 7962 ] final  -31.72 input  175.53 | X-H torsion
[ 8008 7997 7996 7995 ] final   60.16 input   59.86 | X-H torsion
[ 10167 10162 10161 10158 ] final -105.24 input  -65.29 | X-H torsion
[ 10718 10713 10712 10709 ] final  -91.79 input   66.30 | X-H torsion
[ 10763 10752 10751 10750 ] final  141.43 input  -60.55 | X-H torsion
[ 11005 11000 10999 10996 ] final   97.81 input  -57.11 | X-H torsion

> <Gold.Protein.ActiveResidues>
 VAL166  LYS551  ARG553  GLY616  TRP617  ASP618  TYR619  PRO620  LYS621  CYS622 
 ASP623  PHE694  ASN695  SER759  ASP760  ASP761  ALA762  ILE779  LEU786  VAL792 
 PHE793  MET794  SER795  GLU796  ALA797  LYS798  CYS799  TRP800  GLU811  SER814 

> <Gold.Protein.RotatedAtoms>
  152.5290  133.9799  159.7801 H   0  0  0  0  0  0  0  0  0  0  0  0  # atno 6907 bound_to 6896
  151.0055  133.6007  159.2696 H   0  0  0  0  0  0  0  0  0  0  0  0  # atno 6908 bound_to 6896
  151.3101  135.0798  159.9322 H   0  0  0  0  0  0  0  0  0  0  0  0  # atno 6909 bound_to 6896
  146.1046  140.5702  142.8805 H   0  0  0  0  0  0  0  0  0  0  0  0  # atno 7974 bound_to 7965
  155.5778  140.3491  155.4532 H   0  0  0  0  0  0  0  0  0  0  0  0  # atno 8008 bound_to 7997
  156.0396  140.1293  157.0195 H   0  0  0  0  0  0  0  0  0  0  0  0  # atno 8009 bound_to 7997
  154.4386  140.1027  156.6203 H   0  0  0  0  0  0  0  0  0  0  0  0  # atno 8010 bound_to 7997
  140.2006  143.3821  152.1132 H   0  0  0  0  0  0  0  0  0  0  0  0  # atno 10167 bound_to 10162
  155.9996  130.4962  150.5528 H   0  0  0  0  0  0  0  0  0  0  0  0  # atno 10718 bound_to 10713
  153.9391  135.2982  155.3443 H   0  0  0  0  0  0  0  0  0  0  0  0  # atno 10763 bound_to 10752
  154.7486  135.4991  153.9252 H   0  0  0  0  0  0  0  0  0  0  0  0  # atno 10764 bound_to 10752
  153.1051  135.6745  153.9707 H   0  0  0  0  0  0  0  0  0  0  0  0  # atno 10765 bound_to 10752
  139.8774  134.9019  156.4363 H   0  0  0  0  0  0  0  0  0  0  0  0  # atno 11005 bound_to 11000
  144.7460  140.5068  143.6835 LP  0  0  0  0  0  0  0  0  0  0  0  0  # atno 17320 bound_to 7965
  145.5787  139.1487  143.3247 LP  0  0  0  0  0  0  0  0  0  0  0  0  # atno 17321 bound_to 7965
  139.5219  144.7051  151.5377 LP  0  0  0  0  0  0  0  0  0  0  0  0  # atno 17342 bound_to 10162
  140.6393  143.8921  150.6676 LP  0  0  0  0  0  0  0  0  0  0  0  0  # atno 17343 bound_to 10162
  157.3449  131.0723  151.1759 LP  0  0  0  0  0  0  0  0  0  0  0  0  # atno 17370 bound_to 10713
  157.2595  130.6652  149.5968 LP  0  0  0  0  0  0  0  0  0  0  0  0  # atno 17371 bound_to 10713
  140.9031  133.7765  155.9703 LP  0  0  0  0  0  0  0  0  0  0  0  0  # atno 17394 bound_to 11000
  140.8629  134.2819  157.5226 LP  0  0  0  0  0  0  0  0  0  0  0  0  # atno 17395 bound_to 11000

$$$$
