AV-unprocessed.smi:1498|AV-procd|sdf|6059|dock1
  -GOLD-   22720 6173D 1   1.00000     0.00000
 Structure written by MMmdl.
 38 39  0  0  0  0  0  0  0  0  2 V2000
  143.4274  132.5817  148.8906 C   0  0  0  0  0  0  0  0  0  0  0  0
  144.7302  133.1420  149.3086 N   0  3  0  0  0  0  0  0  0  0  0  0
  145.7418  132.0876  149.5811 C   0  0  0  0  0  0  0  0  0  0  0  0
  147.0865  132.6988  150.0193 C   0  0  0  0  0  0  0  0  0  0  0  0
  146.8594  133.5745  151.1797 N   0  0  0  0  0  0  0  0  0  0  0  0
  147.1779  133.2910  152.4682 C   0  0  0  0  0  0  0  0  0  0  0  0
  146.7814  133.9726  153.4140 O   0  0  0  0  0  0  0  0  0  0  0  0
  148.0173  132.2477  152.6122 N   0  0  0  0  0  0  0  0  0  0  0  0
  148.5298  131.7043  153.8176 C   0  0  0  0  0  0  0  0  0  0  0  0
  147.9948  131.9551  155.1077 C   0  0  0  0  0  0  0  0  0  0  0  0
  148.6762  131.3118  156.0431 N   0  0  0  0  0  0  0  0  0  0  0  0
  149.6494  130.6444  155.3736 N   0  0  0  0  0  0  0  0  0  0  0  0
  150.5922  129.8191  156.1082 C   0  0  0  0  0  0  0  0  0  0  0  0
  151.6555  129.2297  155.1796 C   0  0  0  0  0  0  0  0  0  0  0  0
  151.2443  128.3531  154.2595 N   0  0  0  0  0  0  0  0  0  0  0  0
  152.8340  129.5588  155.2939 O   0  0  0  0  0  0  0  0  0  0  0  0
  149.5903  130.8647  154.0111 C   0  0  0  0  0  0  0  0  0  0  0  0
  145.9704  134.6866  150.8273 C   0  0  0  0  0  0  0  0  0  0  0  0
  144.5974  134.1253  150.4149 C   0  0  0  0  0  0  0  0  0  0  0  0
  142.9780  131.9951  149.6930 H   0  0  0  0  0  0  0  0  0  0  0  0
  143.5480  131.9359  148.0204 H   0  0  0  0  0  0  0  0  0  0  0  0
  142.7346  133.3790  148.6200 H   0  0  0  0  0  0  0  0  0  0  0  0
  145.3688  131.4209  150.3605 H   0  0  0  0  0  0  0  0  0  0  0  0
  145.8854  131.4812  148.6860 H   0  0  0  0  0  0  0  0  0  0  0  0
  147.8066  131.9007  150.1988 H   0  0  0  0  0  0  0  0  0  0  0  0
  147.5083  133.2914  149.2060 H   0  0  0  0  0  0  0  0  0  0  0  0
  148.3120  131.7854  151.7645 H   0  0  0  0  0  0  0  0  0  0  0  0
  147.1524  132.5687  155.3912 H   0  0  0  0  0  0  0  0  0  0  0  0
  151.0665  130.4315  156.8761 H   0  0  0  0  0  0  0  0  0  0  0  0
  150.0587  129.0173  156.6218 H   0  0  0  0  0  0  0  0  0  0  0  0
  151.9132  127.9326  153.6306 H   0  0  0  0  0  0  0  0  0  0  0  0
  150.2664  128.1082  154.2019 H   0  0  0  0  0  0  0  0  0  0  0  0
  150.2918  130.4091  153.3281 H   0  0  0  0  0  0  0  0  0  0  0  0
  145.8528  135.4067  151.6386 H   0  0  0  0  0  0  0  0  0  0  0  0
  146.4091  135.2470  150.0003 H   0  0  0  0  0  0  0  0  0  0  0  0
  143.9432  134.9399  150.1021 H   0  0  0  0  0  0  0  0  0  0  0  0
  144.1217  133.6456  151.2721 H   0  0  0  0  0  0  0  0  0  0  0  0
  145.0810  133.6635  148.5178 H   0  0  0  0  0  0  0  0  0  0  0  0
  1  2  1  0  0  0  0
  1 20  1  0  0  0  0
  1 21  1  0  0  0  0
  1 22  1  0  0  0  0
  2 19  1  0  0  0  0
  2  3  1  0  0  0  0
  2 38  1  0  0  0  0
  3  4  1  0  0  0  0
  3 23  1  0  0  0  0
  3 24  1  0  0  0  0
  4  5  1  0  0  0  0
  4 25  1  0  0  0  0
  4 26  1  0  0  0  0
  5  6  1  0  0  0  0
  5 18  1  0  0  0  0
  6  7  2  0  0  0  0
  6  8  1  0  0  0  0
  8  9  1  0  0  0  0
  8 27  1  0  0  0  0
  9 17  2  0  0  0  0
  9 10  1  0  0  0  0
 10 11  2  0  0  0  0
 10 28  1  0  0  0  0
 11 12  1  0  0  0  0
 12 13  1  0  0  0  0
 12 17  1  0  0  0  0
 13 14  1  0  0  0  0
 13 29  1  0  0  0  0
 13 30  1  0  0  0  0
 14 15  1  0  0  0  0
 14 16  2  0  0  0  0
 15 31  1  0  0  0  0
 15 32  1  0  0  0  0
 17 33  1  0  0  0  0
 18 19  1  0  0  0  0
 18 34  1  0  0  0  0
 18 35  1  0  0  0  0
 19 36  1  0  0  0  0
 19 37  1  0  0  0  0
M  CHG  1   2   1
M  END
> <s_m_source_file>
AV-unprocessed.smi

> <i_m_source_file_index>
1498

> <i_lp_mmshare_version>
43012

> <i_f3d_flags>
0

> <s_epik_input>
W0NIM11OMVtDSDJdW0NIMl1OKFtDSDJdW0NIMl0xKUMoPU8pW05IXWMyW2NIXW5uKFtjSF0yKVtDSDJdQyg9TylbTkgyXQ==

> <s_epik_cmdline>
J2VwaWtfcHl0aG9uJywgJy1waCcsICc3LjAnLCAnLXRuJywgJzgnLCAnLW1hJywgJzIwMCcsICctbWV0YWxfYmluZGluZycsICctaW1hZScsICc8aW5maWxlLm1hZT4nLCAnLW9tYWUnLCAnPG91dGZpbGUubWFlPic=

> <r_lp_tautomer_probability>
1

> <r_epik_Ionization_Penalty>
0.25453

> <r_epik_Ionization_Penalty_Charging>
0.254506

> <r_epik_Ionization_Penalty_Neutral>
2.46477e-05

> <r_epik_State_Penalty>
0.245983

> <r_epik_Charging_Adjusted_Penalty>
0.500488

> <i_epik_Tot_Q>
1

> <i_epik_Tot_abs_Q>
1

> <r_epik_Metal_State_Penalty>
0.245984

> <b_epik_Metal_Only>
0

> <s_lp_Force_Field>
OPLS_2005

> <r_lp_Energy>
51.0402

> <b_lp_Chiralities_Consistent>
1

> <s_lp_Variant>
AV-unprocessed.smi:1498-1

> <Gold.Version>
5.8.1

> <Gold.Id.Protein>
6NUR|6NUR_protein|mol2

> <Gold.PLP.Fitness>
35.5196

> <Gold.PLP.PLP>
-27.5447

> <Gold.PLP.part.hbond>
-3.0000

> <Gold.PLP.part.metal>
0.0000

> <Gold.PLP.part.buried>
0.2079

> <Gold.PLP.part.nonpolar>
-25.2867

> <Gold.PLP.part.repulsive>
0.3439

> <Gold.PLP.ligand.clash>
0.0000

> <Gold.PLP.ligand.torsion>
0.1438

> <Gold.PLP.Chemscore.Hbond>
2.7360

> <Gold.PLP.Chemscore.CHOScore>
0.0000

> <Gold.PLP.Chemscore.Metal>
0.0000

> <Gold.Chemscore.Hbonds>
donor molecule, donor type, donor heavy atom, donor atom, acceptor molecule, acceptor atom, score
      L1  H     2    38       P1  7921  1.00
      L1  H     8    27       P1 10747  1.00
      L1  H    15    31       P1 10737  0.72

> <Gold.PLP.Chemscore.Internal.Correction>
0.0545

> <Gold.Rescore>
     Score         DG    S(hbond)    S(metal)    S(lipo)     H(rot)  DE(clash)    DE(int)     intcor
     15.19     -18.04       2.67        0.00      64.89       1.55       1.42       1.43       ----

> <Gold.Chemscore.Fitness>
15.1909

> <Gold.Chemscore.DG>
-18.0395

> <Gold.Chemscore.ZeroCoef>
-5.4800

> <Gold.Chemscore.Hbond>
2.6748

> <Gold.Chemscore.Metal>
0.0000

> <Gold.Chemscore.Lipo>
64.8908

> <Gold.Chemscore.Internal_Hbond>
0.0000

> <Gold.Chemscore.DEClash>
1.4189

> <Gold.Chemscore.DEInternal>
1.4297

> <Gold.Chemscore.Rot>
1.5494

> <Gold.Chemscore.Internal.Correction>
   9.000000E+99

> <Gold.Chemscore.Hbonds>
donor molecule, donor type, donor heavy atom, donor atom, acceptor molecule, acceptor atom, score
      L1  H     2    38       P1  7921  0.81
      L1  H     8    27       P1 10747  1.00
      L1  H    15    31       P1 10737  0.72

> <Gold.Chemscore.Hbond.Weighted>
-8.9339

> <Gold.Chemscore.Metal.Weighted>
-0.0000

> <Gold.Chemscore.Lipo.Weighted>
-7.5922

> <Gold.Chemscore.Internal_Hbond.Weighted>
0.0000

> <Gold.Chemscore.DEClash.Weighted>
1.4189

> <Gold.Chemscore.DEInternal.Weighted>
1.4297

> <Gold.Chemscore.Rot.Weighted>
3.9665

> <Gold.Chemscore.Internal.Correction.Weighted>
   9.000000E+99

> <Gold.Protein.RotatedTorsions>
[ 6907 6896 6895 6894 ] final  122.29 input  -60.11 | X-H torsion
[ 7974 7965 7964 7962 ] final  119.78 input  175.53 | X-H torsion
[ 8008 7997 7996 7995 ] final  136.64 input   59.86 | X-H torsion
[ 10167 10162 10161 10158 ] final  155.60 input  -65.29 | X-H torsion
[ 10718 10713 10712 10709 ] final  145.43 input   66.30 | X-H torsion
[ 10763 10752 10751 10750 ] final -112.63 input  -60.55 | X-H torsion
[ 11005 11000 10999 10996 ] final  135.88 input  -57.11 | X-H torsion

> <Gold.Protein.ActiveResidues>
 VAL166  LYS551  ARG553  GLY616  TRP617  ASP618  TYR619  PRO620  LYS621  CYS622 
 ASP623  PHE694  ASN695  SER759  ASP760  ASP761  ALA762  ILE779  LEU786  VAL792 
 PHE793  MET794  SER795  GLU796  ALA797  LYS798  CYS799  TRP800  GLU811  SER814 

> <Gold.Protein.RotatedAtoms>
  152.4255  133.7188  159.6520 H   0  0  0  0  0  0  0  0  0  0  0  0  # atno 6907 bound_to 6896
  150.8131  133.8374  159.3179 H   0  0  0  0  0  0  0  0  0  0  0  0  # atno 6908 bound_to 6896
  151.6078  135.1044  160.0126 H   0  0  0  0  0  0  0  0  0  0  0  0  # atno 6909 bound_to 6896
  145.1391  139.3279  143.4625 H   0  0  0  0  0  0  0  0  0  0  0  0  # atno 7974 bound_to 7965
  156.3004  140.2440  156.3778 H   0  0  0  0  0  0  0  0  0  0  0  0  # atno 8008 bound_to 7997
  154.8729  140.0415  157.1755 H   0  0  0  0  0  0  0  0  0  0  0  0  # atno 8009 bound_to 7997
  154.8777  140.2944  155.5447 H   0  0  0  0  0  0  0  0  0  0  0  0  # atno 8010 bound_to 7997
  139.4821  144.5084  151.8062 H   0  0  0  0  0  0  0  0  0  0  0  0  # atno 10167 bound_to 10162
  157.3453  131.0942  151.1047 H   0  0  0  0  0  0  0  0  0  0  0  0  # atno 10718 bound_to 10713
  154.8358  135.4484  154.1223 H   0  0  0  0  0  0  0  0  0  0  0  0  # atno 10763 bound_to 10752
  153.2456  135.6921  153.7742 H   0  0  0  0  0  0  0  0  0  0  0  0  # atno 10764 bound_to 10752
  153.7073  135.3362  155.3214 H   0  0  0  0  0  0  0  0  0  0  0  0  # atno 10765 bound_to 10752
  140.0009  134.9479  157.0068 H   0  0  0  0  0  0  0  0  0  0  0  0  # atno 11005 bound_to 11000
  146.3507  140.1421  142.8594 LP  0  0  0  0  0  0  0  0  0  0  0  0  # atno 17320 bound_to 7965
  145.0552  140.9047  143.4972 LP  0  0  0  0  0  0  0  0  0  0  0  0  # atno 17321 bound_to 7965
  140.4584  144.1756  150.5904 LP  0  0  0  0  0  0  0  0  0  0  0  0  # atno 17342 bound_to 10162
  140.4510  143.2487  151.9347 LP  0  0  0  0  0  0  0  0  0  0  0  0  # atno 17343 bound_to 10162
  157.2243  130.6496  149.5824 LP  0  0  0  0  0  0  0  0  0  0  0  0  # atno 17370 bound_to 10713
  155.9713  130.4619  150.6126 LP  0  0  0  0  0  0  0  0  0  0  0  0  # atno 17371 bound_to 10713
  140.4731  134.1366  155.7206 LP  0  0  0  0  0  0  0  0  0  0  0  0  # atno 17394 bound_to 11000
  141.1641  133.8737  157.1766 LP  0  0  0  0  0  0  0  0  0  0  0  0  # atno 17395 bound_to 11000

$$$$
