AV-unprocessed.smi:1012|AV-procd|sdf|4424|dock7
  -GOLD-   22720 2373D 1   1.00000     0.00000
 Structure written by MMmdl.
 44 46  0  0  0  0  0  0  0  0  2 V2000
  147.0922  137.1687  163.4730 C   0  0  0  0  0  0  0  0  0  0  0  0
  147.5530  137.0130  162.1386 O   0  0  0  0  0  0  0  0  0  0  0  0
  147.4681  135.7658  161.5528 C   0  0  0  0  0  0  0  0  0  0  0  0
  146.9241  134.6334  162.2128 C   0  0  0  0  0  0  0  0  0  0  0  0
  146.8620  133.3847  161.5660 C   0  0  0  0  0  0  0  0  0  0  0  0
  147.3406  133.2467  160.2519 C   0  0  0  0  0  0  0  0  0  0  0  0
  147.8821  134.3605  159.5863 C   0  0  0  0  0  0  0  0  0  0  0  0
  147.9510  135.6152  160.2281 C   0  0  0  0  0  0  0  0  0  0  0  0
  148.5358  136.7872  159.4566 C   0  0  0  0  0  0  0  0  0  0  0  0
  149.9325  136.6337  159.2645 O   0  0  0  0  0  0  0  0  0  0  0  0
  150.5829  137.8565  158.9610 C   0  0  0  0  0  0  0  0  0  0  0  0
  150.5306  138.0863  157.4442 C   0  0  2  0  0  0  0  0  0  0  0  0
  150.7080  136.8455  156.7901 O   0  0  0  0  0  0  0  0  0  0  0  0
  151.6015  139.0846  156.9613 C   0  0  0  0  0  0  0  0  0  0  0  0
  151.1376  140.4772  157.0049 N   0  0  0  0  0  0  0  0  0  0  0  0
  150.3069  141.1522  156.1647 C   0  0  0  0  0  0  0  0  0  0  0  0
  150.1816  142.4212  156.6434 N   0  3  0  0  0  0  0  0  0  0  0  0
  150.9442  142.5586  157.8058 C   0  0  0  0  0  0  0  0  0  0  0  0
  151.1357  143.6485  158.6486 C   0  0  0  0  0  0  0  0  0  0  0  0
  151.9817  143.4513  159.7601 C   0  0  0  0  0  0  0  0  0  0  0  0
  152.2018  144.4797  160.6130 F   0  0  0  0  0  0  0  0  0  0  0  0
  152.6012  142.2060  159.9995 C   0  0  0  0  0  0  0  0  0  0  0  0
  153.4058  142.0596  161.0787 F   0  0  0  0  0  0  0  0  0  0  0  0
  152.3998  141.1080  159.1374 C   0  0  0  0  0  0  0  0  0  0  0  0
  151.5618  141.3130  158.0425 C   0  0  0  0  0  0  0  0  0  0  0  0
  147.2334  138.2041  163.7821 H   0  0  0  0  0  0  0  0  0  0  0  0
  147.6531  136.5396  164.1655 H   0  0  0  0  0  0  0  0  0  0  0  0
  146.0285  136.9423  163.5569 H   0  0  0  0  0  0  0  0  0  0  0  0
  146.5443  134.6946  163.2211 H   0  0  0  0  0  0  0  0  0  0  0  0
  146.4448  132.5315  162.0801 H   0  0  0  0  0  0  0  0  0  0  0  0
  147.2912  132.2892  159.7546 H   0  0  0  0  0  0  0  0  0  0  0  0
  148.2468  134.2506  158.5754 H   0  0  0  0  0  0  0  0  0  0  0  0
  148.0359  136.8362  158.4879 H   0  0  0  0  0  0  0  0  0  0  0  0
  148.3393  137.7340  159.9595 H   0  0  0  0  0  0  0  0  0  0  0  0
  150.1098  138.6849  159.4911 H   0  0  0  0  0  0  0  0  0  0  0  0
  151.6209  137.8030  159.2941 H   0  0  0  0  0  0  0  0  0  0  0  0
  149.5383  138.4534  157.1796 H   0  0  0  0  0  0  0  0  0  0  0  0
  149.8769  136.5744  156.4312 H   0  0  0  0  0  0  0  0  0  0  0  0
  152.5101  139.0072  157.5601 H   0  0  0  0  0  0  0  0  0  0  0  0
  151.8904  138.8654  155.9324 H   0  0  0  0  0  0  0  0  0  0  0  0
  149.8295  140.7521  155.2816 H   0  0  0  0  0  0  0  0  0  0  0  0
  150.6628  144.6028  158.4697 H   0  0  0  0  0  0  0  0  0  0  0  0
  152.8759  140.1578  159.3298 H   0  0  0  0  0  0  0  0  0  0  0  0
  149.6137  143.1371  156.2081 H   0  0  0  0  0  0  0  0  0  0  0  0
  1  2  1  0  0  0  0
  1 26  1  0  0  0  0
  1 27  1  0  0  0  0
  1 28  1  0  0  0  0
  2  3  1  0  0  0  0
  3  8  1  0  0  0  0
  3  4  2  0  0  0  0
  4  5  1  0  0  0  0
  4 29  1  0  0  0  0
  5  6  2  0  0  0  0
  5 30  1  0  0  0  0
  6  7  1  0  0  0  0
  6 31  1  0  0  0  0
  7  8  2  0  0  0  0
  7 32  1  0  0  0  0
  8  9  1  0  0  0  0
  9 10  1  0  0  0  0
  9 33  1  0  0  0  0
  9 34  1  0  0  0  0
 10 11  1  0  0  0  0
 11 12  1  0  0  0  0
 11 35  1  0  0  0  0
 11 36  1  0  0  0  0
 12 13  1  0  0  0  0
 12 14  1  0  0  0  0
 12 37  1  0  0  0  0
 13 38  1  0  0  0  0
 14 15  1  0  0  0  0
 14 39  1  0  0  0  0
 14 40  1  0  0  0  0
 15 25  1  0  0  0  0
 15 16  1  0  0  0  0
 16 17  2  0  0  0  0
 16 41  1  0  0  0  0
 17 18  1  0  0  0  0
 17 44  1  0  0  0  0
 18 25  2  0  0  0  0
 18 19  1  0  0  0  0
 19 20  2  0  0  0  0
 19 42  1  0  0  0  0
 20 21  1  0  0  0  0
 20 22  1  0  0  0  0
 22 23  1  0  0  0  0
 22 24  2  0  0  0  0
 24 25  1  0  0  0  0
 24 43  1  0  0  0  0
M  CHG  1  17   1
M  END
> <s_m_source_file>
AV-unprocessed.smi

> <i_m_source_file_index>
1012

> <i_lp_mmshare_version>
43012

> <i_f3d_flags>
0

> <s_epik_input>
W0NIM11PYzFbY0hdW2NIXVtjSF1bY0hdYzFbQ0gyXU9bQ0gyXVtDQEhdKFtPSF0pW0NIMl1uKFtjSF1uMiljKGMyMylbY0hdYyhGKWMoRilbY0hdMw==

> <s_epik_cmdline>
J2VwaWtfcHl0aG9uJywgJy1waCcsICc3LjAnLCAnLXRuJywgJzgnLCAnLW1hJywgJzIwMCcsICctbWV0YWxfYmluZGluZycsICctaW1hZScsICc8aW5maWxlLm1hZT4nLCAnLW9tYWUnLCAnPG91dGZpbGUubWFlPic=

> <r_lp_tautomer_probability>
1

> <r_epik_Ionization_Penalty>
2.14697

> <r_epik_Ionization_Penalty_Charging>
2.14697

> <r_epik_Ionization_Penalty_Neutral>
1.07667e-06

> <r_epik_State_Penalty>
2.28651

> <r_epik_Charging_Adjusted_Penalty>
4.43348

> <i_epik_Tot_Q>
1

> <i_epik_Tot_abs_Q>
1

> <r_epik_Metal_State_Penalty>
6.36664

> <b_epik_Metal_Only>
0

> <s_lp_Force_Field>
OPLS_2005

> <r_lp_Energy>
22.239

> <b_lp_Chiralities_Consistent>
1

> <s_lp_Variant>
AV-unprocessed.smi:1012-3

> <Gold.Version>
5.8.1

> <Gold.Id.Protein>
6NUR|6NUR_protein|mol2

> <Gold.PLP.Fitness>
67.1347

> <Gold.PLP.PLP>
-55.9879

> <Gold.PLP.part.hbond>
-4.0000

> <Gold.PLP.part.metal>
0.0000

> <Gold.PLP.part.buried>
-5.4544

> <Gold.PLP.part.nonpolar>
-46.4048

> <Gold.PLP.part.repulsive>
0.0908

> <Gold.PLP.ligand.clash>
0.0000

> <Gold.PLP.ligand.torsion>
1.1290

> <Gold.PLP.Chemscore.Hbond>
4.4380

> <Gold.PLP.Chemscore.CHOScore>
0.0000

> <Gold.PLP.Chemscore.Metal>
0.0000

> <Gold.Chemscore.Hbonds>
donor molecule, donor type, donor heavy atom, donor atom, acceptor molecule, acceptor atom, score
      L1  H    17    44       P1  8028  2.00
      P1  H  6896  6907       L1    10  1.00
      P1  H  6931  6943       L1     2  1.00
      P1  H  6934  6947       L1     2  0.12

> <Gold.PLP.Chemscore.Internal.Correction>
0.0908

> <Gold.Rescore>
     Score         DG    S(hbond)    S(metal)    S(lipo)     H(rot)  DE(clash)    DE(int)     intcor
     20.75     -22.04       2.86        0.00     126.15       3.03       0.39       0.90       ----

> <Gold.Chemscore.Fitness>
20.7529

> <Gold.Chemscore.DG>
-22.0430

> <Gold.Chemscore.ZeroCoef>
-5.4800

> <Gold.Chemscore.Hbond>
2.8606

> <Gold.Chemscore.Metal>
0.0000

> <Gold.Chemscore.Lipo>
126.1518

> <Gold.Chemscore.Internal_Hbond>
0.0000

> <Gold.Chemscore.DEClash>
0.3924

> <Gold.Chemscore.DEInternal>
0.8978

> <Gold.Chemscore.Rot>
3.0278

> <Gold.Chemscore.Internal.Correction>
   9.000000E+99

> <Gold.Chemscore.Hbonds>
donor molecule, donor type, donor heavy atom, donor atom, acceptor molecule, acceptor atom, score
      L1  H    17    44       P1  8028  1.00
      P1  H  6896  6907       L1    10  0.89
      P1  H  6931  6943       L1     2  0.52
      P1  H  6934  6947       L1     2  0.09

> <Gold.Chemscore.Hbond.Weighted>
-9.5544

> <Gold.Chemscore.Metal.Weighted>
-0.0000

> <Gold.Chemscore.Lipo.Weighted>
-14.7598

> <Gold.Chemscore.Internal_Hbond.Weighted>
0.0000

> <Gold.Chemscore.DEClash.Weighted>
0.3924

> <Gold.Chemscore.DEInternal.Weighted>
0.8978

> <Gold.Chemscore.Rot.Weighted>
7.7512

> <Gold.Chemscore.Internal.Correction.Weighted>
   9.000000E+99

> <Gold.Protein.RotatedTorsions>
[ 6907 6896 6895 6894 ] final  -30.32 input  -60.11 | X-H torsion
[ 7974 7965 7964 7962 ] final  -99.26 input  175.53 | X-H torsion
[ 8008 7997 7996 7995 ] final   58.20 input   59.86 | X-H torsion
[ 10167 10162 10161 10158 ] final -124.74 input  -65.29 | X-H torsion
[ 10718 10713 10712 10709 ] final  -12.96 input   66.30 | X-H torsion
[ 10763 10752 10751 10750 ] final   43.18 input  -60.55 | X-H torsion
[ 11005 11000 10999 10996 ] final  124.64 input  -57.11 | X-H torsion

> <Gold.Protein.ActiveResidues>
 VAL166  LYS551  ARG553  GLY616  TRP617  ASP618  TYR619  PRO620  LYS621  CYS622 
 ASP623  PHE694  ASN695  SER759  ASP760  ASP761  ALA762  ILE779  LEU786  VAL792 
 PHE793  MET794  SER795  GLU796  ALA797  LYS798  CYS799  TRP800  GLU811  SER814 

> <Gold.Protein.RotatedAtoms>
  151.1071  135.0006  159.8476 H   0  0  0  0  0  0  0  0  0  0  0  0  # atno 6907 bound_to 6896
  152.5441  134.1880  159.8672 H   0  0  0  0  0  0  0  0  0  0  0  0  # atno 6908 bound_to 6896
  151.1927  133.4613  159.2628 H   0  0  0  0  0  0  0  0  0  0  0  0  # atno 6909 bound_to 6896
  145.3099  140.9398  143.2775 H   0  0  0  0  0  0  0  0  0  0  0  0  # atno 7974 bound_to 7965
  155.5461  140.3485  155.4458 H   0  0  0  0  0  0  0  0  0  0  0  0  # atno 8008 bound_to 7997
  156.0616  140.1341  156.9960 H   0  0  0  0  0  0  0  0  0  0  0  0  # atno 8009 bound_to 7997
  154.4483  140.0984  156.6511 H   0  0  0  0  0  0  0  0  0  0  0  0  # atno 8010 bound_to 7997
  139.9895  143.5656  152.2347 H   0  0  0  0  0  0  0  0  0  0  0  0  # atno 10167 bound_to 10162
  156.6370  130.4917  149.6108 H   0  0  0  0  0  0  0  0  0  0  0  0  # atno 10718 bound_to 10713
  152.9866  135.6109  154.3069 H   0  0  0  0  0  0  0  0  0  0  0  0  # atno 10763 bound_to 10752
  154.2787  135.2777  155.2708 H   0  0  0  0  0  0  0  0  0  0  0  0  # atno 10764 bound_to 10752
  154.5057  135.5854  153.6622 H   0  0  0  0  0  0  0  0  0  0  0  0  # atno 10765 bound_to 10752
  139.9368  134.9639  156.8439 H   0  0  0  0  0  0  0  0  0  0  0  0  # atno 11005 bound_to 11000
  144.9024  139.4632  143.6626 LP  0  0  0  0  0  0  0  0  0  0  0  0  # atno 17320 bound_to 7965
  146.3121  139.7785  142.9011 LP  0  0  0  0  0  0  0  0  0  0  0  0  # atno 17321 bound_to 7965
  139.6350  144.7649  151.2456 LP  0  0  0  0  0  0  0  0  0  0  0  0  # atno 17342 bound_to 10162
  140.7460  143.6414  150.8332 LP  0  0  0  0  0  0  0  0  0  0  0  0  # atno 17343 bound_to 10162
  156.2189  130.6725  151.1347 LP  0  0  0  0  0  0  0  0  0  0  0  0  # atno 17370 bound_to 10713
  157.7182  131.0697  150.6241 LP  0  0  0  0  0  0  0  0  0  0  0  0  # atno 17371 bound_to 10713
  140.6055  134.0132  155.7555 LP  0  0  0  0  0  0  0  0  0  0  0  0  # atno 17394 bound_to 11000
  141.0985  133.9805  157.3119 LP  0  0  0  0  0  0  0  0  0  0  0  0  # atno 17395 bound_to 11000

$$$$
