AV-unprocessed.smi:2709|AV-procd|sdf|10460|dock9
  -GOLD-   2272014503D 1   1.00000     0.00000
 Structure written by MMmdl.
 40 42  0  0  0  0  0  0  0  0  1 V2000
  142.3939  141.9662  156.0692 C   0  0  0  0  0  0  0  0  0  0  0  0
  141.0075  142.1689  155.8505 O   0  0  0  0  0  0  0  0  0  0  0  0
  140.4783  141.3950  154.7826 C   0  0  2  0  0  0  0  0  0  0  0  0
  138.9728  141.6302  154.5982 C   0  0  0  0  0  0  0  0  0  0  0  0
  138.4354  140.2933  154.1009 C   0  0  0  0  0  0  0  0  0  0  0  0
  139.2428  139.2616  154.8863 C   0  0  0  0  0  0  0  0  0  0  0  0
  140.6333  139.8879  155.0943 C   0  0  1  0  0  0  0  0  0  0  0  0
  141.6092  139.2508  154.2135 N   0  0  0  0  0  0  0  0  0  0  0  0
  141.7682  137.9274  154.0751 C   0  0  0  0  0  0  0  0  0  0  0  0
  141.1021  137.0975  154.6920 O   0  0  0  0  0  0  0  0  0  0  0  0
  142.7449  137.6486  153.1951 N   0  0  0  0  0  0  0  0  0  0  0  0
  143.2194  136.3828  152.7549 C   0  0  0  0  0  0  0  0  0  0  0  0
  144.2841  136.3454  151.8302 C   0  0  0  0  0  0  0  0  0  0  0  0
  144.7841  135.1841  151.3570 N   0  0  0  0  0  0  0  0  0  0  0  0
  144.2135  134.0596  151.7965 C   0  0  0  0  0  0  0  0  0  0  0  0
  144.7941  132.7720  151.2997 C   0  0  0  0  0  0  0  0  0  0  0  0
  144.9132  132.4975  149.8144 C   0  0  0  0  0  0  0  0  0  0  0  0
  143.9162  131.7299  150.6368 C   0  0  0  0  0  0  0  0  0  0  0  0
  143.2106  133.9667  152.6733 N   0  0  0  0  0  0  0  0  0  0  0  0
  142.7035  135.1238  153.1517 C   0  0  0  0  0  0  0  0  0  0  0  0
  142.7241  142.5841  156.9039 H   0  0  0  0  0  0  0  0  0  0  0  0
  142.9845  142.2430  155.1953 H   0  0  0  0  0  0  0  0  0  0  0  0
  142.6047  140.9258  156.3197 H   0  0  0  0  0  0  0  0  0  0  0  0
  140.9949  141.6334  153.8502 H   0  0  0  0  0  0  0  0  0  0  0  0
  138.5129  141.8665  155.5590 H   0  0  0  0  0  0  0  0  0  0  0  0
  138.7554  142.4514  153.9147 H   0  0  0  0  0  0  0  0  0  0  0  0
  137.3604  140.1892  154.2516 H   0  0  0  0  0  0  0  0  0  0  0  0
  138.6376  140.1876  153.0342 H   0  0  0  0  0  0  0  0  0  0  0  0
  138.7721  139.1062  155.8580 H   0  0  0  0  0  0  0  0  0  0  0  0
  139.2716  138.2922  154.3868 H   0  0  0  0  0  0  0  0  0  0  0  0
  140.9354  139.7335  156.1322 H   0  0  0  0  0  0  0  0  0  0  0  0
  142.2022  139.8629  153.6728 H   0  0  0  0  0  0  0  0  0  0  0  0
  143.2231  138.4458  152.8019 H   0  0  0  0  0  0  0  0  0  0  0  0
  144.7417  137.2538  151.4666 H   0  0  0  0  0  0  0  0  0  0  0  0
  145.5962  132.4233  151.9475 H   0  0  0  0  0  0  0  0  0  0  0  0
  144.5233  133.2448  149.1260 H   0  0  0  0  0  0  0  0  0  0  0  0
  145.7991  131.9664  149.4728 H   0  0  0  0  0  0  0  0  0  0  0  0
  144.1346  130.6845  150.8454 H   0  0  0  0  0  0  0  0  0  0  0  0
  142.8634  131.9669  150.4960 H   0  0  0  0  0  0  0  0  0  0  0  0
  141.8821  135.0129  153.8409 H   0  0  0  0  0  0  0  0  0  0  0  0
  1  2  1  0  0  0  0
  1 21  1  0  0  0  0
  1 22  1  0  0  0  0
  1 23  1  0  0  0  0
  2  3  1  0  0  0  0
  3  7  1  0  0  0  0
  3  4  1  0  0  0  0
  3 24  1  0  0  0  0
  4  5  1  0  0  0  0
  4 25  1  0  0  0  0
  4 26  1  0  0  0  0
  5  6  1  0  0  0  0
  5 27  1  0  0  0  0
  5 28  1  0  0  0  0
  6  7  1  0  0  0  0
  6 29  1  0  0  0  0
  6 30  1  0  0  0  0
  7  8  1  0  0  0  0
  7 31  1  0  0  0  0
  8  9  1  0  0  0  0
  8 32  1  0  0  0  0
  9 10  2  0  0  0  0
  9 11  1  0  0  0  0
 11 12  1  0  0  0  0
 11 33  1  0  0  0  0
 12 20  1  0  0  0  0
 12 13  2  0  0  0  0
 13 14  1  0  0  0  0
 13 34  1  0  0  0  0
 14 15  2  0  0  0  0
 15 16  1  0  0  0  0
 15 19  1  0  0  0  0
 16 18  1  0  0  0  0
 16 17  1  0  0  0  0
 16 35  1  0  0  0  0
 17 18  1  0  0  0  0
 17 36  1  0  0  0  0
 17 37  1  0  0  0  0
 18 38  1  0  0  0  0
 18 39  1  0  0  0  0
 19 20  2  0  0  0  0
 20 40  1  0  0  0  0
M  END
> <s_m_source_file>
AV-unprocessed.smi

> <i_m_source_file_index>
2709

> <i_lp_mmshare_version>
43012

> <i_f3d_flags>
0

> <s_epik_input>
W0NIM11PW0NAQEhdMVtDSDJdW0NIMl1bQ0gyXVtDQEhdMVtOSF1DKD1PKVtOSF1jMltjSF1uYyhuW2NIXTIpW0NIXTNbQ0gyXVtDSDJdMw==

> <s_epik_cmdline>
J2VwaWtfcHl0aG9uJywgJy1waCcsICc3LjAnLCAnLXRuJywgJzgnLCAnLW1hJywgJzIwMCcsICctbWV0YWxfYmluZGluZycsICctaW1hZScsICc8aW5maWxlLm1hZT4nLCAnLW9tYWUnLCAnPG91dGZpbGUubWFlPic=

> <r_lp_tautomer_probability>
1

> <r_epik_Ionization_Penalty>
2.49969e-05

> <r_epik_Ionization_Penalty_Charging>
0

> <r_epik_Ionization_Penalty_Neutral>
2.49969e-05

> <r_epik_State_Penalty>
-0

> <r_epik_Charging_Adjusted_Penalty>
0

> <i_epik_Tot_Q>
0

> <i_epik_Tot_abs_Q>
0

> <r_epik_Metal_State_Penalty>
-0

> <b_epik_Metal_Only>
0

> <s_lp_Force_Field>
OPLS_2005

> <r_lp_Energy>
17.9033

> <b_lp_Chiralities_Consistent>
1

> <s_lp_Variant>
AV-unprocessed.smi:2709-1

> <Gold.Version>
5.8.1

> <Gold.Id.Protein>
6NUR|6NUR_protein|mol2

> <Gold.PLP.Fitness>
38.0455

> <Gold.PLP.PLP>
-30.2323

> <Gold.PLP.part.hbond>
-2.0376

> <Gold.PLP.part.metal>
0.0000

> <Gold.PLP.part.buried>
-5.6808

> <Gold.PLP.part.nonpolar>
-23.0231

> <Gold.PLP.part.repulsive>
0.5615

> <Gold.PLP.ligand.clash>
0.0000

> <Gold.PLP.ligand.torsion>
0.1935

> <Gold.PLP.Chemscore.Hbond>
2.0000

> <Gold.PLP.Chemscore.CHOScore>
0.6930

> <Gold.PLP.Chemscore.Metal>
0.0000

> <Gold.Chemscore.Hbonds>
donor molecule, donor type, donor heavy atom, donor atom, acceptor molecule, acceptor atom, score
      L1  H     8    32       P1 10175  1.00
      L1  H    11    33       P1 10175  0.94
      L1  C    13    34       P1 10171  0.89

> <Gold.PLP.Chemscore.Internal.Correction>
0.1212

> <Gold.Rescore>
     Score         DG    S(hbond)    S(metal)    S(lipo)     H(rot)  DE(clash)    DE(int)     intcor
     12.66     -15.62       1.64        0.00      70.70       1.41       0.24       2.71       ----

> <Gold.Chemscore.Fitness>
12.6604

> <Gold.Chemscore.DG>
-15.6161

> <Gold.Chemscore.ZeroCoef>
-5.4800

> <Gold.Chemscore.Hbond>
1.6401

> <Gold.Chemscore.Metal>
0.0000

> <Gold.Chemscore.Lipo>
70.6957

> <Gold.Chemscore.Internal_Hbond>
0.0000

> <Gold.Chemscore.DEClash>
0.2433

> <Gold.Chemscore.DEInternal>
2.7124

> <Gold.Chemscore.Rot>
1.4114

> <Gold.Chemscore.Internal.Correction>
   9.000000E+99

> <Gold.Chemscore.Hbonds>
donor molecule, donor type, donor heavy atom, donor atom, acceptor molecule, acceptor atom, score
      L1  H     8    32       P1 10175  0.92
      L1  H    11    33       P1 10175  0.89

> <Gold.Chemscore.Hbond.Weighted>
-5.4780

> <Gold.Chemscore.Metal.Weighted>
-0.0000

> <Gold.Chemscore.Lipo.Weighted>
-8.2714

> <Gold.Chemscore.Internal_Hbond.Weighted>
0.0000

> <Gold.Chemscore.DEClash.Weighted>
0.2433

> <Gold.Chemscore.DEInternal.Weighted>
2.7124

> <Gold.Chemscore.Rot.Weighted>
3.6133

> <Gold.Chemscore.Internal.Correction.Weighted>
   9.000000E+99

> <Gold.Protein.RotatedTorsions>
[ 6907 6896 6895 6894 ] final   84.75 input  -60.11 | X-H torsion
[ 7974 7965 7964 7962 ] final  106.84 input  175.53 | X-H torsion
[ 8008 7997 7996 7995 ] final   41.26 input   59.86 | X-H torsion
[ 10167 10162 10161 10158 ] final  166.84 input  -65.29 | X-H torsion
[ 10718 10713 10712 10709 ] final   42.88 input   66.30 | X-H torsion
[ 10763 10752 10751 10750 ] final  -84.79 input  -60.55 | X-H torsion
[ 11005 11000 10999 10996 ] final -159.29 input  -57.11 | X-H torsion

> <Gold.Protein.ActiveResidues>
 VAL166  LYS551  ARG553  GLY616  TRP617  ASP618  TYR619  PRO620  LYS621  CYS622 
 ASP623  PHE694  ASN695  SER759  ASP760  ASP761  ALA762  ILE779  LEU786  VAL792 
 PHE793  MET794  SER795  GLU796  ALA797  LYS798  CYS799  TRP800  GLU811  SER814 

> <Gold.Protein.RotatedAtoms>
  152.5359  134.2693  159.8965 H   0  0  0  0  0  0  0  0  0  0  0  0  # atno 6907 bound_to 6896
  151.2650  133.4276  159.2626 H   0  0  0  0  0  0  0  0  0  0  0  0  # atno 6908 bound_to 6896
  151.0418  134.9627  159.8222 H   0  0  0  0  0  0  0  0  0  0  0  0  # atno 6909 bound_to 6896
  145.3014  139.2568  143.3812 H   0  0  0  0  0  0  0  0  0  0  0  0  # atno 7974 bound_to 7965
  155.2668  140.3363  155.4268 H   0  0  0  0  0  0  0  0  0  0  0  0  # atno 8008 bound_to 7997
  156.2150  140.1785  156.7651 H   0  0  0  0  0  0  0  0  0  0  0  0  # atno 8009 bound_to 7997
  154.5741  140.0665  156.8992 H   0  0  0  0  0  0  0  0  0  0  0  0  # atno 8010 bound_to 7997
  139.4933  144.3985  151.9437 H   0  0  0  0  0  0  0  0  0  0  0  0  # atno 10167 bound_to 10162
  157.4097  130.7907  149.7420 H   0  0  0  0  0  0  0  0  0  0  0  0  # atno 10718 bound_to 10713
  154.6036  135.5508  153.7399 H   0  0  0  0  0  0  0  0  0  0  0  0  # atno 10763 bound_to 10752
  153.0165  135.6372  154.1680 H   0  0  0  0  0  0  0  0  0  0  0  0  # atno 10764 bound_to 10752
  154.1619  135.2897  155.3086 H   0  0  0  0  0  0  0  0  0  0  0  0  # atno 10765 bound_to 10752
  140.6442  134.4519  157.5234 H   0  0  0  0  0  0  0  0  0  0  0  0  # atno 11005 bound_to 11000
  146.3150  140.3529  142.8658 LP  0  0  0  0  0  0  0  0  0  0  0  0  # atno 17320 bound_to 7965
  144.9090  140.7735  143.5819 LP  0  0  0  0  0  0  0  0  0  0  0  0  # atno 17321 bound_to 7965
  140.3424  144.3188  150.5965 LP  0  0  0  0  0  0  0  0  0  0  0  0  # atno 17342 bound_to 10162
  140.5555  143.2200  151.7855 LP  0  0  0  0  0  0  0  0  0  0  0  0  # atno 17343 bound_to 10162
  155.9847  130.3989  150.3299 LP  0  0  0  0  0  0  0  0  0  0  0  0  # atno 17370 bound_to 10713
  157.1435  131.0303  151.2917 LP  0  0  0  0  0  0  0  0  0  0  0  0  # atno 17371 bound_to 10713
  139.9069  134.8430  156.1673 LP  0  0  0  0  0  0  0  0  0  0  0  0  # atno 17394 bound_to 11000
  141.0584  133.6854  156.1905 LP  0  0  0  0  0  0  0  0  0  0  0  0  # atno 17395 bound_to 11000

$$$$
