AV-unprocessed.smi:2332|AV-procd|sdf|9318|dock9
  -GOLD-   2272012543D 1   1.00000     0.00000
 Structure written by MMmdl.
 32 33  0  0  0  0  0  0  0  0  1 V2000
  148.2614  141.5827  154.5232 C   0  0  0  0  0  0  0  0  0  0  0  0
  149.3187  141.9480  155.4531 N   0  0  0  0  0  0  0  0  0  0  0  0
  150.4234  141.2179  155.6698 C   0  0  0  0  0  0  0  0  0  0  0  0
  150.6474  140.1591  155.0819 O   0  0  0  0  0  0  0  0  0  0  0  0
  151.4363  141.7698  156.6847 C   0  0  2  0  0  0  0  0  0  0  0  0
  151.7632  140.7450  157.7952 C   0  0  0  0  0  0  0  0  0  0  0  0
  152.6349  141.3372  158.8076 N   0  0  0  0  0  0  0  0  0  0  0  0
  153.2078  140.4282  159.7236 C   0  0  0  0  0  0  0  0  0  0  0  0
  154.0040  140.9028  160.7938 C   0  0  0  0  0  0  0  0  0  0  0  0
  154.5698  139.9785  161.6934 C   0  0  0  0  0  0  0  0  0  0  0  0
  154.3234  138.6059  161.5011 C   0  0  0  0  0  0  0  0  0  0  0  0
  154.8845  137.6136  162.4015 C   0  0  0  0  0  0  0  0  0  0  0  0
  155.3311  136.8232  163.1189 N   0  0  0  0  0  0  0  0  0  0  0  0
  153.5150  138.2210  160.4140 C   0  0  0  0  0  0  0  0  0  0  0  0
  152.9697  139.1039  159.5500 N   0  0  0  0  0  0  0  0  0  0  0  0
  152.1423  142.6108  159.3271 C   0  0  0  0  0  0  0  0  0  0  0  0
  151.8272  143.5716  158.1707 C   0  0  0  0  0  0  0  0  0  0  0  0
  150.9054  142.9549  157.2798 O   0  0  0  0  0  0  0  0  0  0  0  0
  147.4585  142.3184  154.5657 H   0  0  0  0  0  0  0  0  0  0  0  0
  147.8432  140.6067  154.7728 H   0  0  0  0  0  0  0  0  0  0  0  0
  148.6397  141.5486  153.5009 H   0  0  0  0  0  0  0  0  0  0  0  0
  149.2045  142.8064  155.9729 H   0  0  0  0  0  0  0  0  0  0  0  0
  152.3449  142.0220  156.1351 H   0  0  0  0  0  0  0  0  0  0  0  0
  150.8459  140.4078  158.2801 H   0  0  0  0  0  0  0  0  0  0  0  0
  152.2241  139.8663  157.3460 H   0  0  0  0  0  0  0  0  0  0  0  0
  154.1742  141.9587  160.9434 H   0  0  0  0  0  0  0  0  0  0  0  0
  155.1783  140.3243  162.5167 H   0  0  0  0  0  0  0  0  0  0  0  0
  153.2955  137.1794  160.2276 H   0  0  0  0  0  0  0  0  0  0  0  0
  151.2452  142.4364  159.9228 H   0  0  0  0  0  0  0  0  0  0  0  0
  152.8875  143.0655  159.9814 H   0  0  0  0  0  0  0  0  0  0  0  0
  151.3870  144.4913  158.5561 H   0  0  0  0  0  0  0  0  0  0  0  0
  152.7364  143.8523  157.6368 H   0  0  0  0  0  0  0  0  0  0  0  0
  1  2  1  0  0  0  0
  1 19  1  0  0  0  0
  1 20  1  0  0  0  0
  1 21  1  0  0  0  0
  2  3  1  0  0  0  0
  2 22  1  0  0  0  0
  3  4  2  0  0  0  0
  3  5  1  0  0  0  0
  5 18  1  0  0  0  0
  5  6  1  0  0  0  0
  5 23  1  0  0  0  0
  6  7  1  0  0  0  0
  6 24  1  0  0  0  0
  6 25  1  0  0  0  0
  7  8  1  0  0  0  0
  7 16  1  0  0  0  0
  8 15  1  0  0  0  0
  8  9  2  0  0  0  0
  9 10  1  0  0  0  0
  9 26  1  0  0  0  0
 10 11  2  0  0  0  0
 10 27  1  0  0  0  0
 11 12  1  0  0  0  0
 11 14  1  0  0  0  0
 12 13  3  0  0  0  0
 14 15  2  0  0  0  0
 14 28  1  0  0  0  0
 16 17  1  0  0  0  0
 16 29  1  0  0  0  0
 16 30  1  0  0  0  0
 17 18  1  0  0  0  0
 17 31  1  0  0  0  0
 17 32  1  0  0  0  0
M  END
> <s_m_source_file>
AV-unprocessed.smi

> <i_m_source_file_index>
2332

> <i_lp_mmshare_version>
43012

> <i_f3d_flags>
0

> <s_epik_input>
W0NIM11bTkhdQyg9TylbQ0BASF0xW0NIMl1OKFtDSDJdW0NIMl1PMSljMltjSF1bY0hdYyhDI04pW2NIXW4y

> <s_epik_cmdline>
J2VwaWtfcHl0aG9uJywgJy1waCcsICc3LjAnLCAnLXRuJywgJzgnLCAnLW1hJywgJzIwMCcsICctbWV0YWxfYmluZGluZycsICctaW1hZScsICc8aW5maWxlLm1hZT4nLCAnLW9tYWUnLCAnPG91dGZpbGUubWFlPic=

> <r_lp_tautomer_probability>
1

> <r_epik_Ionization_Penalty>
6.95229e-08

> <r_epik_Ionization_Penalty_Charging>
0

> <r_epik_Ionization_Penalty_Neutral>
6.95229e-08

> <r_epik_State_Penalty>
-0

> <r_epik_Charging_Adjusted_Penalty>
0

> <i_epik_Tot_Q>
0

> <i_epik_Tot_abs_Q>
0

> <r_epik_Metal_State_Penalty>
-0

> <b_epik_Metal_Only>
0

> <s_lp_Force_Field>
OPLS_2005

> <r_lp_Energy>
17.7289

> <b_lp_Chiralities_Consistent>
1

> <s_lp_Variant>
AV-unprocessed.smi:2332-1

> <Gold.Version>
5.8.1

> <Gold.Id.Protein>
6NUR|6NUR_protein|mol2

> <Gold.PLP.Fitness>
36.8293

> <Gold.PLP.PLP>
-31.7472

> <Gold.PLP.part.hbond>
-2.0000

> <Gold.PLP.part.metal>
0.0000

> <Gold.PLP.part.buried>
-5.3524

> <Gold.PLP.part.nonpolar>
-24.2796

> <Gold.PLP.part.repulsive>
0.5870

> <Gold.PLP.ligand.clash>
0.0000

> <Gold.PLP.ligand.torsion>
0.3743

> <Gold.PLP.Chemscore.Hbond>
1.8320

> <Gold.PLP.Chemscore.CHOScore>
0.0000

> <Gold.PLP.Chemscore.Metal>
0.0000

> <Gold.Chemscore.Hbonds>
donor molecule, donor type, donor heavy atom, donor atom, acceptor molecule, acceptor atom, score
      L1  H     2    22       P1  8028  0.80
      P1  H  7989  7998       L1     4  0.95

> <Gold.PLP.Chemscore.Internal.Correction>
0.3348

> <Gold.Rescore>
     Score         DG    S(hbond)    S(metal)    S(lipo)     H(rot)  DE(clash)    DE(int)     intcor
     14.38     -14.89       1.36        0.00      71.22       1.35       0.20       0.32       ----

> <Gold.Chemscore.Fitness>
14.3757

> <Gold.Chemscore.DG>
-14.8925

> <Gold.Chemscore.ZeroCoef>
-5.4800

> <Gold.Chemscore.Hbond>
1.3580

> <Gold.Chemscore.Metal>
0.0000

> <Gold.Chemscore.Lipo>
71.2174

> <Gold.Chemscore.Internal_Hbond>
0.0000

> <Gold.Chemscore.DEClash>
0.2011

> <Gold.Chemscore.DEInternal>
0.3158

> <Gold.Chemscore.Rot>
1.3498

> <Gold.Chemscore.Internal.Correction>
   9.000000E+99

> <Gold.Chemscore.Hbonds>
donor molecule, donor type, donor heavy atom, donor atom, acceptor molecule, acceptor atom, score
      L1  H     2    22       P1  8028  0.78
      P1  H  7989  7998       L1     4  0.21

> <Gold.Chemscore.Hbond.Weighted>
-4.5357

> <Gold.Chemscore.Metal.Weighted>
-0.0000

> <Gold.Chemscore.Lipo.Weighted>
-8.3324

> <Gold.Chemscore.Internal_Hbond.Weighted>
0.0000

> <Gold.Chemscore.DEClash.Weighted>
0.2011

> <Gold.Chemscore.DEInternal.Weighted>
0.3158

> <Gold.Chemscore.Rot.Weighted>
3.4556

> <Gold.Chemscore.Internal.Correction.Weighted>
   9.000000E+99

> <Gold.Protein.RotatedTorsions>
[ 6907 6896 6895 6894 ] final   81.57 input  -60.11 | X-H torsion
[ 7974 7965 7964 7962 ] final  136.78 input  175.53 | X-H torsion
[ 8008 7997 7996 7995 ] final   11.75 input   59.86 | X-H torsion
[ 10167 10162 10161 10158 ] final  -28.12 input  -65.29 | X-H torsion
[ 10718 10713 10712 10709 ] final  -41.32 input   66.30 | X-H torsion
[ 10763 10752 10751 10750 ] final  -42.56 input  -60.55 | X-H torsion
[ 11005 11000 10999 10996 ] final  169.63 input  -57.11 | X-H torsion

> <Gold.Protein.ActiveResidues>
 VAL166  LYS551  ARG553  GLY616  TRP617  ASP618  TYR619  PRO620  LYS621  CYS622 
 ASP623  PHE694  ASN695  SER759  ASP760  ASP761  ALA762  ILE779  LEU786  VAL792 
 PHE793  MET794  SER795  GLU796  ALA797  LYS798  CYS799  TRP800  GLU811  SER814 

> <Gold.Protein.RotatedAtoms>
  152.5272  134.3184  159.9139 H   0  0  0  0  0  0  0  0  0  0  0  0  # atno 6907 bound_to 6896
  151.3133  133.4064  159.2656 H   0  0  0  0  0  0  0  0  0  0  0  0  # atno 6908 bound_to 6896
  151.0020  134.9346  159.8016 H   0  0  0  0  0  0  0  0  0  0  0  0  # atno 6909 bound_to 6896
  144.9531  139.4795  143.5516 H   0  0  0  0  0  0  0  0  0  0  0  0  # atno 7974 bound_to 7965
  154.8112  140.2868  155.5852 H   0  0  0  0  0  0  0  0  0  0  0  0  # atno 8008 bound_to 7997
  156.2988  140.2568  156.2930 H   0  0  0  0  0  0  0  0  0  0  0  0  # atno 8009 bound_to 7997
  154.9445  140.0380  157.2103 H   0  0  0  0  0  0  0  0  0  0  0  0  # atno 8010 bound_to 7997
  140.7272  143.4036  151.1223 H   0  0  0  0  0  0  0  0  0  0  0  0  # atno 10167 bound_to 10162
  156.2716  130.4207  149.8432 H   0  0  0  0  0  0  0  0  0  0  0  0  # atno 10718 bound_to 10713
  153.9810  135.6717  153.4750 H   0  0  0  0  0  0  0  0  0  0  0  0  # atno 10763 bound_to 10752
  153.0748  135.4954  154.8378 H   0  0  0  0  0  0  0  0  0  0  0  0  # atno 10764 bound_to 10752
  154.7164  135.3108  154.9078 H   0  0  0  0  0  0  0  0  0  0  0  0  # atno 10765 bound_to 10752
  140.2998  134.7605  157.3906 H   0  0  0  0  0  0  0  0  0  0  0  0  # atno 11005 bound_to 11000
  146.3328  139.8630  142.8853 LP  0  0  0  0  0  0  0  0  0  0  0  0  # atno 17320 bound_to 7965
  145.2813  141.0139  143.3716 LP  0  0  0  0  0  0  0  0  0  0  0  0  # atno 17321 bound_to 7965
  139.7659  143.8565  152.3110 LP  0  0  0  0  0  0  0  0  0  0  0  0  # atno 17342 bound_to 10162
  139.8467  144.7184  150.9264 LP  0  0  0  0  0  0  0  0  0  0  0  0  # atno 17343 bound_to 10162
  156.5911  130.8507  151.3408 LP  0  0  0  0  0  0  0  0  0  0  0  0  # atno 17370 bound_to 10713
  157.7286  130.9658  150.1748 LP  0  0  0  0  0  0  0  0  0  0  0  0  # atno 17371 bound_to 10713
  140.1120  134.5333  155.8258 LP  0  0  0  0  0  0  0  0  0  0  0  0  # atno 17394 bound_to 11000
  141.2130  133.6727  156.6706 LP  0  0  0  0  0  0  0  0  0  0  0  0  # atno 17395 bound_to 11000

$$$$
