#       Name:                AV-unprocessed.smi:1005
#       Creating user name   scv26
#       Creation time:       Fri Mar 27 02:27:47 2020


#       File generated by GOLD software.
#

@<TRIPOS>MOLECULE
AV-unprocessed.smi:1005
    62    64     1
SMALL
NO_CHARGES


@<TRIPOS>ATOM
      1 ****        -6.7298   2.4683  -3.8467 C.3            1 S1                 0.0000
      2 ****        -5.6902   2.0900  -2.8065 C.ar           1 S1                 0.0000
      3 ****        -6.1112   1.4706  -1.6082 C.ar           1 S1                 0.0000
      4 ****        -5.1766   1.1041  -0.6155 C.ar           1 S1                 0.0000
      5 ****        -5.3626   0.4923   0.6124 N.2            1 S1                 0.0000
      6 ****        -4.1158   0.4198   1.0679 C.2            1 S1                 0.0000
      7 ****        -3.1412   0.9104   0.2783 N.pl3          1 S1                 0.0000
      8 ****        -1.7179   0.9368   0.5641 C.3            1 S1                 0.0000
      9 ****        -1.0150  -0.3759   0.1691 C.3            1 S1                 0.0000
     10 ****        -1.1454  -0.5775  -1.2251 O.3            1 S1                 0.0000
     11 ****         0.4853  -0.3492   0.5212 C.3            1 S1                 0.0000
     12 ****         1.1496  -1.6568   0.2703 N.4            1 S1                 1.0000
     13 ****         0.8953  -2.6918   1.3044 C.3            1 S1                 0.0000
     14 ****         1.7675  -2.4670   2.5542 C.3            1 S1                 0.0000
     15 ****         3.1383  -2.3997   2.1795 O.3            1 S1                 0.0000
     16 ****         3.4126  -1.3234   1.2878 C.3            1 S1                 0.0000
     17 ****         4.9283  -1.3113   1.0115 C.3            1 S1                 0.0000
     18 ****         5.7387  -1.0335   2.2257 N.4            1 S1                 1.0000
     19 ****         5.7017   0.3859   2.6487 C.3            1 S1                 0.0000
     20 ****         7.1297  -1.5197   2.0868 C.3            1 S1                 0.0000
     21 ****         2.6030  -1.5471  -0.0077 C.3            1 S1                 0.0000
     22 ****        -3.7983   1.3785  -0.8548 C.ar           1 S1                 0.0000
     23 ****        -3.3671   1.9941  -2.0430 C.ar           1 S1                 0.0000
     24 ****        -4.3139   2.3518  -3.0255 C.ar           1 S1                 0.0000
     25 ****        -3.8381   3.0133  -4.3067 C.3            1 S1                 0.0000
     26 ****        -7.7306   2.1641  -3.5388 H              1 S1                 0.0000
     27 ****        -6.5130   1.9846  -4.7993 H              1 S1                 0.0000
     28 ****        -6.7400   3.5477  -3.9999 H              1 S1                 0.0000
     29 ****        -7.1595   1.2705  -1.4414 H              1 S1                 0.0000
     30 ****        -3.8973  -0.0182   2.0311 H              1 S1                 0.0000
     31 ****        -1.2717   1.7859   0.0445 H              1 S1                 0.0000
     32 ****        -1.5909   1.1247   1.6311 H              1 S1                 0.0000
     33 ****        -1.5121  -1.2006   0.6793 H              1 S1                 0.0000
     34 ****        -2.0650  -0.5702  -1.4462 H              1 S1                 0.0000
     35 ****         0.9633   0.4278  -0.0778 H              1 S1                 0.0000
     36 ****         0.6253  -0.0532   1.5609 H              1 S1                 0.0000
     37 ****        -0.1590  -2.7318   1.5756 H              1 S1                 0.0000
     38 ****         1.1345  -3.6651   0.8737 H              1 S1                 0.0000
     39 ****         1.4783  -1.5604   3.0868 H              1 S1                 0.0000
     40 ****         1.6366  -3.2939   3.2524 H              1 S1                 0.0000
     41 ****         3.1086  -0.3804   1.7423 H              1 S1                 0.0000
     42 ****         5.2079  -2.2850   0.6060 H              1 S1                 0.0000
     43 ****         5.1715  -0.5780   0.2411 H              1 S1                 0.0000
     44 ****         6.1003   1.0373   1.8699 H              1 S1                 0.0000
     45 ****         6.2996   0.5324   3.5490 H              1 S1                 0.0000
     46 ****         4.6882   0.7103   2.8808 H              1 S1                 0.0000
     47 ****         7.6454  -1.0039   1.2754 H              1 S1                 0.0000
     48 ****         7.1484  -2.5900   1.8793 H              1 S1                 0.0000
     49 ****         7.6911  -1.3552   3.0072 H              1 S1                 0.0000
     50 ****         2.9273  -2.4732  -0.4845 H              1 S1                 0.0000
     51 ****         2.7931  -0.7520  -0.7300 H              1 S1                 0.0000
     52 ****        -2.3161   2.1872  -2.1986 H              1 S1                 0.0000
     53 ****        -2.7572   3.1569  -4.3032 H              1 S1                 0.0000
     54 ****        -4.3050   3.9909  -4.4293 H              1 S1                 0.0000
     55 ****        -4.0907   2.3975  -5.1702 H              1 S1                 0.0000
     56 ****         5.3314  -1.5751   2.9752 H              1 S1                 0.0000
     57 ****         0.7307  -1.9931  -0.5860 H              1 S1                 0.0000
     58 ****        -6.2113   0.1856   1.0433 LP             1 S1                 0.0000
     59 ****        -0.7453  -1.4587  -1.4770 LP             1 S1                 0.0000
     60 ****        -0.6748   0.1550  -1.7169 LP             1 S1                 0.0000
     61 ****         3.3901  -3.2579   1.7321 LP             1 S1                 0.0000
     62 ****         3.6900  -2.2798   3.0049 LP             1 S1                 0.0000
@<TRIPOS>BOND
    1    1    2 1     
    2    1   26 1     
    3    1   27 1     
    4    1   28 1     
    5    2   24 ar    
    6    2    3 ar    
    7    3    4 ar    
    8    3   29 1     
    9    4   22 ar    
   10    4    5 1     
   11    5    6 2     
   12    6    7 1     
   13    6   30 1     
   14    7    8 1     
   15    7   22 1     
   16    8    9 1     
   17    8   31 1     
   18    8   32 1     
   19    9   10 1     
   20    9   11 1     
   21    9   33 1     
   22   10   34 1     
   23   11   12 1     
   24   11   35 1     
   25   11   36 1     
   26   12   21 1     
   27   12   13 1     
   28   12   57 1     
   29   13   14 1     
   30   13   37 1     
   31   13   38 1     
   32   14   15 1     
   33   14   39 1     
   34   14   40 1     
   35   15   16 1     
   36   16   17 1     
   37   16   21 1     
   38   16   41 1     
   39   17   18 1     
   40   17   42 1     
   41   17   43 1     
   42   18   19 1     
   43   18   20 1     
   44   18   56 1     
   45   19   44 1     
   46   19   45 1     
   47   19   46 1     
   48   20   47 1     
   49   20   48 1     
   50   20   49 1     
   51   21   50 1     
   52   21   51 1     
   53   22   23 ar    
   54   23   24 ar    
   55   23   52 1     
   56   24   25 1     
   57   25   53 1     
   58   25   54 1     
   59   25   55 1     
   60    5   58 1     
   61   10   59 1     
   62   10   60 1     
   63   15   61 1     
   64   15   62 1     
@<TRIPOS>SUBSTRUCTURE
      1 S1             1
@<TRIPOS>SET
LONE_PAIRS      STATIC     ATOMS    <user>   **** ""
5 58 59 60 61 62
DONOR_HYDROGENS      STATIC     ATOMS    <user>   **** ""
3 34 57 56
ATOM$BLUE        STATIC     ATOMS    COLORGROUP SYSTEM
5 58 59 60 61 62
ATOM$RED        STATIC     ATOMS    COLORGROUP SYSTEM
3 34 57 56
