#       Name:                AV-unprocessed.smi:1196
#       Creating user name   scv26
#       Creation time:       Fri Mar 27 04:01:03 2020


#       File generated by GOLD software.
#

@<TRIPOS>MOLECULE
AV-unprocessed.smi:1196
    44    45     1
SMALL
NO_CHARGES


@<TRIPOS>ATOM
      1 ****        -3.3125  -1.0223  -0.8846 C.3            1 S1                 0.0000
      2 ****        -2.6132  -0.1701   0.1861 C.3            1 S1                 0.0000
      3 ****        -3.1678  -0.4689   1.5923 C.3            1 S1                 0.0000
      4 ****        -2.6488   0.4429   2.5966 N.pl3          1 S1                 0.0000
      5 ****        -3.0847   1.7145   2.9035 C.2            1 S1                 0.0000
      6 ****        -2.2900   2.1849   3.9094 C.2            1 S1                 0.0000
      7 ****        -1.3838   1.1148   4.1521 C.2            1 S1                 0.0000
      8 ****        -1.6021   0.0728   3.3662 N.2            1 S1                 0.0000
      9 ****        -1.1722  -0.4121   0.1518 N.am           1 S1                 0.0000
     10 ****        -0.2962   0.2041  -0.6562 C.2            1 S1                 0.0000
     11 ****        -0.6234   1.0581  -1.4810 O.2            1 S1                 0.0000
     12 ****         1.1693  -0.2110  -0.5021 C.3            1 S1                 0.0000
     13 ****         1.9266  -0.2487  -1.8436 C.3            1 S1                 0.0000
     14 ****         3.3518  -0.8266  -1.7147 C.3            1 S1                 0.0000
     15 ****         4.2383   0.0869  -1.0148 N.pl3          1 S1                -1.0000
     16 ****         5.2767   0.3866  -1.8301 C.2            1 S1                 0.0000
     17 ****         6.2351   1.1172  -1.5894 O.2            1 S1                 0.0000
     18 ****         5.1473  -0.2323  -3.0080 N.am           1 S1                 0.0000
     19 ****         4.0397  -0.9650  -3.0590 C.2            1 S1                 0.0000
     20 ****         3.6306  -1.6374  -4.0044 O.2            1 S1                 0.0000
     21 ****        -4.3881  -0.8446  -0.8853 H              1 S1                 0.0000
     22 ****        -3.1511  -2.0869  -0.7121 H              1 S1                 0.0000
     23 ****        -2.9420  -0.7865  -1.8826 H              1 S1                 0.0000
     24 ****        -2.8068   0.8809  -0.0368 H              1 S1                 0.0000
     25 ****        -4.2546  -0.3777   1.5919 H              1 S1                 0.0000
     26 ****        -2.9432  -1.4954   1.8874 H              1 S1                 0.0000
     27 ****        -3.9134   2.1737   2.3848 H              1 S1                 0.0000
     28 ****        -2.3464   3.1470   4.3964 H              1 S1                 0.0000
     29 ****        -0.5800   1.0645   4.8717 H              1 S1                 0.0000
     30 ****        -0.8102  -1.0917   0.8053 H              1 S1                 0.0000
     31 ****         1.6534   0.4855   0.1832 H              1 S1                 0.0000
     32 ****         1.2156  -1.1945  -0.0320 H              1 S1                 0.0000
     33 ****         1.3588  -0.8588  -2.5485 H              1 S1                 0.0000
     34 ****         1.9673   0.7526  -2.2771 H              1 S1                 0.0000
     35 ****         3.3149  -1.8115  -1.2471 H              1 S1                 0.0000
     36 ****         5.8050  -0.1442  -3.7681 H              1 S1                 0.0000
     37 ****        -1.1040  -0.7941   3.3464 LP             1 S1                 0.0000
     38 ****        -1.5833   1.3230  -1.5725 LP             1 S1                 0.0000
     39 ****         0.0708   1.4866  -2.0593 LP             1 S1                 0.0000
     40 ****         4.1042   0.4355  -0.0872 LP             1 S1                 0.0000
     41 ****         6.3077   1.5703  -0.7009 LP             1 S1                 0.0000
     42 ****         6.9424   1.2586  -2.2821 LP             1 S1                 0.0000
     43 ****         2.7767  -2.1510  -3.9203 LP             1 S1                 0.0000
     44 ****         4.1520  -1.6705  -4.8571 LP             1 S1                 0.0000
@<TRIPOS>BOND
    1    1    2 1     
    2    1   21 1     
    3    1   22 1     
    4    1   23 1     
    5    2    3 1     
    6    2    9 1     
    7    2   24 1     
    8    3    4 1     
    9    3   25 1     
   10    3   26 1     
   11    4    8 1     
   12    4    5 1     
   13    5    6 2     
   14    5   27 1     
   15    6    7 1     
   16    6   28 1     
   17    7    8 2     
   18    7   29 1     
   19    9   10 am    
   20    9   30 1     
   21   10   11 2     
   22   10   12 1     
   23   12   13 1     
   24   12   31 1     
   25   12   32 1     
   26   13   14 1     
   27   13   33 1     
   28   13   34 1     
   29   14   19 1     
   30   14   15 1     
   31   14   35 1     
   32   15   16 1     
   33   16   17 2     
   34   16   18 am    
   35   18   19 am    
   36   18   36 1     
   37   19   20 2     
   38    8   37 1     
   39   11   38 1     
   40   11   39 1     
   41   15   40 1     
   42   17   41 1     
   43   17   42 1     
   44   20   43 1     
   45   20   44 1     
@<TRIPOS>SUBSTRUCTURE
      1 S1             1
@<TRIPOS>SET
LONE_PAIRS      STATIC     ATOMS    <user>   **** ""
8 37 38 39 40 41 42 43 44
DONOR_HYDROGENS      STATIC     ATOMS    <user>   **** ""
2 30 36
ATOM$BLUE        STATIC     ATOMS    COLORGROUP SYSTEM
8 37 38 39 40 41 42 43 44
ATOM$RED        STATIC     ATOMS    COLORGROUP SYSTEM
2 30 36
