AV-unprocessed.smi:2041|AV-procd|sdf|8291|dock3
  -GOLD-   2272010553D 1   1.00000     0.00000
 Structure written by MMmdl.
 31 32  0  0  0  0  0  0  0  0  1 V2000
  150.6265  140.5951  157.5984 O   0  0  0  0  0  0  0  0  0  0  0  0
  150.2066  141.6273  157.0744 C   0  0  0  0  0  0  0  0  0  0  0  0
  150.4004  142.8724  157.5436 N   0  0  0  0  0  0  0  0  0  0  0  0
  151.1050  143.2716  158.7095 C   0  0  0  0  0  0  0  0  0  0  0  0
  152.0460  142.5354  159.3124 N   0  0  0  0  0  0  0  0  0  0  0  0
  152.5714  143.1755  160.4378 C   0  0  0  0  0  0  0  0  0  0  0  0
  152.0145  144.4067  160.6790 C   0  0  0  0  0  0  0  0  0  0  0  0
  150.8016  144.8144  159.4949 S   0  0  0  0  0  0  0  0  0  0  0  0
  149.4840  141.6430  155.9448 N   0  0  0  0  0  0  0  0  0  0  0  0
  149.1052  140.4700  155.1551 C   0  0  1  0  0  0  0  0  0  0  0  0
  148.1699  140.8873  153.9978 C   0  0  0  0  0  0  0  0  0  0  0  0
  147.2954  139.7446  153.4572 C   0  0  0  0  0  0  0  0  0  0  0  0
  148.0730  138.5794  152.8276 C   0  0  0  0  0  0  0  0  0  0  0  0
  148.9460  137.8067  153.8311 C   0  0  0  0  0  0  0  0  0  0  0  0
  150.2002  138.4896  154.1238 N   0  0  0  0  0  0  0  0  0  0  0  0
  150.3544  139.6880  154.7073 C   0  0  0  0  0  0  0  0  0  0  0  0
  151.4786  140.1600  154.8758 O   0  0  0  0  0  0  0  0  0  0  0  0
  149.9944  143.6230  157.0046 H   0  0  0  0  0  0  0  0  0  0  0  0
  153.3413  142.6807  161.0113 H   0  0  0  0  0  0  0  0  0  0  0  0
  152.2441  145.0956  161.4783 H   0  0  0  0  0  0  0  0  0  0  0  0
  149.1866  142.5378  155.5835 H   0  0  0  0  0  0  0  0  0  0  0  0
  148.5537  139.8049  155.8225 H   0  0  0  0  0  0  0  0  0  0  0  0
  147.4962  141.6747  154.3387 H   0  0  0  0  0  0  0  0  0  0  0  0
  148.7508  141.3297  153.1871 H   0  0  0  0  0  0  0  0  0  0  0  0
  146.6572  139.3666  154.2570 H   0  0  0  0  0  0  0  0  0  0  0  0
  146.6186  140.1539  152.7066 H   0  0  0  0  0  0  0  0  0  0  0  0
  147.3488  137.8858  152.3992 H   0  0  0  0  0  0  0  0  0  0  0  0
  148.6774  138.9332  151.9912 H   0  0  0  0  0  0  0  0  0  0  0  0
  148.4003  137.6005  154.7530 H   0  0  0  0  0  0  0  0  0  0  0  0
  149.2039  136.8366  153.4059 H   0  0  0  0  0  0  0  0  0  0  0  0
  151.0423  138.0076  153.8440 H   0  0  0  0  0  0  0  0  0  0  0  0
  1  2  2  0  0  0  0
  2  3  1  0  0  0  0
  2  9  1  0  0  0  0
  3  4  1  0  0  0  0
  3 18  1  0  0  0  0
  4  8  1  0  0  0  0
  4  5  2  0  0  0  0
  5  6  1  0  0  0  0
  6  7  2  0  0  0  0
  6 19  1  0  0  0  0
  7  8  1  0  0  0  0
  7 20  1  0  0  0  0
  9 10  1  0  0  0  0
  9 21  1  0  0  0  0
 10 16  1  0  0  0  0
 10 11  1  0  0  0  0
 10 22  1  0  0  0  0
 11 12  1  0  0  0  0
 11 23  1  0  0  0  0
 11 24  1  0  0  0  0
 12 13  1  0  0  0  0
 12 25  1  0  0  0  0
 12 26  1  0  0  0  0
 13 14  1  0  0  0  0
 13 27  1  0  0  0  0
 13 28  1  0  0  0  0
 14 15  1  0  0  0  0
 14 29  1  0  0  0  0
 14 30  1  0  0  0  0
 15 16  1  0  0  0  0
 15 31  1  0  0  0  0
 16 17  2  0  0  0  0
M  END
> <s_m_source_file>
AV-unprocessed.smi

> <i_m_source_file_index>
2041

> <i_lp_mmshare_version>
43012

> <i_f3d_flags>
0

> <s_epik_input>
czFbY0hdW2NIXW5jMVtOSF1DKD1PKVtOSF1bQ0BASF0yW0NIMl1bQ0gyXVtDSDJdW0NIMl1bTkhdQzI9Tw==

> <s_epik_cmdline>
J2VwaWtfcHl0aG9uJywgJy1waCcsICc3LjAnLCAnLXRuJywgJzgnLCAnLW1hJywgJzIwMCcsICctbWV0YWxfYmluZGluZycsICctaW1hZScsICc8aW5maWxlLm1hZT4nLCAnLW9tYWUnLCAnPG91dGZpbGUubWFlPic=

> <r_lp_tautomer_probability>
1

> <r_epik_Ionization_Penalty>
0.000247973

> <r_epik_Ionization_Penalty_Charging>
0

> <r_epik_Ionization_Penalty_Neutral>
0.000247973

> <r_epik_State_Penalty>
-0

> <r_epik_Charging_Adjusted_Penalty>
0

> <i_epik_Tot_Q>
0

> <i_epik_Tot_abs_Q>
0

> <r_epik_Metal_State_Penalty>
0.011719

> <b_epik_Metal_Only>
0

> <s_lp_Force_Field>
OPLS_2005

> <r_lp_Energy>
8.61141

> <b_lp_Chiralities_Consistent>
1

> <s_lp_Variant>
AV-unprocessed.smi:2041-2

> <Gold.Version>
5.8.1

> <Gold.Id.Protein>
6NUR|6NUR_protein|mol2

> <Gold.PLP.Fitness>
40.7485

> <Gold.PLP.PLP>
-32.3267

> <Gold.PLP.part.hbond>
-3.5429

> <Gold.PLP.part.metal>
0.0000

> <Gold.PLP.part.buried>
-2.6853

> <Gold.PLP.part.nonpolar>
-26.8369

> <Gold.PLP.part.repulsive>
0.2709

> <Gold.PLP.ligand.clash>
0.0000

> <Gold.PLP.ligand.torsion>
0.1226

> <Gold.PLP.Chemscore.Hbond>
2.8800

> <Gold.PLP.Chemscore.CHOScore>
0.0000

> <Gold.PLP.Chemscore.Metal>
0.0000

> <Gold.Chemscore.Hbonds>
donor molecule, donor type, donor heavy atom, donor atom, acceptor molecule, acceptor atom, score
      L1  H     3    18       P1  8028  0.96
      L1  H     9    21       P1  8028  0.57
      P1  H  7989  7998       L1    17  0.95

> <Gold.PLP.Chemscore.Internal.Correction>
0.0270

> <Gold.Rescore>
     Score         DG    S(hbond)    S(metal)    S(lipo)     H(rot)  DE(clash)    DE(int)     intcor
     17.65     -19.94       2.87        0.00      63.64       1.00       0.10       2.19       ----

> <Gold.Chemscore.Fitness>
17.6497

> <Gold.Chemscore.DG>
-19.9396

> <Gold.Chemscore.ZeroCoef>
-5.4800

> <Gold.Chemscore.Hbond>
2.8663

> <Gold.Chemscore.Metal>
0.0000

> <Gold.Chemscore.Lipo>
63.6435

> <Gold.Chemscore.Internal_Hbond>
0.0000

> <Gold.Chemscore.DEClash>
0.1046

> <Gold.Chemscore.DEInternal>
2.1853

> <Gold.Chemscore.Rot>
1.0000

> <Gold.Chemscore.Internal.Correction>
   9.000000E+99

> <Gold.Chemscore.Hbonds>
donor molecule, donor type, donor heavy atom, donor atom, acceptor molecule, acceptor atom, score
      L1  H     3    18       P1  8028  0.90
      L1  H     9    21       P1  8028  0.57
      P1  H  7989  7998       L1    17  0.20

> <Gold.Chemscore.Hbond.Weighted>
-9.5733

> <Gold.Chemscore.Metal.Weighted>
-0.0000

> <Gold.Chemscore.Lipo.Weighted>
-7.4463

> <Gold.Chemscore.Internal_Hbond.Weighted>
0.0000

> <Gold.Chemscore.DEClash.Weighted>
0.1046

> <Gold.Chemscore.DEInternal.Weighted>
2.1853

> <Gold.Chemscore.Rot.Weighted>
2.5600

> <Gold.Chemscore.Internal.Correction.Weighted>
   9.000000E+99

> <Gold.Protein.RotatedTorsions>
[ 6907 6896 6895 6894 ] final  -16.99 input  -60.11 | X-H torsion
[ 7974 7965 7964 7962 ] final  -35.67 input  175.53 | X-H torsion
[ 8008 7997 7996 7995 ] final  107.17 input   59.86 | X-H torsion
[ 10167 10162 10161 10158 ] final   24.93 input  -65.29 | X-H torsion
[ 10718 10713 10712 10709 ] final  -98.09 input   66.30 | X-H torsion
[ 10763 10752 10751 10750 ] final -102.61 input  -60.55 | X-H torsion
[ 11005 11000 10999 10996 ] final -154.34 input  -57.11 | X-H torsion

> <Gold.Protein.ActiveResidues>
 VAL166  LYS551  ARG553  GLY616  TRP617  ASP618  TYR619  PRO620  LYS621  CYS622 
 ASP623  PHE694  ASN695  SER759  ASP760  ASP761  ALA762  ILE779  LEU786  VAL792 
 PHE793  MET794  SER795  GLU796  ALA797  LYS798  CYS799  TRP800  GLU811  SER814 

> <Gold.Protein.RotatedAtoms>
  151.3001  135.0766  159.9235 H   0  0  0  0  0  0  0  0  0  0  0  0  # atno 6907 bound_to 6896
  152.5299  133.9842  159.7831 H   0  0  0  0  0  0  0  0  0  0  0  0  # atno 6908 bound_to 6896
  151.0127  133.5899  159.2711 H   0  0  0  0  0  0  0  0  0  0  0  0  # atno 6909 bound_to 6896
  146.0726  140.6187  142.8945 H   0  0  0  0  0  0  0  0  0  0  0  0  # atno 7974 bound_to 7965
  156.1803  140.3099  155.9135 H   0  0  0  0  0  0  0  0  0  0  0  0  # atno 8008 bound_to 7997
  155.3399  140.0465  157.3061 H   0  0  0  0  0  0  0  0  0  0  0  0  # atno 8009 bound_to 7997
  154.5335  140.2238  155.8773 H   0  0  0  0  0  0  0  0  0  0  0  0  # atno 8010 bound_to 7997
  140.5147  144.0102  150.6389 H   0  0  0  0  0  0  0  0  0  0  0  0  # atno 10167 bound_to 10162
  156.0099  130.5223  150.6471 H   0  0  0  0  0  0  0  0  0  0  0  0  # atno 10718 bound_to 10713
  154.7747  135.4854  153.9719 H   0  0  0  0  0  0  0  0  0  0  0  0  # atno 10763 bound_to 10752
  153.1413  135.6773  153.9031 H   0  0  0  0  0  0  0  0  0  0  0  0  # atno 10764 bound_to 10752
  153.8704  135.3144  155.3420 H   0  0  0  0  0  0  0  0  0  0  0  0  # atno 10765 bound_to 10752
  140.6983  134.3965  157.5212 H   0  0  0  0  0  0  0  0  0  0  0  0  # atno 11005 bound_to 11000
  144.7241  140.4470  143.6986 LP  0  0  0  0  0  0  0  0  0  0  0  0  # atno 17320 bound_to 7965
  145.6363  139.1543  143.2941 LP  0  0  0  0  0  0  0  0  0  0  0  0  # atno 17321 bound_to 7965
  140.3434  143.3006  152.0564 LP  0  0  0  0  0  0  0  0  0  0  0  0  # atno 17342 bound_to 10162
  139.4906  144.6426  151.6845 LP  0  0  0  0  0  0  0  0  0  0  0  0  # atno 17343 bound_to 10162
  157.4240  131.0840  151.1103 LP  0  0  0  0  0  0  0  0  0  0  0  0  # atno 17370 bound_to 10713
  157.1696  130.6261  149.5636 LP  0  0  0  0  0  0  0  0  0  0  0  0  # atno 17371 bound_to 10713
  139.8904  134.8806  156.2373 LP  0  0  0  0  0  0  0  0  0  0  0  0  # atno 17394 bound_to 11000
  141.0184  133.7055  156.1227 LP  0  0  0  0  0  0  0  0  0  0  0  0  # atno 17395 bound_to 11000

$$$$
