AV-unprocessed.smi:110|AV-procd|sdf|1071|dock2
  -GOLD-   2262018153D 1   1.00000     0.00000
 Structure written by MMmdl.
 46 50  0  0  0  0  0  0  0  0  1 V2000
  146.0883  142.7195  156.6842 O   0  0  0  0  0  0  0  0  0  0  0  0
  146.1068  141.4185  156.1374 C   0  0  0  0  0  0  0  0  0  0  0  0
  146.1696  141.4988  154.5934 C   0  0  1  0  0  0  0  0  0  0  0  0
  147.3751  142.1314  154.1752 O   0  0  0  0  0  0  0  0  0  0  0  0
  148.4192  141.2089  154.0520 C   0  0  1  0  0  0  0  0  0  0  0  0
  149.3070  141.3167  155.2617 N   0  0  0  0  0  0  0  0  0  0  0  0
  149.1170  142.0678  156.4034 C   0  0  0  0  0  0  0  0  0  0  0  0
  150.0416  141.9478  157.3156 N   0  0  0  0  0  0  0  0  0  0  0  0
  150.9220  141.0114  156.7897 C   0  0  0  0  0  0  0  0  0  0  0  0
  152.1257  140.4049  157.2502 C   0  0  0  0  0  0  0  0  0  0  0  0
  152.7241  140.6846  158.4314 N   0  0  0  0  0  0  0  0  0  0  0  0
  153.4758  139.6307  159.1275 C   0  0  0  0  0  0  0  0  0  0  0  0
  153.6577  140.0789  160.5901 C   0  0  0  0  0  0  0  0  0  0  0  0
  153.0516  141.4448  160.5484 C   0  0  0  0  0  0  0  0  0  0  0  0
  152.9859  142.3801  161.5957 C   0  0  0  0  0  0  0  0  0  0  0  0
  152.3880  143.6313  161.3335 C   0  0  0  0  0  0  0  0  0  0  0  0
  151.8832  143.9263  160.0458 C   0  0  0  0  0  0  0  0  0  0  0  0
  151.9623  142.9717  159.0080 C   0  0  0  0  0  0  0  0  0  0  0  0
  152.5405  141.7153  159.2830 C   0  0  0  0  0  0  0  0  0  0  0  0
  152.6830  139.4422  156.4731 N   0  0  0  0  0  0  0  0  0  0  0  0
  152.1260  139.1196  155.3034 C   0  0  0  0  0  0  0  0  0  0  0  0
  151.0272  139.6206  154.7379 N   0  0  0  0  0  0  0  0  0  0  0  0
  150.4461  140.5767  155.5199 C   0  0  0  0  0  0  0  0  0  0  0  0
  147.7614  139.8155  153.9469 C   0  0  2  0  0  0  0  0  0  0  0  0
  148.1668  139.1304  152.7794 O   0  0  0  0  0  0  0  0  0  0  0  0
  146.2781  140.1554  153.8604 C   0  0  1  0  0  0  0  0  0  0  0  0
  145.4723  139.1445  154.4341 O   0  0  0  0  0  0  0  0  0  0  0  0
  145.3066  142.0544  154.2238 H   0  0  0  0  0  0  0  0  0  0  0  0
  149.0703  141.4703  153.2170 H   0  0  0  0  0  0  0  0  0  0  0  0
  147.9593  139.2189  154.8375 H   0  0  0  0  0  0  0  0  0  0  0  0
  145.9826  140.3029  152.8200 H   0  0  0  0  0  0  0  0  0  0  0  0
  145.5637  143.2730  156.1258 H   0  0  0  0  0  0  0  0  0  0  0  0
  146.9248  140.8419  156.5660 H   0  0  0  0  0  0  0  0  0  0  0  0
  145.1837  140.9365  156.4581 H   0  0  0  0  0  0  0  0  0  0  0  0
  148.2681  142.7198  156.5470 H   0  0  0  0  0  0  0  0  0  0  0  0
  152.9455  138.6788  159.0739 H   0  0  0  0  0  0  0  0  0  0  0  0
  154.4451  139.5004  158.6448 H   0  0  0  0  0  0  0  0  0  0  0  0
  153.1110  139.4405  161.2846 H   0  0  0  0  0  0  0  0  0  0  0  0
  154.7069  140.1203  160.8830 H   0  0  0  0  0  0  0  0  0  0  0  0
  153.3864  142.1501  162.5716 H   0  0  0  0  0  0  0  0  0  0  0  0
  152.3235  144.3706  162.1180 H   0  0  0  0  0  0  0  0  0  0  0  0
  151.4379  144.8910  159.8527 H   0  0  0  0  0  0  0  0  0  0  0  0
  151.5888  143.2100  158.0233 H   0  0  0  0  0  0  0  0  0  0  0  0
  152.6338  138.3519  154.7385 H   0  0  0  0  0  0  0  0  0  0  0  0
  148.5577  139.7531  152.1857 H   0  0  0  0  0  0  0  0  0  0  0  0
  145.1951  139.4352  155.2897 H   0  0  0  0  0  0  0  0  0  0  0  0
  1  2  1  0  0  0  0
  1 32  1  0  0  0  0
  2  3  1  0  0  0  0
  2 33  1  0  0  0  0
  2 34  1  0  0  0  0
  3 28  1  0  0  0  0
  3 26  1  0  0  0  0
  3  4  1  0  0  0  0
  4  5  1  0  0  0  0
  5 29  1  0  0  0  0
  5  6  1  0  0  0  0
  5 24  1  0  0  0  0
  6 23  1  0  0  0  0
  6  7  1  0  0  0  0
  7  8  2  0  0  0  0
  7 35  1  0  0  0  0
  8  9  1  0  0  0  0
  9 23  2  0  0  0  0
  9 10  1  0  0  0  0
 10 11  1  0  0  0  0
 10 20  2  0  0  0  0
 11 19  1  0  0  0  0
 11 12  1  0  0  0  0
 12 13  1  0  0  0  0
 12 36  1  0  0  0  0
 12 37  1  0  0  0  0
 13 14  1  0  0  0  0
 13 38  1  0  0  0  0
 13 39  1  0  0  0  0
 14 19  2  0  0  0  0
 14 15  1  0  0  0  0
 15 16  2  0  0  0  0
 15 40  1  0  0  0  0
 16 17  1  0  0  0  0
 16 41  1  0  0  0  0
 17 18  2  0  0  0  0
 17 42  1  0  0  0  0
 18 19  1  0  0  0  0
 18 43  1  0  0  0  0
 20 21  1  0  0  0  0
 21 22  2  0  0  0  0
 21 44  1  0  0  0  0
 22 23  1  0  0  0  0
 24 30  1  0  0  0  0
 24 25  1  0  0  0  0
 24 26  1  0  0  0  0
 25 45  1  0  0  0  0
 26 31  1  0  0  0  0
 26 27  1  0  0  0  0
 27 46  1  0  0  0  0
M  END
> <s_m_source_file>
AV-unprocessed.smi

> <i_m_source_file_index>
110

> <i_lp_mmshare_version>
43012

> <i_f3d_flags>
0

> <s_epik_input>
W09IXVtDSDJdW0NASF0xT1tDQEhdKFtDQEhdKFtPSF0pW0NAQEhdMVtPSF0pbihbY0hdbjIpYyhjMjMpbltjSF1uYzNOKFtDSDJdW0NIMl00KWMoYzQ1KVtjSF1bY0hdW2NIXVtjSF01

> <s_epik_cmdline>
J2VwaWtfcHl0aG9uJywgJy1waCcsICc3LjAnLCAnLXRuJywgJzgnLCAnLW1hJywgJzIwMCcsICctbWV0YWxfYmluZGluZycsICctaW1hZScsICc8aW5maWxlLm1hZT4nLCAnLW9tYWUnLCAnPG91dGZpbGUubWFlPic=

> <r_lp_tautomer_probability>
1

> <r_epik_Ionization_Penalty>
0.00068475

> <r_epik_Ionization_Penalty_Charging>
0

> <r_epik_Ionization_Penalty_Neutral>
0.00068475

> <r_epik_State_Penalty>
0.000417442

> <r_epik_Charging_Adjusted_Penalty>
0.000417442

> <i_epik_Tot_Q>
0

> <i_epik_Tot_abs_Q>
0

> <r_epik_Metal_State_Penalty>
-0

> <b_epik_Metal_Only>
0

> <s_epik_Chemistry_Notes>
This compound contains an acetal/aminal-like group ( X-CH(R)-Y where X, Y are N, S, or O) that may be acid/base labile, releasing an aldehyde.

> <s_lp_Force_Field>
OPLS_2005

> <r_lp_Energy>
59.87

> <b_lp_Chiralities_Consistent>
1

> <s_lp_Variant>
AV-unprocessed.smi:110-9

> <Gold.Version>
5.8.1

> <Gold.Id.Protein>
6NUR|6NUR_protein|mol2

> <Gold.PLP.Fitness>
60.3128

> <Gold.PLP.PLP>
-50.8057

> <Gold.PLP.part.hbond>
-3.8076

> <Gold.PLP.part.metal>
0.0000

> <Gold.PLP.part.buried>
-4.3641

> <Gold.PLP.part.nonpolar>
-43.4651

> <Gold.PLP.part.repulsive>
0.3207

> <Gold.PLP.ligand.clash>
0.0000

> <Gold.PLP.ligand.torsion>
0.3046

> <Gold.PLP.Chemscore.Hbond>
2.8500

> <Gold.PLP.Chemscore.CHOScore>
0.4759

> <Gold.PLP.Chemscore.Metal>
0.0000

> <Gold.Chemscore.Hbonds>
donor molecule, donor type, donor heavy atom, donor atom, acceptor molecule, acceptor atom, score
      L1  H    25    45       P1  7957  0.84
      P1  H  7989  7998       L1    22  0.65
      P1  H  7997  8009       L1    20  0.70
      L1  C     7    35       P1  8028  0.53

> <Gold.PLP.Chemscore.Internal.Correction>
0.1386

> <Gold.Rescore>
     Score         DG    S(hbond)    S(metal)    S(lipo)     H(rot)  DE(clash)    DE(int)     intcor
     12.05     -15.32       1.79        0.00     106.98       3.38       1.56       1.71       ----

> <Gold.Chemscore.Fitness>
12.0507

> <Gold.Chemscore.DG>
-15.3248

> <Gold.Chemscore.ZeroCoef>
-5.4800

> <Gold.Chemscore.Hbond>
1.7936

> <Gold.Chemscore.Metal>
0.0000

> <Gold.Chemscore.Lipo>
106.9771

> <Gold.Chemscore.Internal_Hbond>
0.0000

> <Gold.Chemscore.DEClash>
1.5592

> <Gold.Chemscore.DEInternal>
1.7149

> <Gold.Chemscore.Rot>
3.3837

> <Gold.Chemscore.Internal.Correction>
   9.000000E+99

> <Gold.Chemscore.Hbonds>
donor molecule, donor type, donor heavy atom, donor atom, acceptor molecule, acceptor atom, score
      L1  H    25    45       P1  7957  0.79
      P1  H  7989  7998       L1    22  0.03
      P1  H  7997  8009       L1    20  0.07

> <Gold.Chemscore.Hbond.Weighted>
-5.9906

> <Gold.Chemscore.Metal.Weighted>
-0.0000

> <Gold.Chemscore.Lipo.Weighted>
-12.5163

> <Gold.Chemscore.Internal_Hbond.Weighted>
0.0000

> <Gold.Chemscore.DEClash.Weighted>
1.5592

> <Gold.Chemscore.DEInternal.Weighted>
1.7149

> <Gold.Chemscore.Rot.Weighted>
8.6622

> <Gold.Chemscore.Internal.Correction.Weighted>
   9.000000E+99

> <Gold.Protein.RotatedTorsions>
[ 6907 6896 6895 6894 ] final   -2.61 input  -60.11 | X-H torsion
[ 7974 7965 7964 7962 ] final   19.68 input  175.53 | X-H torsion
[ 8008 7997 7996 7995 ] final  171.33 input   59.86 | X-H torsion
[ 10167 10162 10161 10158 ] final    6.28 input  -65.29 | X-H torsion
[ 10718 10713 10712 10709 ] final  -19.87 input   66.30 | X-H torsion
[ 10763 10752 10751 10750 ] final   55.46 input  -60.55 | X-H torsion
[ 11005 11000 10999 10996 ] final -169.88 input  -57.11 | X-H torsion

> <Gold.Protein.ActiveResidues>
 VAL166  LYS551  ARG553  GLY616  TRP617  ASP618  TYR619  PRO620  LYS621  CYS622 
 ASP623  PHE694  ASN695  SER759  ASP760  ASP761  ALA762  ILE779  LEU786  VAL792 
 PHE793  MET794  SER795  GLU796  ALA797  LYS798  CYS799  TRP800  GLU811  SER814 

> <Gold.Protein.RotatedAtoms>
  151.5272  135.1068  159.9893 H   0  0  0  0  0  0  0  0  0  0  0  0  # atno 6907 bound_to 6896
  152.4594  133.7787  159.6849 H   0  0  0  0  0  0  0  0  0  0  0  0  # atno 6908 bound_to 6896
  150.8551  133.7663  159.3037 H   0  0  0  0  0  0  0  0  0  0  0  0  # atno 6909 bound_to 6896
  146.2140  139.8279  142.8666 H   0  0  0  0  0  0  0  0  0  0  0  0  # atno 7974 bound_to 7965
  156.1281  140.1514  156.9106 H   0  0  0  0  0  0  0  0  0  0  0  0  # atno 8008 bound_to 7997
  154.4887  140.0857  156.7586 H   0  0  0  0  0  0  0  0  0  0  0  0  # atno 8009 bound_to 7997
  155.4306  140.3427  155.4282 H   0  0  0  0  0  0  0  0  0  0  0  0  # atno 8010 bound_to 7997
  140.6436  143.7714  150.7465 H   0  0  0  0  0  0  0  0  0  0  0  0  # atno 10167 bound_to 10162
  156.5397  130.4675  149.6505 H   0  0  0  0  0  0  0  0  0  0  0  0  # atno 10718 bound_to 10713
  152.9817  135.5710  154.5071 H   0  0  0  0  0  0  0  0  0  0  0  0  # atno 10763 bound_to 10752
  154.4581  135.2780  155.1735 H   0  0  0  0  0  0  0  0  0  0  0  0  # atno 10764 bound_to 10752
  154.3334  135.6244  153.5616 H   0  0  0  0  0  0  0  0  0  0  0  0  # atno 10765 bound_to 10752
  140.5257  134.5665  157.5061 H   0  0  0  0  0  0  0  0  0  0  0  0  # atno 11005 bound_to 11000
  145.3028  141.0199  143.3599 LP  0  0  0  0  0  0  0  0  0  0  0  0  # atno 17320 bound_to 7965
  144.8993  139.4670  143.6640 LP  0  0  0  0  0  0  0  0  0  0  0  0  # atno 17321 bound_to 7965
  140.1351  143.4491  152.2229 LP  0  0  0  0  0  0  0  0  0  0  0  0  # atno 17342 bound_to 10162
  139.5646  144.7427  151.4058 LP  0  0  0  0  0  0  0  0  0  0  0  0  # atno 17343 bound_to 10162
  156.2983  130.7162  151.2028 LP  0  0  0  0  0  0  0  0  0  0  0  0  # atno 17370 bound_to 10713
  157.7407  131.0513  150.5145 LP  0  0  0  0  0  0  0  0  0  0  0  0  # atno 17371 bound_to 10713
  139.9581  134.7499  156.0296 LP  0  0  0  0  0  0  0  0  0  0  0  0  # atno 17394 bound_to 11000
  141.1309  133.6587  156.3462 LP  0  0  0  0  0  0  0  0  0  0  0  0  # atno 17395 bound_to 11000

$$$$
