#       Name:                AV-unprocessed.smi:1144
#       Creating user name   scv26
#       Creation time:       Fri Mar 27 03:45:25 2020


#       File generated by GOLD software.
#

@<TRIPOS>MOLECULE
AV-unprocessed.smi:1144
    39    40     1
SMALL
NO_CHARGES


@<TRIPOS>ATOM
      1 ****        -4.4429   2.3189   0.9670 C.3            1 S1                 0.0000
      2 ****        -2.9978   2.3079   0.7995 N.3            1 S1                 0.0000
      3 ****        -2.5778   3.1664  -0.2997 C.3            1 S1                 0.0000
      4 ****        -1.0515   3.1427  -0.4856 C.3            1 S1                 0.0000
      5 ****        -0.6173   1.7995  -0.6759 O.3            1 S1                 0.0000
      6 ****        -0.9593   0.9393   0.4100 C.3            1 S1                 0.0000
      7 ****        -0.4423  -0.4703   0.0934 C.3            1 S1                 0.0000
      8 ****         1.0115  -0.5281   0.1202 N.pl3          1 S1                 0.0000
      9 ****         1.7473  -1.6721  -0.1226 C.ar           1 S1                 0.0000
     10 ****         1.0878  -2.8147  -0.3453 N.ar           1 S1                 0.0000
     11 ****         1.8317  -3.9167  -0.5804 C.ar           1 S1                 0.0000
     12 ****         3.2398  -3.8734  -0.5915 C.ar           1 S1                 0.0000
     13 ****         3.8292  -2.6134  -0.3437 C.ar           1 S1                 0.0000
     14 ****         5.3375  -2.4153  -0.3270 C.3            1 S1                 0.0000
     15 ****         5.9838  -3.5560  -0.5713 F              1 S1                 0.0000
     16 ****         5.6846  -1.5256  -1.2570 F              1 S1                 0.0000
     17 ****         5.7183  -1.9611   0.8671 F              1 S1                 0.0000
     18 ****         3.0728  -1.5157  -0.1093 N.ar           1 S1                 0.0000
     19 ****        -2.4910   0.9580   0.5865 C.3            1 S1                 0.0000
     20 ****        -4.8018   3.3312   1.1557 H              1 S1                 0.0000
     21 ****        -4.7381   1.6990   1.8140 H              1 S1                 0.0000
     22 ****        -4.9463   1.9401   0.0766 H              1 S1                 0.0000
     23 ****        -3.0583   2.8445  -1.2250 H              1 S1                 0.0000
     24 ****        -2.9061   4.1902  -0.1173 H              1 S1                 0.0000
     25 ****        -0.7655   3.7375  -1.3531 H              1 S1                 0.0000
     26 ****        -0.5488   3.5757   0.3806 H              1 S1                 0.0000
     27 ****        -0.4874   1.3025   1.3253 H              1 S1                 0.0000
     28 ****        -0.8266  -1.1757   0.8312 H              1 S1                 0.0000
     29 ****        -0.8048  -0.7961  -0.8823 H              1 S1                 0.0000
     30 ****         1.5221   0.3307   0.2653 H              1 S1                 0.0000
     31 ****         1.3002  -4.8393  -0.7611 H              1 S1                 0.0000
     32 ****         3.8267  -4.7598  -0.7806 H              1 S1                 0.0000
     33 ****        -2.7669   0.3255   1.4312 H              1 S1                 0.0000
     34 ****        -2.9627   0.5222  -0.2957 H              1 S1                 0.0000
     35 ****        -2.6110   2.6643   1.6500 LP             1 S1                 0.0000
     36 ****         0.3772   1.7988  -0.7810 LP             1 S1                 0.0000
     37 ****        -1.0408   1.4436  -1.5089 LP             1 S1                 0.0000
     38 ****         0.0885  -2.8509  -0.3379 LP             1 S1                 0.0000
     39 ****         3.4899  -0.6240   0.0667 LP             1 S1                 0.0000
@<TRIPOS>BOND
    1    1    2 1     
    2    1   20 1     
    3    1   21 1     
    4    1   22 1     
    5    2   19 1     
    6    2    3 1     
    7    3    4 1     
    8    3   23 1     
    9    3   24 1     
   10    4    5 1     
   11    4   25 1     
   12    4   26 1     
   13    5    6 1     
   14    6    7 1     
   15    6   19 1     
   16    6   27 1     
   17    7    8 1     
   18    7   28 1     
   19    7   29 1     
   20    8    9 1     
   21    8   30 1     
   22    9   18 ar    
   23    9   10 ar    
   24   10   11 ar    
   25   11   12 ar    
   26   11   31 1     
   27   12   13 ar    
   28   12   32 1     
   29   13   14 1     
   30   13   18 ar    
   31   14   15 1     
   32   14   16 1     
   33   14   17 1     
   34   19   33 1     
   35   19   34 1     
   36    2   35 1     
   37    5   36 1     
   38    5   37 1     
   39   10   38 1     
   40   18   39 1     
@<TRIPOS>SUBSTRUCTURE
      1 S1             1
@<TRIPOS>SET
LONE_PAIRS      STATIC     ATOMS    <user>   **** ""
5 35 36 37 38 39
DONOR_HYDROGENS      STATIC     ATOMS    <user>   **** ""
1 30
ATOM$BLUE        STATIC     ATOMS    COLORGROUP SYSTEM
5 35 36 37 38 39
ATOM$RED        STATIC     ATOMS    COLORGROUP SYSTEM
1 30
