AV-unprocessed.smi:1622|AV-procd|sdf|6499|dock6
  -GOLD-   22720 7163D 1   1.00000     0.00000
 Structure written by MMmdl.
 40 41  0  0  0  0  0  0  0  0  3 V2000
  149.7557  141.5736  155.1513 C   0  0  0  0  0  0  0  0  0  0  0  0
  149.8230  141.4691  156.6830 C   0  0  0  0  0  0  0  0  0  0  0  0
  151.0688  142.1398  157.3243 C   0  0  2  0  0  0  0  0  0  0  0  0
  151.6207  141.3328  158.5259 C   0  0  0  0  0  0  0  0  0  0  0  0
  152.6448  140.3802  158.1148 N   0  0  0  0  0  0  0  0  0  0  0  0
  152.6304  139.0666  158.3734 C   0  0  0  0  0  0  0  0  0  0  0  0
  151.7028  138.5780  159.0223 O   0  0  0  0  0  0  0  0  0  0  0  0
  153.6902  138.4026  157.8605 N   0  5  0  0  0  0  0  0  0  0  0  0
  154.0345  137.2024  158.3562 C   0  0  0  0  0  0  0  0  0  0  0  0
  153.3396  136.6015  159.3325 N   0  0  0  0  0  0  0  0  0  0  0  0
  153.8681  135.3721  159.6992 N   0  0  0  0  0  0  0  0  0  0  0  0
  154.9631  135.0664  158.9990 C   0  0  0  0  0  0  0  0  0  0  0  0
  155.7216  133.8000  159.2037 C   0  0  0  0  0  0  0  0  0  0  0  0
  155.4381  136.2786  157.8215 S   0  0  0  0  0  0  0  0  0  0  0  0
  150.7897  143.5585  157.6946 N   0  3  0  0  0  0  0  0  0  0  0  0
  149.9116  143.7602  158.8675 C   0  0  0  0  0  0  0  0  0  0  0  0
  150.1701  145.1953  159.3113 C   0  0  0  0  0  0  0  0  0  0  0  0
  151.6650  145.3658  159.0680 C   0  0  0  0  0  0  0  0  0  0  0  0
  151.9885  144.4077  157.9130 C   0  0  0  0  0  0  0  0  0  0  0  0
  148.8759  141.0541  154.7712 H   0  0  0  0  0  0  0  0  0  0  0  0
  150.6308  141.1265  154.6802 H   0  0  0  0  0  0  0  0  0  0  0  0
  149.6867  142.6104  154.8219 H   0  0  0  0  0  0  0  0  0  0  0  0
  148.9153  141.9056  157.1005 H   0  0  0  0  0  0  0  0  0  0  0  0
  149.7724  140.4177  156.9640 H   0  0  0  0  0  0  0  0  0  0  0  0
  151.8526  142.1595  156.5652 H   0  0  0  0  0  0  0  0  0  0  0  0
  152.0795  141.9931  159.2620 H   0  0  0  0  0  0  0  0  0  0  0  0
  150.8068  140.8133  159.0344 H   0  0  0  0  0  0  0  0  0  0  0  0
  153.4247  140.7402  157.5844 H   0  0  0  0  0  0  0  0  0  0  0  0
  156.1368  133.7718  160.2112 H   0  0  0  0  0  0  0  0  0  0  0  0
  156.5392  133.7263  158.4864 H   0  0  0  0  0  0  0  0  0  0  0  0
  155.0619  132.9423  159.0705 H   0  0  0  0  0  0  0  0  0  0  0  0
  148.8613  143.5927  158.6268 H   0  0  0  0  0  0  0  0  0  0  0  0
  150.1958  143.0708  159.6646 H   0  0  0  0  0  0  0  0  0  0  0  0
  149.6099  145.8854  158.6790 H   0  0  0  0  0  0  0  0  0  0  0  0
  149.8841  145.3780  160.3476 H   0  0  0  0  0  0  0  0  0  0  0  0
  151.9347  146.3984  158.8453 H   0  0  0  0  0  0  0  0  0  0  0  0
  152.2173  145.0650  159.9592 H   0  0  0  0  0  0  0  0  0  0  0  0
  152.8644  143.8106  158.1705 H   0  0  0  0  0  0  0  0  0  0  0  0
  152.2151  144.9521  156.9957 H   0  0  0  0  0  0  0  0  0  0  0  0
  150.2968  143.9697  156.9147 H   0  0  0  0  0  0  0  0  0  0  0  0
  1  2  1  0  0  0  0
  1 20  1  0  0  0  0
  1 21  1  0  0  0  0
  1 22  1  0  0  0  0
  2  3  1  0  0  0  0
  2 23  1  0  0  0  0
  2 24  1  0  0  0  0
  3  4  1  0  0  0  0
  3 15  1  0  0  0  0
  3 25  1  0  0  0  0
  4  5  1  0  0  0  0
  4 26  1  0  0  0  0
  4 27  1  0  0  0  0
  5  6  1  0  0  0  0
  5 28  1  0  0  0  0
  6  7  2  0  0  0  0
  6  8  1  0  0  0  0
  8  9  1  0  0  0  0
  9 14  1  0  0  0  0
  9 10  2  0  0  0  0
 10 11  1  0  0  0  0
 11 12  2  0  0  0  0
 12 13  1  0  0  0  0
 12 14  1  0  0  0  0
 13 29  1  0  0  0  0
 13 30  1  0  0  0  0
 13 31  1  0  0  0  0
 15 19  1  0  0  0  0
 15 16  1  0  0  0  0
 15 40  1  0  0  0  0
 16 17  1  0  0  0  0
 16 32  1  0  0  0  0
 16 33  1  0  0  0  0
 17 18  1  0  0  0  0
 17 34  1  0  0  0  0
 17 35  1  0  0  0  0
 18 19  1  0  0  0  0
 18 36  1  0  0  0  0
 18 37  1  0  0  0  0
 19 38  1  0  0  0  0
 19 39  1  0  0  0  0
M  CHG  1   8  -1
M  CHG  1  15   1
M  END
> <s_m_source_file>
AV-unprocessed.smi

> <i_m_source_file_index>
1622

> <i_lp_mmshare_version>
43012

> <i_f3d_flags>
0

> <s_epik_input>
W0NIMl0xW0NIMl1bQ0gyXVtDSDJdTjFbQ0BIXShbQ0gyXVtDSDNdKVtDSDJdW05IXUMoPU8pW05IXWMybm5jKHMyKVtDSDNd

> <s_epik_cmdline>
J2VwaWtfcHl0aG9uJywgJy1waCcsICc3LjAnLCAnLXRuJywgJzgnLCAnLW1hJywgJzIwMCcsICctbWV0YWxfYmluZGluZycsICctaW1hZScsICc8aW5maWxlLm1hZT4nLCAnLW9tYWUnLCAnPG91dGZpbGUubWFlPic=

> <r_lp_tautomer_probability>
1

> <r_epik_Ionization_Penalty>
4.34497

> <r_epik_Ionization_Penalty_Charging>
4.23453

> <r_epik_Ionization_Penalty_Neutral>
0.110433

> <r_epik_State_Penalty>
4.23293

> <r_epik_Charging_Adjusted_Penalty>
8.46746

> <i_epik_Tot_Q>
0

> <i_epik_Tot_abs_Q>
2

> <r_epik_Metal_State_Penalty>
0.701092

> <b_epik_Metal_Only>
1

> <s_lp_Force_Field>
OPLS_2005

> <r_lp_Energy>
26.4527

> <b_lp_Chiralities_Consistent>
1

> <s_lp_Variant>
AV-unprocessed.smi:1622-3

> <Gold.Version>
5.8.1

> <Gold.Id.Protein>
6NUR|6NUR_protein|mol2

> <Gold.PLP.Fitness>
42.0964

> <Gold.PLP.PLP>
-29.5049

> <Gold.PLP.part.hbond>
-3.5910

> <Gold.PLP.part.metal>
0.0000

> <Gold.PLP.part.buried>
-4.2215

> <Gold.PLP.part.nonpolar>
-22.2508

> <Gold.PLP.part.repulsive>
0.3952

> <Gold.PLP.ligand.clash>
0.0000

> <Gold.PLP.ligand.torsion>
1.1955

> <Gold.PLP.Chemscore.Hbond>
4.9000

> <Gold.PLP.Chemscore.CHOScore>
0.0000

> <Gold.PLP.Chemscore.Metal>
0.0000

> <Gold.Chemscore.Hbonds>
donor molecule, donor type, donor heavy atom, donor atom, acceptor molecule, acceptor atom, score
      L1  H    15    40       P1  8028  2.00
      P1  H  6896  6909       L1    11  1.00
      P1  H  7997  8010       L1     8  1.70

> <Gold.PLP.Chemscore.Internal.Correction>
0.2826

> <Gold.Rescore>
     Score         DG    S(hbond)    S(metal)    S(lipo)     H(rot)  DE(clash)    DE(int)     intcor
     13.38     -16.64       2.06        0.00      74.46       1.73       0.48       2.78       ----

> <Gold.Chemscore.Fitness>
13.3800

> <Gold.Chemscore.DG>
-16.6428

> <Gold.Chemscore.ZeroCoef>
-5.4800

> <Gold.Chemscore.Hbond>
2.0635

> <Gold.Chemscore.Metal>
0.0000

> <Gold.Chemscore.Lipo>
74.4588

> <Gold.Chemscore.Internal_Hbond>
0.0000

> <Gold.Chemscore.DEClash>
0.4784

> <Gold.Chemscore.DEInternal>
2.7845

> <Gold.Chemscore.Rot>
1.7348

> <Gold.Chemscore.Internal.Correction>
   9.000000E+99

> <Gold.Chemscore.Hbonds>
donor molecule, donor type, donor heavy atom, donor atom, acceptor molecule, acceptor atom, score
      L1  H    15    40       P1  8028  0.94
      P1  H  6896  6909       L1    11  0.39
      P1  H  7997  8010       L1     8  0.13

> <Gold.Chemscore.Hbond.Weighted>
-6.8923

> <Gold.Chemscore.Metal.Weighted>
-0.0000

> <Gold.Chemscore.Lipo.Weighted>
-8.7117

> <Gold.Chemscore.Internal_Hbond.Weighted>
0.0000

> <Gold.Chemscore.DEClash.Weighted>
0.4784

> <Gold.Chemscore.DEInternal.Weighted>
2.7845

> <Gold.Chemscore.Rot.Weighted>
4.4411

> <Gold.Chemscore.Internal.Correction.Weighted>
   9.000000E+99

> <Gold.Protein.RotatedTorsions>
[ 6907 6896 6895 6894 ] final -165.67 input  -60.11 | X-H torsion
[ 7974 7965 7964 7962 ] final -168.57 input  175.53 | X-H torsion
[ 8008 7997 7996 7995 ] final   33.07 input   59.86 | X-H torsion
[ 10167 10162 10161 10158 ] final  159.71 input  -65.29 | X-H torsion
[ 10718 10713 10712 10709 ] final   -1.31 input   66.30 | X-H torsion
[ 10763 10752 10751 10750 ] final   29.42 input  -60.55 | X-H torsion
[ 11005 11000 10999 10996 ] final   -6.69 input  -57.11 | X-H torsion

> <Gold.Protein.ActiveResidues>
 VAL166  LYS551  ARG553  GLY616  TRP617  ASP618  TYR619  PRO620  LYS621  CYS622 
 ASP623  PHE694  ASN695  SER759  ASP760  ASP761  ALA762  ILE779  LEU786  VAL792 
 PHE793  MET794  SER795  GLU796  ALA797  LYS798  CYS799  TRP800  GLU811  SER814 

> <Gold.Protein.RotatedAtoms>
  151.4313  133.3669  159.2768 H   0  0  0  0  0  0  0  0  0  0  0  0  # atno 6907 bound_to 6896
  150.9223  134.8642  159.7508 H   0  0  0  0  0  0  0  0  0  0  0  0  # atno 6908 bound_to 6896
  152.4988  134.4252  159.9546 H   0  0  0  0  0  0  0  0  0  0  0  0  # atno 6909 bound_to 6896
  144.7201  140.2351  143.6299 H   0  0  0  0  0  0  0  0  0  0  0  0  # atno 7974 bound_to 7965
  155.1326  140.3258  155.4470 H   0  0  0  0  0  0  0  0  0  0  0  0  # atno 8008 bound_to 7997
  156.2629  140.2007  156.6394 H   0  0  0  0  0  0  0  0  0  0  0  0  # atno 8009 bound_to 7997
  154.6601  140.0548  157.0039 H   0  0  0  0  0  0  0  0  0  0  0  0  # atno 8010 bound_to 7997
  139.4834  144.4703  151.8585 H   0  0  0  0  0  0  0  0  0  0  0  0  # atno 10167 bound_to 10162
  156.8076  130.5413  149.5713 H   0  0  0  0  0  0  0  0  0  0  0  0  # atno 10718 bound_to 10713
  153.0431  135.6489  154.0888 H   0  0  0  0  0  0  0  0  0  0  0  0  # atno 10763 bound_to 10752
  154.0591  135.2889  155.3329 H   0  0  0  0  0  0  0  0  0  0  0  0  # atno 10764 bound_to 10752
  154.6670  135.5370  153.8154 H   0  0  0  0  0  0  0  0  0  0  0  0  # atno 10765 bound_to 10752
  140.7047  133.8959  155.8708 H   0  0  0  0  0  0  0  0  0  0  0  0  # atno 11005 bound_to 11000
  145.8374  139.2114  143.1847 LP  0  0  0  0  0  0  0  0  0  0  0  0  # atno 17320 bound_to 7965
  146.0377  140.8196  142.9844 LP  0  0  0  0  0  0  0  0  0  0  0  0  # atno 17321 bound_to 7965
  140.4172  144.2291  150.5887 LP  0  0  0  0  0  0  0  0  0  0  0  0  # atno 17342 bound_to 10162
  140.4909  143.2348  151.8819 LP  0  0  0  0  0  0  0  0  0  0  0  0  # atno 17343 bound_to 10162
  156.1064  130.6007  150.9977 LP  0  0  0  0  0  0  0  0  0  0  0  0  # atno 17370 bound_to 10713
  157.6522  131.0895  150.8025 LP  0  0  0  0  0  0  0  0  0  0  0  0  # atno 17371 bound_to 10713
  141.0134  134.0989  157.4197 LP  0  0  0  0  0  0  0  0  0  0  0  0  # atno 17394 bound_to 11000
  139.8887  135.0100  156.6637 LP  0  0  0  0  0  0  0  0  0  0  0  0  # atno 17395 bound_to 11000

$$$$
