#       Name:                AV-unprocessed.smi:1813
#       Creating user name   scv26
#       Creation time:       Fri Mar 27 09:00:24 2020


#       File generated by GOLD software.
#

@<TRIPOS>MOLECULE
AV-unprocessed.smi:1813
    45    46     1
SMALL
NO_CHARGES


@<TRIPOS>ATOM
      1 ****        -4.2319   3.8170   2.3519 C.3            1 S1                 0.0000
      2 ****        -3.8234   2.5073   1.8689 N.am           1 S1                 0.0000
      3 ****        -4.1586   2.0046   0.6718 C.2            1 S1                 0.0000
      4 ****        -4.8590   2.6051  -0.1427 O.2            1 S1                 0.0000
      5 ****        -3.6282   0.6040   0.3438 C.3            1 S1                 0.0000
      6 ****        -2.1533   0.4740   0.3873 N.3            1 S1                 0.0000
      7 ****        -1.4829   1.3355  -0.5984 C.3            1 S1                 0.0000
      8 ****         0.0461   1.2199  -0.4672 C.3            1 S1                 0.0000
      9 ****         0.5124  -0.2314  -0.6452 C.3            1 S1                 0.0000
     10 ****         1.9496  -0.3246  -0.4037 N.am           1 S1                 0.0000
     11 ****         2.7644  -1.2899  -0.8534 C.2            1 S1                 0.0000
     12 ****         2.3104  -2.2108  -1.5369 O.2            1 S1                 0.0000
     13 ****         4.0550  -1.1279  -0.4827 N.pl3          1 S1                -1.0000
     14 ****         4.9807  -2.0243  -0.8610 C.2            1 S1                 0.0000
     15 ****         5.4326  -2.9909  -0.0538 N.2            1 S1                 0.0000
     16 ****         6.3969  -3.8061  -0.6492 C.2            1 S1                 0.0000
     17 ****         6.6938  -3.4456  -1.9368 C.2            1 S1                 0.0000
     18 ****         5.7642  -2.0639  -2.4432 S.3            1 S1                 0.0000
     19 ****        -0.2696  -1.1274   0.3288 C.3            1 S1                 0.0000
     20 ****        -1.7863  -0.9288   0.1660 C.3            1 S1                 0.0000
     21 ****        -3.8303   3.9864   3.3508 H              1 S1                 0.0000
     22 ****        -5.3189   3.8904   2.4038 H              1 S1                 0.0000
     23 ****        -3.8597   4.6056   1.6965 H              1 S1                 0.0000
     24 ****        -3.2392   1.9494   2.4751 H              1 S1                 0.0000
     25 ****        -4.0755  -0.0854   1.0613 H              1 S1                 0.0000
     26 ****        -3.9946   0.3069  -0.6407 H              1 S1                 0.0000
     27 ****        -1.7975   1.0671  -1.6086 H              1 S1                 0.0000
     28 ****        -1.7542   2.3808  -0.4518 H              1 S1                 0.0000
     29 ****         0.5285   1.8592  -1.2075 H              1 S1                 0.0000
     30 ****         0.3539   1.5936   0.5109 H              1 S1                 0.0000
     31 ****         0.2965  -0.5386  -1.6703 H              1 S1                 0.0000
     32 ****         2.3658   0.4068   0.1538 H              1 S1                 0.0000
     33 ****         6.8207  -4.6205  -0.0808 H              1 S1                 0.0000
     34 ****         7.3980  -3.9041  -2.6142 H              1 S1                 0.0000
     35 ****        -0.0179  -2.1752   0.1610 H              1 S1                 0.0000
     36 ****         0.0185  -0.9019   1.3568 H              1 S1                 0.0000
     37 ****        -2.3021  -1.5642   0.8873 H              1 S1                 0.0000
     38 ****        -2.1044  -1.2534  -0.8265 H              1 S1                 0.0000
     39 ****        -5.2091   3.5163   0.0746 LP             1 S1                 0.0000
     40 ****        -5.0781   2.1819  -1.0219 LP             1 S1                 0.0000
     41 ****        -1.8457   0.7743   1.2902 LP             1 S1                 0.0000
     42 ****         1.3349  -2.2373  -1.7555 LP             1 S1                 0.0000
     43 ****         2.9178  -2.9308  -1.8725 LP             1 S1                 0.0000
     44 ****         4.3201  -0.3402   0.0734 LP             1 S1                 0.0000
     45 ****         5.1109  -3.1171   0.8846 LP             1 S1                 0.0000
@<TRIPOS>BOND
    1    1    2 1     
    2    1   21 1     
    3    1   22 1     
    4    1   23 1     
    5    2    3 am    
    6    2   24 1     
    7    3    4 2     
    8    3    5 1     
    9    5    6 1     
   10    5   25 1     
   11    5   26 1     
   12    6   20 1     
   13    6    7 1     
   14    7    8 1     
   15    7   27 1     
   16    7   28 1     
   17    8    9 1     
   18    8   29 1     
   19    8   30 1     
   20    9   10 1     
   21    9   19 1     
   22    9   31 1     
   23   10   11 am    
   24   10   32 1     
   25   11   12 2     
   26   11   13 1     
   27   13   14 1     
   28   14   18 1     
   29   14   15 2     
   30   15   16 1     
   31   16   17 2     
   32   16   33 1     
   33   17   18 1     
   34   17   34 1     
   35   19   20 1     
   36   19   35 1     
   37   19   36 1     
   38   20   37 1     
   39   20   38 1     
   40    4   39 1     
   41    4   40 1     
   42    6   41 1     
   43   12   42 1     
   44   12   43 1     
   45   13   44 1     
   46   15   45 1     
@<TRIPOS>SUBSTRUCTURE
      1 S1             1
@<TRIPOS>SET
LONE_PAIRS      STATIC     ATOMS    <user>   **** ""
7 39 40 41 42 43 44 45
DONOR_HYDROGENS      STATIC     ATOMS    <user>   **** ""
2 24 32
ATOM$BLUE        STATIC     ATOMS    COLORGROUP SYSTEM
7 39 40 41 42 43 44 45
ATOM$RED        STATIC     ATOMS    COLORGROUP SYSTEM
2 24 32
