AV-unprocessed.smi:1956|AV-procd|sdf|7901|dock1
  -GOLD-   2272010 53D 1   1.00000     0.00000
 Structure written by MMmdl.
 46 47  0  0  0  0  0  0  0  0  2 V2000
  151.9505  142.3988  159.1470 C   0  0  0  0  0  0  0  0  0  0  0  0
  152.4272  141.1932  158.5590 O   0  0  0  0  0  0  0  0  0  0  0  0
  151.7531  140.6858  157.4670 C   0  0  0  0  0  0  0  0  0  0  0  0
  150.4602  141.1710  157.1877 C   0  0  0  0  0  0  0  0  0  0  0  0
  149.7689  140.6573  156.0743 C   0  0  0  0  0  0  0  0  0  0  0  0
  150.3910  139.6837  155.2671 C   0  0  0  0  0  0  0  0  0  0  0  0
  149.6632  139.1692  154.1600 N   0  0  0  0  0  0  0  0  0  0  0  0
  148.3509  139.2898  153.8956 C   0  0  0  0  0  0  0  0  0  0  0  0
  147.5262  139.8497  154.6179 O   0  0  0  0  0  0  0  0  0  0  0  0
  148.0306  138.6947  152.7378 N   0  0  0  0  0  0  0  0  0  0  0  0
  146.6885  138.6479  152.1687 C   0  0  0  0  0  0  0  0  0  0  0  0
  145.8009  137.6198  152.8967 C   0  0  0  0  0  0  0  0  0  0  0  0
  146.1170  136.2221  152.5081 N   0  3  2  0  0  0  0  0  0  0  0  0
  145.5252  135.8570  151.1948 C   0  0  0  0  0  0  0  0  0  0  0  0
  145.9952  134.4660  150.7406 C   0  0  0  0  0  0  0  0  0  0  0  0
  145.6804  133.4032  151.8027 C   0  0  0  0  0  0  0  0  0  0  0  0
  146.2391  133.8065  153.1798 C   0  0  1  0  0  0  0  0  0  0  0  0
  147.7677  133.6563  153.2716 C   0  0  0  0  0  0  0  0  0  0  0  0
  145.7704  135.2264  153.5589 C   0  0  0  0  0  0  0  0  0  0  0  0
  151.6878  139.2513  155.6384 C   0  0  0  0  0  0  0  0  0  0  0  0
  152.3547  139.7383  156.7063 N   0  0  0  0  0  0  0  0  0  0  0  0
  152.5823  142.6606  159.9957 H   0  0  0  0  0  0  0  0  0  0  0  0
  150.9303  142.2877  159.5170 H   0  0  0  0  0  0  0  0  0  0  0  0
  151.9867  143.2280  158.4393 H   0  0  0  0  0  0  0  0  0  0  0  0
  150.0066  141.9225  157.8167 H   0  0  0  0  0  0  0  0  0  0  0  0
  148.7751  141.0125  155.8431 H   0  0  0  0  0  0  0  0  0  0  0  0
  150.1979  138.6042  153.5166 H   0  0  0  0  0  0  0  0  0  0  0  0
  148.7684  138.2533  152.2081 H   0  0  0  0  0  0  0  0  0  0  0  0
  146.2336  139.6395  152.2049 H   0  0  0  0  0  0  0  0  0  0  0  0
  146.7951  138.3950  151.1145 H   0  0  0  0  0  0  0  0  0  0  0  0
  145.8842  137.7316  153.9788 H   0  0  0  0  0  0  0  0  0  0  0  0
  144.7599  137.8283  152.6458 H   0  0  0  0  0  0  0  0  0  0  0  0
  144.4366  135.8835  151.2646 H   0  0  0  0  0  0  0  0  0  0  0  0
  145.8127  136.5913  150.4413 H   0  0  0  0  0  0  0  0  0  0  0  0
  145.5135  134.2014  149.7987 H   0  0  0  0  0  0  0  0  0  0  0  0
  147.0666  134.4866  150.5385 H   0  0  0  0  0  0  0  0  0  0  0  0
  144.5986  133.2838  151.8756 H   0  0  0  0  0  0  0  0  0  0  0  0
  146.0739  132.4330  151.4975 H   0  0  0  0  0  0  0  0  0  0  0  0
  145.8194  133.1178  153.9141 H   0  0  0  0  0  0  0  0  0  0  0  0
  148.2858  134.3228  152.5822 H   0  0  0  0  0  0  0  0  0  0  0  0
  148.0756  132.6362  153.0411 H   0  0  0  0  0  0  0  0  0  0  0  0
  148.1226  133.8850  154.2770 H   0  0  0  0  0  0  0  0  0  0  0  0
  146.2125  135.5043  154.5150 H   0  0  0  0  0  0  0  0  0  0  0  0
  144.6894  135.2298  153.7076 H   0  0  0  0  0  0  0  0  0  0  0  0
  152.2126  138.4826  155.0931 H   0  0  0  0  0  0  0  0  0  0  0  0
  147.1186  136.1828  152.3831 H   0  0  0  0  0  0  0  0  0  0  0  0
  1  2  1  0  0  0  0
  1 22  1  0  0  0  0
  1 23  1  0  0  0  0
  1 24  1  0  0  0  0
  2  3  1  0  0  0  0
  3 21  1  0  0  0  0
  3  4  2  0  0  0  0
  4  5  1  0  0  0  0
  4 25  1  0  0  0  0
  5  6  2  0  0  0  0
  5 26  1  0  0  0  0
  6  7  1  0  0  0  0
  6 20  1  0  0  0  0
  7  8  1  0  0  0  0
  7 27  1  0  0  0  0
  8  9  2  0  0  0  0
  8 10  1  0  0  0  0
 10 11  1  0  0  0  0
 10 28  1  0  0  0  0
 11 12  1  0  0  0  0
 11 29  1  0  0  0  0
 11 30  1  0  0  0  0
 12 13  1  0  0  0  0
 12 31  1  0  0  0  0
 12 32  1  0  0  0  0
 13 19  1  0  0  0  0
 13 14  1  0  0  0  0
 13 46  1  0  0  0  0
 14 15  1  0  0  0  0
 14 33  1  0  0  0  0
 14 34  1  0  0  0  0
 15 16  1  0  0  0  0
 15 35  1  0  0  0  0
 15 36  1  0  0  0  0
 16 17  1  0  0  0  0
 16 37  1  0  0  0  0
 16 38  1  0  0  0  0
 17 18  1  0  0  0  0
 17 19  1  0  0  0  0
 17 39  1  0  0  0  0
 18 40  1  0  0  0  0
 18 41  1  0  0  0  0
 18 42  1  0  0  0  0
 19 43  1  0  0  0  0
 19 44  1  0  0  0  0
 20 21  2  0  0  0  0
 20 45  1  0  0  0  0
M  CHG  1  13   1
M  END
> <s_m_source_file>
AV-unprocessed.smi

> <i_m_source_file_index>
1956

> <i_lp_mmshare_version>
43012

> <i_f3d_flags>
0

> <s_epik_input>
W0NIM11PYzFbY0hdW2NIXWMoW2NIXW4xKVtOSF1DKD1PKVtOSF1bQ0gyXVtDSDJdTjJbQ0gyXVtDSDJdW0NIMl1bQ0BASF0oW0NIM10pW0NIMl0y

> <s_epik_cmdline>
J2VwaWtfcHl0aG9uJywgJy1waCcsICc3LjAnLCAnLXRuJywgJzgnLCAnLW1hJywgJzIwMCcsICctbWV0YWxfYmluZGluZycsICctaW1hZScsICc8aW5maWxlLm1hZT4nLCAnLW9tYWUnLCAnPG91dGZpbGUubWFlPic=

> <r_lp_tautomer_probability>
1

> <r_epik_Ionization_Penalty>
0.00179545

> <r_epik_Ionization_Penalty_Charging>
0.00171832

> <r_epik_Ionization_Penalty_Neutral>
7.7124e-05

> <r_epik_State_Penalty>
0.0011618

> <r_epik_Charging_Adjusted_Penalty>
0.00288012

> <i_epik_Tot_Q>
1

> <i_epik_Tot_abs_Q>
1

> <r_epik_Metal_State_Penalty>
-0

> <b_epik_Metal_Only>
0

> <s_lp_Force_Field>
OPLS_2005

> <r_lp_Energy>
22.351

> <b_lp_Chiralities_Consistent>
1

> <s_lp_Variant>
AV-unprocessed.smi:1956-2

> <Gold.Version>
5.8.1

> <Gold.Id.Protein>
6NUR|6NUR_protein|mol2

> <Gold.PLP.Fitness>
44.8955

> <Gold.PLP.PLP>
-35.3853

> <Gold.PLP.part.hbond>
-4.7844

> <Gold.PLP.part.metal>
0.0000

> <Gold.PLP.part.buried>
-0.8617

> <Gold.PLP.part.nonpolar>
-28.8758

> <Gold.PLP.part.repulsive>
0.2969

> <Gold.PLP.ligand.clash>
0.0000

> <Gold.PLP.ligand.torsion>
0.6469

> <Gold.PLP.Chemscore.Hbond>
3.5600

> <Gold.PLP.Chemscore.CHOScore>
0.0000

> <Gold.PLP.Chemscore.Metal>
0.0000

> <Gold.Chemscore.Hbonds>
donor molecule, donor type, donor heavy atom, donor atom, acceptor molecule, acceptor atom, score
      L1  H    10    28       P1  7948  0.54
      L1  H    13    46       P1  7948  2.00
      P1  H  7997  8010       L1    21  0.99

> <Gold.PLP.Chemscore.Internal.Correction>
0.1239

> <Gold.Rescore>
     Score         DG    S(hbond)    S(metal)    S(lipo)     H(rot)  DE(clash)    DE(int)     intcor
     16.08     -18.04       2.44        0.00      75.05       1.71       0.16       1.79       ----

> <Gold.Chemscore.Fitness>
16.0803

> <Gold.Chemscore.DG>
-18.0353

> <Gold.Chemscore.ZeroCoef>
-5.4800

> <Gold.Chemscore.Hbond>
2.4412

> <Gold.Chemscore.Metal>
0.0000

> <Gold.Chemscore.Lipo>
75.0519

> <Gold.Chemscore.Internal_Hbond>
0.0000

> <Gold.Chemscore.DEClash>
0.1631

> <Gold.Chemscore.DEInternal>
1.7919

> <Gold.Chemscore.Rot>
1.7107

> <Gold.Chemscore.Internal.Correction>
   9.000000E+99

> <Gold.Chemscore.Hbonds>
donor molecule, donor type, donor heavy atom, donor atom, acceptor molecule, acceptor atom, score
      L1  H    10    28       P1  7948  0.51
      L1  H    13    46       P1  7948  1.00
      P1  H  7997  8010       L1    21  0.69

> <Gold.Chemscore.Hbond.Weighted>
-8.1537

> <Gold.Chemscore.Metal.Weighted>
-0.0000

> <Gold.Chemscore.Lipo.Weighted>
-8.7811

> <Gold.Chemscore.Internal_Hbond.Weighted>
0.0000

> <Gold.Chemscore.DEClash.Weighted>
0.1631

> <Gold.Chemscore.DEInternal.Weighted>
1.7919

> <Gold.Chemscore.Rot.Weighted>
4.3794

> <Gold.Chemscore.Internal.Correction.Weighted>
   9.000000E+99

> <Gold.Protein.RotatedTorsions>
[ 6907 6896 6895 6894 ] final  148.02 input  -60.11 | X-H torsion
[ 7974 7965 7964 7962 ] final   92.18 input  175.53 | X-H torsion
[ 8008 7997 7996 7995 ] final   68.17 input   59.86 | X-H torsion
[ 10167 10162 10161 10158 ] final  137.35 input  -65.29 | X-H torsion
[ 10718 10713 10712 10709 ] final    4.97 input   66.30 | X-H torsion
[ 10763 10752 10751 10750 ] final -159.85 input  -60.55 | X-H torsion
[ 11005 11000 10999 10996 ] final   31.58 input  -57.11 | X-H torsion

> <Gold.Protein.ActiveResidues>
 VAL166  LYS551  ARG553  GLY616  TRP617  ASP618  TYR619  PRO620  LYS621  CYS622 
 ASP623  PHE694  ASN695  SER759  ASP760  ASP761  ALA762  ILE779  LEU786  VAL792 
 PHE793  MET794  SER795  GLU796  ALA797  LYS798  CYS799  TRP800  GLU811  SER814 

> <Gold.Protein.RotatedAtoms>
  152.1470  133.4498  159.4794 H   0  0  0  0  0  0  0  0  0  0  0  0  # atno 6907 bound_to 6896
  150.6891  134.2236  159.4415 H   0  0  0  0  0  0  0  0  0  0  0  0  # atno 6908 bound_to 6896
  152.0130  134.9865  160.0619 H   0  0  0  0  0  0  0  0  0  0  0  0  # atno 6909 bound_to 6896
  145.4958  139.2276  143.2805 H   0  0  0  0  0  0  0  0  0  0  0  0  # atno 7974 bound_to 7965
  155.7042  140.3495  155.4946 H   0  0  0  0  0  0  0  0  0  0  0  0  # atno 8008 bound_to 7997
  155.9413  140.1102  157.1075 H   0  0  0  0  0  0  0  0  0  0  0  0  # atno 8009 bound_to 7997
  154.4103  140.1212  156.4917 H   0  0  0  0  0  0  0  0  0  0  0  0  # atno 8010 bound_to 7997
  139.5147  144.6414  151.5557 H   0  0  0  0  0  0  0  0  0  0  0  0  # atno 10167 bound_to 10162
  156.9004  130.5719  149.5648 H   0  0  0  0  0  0  0  0  0  0  0  0  # atno 10718 bound_to 10713
  154.7440  135.3075  154.8677 H   0  0  0  0  0  0  0  0  0  0  0  0  # atno 10763 bound_to 10752
  153.9483  135.6767  153.4748 H   0  0  0  0  0  0  0  0  0  0  0  0  # atno 10764 bound_to 10752
  153.1038  135.4899  154.8840 H   0  0  0  0  0  0  0  0  0  0  0  0  # atno 10765 bound_to 10752
  140.2824  134.2958  155.7797 H   0  0  0  0  0  0  0  0  0  0  0  0  # atno 11005 bound_to 11000
  146.2256  140.5755  142.8998 LP  0  0  0  0  0  0  0  0  0  0  0  0  # atno 17320 bound_to 7965
  144.7808  140.5836  143.6607 LP  0  0  0  0  0  0  0  0  0  0  0  0  # atno 17321 bound_to 7965
  140.6183  143.9307  150.6505 LP  0  0  0  0  0  0  0  0  0  0  0  0  # atno 17342 bound_to 10162
  140.2572  143.3550  152.1354 LP  0  0  0  0  0  0  0  0  0  0  0  0  # atno 17343 bound_to 10162
  156.0585  130.5642  150.9142 LP  0  0  0  0  0  0  0  0  0  0  0  0  # atno 17370 bound_to 10713
  157.6029  131.0940  150.8928 LP  0  0  0  0  0  0  0  0  0  0  0  0  # atno 17371 bound_to 10713
  141.2160  133.7533  156.9500 LP  0  0  0  0  0  0  0  0  0  0  0  0  # atno 17394 bound_to 11000
  140.1271  134.9380  157.2285 LP  0  0  0  0  0  0  0  0  0  0  0  0  # atno 17395 bound_to 11000

$$$$
