AV-unprocessed.smi:2451|AV-procd|sdf|9669|dock4
  -GOLD-   2272013303D 1   1.00000     0.00000
 Structure written by MMmdl.
 38 39  0  0  0  0  0  0  0  0  1 V2000
  151.6690  145.9091  160.6987 C   0  0  0  0  0  0  0  0  0  0  0  0
  151.8187  144.3850  160.5451 C   0  0  2  0  0  0  0  0  0  0  0  0
  152.5183  143.7984  161.7881 C   0  0  0  0  0  0  0  0  0  0  0  0
  152.6572  142.2727  161.7027 C   0  0  0  0  0  0  0  0  0  0  0  0
  153.4092  141.8488  160.4327 C   0  0  0  0  0  0  0  0  0  0  0  0
  152.7759  142.4431  159.1619 C   0  0  1  0  0  0  0  0  0  0  0  0
  151.5155  141.7526  158.8600 N   0  0  0  0  0  0  0  0  0  0  0  0
  151.5729  140.2188  158.0740 S   0  0  0  0  0  0  0  0  0  0  0  0
  152.9289  139.6792  158.2570 O   0  0  0  0  0  0  0  0  0  0  0  0
  150.4070  139.4430  158.5248 O   0  0  0  0  0  0  0  0  0  0  0  0
  151.3322  140.6663  156.3033 C   0  0  0  0  0  0  0  0  0  0  0  0
  151.3319  139.4200  155.4646 C   0  0  0  0  0  0  0  0  0  0  0  0
  150.3324  138.9594  154.5634 C   0  0  0  0  0  0  0  0  0  0  0  0
  150.8488  137.7901  154.0845 C   0  0  0  0  0  0  0  0  0  0  0  0
  152.0650  137.5475  154.6348 O   0  0  0  0  0  0  0  0  0  0  0  0
  152.3656  138.5943  155.5136 N   0  0  0  0  0  0  0  0  0  0  0  0
  152.5738  143.9772  159.2510 C   0  0  1  0  0  0  0  0  0  0  0  0
  151.9488  144.5413  157.9594 C   0  0  0  0  0  0  0  0  0  0  0  0
  152.6384  146.4078  160.6810 H   0  0  0  0  0  0  0  0  0  0  0  0
  151.1847  146.1612  161.6425 H   0  0  0  0  0  0  0  0  0  0  0  0
  151.0559  146.3367  159.9057 H   0  0  0  0  0  0  0  0  0  0  0  0
  150.8132  143.9643  160.4999 H   0  0  0  0  0  0  0  0  0  0  0  0
  153.5063  144.2467  161.9018 H   0  0  0  0  0  0  0  0  0  0  0  0
  151.9588  144.0574  162.6877 H   0  0  0  0  0  0  0  0  0  0  0  0
  153.1785  141.8972  162.5836 H   0  0  0  0  0  0  0  0  0  0  0  0
  151.6674  141.8148  161.7141 H   0  0  0  0  0  0  0  0  0  0  0  0
  154.4428  142.1890  160.5060 H   0  0  0  0  0  0  0  0  0  0  0  0
  153.4529  140.7610  160.3648 H   0  0  0  0  0  0  0  0  0  0  0  0
  153.4639  142.2500  158.3372 H   0  0  0  0  0  0  0  0  0  0  0  0
  150.8567  142.3799  158.3992 H   0  0  0  0  0  0  0  0  0  0  0  0
  150.3894  141.2048  156.2080 H   0  0  0  0  0  0  0  0  0  0  0  0
  152.1342  141.3438  156.0090 H   0  0  0  0  0  0  0  0  0  0  0  0
  149.3846  139.4126  154.3134 H   0  0  0  0  0  0  0  0  0  0  0  0
  150.4903  137.0528  153.3815 H   0  0  0  0  0  0  0  0  0  0  0  0
  153.5724  144.4124  159.3196 H   0  0  0  0  0  0  0  0  0  0  0  0
  150.8998  144.2599  157.8640 H   0  0  0  0  0  0  0  0  0  0  0  0
  152.4731  144.1703  157.0783 H   0  0  0  0  0  0  0  0  0  0  0  0
  152.0058  145.6288  157.9260 H   0  0  0  0  0  0  0  0  0  0  0  0
  1  2  1  0  0  0  0
  1 19  1  0  0  0  0
  1 20  1  0  0  0  0
  1 21  1  0  0  0  0
  2 17  1  0  0  0  0
  2  3  1  0  0  0  0
  2 22  1  0  0  0  0
  3  4  1  0  0  0  0
  3 23  1  0  0  0  0
  3 24  1  0  0  0  0
  4  5  1  0  0  0  0
  4 25  1  0  0  0  0
  4 26  1  0  0  0  0
  5  6  1  0  0  0  0
  5 27  1  0  0  0  0
  5 28  1  0  0  0  0
  6  7  1  0  0  0  0
  6 17  1  0  0  0  0
  6 29  1  0  0  0  0
  7  8  1  0  0  0  0
  7 30  1  0  0  0  0
  8  9  2  0  0  0  0
  8 10  2  0  0  0  0
  8 11  1  0  0  0  0
 11 12  1  0  0  0  0
 11 31  1  0  0  0  0
 11 32  1  0  0  0  0
 12 16  2  0  0  0  0
 12 13  1  0  0  0  0
 13 14  2  0  0  0  0
 13 33  1  0  0  0  0
 14 15  1  0  0  0  0
 14 34  1  0  0  0  0
 15 16  1  0  0  0  0
 17 18  1  0  0  0  0
 17 35  1  0  0  0  0
 18 36  1  0  0  0  0
 18 37  1  0  0  0  0
 18 38  1  0  0  0  0
M  END
> <s_m_source_file>
AV-unprocessed.smi

> <i_m_source_file_index>
2451

> <i_lp_mmshare_version>
43012

> <i_f3d_flags>
0

> <s_epik_input>
W0NIM11bQ0BASF0xW0NIMl1bQ0gyXVtDSDJdW0NASF0oW0NASF0xW0NIM10pW05IXVMoPU8pKD1PKVtDSDJdYzJbY0hdW2NIXW9uMg==

> <s_epik_cmdline>
J2VwaWtfcHl0aG9uJywgJy1waCcsICc3LjAnLCAnLXRuJywgJzgnLCAnLW1hJywgJzIwMCcsICctbWV0YWxfYmluZGluZycsICctaW1hZScsICc8aW5maWxlLm1hZT4nLCAnLW9tYWUnLCAnPG91dGZpbGUubWFlPic=

> <r_lp_tautomer_probability>
1

> <r_epik_Ionization_Penalty>
8.73668e-05

> <r_epik_Ionization_Penalty_Charging>
0

> <r_epik_Ionization_Penalty_Neutral>
8.73668e-05

> <r_epik_State_Penalty>
-0

> <r_epik_Charging_Adjusted_Penalty>
0

> <i_epik_Tot_Q>
0

> <i_epik_Tot_abs_Q>
0

> <r_epik_Metal_State_Penalty>
0.0716439

> <b_epik_Metal_Only>
0

> <s_lp_Force_Field>
OPLS_2005

> <r_lp_Energy>
9.22722

> <b_lp_Chiralities_Consistent>
1

> <s_lp_Variant>
AV-unprocessed.smi:2451-1

> <Gold.Version>
5.8.1

> <Gold.Id.Protein>
6NUR|6NUR_protein|mol2

> <Gold.PLP.Fitness>
52.6980

> <Gold.PLP.PLP>
-46.2537

> <Gold.PLP.part.hbond>
-2.0919

> <Gold.PLP.part.metal>
0.0000

> <Gold.PLP.part.buried>
-2.9082

> <Gold.PLP.part.nonpolar>
-42.0637

> <Gold.PLP.part.repulsive>
0.0818

> <Gold.PLP.ligand.clash>
0.0000

> <Gold.PLP.ligand.torsion>
0.7803

> <Gold.PLP.Chemscore.Hbond>
1.6080

> <Gold.PLP.Chemscore.CHOScore>
1.0114

> <Gold.PLP.Chemscore.Metal>
0.0000

> <Gold.Chemscore.Hbonds>
donor molecule, donor type, donor heavy atom, donor atom, acceptor molecule, acceptor atom, score
      P1  H  7997  8010       L1     9  0.73
      P1  H 10752 10765       L1    15  0.68
      L1  C    14    34       P1  7948  0.46
      L1  C    14    34       P1  7949  0.42

> <Gold.PLP.Chemscore.Internal.Correction>
0.1467

> <Gold.Rescore>
     Score         DG    S(hbond)    S(metal)    S(lipo)     H(rot)  DE(clash)    DE(int)     intcor
     19.58     -21.74       1.85        0.00     122.36       1.66       1.40       0.76       ----

> <Gold.Chemscore.Fitness>
19.5753

> <Gold.Chemscore.DG>
-21.7408

> <Gold.Chemscore.ZeroCoef>
-5.4800

> <Gold.Chemscore.Hbond>
1.8535

> <Gold.Chemscore.Metal>
0.0000

> <Gold.Chemscore.Lipo>
122.3640

> <Gold.Chemscore.Internal_Hbond>
0.0000

> <Gold.Chemscore.DEClash>
1.4032

> <Gold.Chemscore.DEInternal>
0.7622

> <Gold.Chemscore.Rot>
1.6588

> <Gold.Chemscore.Internal.Correction>
   9.000000E+99

> <Gold.Chemscore.Hbonds>
donor molecule, donor type, donor heavy atom, donor atom, acceptor molecule, acceptor atom, score
      P1  H  7997  8010       L1     9  0.71
      P1  H 10752 10765       L1    15  0.64

> <Gold.Chemscore.Hbond.Weighted>
-6.1908

> <Gold.Chemscore.Metal.Weighted>
-0.0000

> <Gold.Chemscore.Lipo.Weighted>
-14.3166

> <Gold.Chemscore.Internal_Hbond.Weighted>
0.0000

> <Gold.Chemscore.DEClash.Weighted>
1.4032

> <Gold.Chemscore.DEInternal.Weighted>
0.7622

> <Gold.Chemscore.Rot.Weighted>
4.2466

> <Gold.Chemscore.Internal.Correction.Weighted>
   9.000000E+99

> <Gold.Protein.RotatedTorsions>
[ 6907 6896 6895 6894 ] final  107.28 input  -60.11 | X-H torsion
[ 7974 7965 7964 7962 ] final  118.62 input  175.53 | X-H torsion
[ 8008 7997 7996 7995 ] final   23.48 input   59.86 | X-H torsion
[ 10167 10162 10161 10158 ] final   -2.50 input  -65.29 | X-H torsion
[ 10718 10713 10712 10709 ] final -155.71 input   66.30 | X-H torsion
[ 10763 10752 10751 10750 ] final  159.78 input  -60.55 | X-H torsion
[ 11005 11000 10999 10996 ] final  -12.48 input  -57.11 | X-H torsion

> <Gold.Protein.ActiveResidues>
 VAL166  LYS551  ARG553  GLY616  TRP617  ASP618  TYR619  PRO620  LYS621  CYS622 
 ASP623  PHE694  ASN695  SER759  ASP760  ASP761  ALA762  ILE779  LEU786  VAL792 
 PHE793  MET794  SER795  GLU796  ALA797  LYS798  CYS799  TRP800  GLU811  SER814 

> <Gold.Protein.RotatedAtoms>
  152.5161  133.9258  159.7556 H   0  0  0  0  0  0  0  0  0  0  0  0  # atno 6907 bound_to 6896
  150.9619  133.6427  159.2760 H   0  0  0  0  0  0  0  0  0  0  0  0  # atno 6908 bound_to 6896
  151.3669  135.0920  159.9505 H   0  0  0  0  0  0  0  0  0  0  0  0  # atno 6909 bound_to 6896
  145.1530  139.3199  143.4557 H   0  0  0  0  0  0  0  0  0  0  0  0  # atno 7974 bound_to 7965
  154.9815  140.3102  155.4944 H   0  0  0  0  0  0  0  0  0  0  0  0  # atno 8008 bound_to 7997
  156.2952  140.2265  156.4854 H   0  0  0  0  0  0  0  0  0  0  0  0  # atno 8009 bound_to 7997
  154.7785  140.0447  157.1096 H   0  0  0  0  0  0  0  0  0  0  0  0  # atno 8010 bound_to 7997
  140.6853  143.6650  150.8234 H   0  0  0  0  0  0  0  0  0  0  0  0  # atno 10167 bound_to 10162
  156.5166  130.8459  151.2666 H   0  0  0  0  0  0  0  0  0  0  0  0  # atno 10718 bound_to 10713
  154.2371  135.2776  155.2868 H   0  0  0  0  0  0  0  0  0  0  0  0  # atno 10763 bound_to 10752
  154.5576  135.5656  153.6981 H   0  0  0  0  0  0  0  0  0  0  0  0  # atno 10764 bound_to 10752
  153.0008  135.6290  154.2514 H   0  0  0  0  0  0  0  0  0  0  0  0  # atno 10765 bound_to 10752
  140.7661  133.8475  155.9167 H   0  0  0  0  0  0  0  0  0  0  0  0  # atno 11005 bound_to 11000
  146.3492  140.1611  142.8591 LP  0  0  0  0  0  0  0  0  0  0  0  0  # atno 17320 bound_to 7965
  145.0411  140.8946  143.5052 LP  0  0  0  0  0  0  0  0  0  0  0  0  # atno 17321 bound_to 7965
  140.0356  143.5398  152.2741 LP  0  0  0  0  0  0  0  0  0  0  0  0  # atno 17342 bound_to 10162
  139.6207  144.7628  151.2747 LP  0  0  0  0  0  0  0  0  0  0  0  0  # atno 17343 bound_to 10162
  157.7443  130.9931  150.2662 LP  0  0  0  0  0  0  0  0  0  0  0  0  # atno 17370 bound_to 10713
  156.3189  130.3783  149.7593 LP  0  0  0  0  0  0  0  0  0  0  0  0  # atno 17371 bound_to 10713
  140.9617  134.1646  157.4648 LP  0  0  0  0  0  0  0  0  0  0  0  0  # atno 17394 bound_to 11000
  139.8763  134.9947  156.5707 LP  0  0  0  0  0  0  0  0  0  0  0  0  # atno 17395 bound_to 11000

$$$$
