AV-unprocessed.smi:2659|AV-procd|sdf|10312|dock1
  -GOLD-   2272014333D 1   1.00000     0.00000
 Structure written by MMmdl.
 47 48  0  0  0  0  0  0  0  0  1 V2000
  151.6624  137.7063  154.3976 C   0  0  0  0  0  0  0  0  0  0  0  0
  150.9243  138.8995  154.7631 N   0  0  0  0  0  0  0  0  0  0  0  0
  151.5286  139.8768  155.4717 N   0  0  0  0  0  0  0  0  0  0  0  0
  150.6031  140.8171  155.6329 C   0  0  0  0  0  0  0  0  0  0  0  0
  150.9435  142.0824  156.3794 C   0  0  0  0  0  0  0  0  0  0  0  0
  150.3834  142.1628  157.8266 C   0  0  0  0  0  0  0  0  0  0  0  0
  148.8569  141.9457  157.8276 C   0  0  0  0  0  0  0  0  0  0  0  0
  150.6779  143.5671  158.3887 C   0  0  0  0  0  0  0  0  0  0  0  0
  151.0422  141.1160  158.7498 C   0  0  0  0  0  0  0  0  0  0  0  0
  149.3559  140.4638  155.0399 C   0  0  0  0  0  0  0  0  0  0  0  0
  149.6179  139.2385  154.4913 C   0  0  0  0  0  0  0  0  0  0  0  0
  148.7892  138.4238  153.7863 N   0  0  0  0  0  0  0  0  0  0  0  0
  147.4797  138.5835  153.5272 C   0  0  0  0  0  0  0  0  0  0  0  0
  146.7785  139.5075  153.9397 O   0  0  0  0  0  0  0  0  0  0  0  0
  147.0195  137.6010  152.7396 N   0  0  0  0  0  0  0  0  0  0  0  0
  145.6537  137.4918  152.2369 C   0  0  0  0  0  0  0  0  0  0  0  0
  145.4494  136.2083  151.4136 C   0  0  2  0  0  0  0  0  0  0  0  0
  143.9979  135.7611  151.2485 C   0  0  0  0  0  0  0  0  0  0  0  0
  144.1285  134.2785  150.9474 C   0  0  0  0  0  0  0  0  0  0  0  0
  145.5144  133.9106  151.4880 C   0  0  0  0  0  0  0  0  0  0  0  0
  146.0287  135.0981  152.0792 O   0  0  0  0  0  0  0  0  0  0  0  0
  151.5477  137.5156  153.3304 H   0  0  0  0  0  0  0  0  0  0  0  0
  151.2771  136.8531  154.9560 H   0  0  0  0  0  0  0  0  0  0  0  0
  152.7232  137.8278  154.6205 H   0  0  0  0  0  0  0  0  0  0  0  0
  152.0306  142.1649  156.4191 H   0  0  0  0  0  0  0  0  0  0  0  0
  150.6158  142.9517  155.8073 H   0  0  0  0  0  0  0  0  0  0  0  0
  148.4414  142.0637  158.8291 H   0  0  0  0  0  0  0  0  0  0  0  0
  148.5913  140.9452  157.4866 H   0  0  0  0  0  0  0  0  0  0  0  0
  148.3518  142.6603  157.1771 H   0  0  0  0  0  0  0  0  0  0  0  0
  150.2245  144.3441  157.7723 H   0  0  0  0  0  0  0  0  0  0  0  0
  151.7498  143.7639  158.4297 H   0  0  0  0  0  0  0  0  0  0  0  0
  150.2868  143.6818  159.4003 H   0  0  0  0  0  0  0  0  0  0  0  0
  150.7118  141.2356  159.7822 H   0  0  0  0  0  0  0  0  0  0  0  0
  152.1288  141.2083  158.7412 H   0  0  0  0  0  0  0  0  0  0  0  0
  150.7942  140.0964  158.4529 H   0  0  0  0  0  0  0  0  0  0  0  0
  148.4395  141.0343  155.0243 H   0  0  0  0  0  0  0  0  0  0  0  0
  149.2307  137.6178  153.3688 H   0  0  0  0  0  0  0  0  0  0  0  0
  147.6658  136.8815  152.4508 H   0  0  0  0  0  0  0  0  0  0  0  0
  144.9847  137.4795  153.0975 H   0  0  0  0  0  0  0  0  0  0  0  0
  145.3791  138.3713  151.6519 H   0  0  0  0  0  0  0  0  0  0  0  0
  145.9216  136.3093  150.4344 H   0  0  0  0  0  0  0  0  0  0  0  0
  143.4535  135.8971  152.1840 H   0  0  0  0  0  0  0  0  0  0  0  0
  143.4697  136.3083  150.4671 H   0  0  0  0  0  0  0  0  0  0  0  0
  143.3334  133.7026  151.4219 H   0  0  0  0  0  0  0  0  0  0  0  0
  144.0814  134.0951  149.8735 H   0  0  0  0  0  0  0  0  0  0  0  0
  145.4729  133.1063  152.2229 H   0  0  0  0  0  0  0  0  0  0  0  0
  146.1714  133.5953  150.6766 H   0  0  0  0  0  0  0  0  0  0  0  0
  1  2  1  0  0  0  0
  1 22  1  0  0  0  0
  1 23  1  0  0  0  0
  1 24  1  0  0  0  0
  2 11  1  0  0  0  0
  2  3  1  0  0  0  0
  3  4  2  0  0  0  0
  4  5  1  0  0  0  0
  4 10  1  0  0  0  0
  5  6  1  0  0  0  0
  5 25  1  0  0  0  0
  5 26  1  0  0  0  0
  6  7  1  0  0  0  0
  6  8  1  0  0  0  0
  6  9  1  0  0  0  0
  7 27  1  0  0  0  0
  7 28  1  0  0  0  0
  7 29  1  0  0  0  0
  8 30  1  0  0  0  0
  8 31  1  0  0  0  0
  8 32  1  0  0  0  0
  9 33  1  0  0  0  0
  9 34  1  0  0  0  0
  9 35  1  0  0  0  0
 10 11  2  0  0  0  0
 10 36  1  0  0  0  0
 11 12  1  0  0  0  0
 12 13  1  0  0  0  0
 12 37  1  0  0  0  0
 13 14  2  0  0  0  0
 13 15  1  0  0  0  0
 15 16  1  0  0  0  0
 15 38  1  0  0  0  0
 16 17  1  0  0  0  0
 16 39  1  0  0  0  0
 16 40  1  0  0  0  0
 17 21  1  0  0  0  0
 17 18  1  0  0  0  0
 17 41  1  0  0  0  0
 18 19  1  0  0  0  0
 18 42  1  0  0  0  0
 18 43  1  0  0  0  0
 19 20  1  0  0  0  0
 19 44  1  0  0  0  0
 19 45  1  0  0  0  0
 20 21  1  0  0  0  0
 20 46  1  0  0  0  0
 20 47  1  0  0  0  0
M  END
> <s_m_source_file>
AV-unprocessed.smi

> <i_m_source_file_index>
2659

> <i_lp_mmshare_version>
43012

> <i_f3d_flags>
0

> <s_epik_input>
W0NIM11uMW5jKFtDSDJdQyhbQ0gzXSkoW0NIM10pW0NIM10pW2NIXWMxW05IXUMoPU8pW05IXVtDSDJdW0NAQEhdMltDSDJdW0NIMl1bQ0gyXU8y

> <s_epik_cmdline>
J2VwaWtfcHl0aG9uJywgJy1waCcsICc3LjAnLCAnLXRuJywgJzgnLCAnLW1hJywgJzIwMCcsICctbWV0YWxfYmluZGluZycsICctaW1hZScsICc8aW5maWxlLm1hZT4nLCAnLW9tYWUnLCAnPG91dGZpbGUubWFlPic=

> <r_lp_tautomer_probability>
1

> <r_epik_Ionization_Penalty>
9.6187e-05

> <r_epik_Ionization_Penalty_Charging>
0

> <r_epik_Ionization_Penalty_Neutral>
9.6187e-05

> <r_epik_State_Penalty>
-0

> <r_epik_Charging_Adjusted_Penalty>
0

> <i_epik_Tot_Q>
0

> <i_epik_Tot_abs_Q>
0

> <r_epik_Metal_State_Penalty>
-0

> <b_epik_Metal_Only>
0

> <s_lp_Force_Field>
OPLS_2005

> <r_lp_Energy>
20.4305

> <b_lp_Chiralities_Consistent>
1

> <s_lp_Variant>
AV-unprocessed.smi:2659-1

> <Gold.Version>
5.8.1

> <Gold.Id.Protein>
6NUR|6NUR_protein|mol2

> <Gold.PLP.Fitness>
43.4715

> <Gold.PLP.PLP>
-38.4309

> <Gold.PLP.part.hbond>
-3.7858

> <Gold.PLP.part.metal>
0.0000

> <Gold.PLP.part.buried>
-5.7031

> <Gold.PLP.part.nonpolar>
-30.0652

> <Gold.PLP.part.repulsive>
0.9829

> <Gold.PLP.ligand.clash>
0.0000

> <Gold.PLP.ligand.torsion>
0.3910

> <Gold.PLP.Chemscore.Hbond>
1.9210

> <Gold.PLP.Chemscore.CHOScore>
0.0000

> <Gold.PLP.Chemscore.Metal>
0.0000

> <Gold.Chemscore.Hbonds>
donor molecule, donor type, donor heavy atom, donor atom, acceptor molecule, acceptor atom, score
      L1  H    12    37       P1  7948  0.81
      L1  H    15    38       P1  7948  1.00

> <Gold.PLP.Chemscore.Internal.Correction>
0.0596

> <Gold.Rescore>
     Score         DG    S(hbond)    S(metal)    S(lipo)     H(rot)  DE(clash)    DE(int)     intcor
     15.98     -17.60       1.93        0.00      81.22       1.49       0.23       1.39       ----

> <Gold.Chemscore.Fitness>
15.9844

> <Gold.Chemscore.DG>
-17.6008

> <Gold.Chemscore.ZeroCoef>
-5.4800

> <Gold.Chemscore.Hbond>
1.9253

> <Gold.Chemscore.Metal>
0.0000

> <Gold.Chemscore.Lipo>
81.2245

> <Gold.Chemscore.Internal_Hbond>
0.0000

> <Gold.Chemscore.DEClash>
0.2304

> <Gold.Chemscore.DEInternal>
1.3860

> <Gold.Chemscore.Rot>
1.4894

> <Gold.Chemscore.Internal.Correction>
   9.000000E+99

> <Gold.Chemscore.Hbonds>
donor molecule, donor type, donor heavy atom, donor atom, acceptor molecule, acceptor atom, score
      L1  H    12    37       P1  7948  0.75
      L1  H    15    38       P1  7948  0.95

> <Gold.Chemscore.Hbond.Weighted>
-6.4304

> <Gold.Chemscore.Metal.Weighted>
-0.0000

> <Gold.Chemscore.Lipo.Weighted>
-9.5033

> <Gold.Chemscore.Internal_Hbond.Weighted>
0.0000

> <Gold.Chemscore.DEClash.Weighted>
0.2304

> <Gold.Chemscore.DEInternal.Weighted>
1.3860

> <Gold.Chemscore.Rot.Weighted>
3.8129

> <Gold.Chemscore.Internal.Correction.Weighted>
   9.000000E+99

> <Gold.Protein.RotatedTorsions>
[ 6907 6896 6895 6894 ] final  154.97 input  -60.11 | X-H torsion
[ 7974 7965 7964 7962 ] final  -93.86 input  175.53 | X-H torsion
[ 8008 7997 7996 7995 ] final  175.36 input   59.86 | X-H torsion
[ 10167 10162 10161 10158 ] final  -63.23 input  -65.29 | X-H torsion
[ 10718 10713 10712 10709 ] final   57.90 input   66.30 | X-H torsion
[ 10763 10752 10751 10750 ] final   75.85 input  -60.55 | X-H torsion
[ 11005 11000 10999 10996 ] final  -14.17 input  -57.11 | X-H torsion

> <Gold.Protein.ActiveResidues>
 VAL166  LYS551  ARG553  GLY616  TRP617  ASP618  TYR619  PRO620  LYS621  CYS622 
 ASP623  PHE694  ASN695  SER759  ASP760  ASP761  ALA762  ILE779  LEU786  VAL792 
 PHE793  MET794  SER795  GLU796  ALA797  LYS798  CYS799  TRP800  GLU811  SER814 

> <Gold.Protein.RotatedAtoms>
  152.0509  133.4018  159.4376 H   0  0  0  0  0  0  0  0  0  0  0  0  # atno 6907 bound_to 6896
  150.6870  134.3309  159.4836 H   0  0  0  0  0  0  0  0  0  0  0  0  # atno 6908 bound_to 6896
  152.1119  134.9268  160.0617 H   0  0  0  0  0  0  0  0  0  0  0  0  # atno 6909 bound_to 6896
  145.3809  140.9517  143.2394 H   0  0  0  0  0  0  0  0  0  0  0  0  # atno 7974 bound_to 7965
  156.0879  140.1411  156.9630 H   0  0  0  0  0  0  0  0  0  0  0  0  # atno 8008 bound_to 7997
  154.4624  140.0938  156.6976 H   0  0  0  0  0  0  0  0  0  0  0  0  # atno 8009 bound_to 7997
  155.4968  140.3450  155.4366 H   0  0  0  0  0  0  0  0  0  0  0  0  # atno 8010 bound_to 7997
  140.5885  143.2337  151.6191 H   0  0  0  0  0  0  0  0  0  0  0  0  # atno 10167 bound_to 10162
  157.5552  130.8795  149.9025 H   0  0  0  0  0  0  0  0  0  0  0  0  # atno 10718 bound_to 10713
  153.0683  135.4973  154.8250 H   0  0  0  0  0  0  0  0  0  0  0  0  # atno 10763 bound_to 10752
  154.6986  135.2997  154.9376 H   0  0  0  0  0  0  0  0  0  0  0  0  # atno 10764 bound_to 10752
  154.0108  135.6754  153.4818 H   0  0  0  0  0  0  0  0  0  0  0  0  # atno 10765 bound_to 10752
  140.7836  133.8343  155.9315 H   0  0  0  0  0  0  0  0  0  0  0  0  # atno 11005 bound_to 11000
  144.8508  139.5324  143.6857 LP  0  0  0  0  0  0  0  0  0  0  0  0  # atno 17320 bound_to 7965
  146.2842  139.6960  142.9207 LP  0  0  0  0  0  0  0  0  0  0  0  0  # atno 17321 bound_to 7965
  139.5212  144.3199  152.0920 LP  0  0  0  0  0  0  0  0  0  0  0  0  # atno 17342 bound_to 10162
  140.2359  144.4319  150.6280 LP  0  0  0  0  0  0  0  0  0  0  0  0  # atno 17343 bound_to 10162
  156.0612  130.3699  150.0977 LP  0  0  0  0  0  0  0  0  0  0  0  0  # atno 17370 bound_to 10713
  156.9146  130.9663  151.3558 LP  0  0  0  0  0  0  0  0  0  0  0  0  # atno 17371 bound_to 10713
  140.9458  134.1842  157.4764 LP  0  0  0  0  0  0  0  0  0  0  0  0  # atno 17394 bound_to 11000
  139.8739  134.9890  156.5437 LP  0  0  0  0  0  0  0  0  0  0  0  0  # atno 17395 bound_to 11000

$$$$
