AV-unprocessed.smi:1539|AV-procd|sdf|6197|dock7
  -GOLD-   22720 6363D 1   1.00000     0.00000
 Structure written by MMmdl.
 41 42  0  0  0  0  0  0  0  0  1 V2000
  148.2678  137.2242  158.0207 C   0  0  0  0  0  0  0  0  0  0  0  0
  147.9804  138.4594  157.1637 C   0  0  0  0  0  0  0  0  0  0  0  0
  147.5808  139.4779  157.7288 O   0  0  0  0  0  0  0  0  0  0  0  0
  148.1604  138.3921  155.8215 N   0  0  0  0  0  0  0  0  0  0  0  0
  148.6873  137.1803  155.1760 C   0  0  0  0  0  0  0  0  0  0  0  0
  150.2309  137.1705  155.1706 C   0  0  0  0  0  0  0  0  0  0  0  0
  150.8539  138.3921  154.4588 C   0  0  0  0  0  0  0  0  0  0  0  0
  150.4821  139.6565  155.1229 N   0  0  0  0  0  0  0  0  0  0  0  0
  151.1241  140.1910  156.1948 C   0  0  0  0  0  0  0  0  0  0  0  0
  152.2809  139.9016  156.5042 O   0  0  0  0  0  0  0  0  0  0  0  0
  150.4050  141.0900  156.8892 N   0  0  0  0  0  0  0  0  0  0  0  0
  150.8778  141.8198  158.0590 C   0  0  0  0  0  0  0  0  0  0  0  0
  150.9872  143.3260  157.7731 C   0  0  0  0  0  0  0  0  0  0  0  0
  150.9235  144.1038  158.9934 N   0  0  0  0  0  0  0  0  0  0  0  0
  151.7599  143.9993  160.0966 C   0  0  0  0  0  0  0  0  0  0  0  0
  151.3248  144.9336  161.0093 C   0  0  0  0  0  0  0  0  0  0  0  0
  150.2296  145.6210  160.4909 N   0  0  0  0  0  0  0  0  0  0  0  0
  150.0507  145.0748  159.2948 C   0  0  0  0  0  0  0  0  0  0  0  0
  149.2735  140.2826  154.5558 C   0  0  0  0  0  0  0  0  0  0  0  0
  147.9625  139.5234  154.8978 C   0  0  0  0  0  0  0  0  0  0  0  0
  147.7225  136.3556  157.6515 H   0  0  0  0  0  0  0  0  0  0  0  0
  147.9600  137.3937  159.0530 H   0  0  0  0  0  0  0  0  0  0  0  0
  149.3342  136.9979  158.0228 H   0  0  0  0  0  0  0  0  0  0  0  0
  148.3135  136.2840  155.6741 H   0  0  0  0  0  0  0  0  0  0  0  0
  148.3222  137.1051  154.1512 H   0  0  0  0  0  0  0  0  0  0  0  0
  150.5999  137.1092  156.1950 H   0  0  0  0  0  0  0  0  0  0  0  0
  150.5743  136.2609  154.6773 H   0  0  0  0  0  0  0  0  0  0  0  0
  151.9379  138.2834  154.4019 H   0  0  0  0  0  0  0  0  0  0  0  0
  150.5238  138.4040  153.4193 H   0  0  0  0  0  0  0  0  0  0  0  0
  149.4666  141.2893  156.5740 H   0  0  0  0  0  0  0  0  0  0  0  0
  150.2169  141.6367  158.9082 H   0  0  0  0  0  0  0  0  0  0  0  0
  151.8542  141.4205  158.3355 H   0  0  0  0  0  0  0  0  0  0  0  0
  151.9256  143.5521  157.2648 H   0  0  0  0  0  0  0  0  0  0  0  0
  150.1818  143.6539  157.1143 H   0  0  0  0  0  0  0  0  0  0  0  0
  152.5726  143.2890  160.1391 H   0  0  0  0  0  0  0  0  0  0  0  0
  151.7131  145.1628  161.9908 H   0  0  0  0  0  0  0  0  0  0  0  0
  149.2674  145.3903  158.6210 H   0  0  0  0  0  0  0  0  0  0  0  0
  149.1706  141.3198  154.8780 H   0  0  0  0  0  0  0  0  0  0  0  0
  149.3821  140.3523  153.4726 H   0  0  0  0  0  0  0  0  0  0  0  0
  147.5242  139.1493  153.9717 H   0  0  0  0  0  0  0  0  0  0  0  0
  147.2151  140.2254  155.2668 H   0  0  0  0  0  0  0  0  0  0  0  0
  1  2  1  0  0  0  0
  1 21  1  0  0  0  0
  1 22  1  0  0  0  0
  1 23  1  0  0  0  0
  2  3  2  0  0  0  0
  2  4  1  0  0  0  0
  4 20  1  0  0  0  0
  4  5  1  0  0  0  0
  5  6  1  0  0  0  0
  5 24  1  0  0  0  0
  5 25  1  0  0  0  0
  6  7  1  0  0  0  0
  6 26  1  0  0  0  0
  6 27  1  0  0  0  0
  7  8  1  0  0  0  0
  7 28  1  0  0  0  0
  7 29  1  0  0  0  0
  8  9  1  0  0  0  0
  8 19  1  0  0  0  0
  9 10  2  0  0  0  0
  9 11  1  0  0  0  0
 11 12  1  0  0  0  0
 11 30  1  0  0  0  0
 12 13  1  0  0  0  0
 12 31  1  0  0  0  0
 12 32  1  0  0  0  0
 13 14  1  0  0  0  0
 13 33  1  0  0  0  0
 13 34  1  0  0  0  0
 14 18  1  0  0  0  0
 14 15  1  0  0  0  0
 15 16  2  0  0  0  0
 15 35  1  0  0  0  0
 16 17  1  0  0  0  0
 16 36  1  0  0  0  0
 17 18  2  0  0  0  0
 18 37  1  0  0  0  0
 19 20  1  0  0  0  0
 19 38  1  0  0  0  0
 19 39  1  0  0  0  0
 20 40  1  0  0  0  0
 20 41  1  0  0  0  0
M  END
> <s_m_source_file>
AV-unprocessed.smi

> <i_m_source_file_index>
1539

> <i_lp_mmshare_version>
43012

> <i_f3d_flags>
0

> <s_epik_input>
W0NIM11DKD1PKU4xW0NIMl1bQ0gyXVtDSDJdTihbQ0gyXVtDSDJdMSlDKD1PKVtOSF1bQ0gyXVtDSDJdbjJbY0hdW2NIXW5bY0hdMg==

> <s_epik_cmdline>
J2VwaWtfcHl0aG9uJywgJy1waCcsICc3LjAnLCAnLXRuJywgJzgnLCAnLW1hJywgJzIwMCcsICctbWV0YWxfYmluZGluZycsICctaW1hZScsICc8aW5maWxlLm1hZT4nLCAnLW9tYWUnLCAnPG91dGZpbGUubWFlPic=

> <r_lp_tautomer_probability>
1

> <r_epik_Ionization_Penalty>
0.624284

> <r_epik_Ionization_Penalty_Charging>
0.624238

> <r_epik_Ionization_Penalty_Neutral>
4.66445e-05

> <r_epik_State_Penalty>
0.64053

> <r_epik_Charging_Adjusted_Penalty>
1.26477

> <i_epik_Tot_Q>
0

> <i_epik_Tot_abs_Q>
0

> <r_epik_Metal_State_Penalty>
0.307534

> <b_epik_Metal_Only>
0

> <s_lp_Force_Field>
OPLS_2005

> <r_lp_Energy>
41.7081

> <b_lp_Chiralities_Consistent>
1

> <s_lp_Variant>
AV-unprocessed.smi:1539-2

> <Gold.Version>
5.8.1

> <Gold.Id.Protein>
6NUR|6NUR_protein|mol2

> <Gold.PLP.Fitness>
41.1974

> <Gold.PLP.PLP>
-37.0201

> <Gold.PLP.part.hbond>
-3.0645

> <Gold.PLP.part.metal>
0.0000

> <Gold.PLP.part.buried>
-5.6182

> <Gold.PLP.part.nonpolar>
-28.9423

> <Gold.PLP.part.repulsive>
0.2975

> <Gold.PLP.ligand.clash>
1.2295

> <Gold.PLP.ligand.torsion>
0.3040

> <Gold.PLP.Chemscore.Hbond>
1.0000

> <Gold.PLP.Chemscore.CHOScore>
1.0000

> <Gold.PLP.Chemscore.Metal>
0.0000

> <Gold.Chemscore.Hbonds>
donor molecule, donor type, donor heavy atom, donor atom, acceptor molecule, acceptor atom, score
      P1  H  7997  8010       L1    10  0.91
      L1  C    18    37       P1  8029  0.91

> <Gold.PLP.Chemscore.Internal.Correction>
0.0147

> <Gold.Rescore>
     Score         DG    S(hbond)    S(metal)    S(lipo)     H(rot)  DE(clash)    DE(int)     intcor
     12.19     -12.89       1.00        0.00      70.91       1.65       0.16       0.54       ----

> <Gold.Chemscore.Fitness>
12.1863

> <Gold.Chemscore.DG>
-12.8871

> <Gold.Chemscore.ZeroCoef>
-5.4800

> <Gold.Chemscore.Hbond>
0.9997

> <Gold.Chemscore.Metal>
0.0000

> <Gold.Chemscore.Lipo>
70.9068

> <Gold.Chemscore.Internal_Hbond>
0.0000

> <Gold.Chemscore.DEClash>
0.1608

> <Gold.Chemscore.DEInternal>
0.5400

> <Gold.Chemscore.Rot>
1.6516

> <Gold.Chemscore.Internal.Correction>
   9.000000E+99

> <Gold.Chemscore.Hbonds>
donor molecule, donor type, donor heavy atom, donor atom, acceptor molecule, acceptor atom, score
      P1  H  7997  8010       L1    10  0.87

> <Gold.Chemscore.Hbond.Weighted>
-3.3391

> <Gold.Chemscore.Metal.Weighted>
-0.0000

> <Gold.Chemscore.Lipo.Weighted>
-8.2961

> <Gold.Chemscore.Internal_Hbond.Weighted>
0.0000

> <Gold.Chemscore.DEClash.Weighted>
0.1608

> <Gold.Chemscore.DEInternal.Weighted>
0.5400

> <Gold.Chemscore.Rot.Weighted>
4.2280

> <Gold.Chemscore.Internal.Correction.Weighted>
   9.000000E+99

> <Gold.Protein.RotatedTorsions>
[ 6907 6896 6895 6894 ] final   61.42 input  -60.11 | X-H torsion
[ 7974 7965 7964 7962 ] final  -17.62 input  175.53 | X-H torsion
[ 8008 7997 7996 7995 ] final   74.74 input   59.86 | X-H torsion
[ 10167 10162 10161 10158 ] final  -71.92 input  -65.29 | X-H torsion
[ 10718 10713 10712 10709 ] final -103.99 input   66.30 | X-H torsion
[ 10763 10752 10751 10750 ] final  -48.26 input  -60.55 | X-H torsion
[ 11005 11000 10999 10996 ] final -162.25 input  -57.11 | X-H torsion

> <Gold.Protein.ActiveResidues>
 VAL166  LYS551  ARG553  GLY616  TRP617  ASP618  TYR619  PRO620  LYS621  CYS622 
 ASP623  PHE694  ASN695  SER759  ASP760  ASP761  ALA762  ILE779  LEU786  VAL792 
 PHE793  MET794  SER795  GLU796  ALA797  LYS798  CYS799  TRP800  GLU811  SER814 

> <Gold.Protein.RotatedAtoms>
  152.4087  134.6162  160.0038 H   0  0  0  0  0  0  0  0  0  0  0  0  # atno 6907 bound_to 6896
  151.6345  133.3324  159.3124 H   0  0  0  0  0  0  0  0  0  0  0  0  # atno 6908 bound_to 6896
  150.7980  134.7094  159.6640 H   0  0  0  0  0  0  0  0  0  0  0  0  # atno 6909 bound_to 6896
  146.1932  140.3805  142.8450 H   0  0  0  0  0  0  0  0  0  0  0  0  # atno 7974 bound_to 7965
  155.8028  140.3476  155.5412 H   0  0  0  0  0  0  0  0  0  0  0  0  # atno 8008 bound_to 7997
  155.8521  140.0958  157.1688 H   0  0  0  0  0  0  0  0  0  0  0  0  # atno 8009 bound_to 7997
  154.4008  140.1374  156.3844 H   0  0  0  0  0  0  0  0  0  0  0  0  # atno 8010 bound_to 7997
  140.5234  143.2329  151.7390 H   0  0  0  0  0  0  0  0  0  0  0  0  # atno 10167 bound_to 10162
  156.0287  130.5494  150.7332 H   0  0  0  0  0  0  0  0  0  0  0  0  # atno 10718 bound_to 10713
  154.0749  135.6599  153.4829 H   0  0  0  0  0  0  0  0  0  0  0  0  # atno 10763 bound_to 10752
  153.0377  135.5166  154.7530 H   0  0  0  0  0  0  0  0  0  0  0  0  # atno 10764 bound_to 10752
  154.6608  135.3014  154.9837 H   0  0  0  0  0  0  0  0  0  0  0  0  # atno 10765 bound_to 10752
  140.6113  134.4846  157.5215 H   0  0  0  0  0  0  0  0  0  0  0  0  # atno 11005 bound_to 11000
  144.8527  140.7025  143.6157 LP  0  0  0  0  0  0  0  0  0  0  0  0  # atno 17320 bound_to 7965
  145.3727  139.1655  143.4323 LP  0  0  0  0  0  0  0  0  0  0  0  0  # atno 17321 bound_to 7965
  139.4930  144.4222  151.9965 LP  0  0  0  0  0  0  0  0  0  0  0  0  # atno 17342 bound_to 10162
  140.3319  144.3306  150.5985 LP  0  0  0  0  0  0  0  0  0  0  0  0  # atno 17343 bound_to 10162
  157.4920  131.0911  151.0416 LP  0  0  0  0  0  0  0  0  0  0  0  0  # atno 17370 bound_to 10713
  157.0820  130.5907  149.5422 LP  0  0  0  0  0  0  0  0  0  0  0  0  # atno 17371 bound_to 10713
  139.9191  134.8186  156.1269 LP  0  0  0  0  0  0  0  0  0  0  0  0  # atno 17394 bound_to 11000
  141.0806  133.6756  156.2328 LP  0  0  0  0  0  0  0  0  0  0  0  0  # atno 17395 bound_to 11000

$$$$
