AV-unprocessed.smi:1445|AV-procd|sdf|5888|dock8
  -GOLD-   22720 5573D 1   1.00000     0.00000
 Structure written by MMmdl.
 46 47  0  0  0  0  0  0  0  0  2 V2000
  151.8940  145.6188  159.6792 C   0  0  0  0  0  0  0  0  0  0  0  0
  151.5513  144.4642  158.9207 O   0  0  0  0  0  0  0  0  0  0  0  0
  152.1162  143.2526  159.2714 C   0  0  0  0  0  0  0  0  0  0  0  0
  152.9924  143.2241  160.3068 N   0  0  0  0  0  0  0  0  0  0  0  0
  153.5421  142.0414  160.6512 C   0  0  0  0  0  0  0  0  0  0  0  0
  153.2465  140.8335  159.9930 C   0  0  0  0  0  0  0  0  0  0  0  0
  152.3379  140.8604  158.9190 C   0  0  0  0  0  0  0  0  0  0  0  0
  151.7643  142.0969  158.5357 C   0  0  0  0  0  0  0  0  0  0  0  0
  150.8229  142.2325  157.4789 N   0  0  0  0  0  0  0  0  0  0  0  0
  150.5855  141.3902  156.4597 C   0  0  0  0  0  0  0  0  0  0  0  0
  151.1684  140.3238  156.2645 O   0  0  0  0  0  0  0  0  0  0  0  0
  149.6342  141.8692  155.6459 N   0  0  0  0  0  0  0  0  0  0  0  0
  149.1571  141.2048  154.4386 C   0  0  0  0  0  0  0  0  0  0  0  0
  147.8559  141.8460  153.9186 C   0  0  0  0  0  0  0  0  0  0  0  0
  147.0804  142.5106  154.9963 N   0  3  2  0  0  0  0  0  0  0  0  0
  146.6709  141.5575  156.0603 C   0  0  0  0  0  0  0  0  0  0  0  0
  145.9939  142.2892  157.2297 C   0  0  0  0  0  0  0  0  0  0  0  0
  144.7914  143.1066  156.7426 C   0  0  0  0  0  0  0  0  0  0  0  0
  145.2207  144.0691  155.6227 C   0  0  2  0  0  0  0  0  0  0  0  0
  144.0298  144.8816  155.0948 C   0  0  0  0  0  0  0  0  0  0  0  0
  145.9205  143.2927  154.4885 C   0  0  0  0  0  0  0  0  0  0  0  0
  151.3666  146.4837  159.2770 H   0  0  0  0  0  0  0  0  0  0  0  0
  152.9631  145.8286  159.6239 H   0  0  0  0  0  0  0  0  0  0  0  0
  151.6028  145.5113  160.7251 H   0  0  0  0  0  0  0  0  0  0  0  0
  154.2336  142.0574  161.4806 H   0  0  0  0  0  0  0  0  0  0  0  0
  153.7020  139.9065  160.3085 H   0  0  0  0  0  0  0  0  0  0  0  0
  152.0890  139.9352  158.4224 H   0  0  0  0  0  0  0  0  0  0  0  0
  150.3270  143.1118  157.4558 H   0  0  0  0  0  0  0  0  0  0  0  0
  149.2098  142.7553  155.8797 H   0  0  0  0  0  0  0  0  0  0  0  0
  149.9306  141.2300  153.6689 H   0  0  0  0  0  0  0  0  0  0  0  0
  149.0027  140.1562  154.6894 H   0  0  0  0  0  0  0  0  0  0  0  0
  148.0661  142.5582  153.1192 H   0  0  0  0  0  0  0  0  0  0  0  0
  147.2415  141.0607  153.4754 H   0  0  0  0  0  0  0  0  0  0  0  0
  145.9953  140.8102  155.6406 H   0  0  0  0  0  0  0  0  0  0  0  0
  147.5441  141.0216  156.4346 H   0  0  0  0  0  0  0  0  0  0  0  0
  145.6743  141.5701  157.9846 H   0  0  0  0  0  0  0  0  0  0  0  0
  146.7138  142.9489  157.7162 H   0  0  0  0  0  0  0  0  0  0  0  0
  144.0130  142.4340  156.3791 H   0  0  0  0  0  0  0  0  0  0  0  0
  144.3591  143.6627  157.5753 H   0  0  0  0  0  0  0  0  0  0  0  0
  145.9394  144.7754  156.0414 H   0  0  0  0  0  0  0  0  0  0  0  0
  143.2726  144.2339  154.6514 H   0  0  0  0  0  0  0  0  0  0  0  0
  144.3470  145.5935  154.3321 H   0  0  0  0  0  0  0  0  0  0  0  0
  143.5548  145.4485  155.8962 H   0  0  0  0  0  0  0  0  0  0  0  0
  146.2504  144.0013  153.7300 H   0  0  0  0  0  0  0  0  0  0  0  0
  145.2146  142.6178  154.0012 H   0  0  0  0  0  0  0  0  0  0  0  0
  147.7103  143.1665  155.4361 H   0  0  0  0  0  0  0  0  0  0  0  0
  1  2  1  0  0  0  0
  1 22  1  0  0  0  0
  1 23  1  0  0  0  0
  1 24  1  0  0  0  0
  2  3  1  0  0  0  0
  3  8  1  0  0  0  0
  3  4  2  0  0  0  0
  4  5  1  0  0  0  0
  5  6  2  0  0  0  0
  5 25  1  0  0  0  0
  6  7  1  0  0  0  0
  6 26  1  0  0  0  0
  7  8  2  0  0  0  0
  7 27  1  0  0  0  0
  8  9  1  0  0  0  0
  9 10  1  0  0  0  0
  9 28  1  0  0  0  0
 10 11  2  0  0  0  0
 10 12  1  0  0  0  0
 12 13  1  0  0  0  0
 12 29  1  0  0  0  0
 13 14  1  0  0  0  0
 13 30  1  0  0  0  0
 13 31  1  0  0  0  0
 14 15  1  0  0  0  0
 14 32  1  0  0  0  0
 14 33  1  0  0  0  0
 15 21  1  0  0  0  0
 15 16  1  0  0  0  0
 15 46  1  0  0  0  0
 16 17  1  0  0  0  0
 16 34  1  0  0  0  0
 16 35  1  0  0  0  0
 17 18  1  0  0  0  0
 17 36  1  0  0  0  0
 17 37  1  0  0  0  0
 18 19  1  0  0  0  0
 18 38  1  0  0  0  0
 18 39  1  0  0  0  0
 19 20  1  0  0  0  0
 19 21  1  0  0  0  0
 19 40  1  0  0  0  0
 20 41  1  0  0  0  0
 20 42  1  0  0  0  0
 20 43  1  0  0  0  0
 21 44  1  0  0  0  0
 21 45  1  0  0  0  0
M  CHG  1  15   1
M  END
> <s_m_source_file>
AV-unprocessed.smi

> <i_m_source_file_index>
1445

> <i_lp_mmshare_version>
43012

> <i_f3d_flags>
0

> <s_epik_input>
W0NIM11PYzFuW2NIXVtjSF1bY0hdYzFbTkhdQyg9TylbTkhdW0NIMl1bQ0gyXU4yW0NIMl1bQ0gyXVtDSDJdW0NAQEhdKFtDSDNdKVtDSDJdMg==

> <s_epik_cmdline>
J2VwaWtfcHl0aG9uJywgJy1waCcsICc3LjAnLCAnLXRuJywgJzgnLCAnLW1hJywgJzIwMCcsICctbWV0YWxfYmluZGluZycsICctaW1hZScsICc8aW5maWxlLm1hZT4nLCAnLW9tYWUnLCAnPG91dGZpbGUubWFlPic=

> <r_lp_tautomer_probability>
1

> <r_epik_Ionization_Penalty>
0.00179544

> <r_epik_Ionization_Penalty_Charging>
0.00171832

> <r_epik_Ionization_Penalty_Neutral>
7.71118e-05

> <r_epik_State_Penalty>
0.0011618

> <r_epik_Charging_Adjusted_Penalty>
0.00288012

> <i_epik_Tot_Q>
1

> <i_epik_Tot_abs_Q>
1

> <r_epik_Metal_State_Penalty>
-0

> <b_epik_Metal_Only>
0

> <s_lp_Force_Field>
OPLS_2005

> <r_lp_Energy>
18.8635

> <b_lp_Chiralities_Consistent>
1

> <s_lp_Variant>
AV-unprocessed.smi:1445-4

> <Gold.Version>
5.8.1

> <Gold.Id.Protein>
6NUR|6NUR_protein|mol2

> <Gold.PLP.Fitness>
49.8997

> <Gold.PLP.PLP>
-41.6723

> <Gold.PLP.part.hbond>
-2.0000

> <Gold.PLP.part.metal>
0.0000

> <Gold.PLP.part.buried>
-7.5349

> <Gold.PLP.part.nonpolar>
-32.2650

> <Gold.PLP.part.repulsive>
0.3513

> <Gold.PLP.ligand.clash>
0.0000

> <Gold.PLP.ligand.torsion>
0.3983

> <Gold.PLP.Chemscore.Hbond>
3.0000

> <Gold.PLP.Chemscore.CHOScore>
0.0000

> <Gold.PLP.Chemscore.Metal>
0.0000

> <Gold.Chemscore.Hbonds>
donor molecule, donor type, donor heavy atom, donor atom, acceptor molecule, acceptor atom, score
      L1  H    12    29       P1  8028  1.00
      L1  H    15    46       P1  8028  2.00

> <Gold.PLP.Chemscore.Internal.Correction>
0.0239

> <Gold.Rescore>
     Score         DG    S(hbond)    S(metal)    S(lipo)     H(rot)  DE(clash)    DE(int)     intcor
     14.14     -15.94       1.49        0.00      84.42       1.71       0.12       1.68       ----

> <Gold.Chemscore.Fitness>
14.1416

> <Gold.Chemscore.DG>
-15.9425

> <Gold.Chemscore.ZeroCoef>
-5.4800

> <Gold.Chemscore.Hbond>
1.4863

> <Gold.Chemscore.Metal>
0.0000

> <Gold.Chemscore.Lipo>
84.4237

> <Gold.Chemscore.Internal_Hbond>
0.0000

> <Gold.Chemscore.DEClash>
0.1229

> <Gold.Chemscore.DEInternal>
1.6781

> <Gold.Chemscore.Rot>
1.7107

> <Gold.Chemscore.Internal.Correction>
   9.000000E+99

> <Gold.Chemscore.Hbonds>
donor molecule, donor type, donor heavy atom, donor atom, acceptor molecule, acceptor atom, score
      L1  H    12    29       P1  8028  0.94
      L1  H    15    46       P1  8028  0.39

> <Gold.Chemscore.Hbond.Weighted>
-4.9644

> <Gold.Chemscore.Metal.Weighted>
-0.0000

> <Gold.Chemscore.Lipo.Weighted>
-9.8776

> <Gold.Chemscore.Internal_Hbond.Weighted>
0.0000

> <Gold.Chemscore.DEClash.Weighted>
0.1229

> <Gold.Chemscore.DEInternal.Weighted>
1.6781

> <Gold.Chemscore.Rot.Weighted>
4.3794

> <Gold.Chemscore.Internal.Correction.Weighted>
   9.000000E+99

> <Gold.Protein.RotatedTorsions>
[ 6907 6896 6895 6894 ] final  127.23 input  -60.11 | X-H torsion
[ 7974 7965 7964 7962 ] final  164.98 input  175.53 | X-H torsion
[ 8008 7997 7996 7995 ] final -162.05 input   59.86 | X-H torsion
[ 10167 10162 10161 10158 ] final  -60.45 input  -65.29 | X-H torsion
[ 10718 10713 10712 10709 ] final   56.92 input   66.30 | X-H torsion
[ 10763 10752 10751 10750 ] final   56.68 input  -60.55 | X-H torsion
[ 11005 11000 10999 10996 ] final  -11.06 input  -57.11 | X-H torsion

> <Gold.Protein.ActiveResidues>
 VAL166  LYS551  ARG553  GLY616  TRP617  ASP618  TYR619  PRO620  LYS621  CYS622 
 ASP623  PHE694  ASN695  SER759  ASP760  ASP761  ALA762  ILE779  LEU786  VAL792 
 PHE793  MET794  SER795  GLU796  ALA797  LYS798  CYS799  TRP800  GLU811  SER814 

> <Gold.Protein.RotatedAtoms>
  152.3831  133.6573  159.6176 H   0  0  0  0  0  0  0  0  0  0  0  0  # atno 6907 bound_to 6896
  150.7757  133.9080  159.3370 H   0  0  0  0  0  0  0  0  0  0  0  0  # atno 6908 bound_to 6896
  151.6882  135.0952  160.0280 H   0  0  0  0  0  0  0  0  0  0  0  0  # atno 6909 bound_to 6896
  144.7522  139.8404  143.6362 H   0  0  0  0  0  0  0  0  0  0  0  0  # atno 7974 bound_to 7965
  155.8011  140.0892  157.1956 H   0  0  0  0  0  0  0  0  0  0  0  0  # atno 8008 bound_to 7997
  154.3982  140.1472  156.3335 H   0  0  0  0  0  0  0  0  0  0  0  0  # atno 8009 bound_to 7997
  155.8461  140.3436  155.5665 H   0  0  0  0  0  0  0  0  0  0  0  0  # atno 8010 bound_to 7997
  140.6070  143.2376  151.5798 H   0  0  0  0  0  0  0  0  0  0  0  0  # atno 10167 bound_to 10162
  157.5471  130.8739  149.8907 H   0  0  0  0  0  0  0  0  0  0  0  0  # atno 10718 bound_to 10713
  152.9836  135.5668  154.5268 H   0  0  0  0  0  0  0  0  0  0  0  0  # atno 10763 bound_to 10752
  154.4747  135.2786  155.1618 H   0  0  0  0  0  0  0  0  0  0  0  0  # atno 10764 bound_to 10752
  154.3152  135.6280  153.5536 H   0  0  0  0  0  0  0  0  0  0  0  0  # atno 10765 bound_to 10752
  140.7513  133.8590  155.9047 H   0  0  0  0  0  0  0  0  0  0  0  0  # atno 11005 bound_to 11000
  146.1486  139.4563  143.0063 LP  0  0  0  0  0  0  0  0  0  0  0  0  # atno 17320 bound_to 7965
  145.6905  141.0165  143.1558 LP  0  0  0  0  0  0  0  0  0  0  0  0  # atno 17321 bound_to 7965
  139.5332  144.2855  152.1195 LP  0  0  0  0  0  0  0  0  0  0  0  0  # atno 17342 bound_to 10162
  140.2046  144.4623  150.6415 LP  0  0  0  0  0  0  0  0  0  0  0  0  # atno 17343 bound_to 10162
  156.0545  130.3711  150.1124 LP  0  0  0  0  0  0  0  0  0  0  0  0  # atno 17370 bound_to 10713
  156.9299  130.9710  151.3534 LP  0  0  0  0  0  0  0  0  0  0  0  0  # atno 17371 bound_to 10713
  140.9748  134.1483  157.4545 LP  0  0  0  0  0  0  0  0  0  0  0  0  # atno 17394 bound_to 11000
  139.8787  134.9991  156.5935 LP  0  0  0  0  0  0  0  0  0  0  0  0  # atno 17395 bound_to 11000

$$$$
