AV-unprocessed.smi:1505|AV-procd|sdf|6075|dock6
  -GOLD-   22720 6193D 1   1.00000     0.00000
 Structure written by MMmdl.
 44 45  0  0  0  0  0  0  0  0  1 V2000
  151.8995  146.1022  160.2913 C   0  0  0  0  0  0  0  0  0  0  0  0
  151.9375  144.5845  160.4837 C   0  0  0  0  0  0  0  0  0  0  0  0
  151.5998  144.1317  161.5776 O   0  0  0  0  0  0  0  0  0  0  0  0
  152.3416  143.7969  159.4582 N   0  0  0  0  0  0  0  0  0  0  0  0
  152.3678  142.3296  159.4742 C   0  0  0  0  0  0  0  0  0  0  0  0
  151.2434  141.8058  158.5650 C   0  0  0  0  0  0  0  0  0  0  0  0
  151.3671  142.3742  157.1295 C   0  0  0  0  0  0  0  0  0  0  0  0
  150.1854  142.0356  156.3430 N   0  0  0  0  0  0  0  0  0  0  0  0
  150.1454  141.0936  155.3912 C   0  0  0  0  0  0  0  0  0  0  0  0
  151.1311  140.4666  155.0015 O   0  0  0  0  0  0  0  0  0  0  0  0
  148.8938  140.8714  154.9634 N   0  0  0  0  0  0  0  0  0  0  0  0
  148.4848  139.7603  154.1059 C   0  0  0  0  0  0  0  0  0  0  0  0
  146.9584  139.7353  153.8822 C   0  0  0  0  0  0  0  0  0  0  0  0
  146.5236  138.6673  152.9116 C   0  0  0  0  0  0  0  0  0  0  0  0
  146.7968  138.5945  151.5154 C   0  0  0  0  0  0  0  0  0  0  0  0
  146.2250  137.5543  150.9317 N   0  0  0  0  0  0  0  0  0  0  0  0
  145.5747  136.9252  151.9317 N   0  0  0  0  0  0  0  0  0  0  0  0
  144.8127  135.7295  151.6441 C   0  0  0  0  0  0  0  0  0  0  0  0
  145.7450  137.5676  153.1393 C   0  0  0  0  0  0  0  0  0  0  0  0
  151.5573  143.9065  157.1446 C   0  0  0  0  0  0  0  0  0  0  0  0
  152.6644  144.3270  158.1285 C   0  0  0  0  0  0  0  0  0  0  0  0
  152.8851  146.4837  160.0227 H   0  0  0  0  0  0  0  0  0  0  0  0
  151.5913  146.5985  161.2121 H   0  0  0  0  0  0  0  0  0  0  0  0
  151.1878  146.3749  159.5118 H   0  0  0  0  0  0  0  0  0  0  0  0
  153.3346  141.9842  159.1050 H   0  0  0  0  0  0  0  0  0  0  0  0
  152.2695  141.9006  160.4702 H   0  0  0  0  0  0  0  0  0  0  0  0
  151.2648  140.7153  158.5460 H   0  0  0  0  0  0  0  0  0  0  0  0
  150.2790  142.0849  158.9927 H   0  0  0  0  0  0  0  0  0  0  0  0
  152.2470  141.9336  156.6568 H   0  0  0  0  0  0  0  0  0  0  0  0
  149.3230  142.4954  156.5957 H   0  0  0  0  0  0  0  0  0  0  0  0
  148.1555  141.4474  155.3404 H   0  0  0  0  0  0  0  0  0  0  0  0
  148.9961  139.8546  153.1479 H   0  0  0  0  0  0  0  0  0  0  0  0
  148.8123  138.8096  154.5304 H   0  0  0  0  0  0  0  0  0  0  0  0
  146.4673  139.5886  154.8448 H   0  0  0  0  0  0  0  0  0  0  0  0
  146.6349  140.7184  153.5393 H   0  0  0  0  0  0  0  0  0  0  0  0
  147.3753  139.2755  150.9088 H   0  0  0  0  0  0  0  0  0  0  0  0
  144.3597  135.3456  152.5585 H   0  0  0  0  0  0  0  0  0  0  0  0
  145.4679  134.9655  151.2248 H   0  0  0  0  0  0  0  0  0  0  0  0
  144.0235  135.9597  150.9276 H   0  0  0  0  0  0  0  0  0  0  0  0
  145.2852  137.2065  154.0475 H   0  0  0  0  0  0  0  0  0  0  0  0
  151.7944  144.2644  156.1421 H   0  0  0  0  0  0  0  0  0  0  0  0
  150.6237  144.3924  157.4332 H   0  0  0  0  0  0  0  0  0  0  0  0
  152.7746  145.4122  158.1217 H   0  0  0  0  0  0  0  0  0  0  0  0
  153.6270  143.9297  157.8033 H   0  0  0  0  0  0  0  0  0  0  0  0
  1  2  1  0  0  0  0
  1 22  1  0  0  0  0
  1 23  1  0  0  0  0
  1 24  1  0  0  0  0
  2  3  2  0  0  0  0
  2  4  1  0  0  0  0
  4 21  1  0  0  0  0
  4  5  1  0  0  0  0
  5  6  1  0  0  0  0
  5 25  1  0  0  0  0
  5 26  1  0  0  0  0
  6  7  1  0  0  0  0
  6 27  1  0  0  0  0
  6 28  1  0  0  0  0
  7  8  1  0  0  0  0
  7 20  1  0  0  0  0
  7 29  1  0  0  0  0
  8  9  1  0  0  0  0
  8 30  1  0  0  0  0
  9 10  2  0  0  0  0
  9 11  1  0  0  0  0
 11 12  1  0  0  0  0
 11 31  1  0  0  0  0
 12 13  1  0  0  0  0
 12 32  1  0  0  0  0
 12 33  1  0  0  0  0
 13 14  1  0  0  0  0
 13 34  1  0  0  0  0
 13 35  1  0  0  0  0
 14 19  2  0  0  0  0
 14 15  1  0  0  0  0
 15 16  2  0  0  0  0
 15 36  1  0  0  0  0
 16 17  1  0  0  0  0
 17 18  1  0  0  0  0
 17 19  1  0  0  0  0
 18 37  1  0  0  0  0
 18 38  1  0  0  0  0
 18 39  1  0  0  0  0
 19 40  1  0  0  0  0
 20 21  1  0  0  0  0
 20 41  1  0  0  0  0
 20 42  1  0  0  0  0
 21 43  1  0  0  0  0
 21 44  1  0  0  0  0
M  END
> <s_m_source_file>
AV-unprocessed.smi

> <i_m_source_file_index>
1505

> <i_lp_mmshare_version>
43012

> <i_f3d_flags>
0

> <s_epik_input>
W0NIM11DKD1PKU4xW0NIMl1bQ0gyXVtDSF0oW0NIMl1bQ0gyXTEpW05IXUMoPU8pW05IXVtDSDJdW0NIMl1jMltjSF1ubihbQ0gzXSlbY0hdMg==

> <s_epik_cmdline>
J2VwaWtfcHl0aG9uJywgJy1waCcsICc3LjAnLCAnLXRuJywgJzgnLCAnLW1hJywgJzIwMCcsICctbWV0YWxfYmluZGluZycsICctaW1hZScsICc8aW5maWxlLm1hZT4nLCAnLW9tYWUnLCAnPG91dGZpbGUubWFlPic=

> <r_lp_tautomer_probability>
1

> <r_epik_Ionization_Penalty>
0.000559595

> <r_epik_Ionization_Penalty_Charging>
0

> <r_epik_Ionization_Penalty_Neutral>
0.000559595

> <r_epik_State_Penalty>
-0

> <r_epik_Charging_Adjusted_Penalty>
0

> <i_epik_Tot_Q>
0

> <i_epik_Tot_abs_Q>
0

> <r_epik_Metal_State_Penalty>
-0

> <b_epik_Metal_Only>
0

> <s_lp_Force_Field>
OPLS_2005

> <r_lp_Energy>
17.177

> <b_lp_Chiralities_Consistent>
1

> <s_lp_Variant>
AV-unprocessed.smi:1505-1

> <Gold.Version>
5.8.1

> <Gold.Id.Protein>
6NUR|6NUR_protein|mol2

> <Gold.PLP.Fitness>
47.8475

> <Gold.PLP.PLP>
-42.2493

> <Gold.PLP.part.hbond>
-2.4248

> <Gold.PLP.part.metal>
0.0000

> <Gold.PLP.part.buried>
-0.6059

> <Gold.PLP.part.nonpolar>
-42.3212

> <Gold.PLP.part.repulsive>
2.9871

> <Gold.PLP.ligand.clash>
0.0000

> <Gold.PLP.ligand.torsion>
0.2144

> <Gold.PLP.Chemscore.Hbond>
1.0000

> <Gold.PLP.Chemscore.CHOScore>
0.9985

> <Gold.PLP.Chemscore.Metal>
0.0000

> <Gold.Chemscore.Hbonds>
donor molecule, donor type, donor heavy atom, donor atom, acceptor molecule, acceptor atom, score
      P1  H  7989  7998       L1    10  1.00
      L1  C    15    36       P1  7957  1.00

> <Gold.PLP.Chemscore.Internal.Correction>
0.0314

> <Gold.Rescore>
     Score         DG    S(hbond)    S(metal)    S(lipo)     H(rot)  DE(clash)    DE(int)     intcor
     13.60     -15.81       0.93        0.00      98.68       1.69       2.06       0.15       ----

> <Gold.Chemscore.Fitness>
13.6023

> <Gold.Chemscore.DG>
-15.8133

> <Gold.Chemscore.ZeroCoef>
-5.4800

> <Gold.Chemscore.Hbond>
0.9322

> <Gold.Chemscore.Metal>
0.0000

> <Gold.Chemscore.Lipo>
98.6772

> <Gold.Chemscore.Internal_Hbond>
0.0000

> <Gold.Chemscore.DEClash>
2.0597

> <Gold.Chemscore.DEInternal>
0.1513

> <Gold.Chemscore.Rot>
1.6896

> <Gold.Chemscore.Internal.Correction>
   9.000000E+99

> <Gold.Chemscore.Hbonds>
donor molecule, donor type, donor heavy atom, donor atom, acceptor molecule, acceptor atom, score
      L1  H     8    30       P1  8028  0.02
      P1  H  7989  7998       L1    10  0.84

> <Gold.Chemscore.Hbond.Weighted>
-3.1135

> <Gold.Chemscore.Metal.Weighted>
-0.0000

> <Gold.Chemscore.Lipo.Weighted>
-11.5452

> <Gold.Chemscore.Internal_Hbond.Weighted>
0.0000

> <Gold.Chemscore.DEClash.Weighted>
2.0597

> <Gold.Chemscore.DEInternal.Weighted>
0.1513

> <Gold.Chemscore.Rot.Weighted>
4.3255

> <Gold.Chemscore.Internal.Correction.Weighted>
   9.000000E+99

> <Gold.Protein.RotatedTorsions>
[ 6907 6896 6895 6894 ] final  -42.61 input  -60.11 | X-H torsion
[ 7974 7965 7964 7962 ] final  109.69 input  175.53 | X-H torsion
[ 8008 7997 7996 7995 ] final   70.78 input   59.86 | X-H torsion
[ 10167 10162 10161 10158 ] final   43.87 input  -65.29 | X-H torsion
[ 10718 10713 10712 10709 ] final  179.68 input   66.30 | X-H torsion
[ 10763 10752 10751 10750 ] final   98.54 input  -60.55 | X-H torsion
[ 11005 11000 10999 10996 ] final -158.06 input  -57.11 | X-H torsion

> <Gold.Protein.ActiveResidues>
 VAL166  LYS551  ARG553  GLY616  TRP617  ASP618  TYR619  PRO620  LYS621  CYS622 
 ASP623  PHE694  ASN695  SER759  ASP760  ASP761  ALA762  ILE779  LEU786  VAL792 
 PHE793  MET794  SER795  GLU796  ALA797  LYS798  CYS799  TRP800  GLU811  SER814 

> <Gold.Protein.RotatedAtoms>
  150.9533  134.8931  159.7685 H   0  0  0  0  0  0  0  0  0  0  0  0  # atno 6907 bound_to 6896
  152.5128  134.3775  159.9349 H   0  0  0  0  0  0  0  0  0  0  0  0  # atno 6908 bound_to 6896
  151.3790  133.3787  159.2743 H   0  0  0  0  0  0  0  0  0  0  0  0  # atno 6909 bound_to 6896
  145.2645  139.2690  143.3999 H   0  0  0  0  0  0  0  0  0  0  0  0  # atno 7974 bound_to 7965
  155.7439  140.3490  155.5117 H   0  0  0  0  0  0  0  0  0  0  0  0  # atno 8008 bound_to 7997
  155.9068  140.1043  157.1330 H   0  0  0  0  0  0  0  0  0  0  0  0  # atno 8009 bound_to 7997
  154.4050  140.1275  156.4493 H   0  0  0  0  0  0  0  0  0  0  0  0  # atno 8010 bound_to 7997
  140.3400  144.2482  150.6157 H   0  0  0  0  0  0  0  0  0  0  0  0  # atno 10167 bound_to 10162
  156.8721  130.9787  151.3072 H   0  0  0  0  0  0  0  0  0  0  0  0  # atno 10718 bound_to 10713
  153.2903  135.4145  155.1160 H   0  0  0  0  0  0  0  0  0  0  0  0  # atno 10763 bound_to 10752
  154.8518  135.3516  154.5991 H   0  0  0  0  0  0  0  0  0  0  0  0  # atno 10764 bound_to 10752
  153.6413  135.7057  153.5298 H   0  0  0  0  0  0  0  0  0  0  0  0  # atno 10765 bound_to 10752
  140.6577  134.4382  157.5235 H   0  0  0  0  0  0  0  0  0  0  0  0  # atno 11005 bound_to 11000
  146.3265  140.3071  142.8624 LP  0  0  0  0  0  0  0  0  0  0  0  0  # atno 17320 bound_to 7965
  144.9389  140.8056  143.5643 LP  0  0  0  0  0  0  0  0  0  0  0  0  # atno 17321 bound_to 7965
  140.5318  143.2242  151.8227 LP  0  0  0  0  0  0  0  0  0  0  0  0  # atno 17342 bound_to 10162
  139.4842  144.4711  151.9424 LP  0  0  0  0  0  0  0  0  0  0  0  0  # atno 17343 bound_to 10162
  157.6189  130.8640  149.9075 LP  0  0  0  0  0  0  0  0  0  0  0  0  # atno 17370 bound_to 10713
  156.0721  130.3684  150.0754 LP  0  0  0  0  0  0  0  0  0  0  0  0  # atno 17371 bound_to 10713
  139.9023  134.8526  156.1843 LP  0  0  0  0  0  0  0  0  0  0  0  0  # atno 17394 bound_to 11000
  141.0489  133.6899  156.1734 LP  0  0  0  0  0  0  0  0  0  0  0  0  # atno 17395 bound_to 11000

$$$$
