#       Name:                AV-unprocessed.smi:1758
#       Creating user name   scv26
#       Creation time:       Fri Mar 27 08:30:30 2020


#       File generated by GOLD software.
#

@<TRIPOS>MOLECULE
AV-unprocessed.smi:1758
    47    49     1
SMALL
NO_CHARGES


@<TRIPOS>ATOM
      1 ****        -7.2910   1.0972  -1.4906 C.3            1 S1                 0.0000
      2 ****        -6.5595  -0.2377  -1.3085 C.3            1 S1                 0.0000
      3 ****        -5.1212  -0.0592  -1.2690 N.pl3          1 S1                 0.0000
      4 ****        -4.3161   0.1417  -0.1655 C.2            1 S1                 0.0000
      5 ****        -3.0465   0.2548  -0.6469 C.2            1 S1                 0.0000
      6 ****        -1.8951   0.4737   0.1503 N.am           1 S1                 0.0000
      7 ****        -0.6217   0.5549  -0.2677 C.2            1 S1                 0.0000
      8 ****        -0.2499   0.4300  -1.4343 O.2            1 S1                 0.0000
      9 ****         0.2141   0.7848   0.7551 N.am           1 S1                 0.0000
     10 ****         1.6637   0.9218   0.6424 C.3            1 S1                 0.0000
     11 ****         2.2655   1.8254   1.7123 C.3            1 S1                 0.0000
     12 ****         3.7390   1.4133   1.6943 C.3            1 S1                 0.0000
     13 ****         3.7567  -0.0306   1.3636 N.4            1 S1                 1.0000
     14 ****         4.8947  -0.4519   0.5102 C.3            1 S1                 0.0000
     15 ****         4.8466  -1.9679   0.2418 C.3            1 S1                 0.0000
     16 ****         3.4577  -2.4591  -0.2176 C.3            1 S1                 0.0000
     17 ****         2.4606  -1.3045  -0.3989 C.3            1 S1                 0.0000
     18 ****         2.4054  -0.4079   0.8592 C.3            1 S1                 0.0000
     19 ****        -3.1533   0.1164  -2.0599 C.2            1 S1                 0.0000
     20 ****        -4.4129  -0.0713  -2.4250 N.2            1 S1                 0.0000
     21 ****        -8.3702   0.9467  -1.5196 H              1 S1                 0.0000
     22 ****        -6.9977   1.5845  -2.4210 H              1 S1                 0.0000
     23 ****        -7.0722   1.7810  -0.6699 H              1 S1                 0.0000
     24 ****        -6.8757  -0.7174  -0.3816 H              1 S1                 0.0000
     25 ****        -6.8104  -0.9218  -2.1206 H              1 S1                 0.0000
     26 ****        -4.7095   0.1857   0.8395 H              1 S1                 0.0000
     27 ****        -2.0595   0.5805   1.1404 H              1 S1                 0.0000
     28 ****        -0.1823   0.8751   1.6793 H              1 S1                 0.0000
     29 ****         1.9302   1.3380  -0.3317 H              1 S1                 0.0000
     30 ****         2.1211   2.8861   1.5043 H              1 S1                 0.0000
     31 ****         1.8288   1.6072   2.6883 H              1 S1                 0.0000
     32 ****         4.2605   1.9798   0.9209 H              1 S1                 0.0000
     33 ****         4.2389   1.6100   2.6431 H              1 S1                 0.0000
     34 ****         4.8682   0.0965  -0.4330 H              1 S1                 0.0000
     35 ****         5.8337  -0.1887   0.9984 H              1 S1                 0.0000
     36 ****         5.5978  -2.2256  -0.5056 H              1 S1                 0.0000
     37 ****         5.1312  -2.5042   1.1480 H              1 S1                 0.0000
     38 ****         3.5463  -3.0244  -1.1458 H              1 S1                 0.0000
     39 ****         3.0626  -3.1560   0.5228 H              1 S1                 0.0000
     40 ****         2.7485  -0.7139  -1.2696 H              1 S1                 0.0000
     41 ****         1.4701  -1.7031  -0.6201 H              1 S1                 0.0000
     42 ****         1.9266  -0.9610   1.6692 H              1 S1                 0.0000
     43 ****        -2.3882   0.1455  -2.8212 H              1 S1                 0.0000
     44 ****         3.8642  -0.5243   2.2383 H              1 S1                 0.0000
     45 ****        -0.9190   0.2534  -2.1561 LP             1 S1                 0.0000
     46 ****         0.7213   0.5051  -1.6603 LP             1 S1                 0.0000
     47 ****        -4.7651  -0.1951  -3.3526 LP             1 S1                 0.0000
@<TRIPOS>BOND
    1    1    2 1     
    2    1   21 1     
    3    1   22 1     
    4    1   23 1     
    5    2    3 1     
    6    2   24 1     
    7    2   25 1     
    8    3   20 1     
    9    3    4 1     
   10    4    5 2     
   11    4   26 1     
   12    5    6 1     
   13    5   19 1     
   14    6    7 am    
   15    6   27 1     
   16    7    8 2     
   17    7    9 am    
   18    9   10 1     
   19    9   28 1     
   20   10   18 1     
   21   10   11 1     
   22   10   29 1     
   23   11   12 1     
   24   11   30 1     
   25   11   31 1     
   26   12   13 1     
   27   12   32 1     
   28   12   33 1     
   29   13   18 1     
   30   13   14 1     
   31   13   44 1     
   32   14   15 1     
   33   14   34 1     
   34   14   35 1     
   35   15   16 1     
   36   15   36 1     
   37   15   37 1     
   38   16   17 1     
   39   16   38 1     
   40   16   39 1     
   41   17   18 1     
   42   17   40 1     
   43   17   41 1     
   44   18   42 1     
   45   19   20 2     
   46   19   43 1     
   47    8   45 1     
   48    8   46 1     
   49   20   47 1     
@<TRIPOS>SUBSTRUCTURE
      1 S1             1
@<TRIPOS>SET
LONE_PAIRS      STATIC     ATOMS    <user>   **** ""
3 45 46 47
DONOR_HYDROGENS      STATIC     ATOMS    <user>   **** ""
3 27 28 44
ATOM$BLUE        STATIC     ATOMS    COLORGROUP SYSTEM
3 45 46 47
ATOM$RED        STATIC     ATOMS    COLORGROUP SYSTEM
3 27 28 44
