AV-unprocessed.smi:1200|AV-procd|sdf|5022|dock2
  -GOLD-   22720 4 43D 1   1.00000     0.00000
 Structure written by MMmdl.
 42 43  0  0  0  0  0  0  0  0  1 V2000
  146.1574  134.4491  153.7156 C   0  0  0  0  0  0  0  0  0  0  0  0
  146.4955  135.7157  153.0855 N   0  0  0  0  0  0  0  0  0  0  0  0
  145.8091  136.8541  153.2617 C   0  0  0  0  0  0  0  0  0  0  0  0
  144.8107  136.9389  153.9761 O   0  0  0  0  0  0  0  0  0  0  0  0
  146.3242  138.0886  152.5123 C   0  0  0  0  0  0  0  0  0  0  0  0
  146.8870  139.1517  153.3778 N   0  0  0  0  0  0  0  0  0  0  0  0
  147.2115  140.3755  152.6293 C   0  0  0  0  0  0  0  0  0  0  0  0
  147.7274  141.4705  153.5800 C   0  0  0  0  0  0  0  0  0  0  0  0
  148.9588  140.9943  154.3633 C   0  0  0  0  0  0  0  0  0  0  0  0
  149.3426  141.9969  155.3542 N   0  0  0  0  0  0  0  0  0  0  0  0
  150.1704  141.8000  156.3907 C   0  0  0  0  0  0  0  0  0  0  0  0
  150.7035  140.7199  156.6431 O   0  0  0  0  0  0  0  0  0  0  0  0
  150.3174  142.9252  157.1115 N   0  0  0  0  0  0  0  0  0  0  0  0
  151.1122  143.1378  158.2709 C   0  0  0  0  0  0  0  0  0  0  0  0
  151.3509  144.4683  158.6729 C   0  0  0  0  0  0  0  0  0  0  0  0
  152.1473  144.7106  159.8083 C   0  0  0  0  0  0  0  0  0  0  0  0
  152.6864  143.6062  160.4957 C   0  0  0  0  0  0  0  0  0  0  0  0
  152.4818  142.3274  160.1165 N   0  0  0  0  0  0  0  0  0  0  0  0
  151.7143  142.1020  159.0281 C   0  0  0  0  0  0  0  0  0  0  0  0
  148.6280  139.6658  155.0575 C   0  0  0  0  0  0  0  0  0  0  0  0
  148.0837  138.6368  154.0515 C   0  0  0  0  0  0  0  0  0  0  0  0
  146.8830  133.6874  153.4312 H   0  0  0  0  0  0  0  0  0  0  0  0
  145.1684  134.1120  153.4026 H   0  0  0  0  0  0  0  0  0  0  0  0
  146.1674  134.5405  154.8026 H   0  0  0  0  0  0  0  0  0  0  0  0
  147.3054  135.7331  152.4825 H   0  0  0  0  0  0  0  0  0  0  0  0
  147.0888  137.7463  151.8134 H   0  0  0  0  0  0  0  0  0  0  0  0
  145.5140  138.4988  151.9062 H   0  0  0  0  0  0  0  0  0  0  0  0
  147.9549  140.1602  151.8596 H   0  0  0  0  0  0  0  0  0  0  0  0
  146.3319  140.7640  152.1160 H   0  0  0  0  0  0  0  0  0  0  0  0
  147.9725  142.3675  153.0102 H   0  0  0  0  0  0  0  0  0  0  0  0
  146.9309  141.7514  154.2709 H   0  0  0  0  0  0  0  0  0  0  0  0
  149.7707  140.8185  153.6553 H   0  0  0  0  0  0  0  0  0  0  0  0
  148.9481  142.9185  155.2362 H   0  0  0  0  0  0  0  0  0  0  0  0
  149.7532  143.7118  156.8249 H   0  0  0  0  0  0  0  0  0  0  0  0
  150.9263  145.2953  158.1224 H   0  0  0  0  0  0  0  0  0  0  0  0
  152.3417  145.7185  160.1436 H   0  0  0  0  0  0  0  0  0  0  0  0
  153.3028  143.7541  161.3703 H   0  0  0  0  0  0  0  0  0  0  0  0
  151.6097  141.0621  158.7616 H   0  0  0  0  0  0  0  0  0  0  0  0
  149.5187  139.2684  155.5454 H   0  0  0  0  0  0  0  0  0  0  0  0
  147.8897  139.8272  155.8449 H   0  0  0  0  0  0  0  0  0  0  0  0
  147.8391  137.7187  154.5874 H   0  0  0  0  0  0  0  0  0  0  0  0
  148.8523  138.3814  153.3195 H   0  0  0  0  0  0  0  0  0  0  0  0
  1  2  1  0  0  0  0
  1 22  1  0  0  0  0
  1 23  1  0  0  0  0
  1 24  1  0  0  0  0
  2  3  1  0  0  0  0
  2 25  1  0  0  0  0
  3  4  2  0  0  0  0
  3  5  1  0  0  0  0
  5  6  1  0  0  0  0
  5 26  1  0  0  0  0
  5 27  1  0  0  0  0
  6 21  1  0  0  0  0
  6  7  1  0  0  0  0
  7  8  1  0  0  0  0
  7 28  1  0  0  0  0
  7 29  1  0  0  0  0
  8  9  1  0  0  0  0
  8 30  1  0  0  0  0
  8 31  1  0  0  0  0
  9 10  1  0  0  0  0
  9 20  1  0  0  0  0
  9 32  1  0  0  0  0
 10 11  1  0  0  0  0
 10 33  1  0  0  0  0
 11 12  2  0  0  0  0
 11 13  1  0  0  0  0
 13 14  1  0  0  0  0
 13 34  1  0  0  0  0
 14 19  1  0  0  0  0
 14 15  2  0  0  0  0
 15 16  1  0  0  0  0
 15 35  1  0  0  0  0
 16 17  2  0  0  0  0
 16 36  1  0  0  0  0
 17 18  1  0  0  0  0
 17 37  1  0  0  0  0
 18 19  2  0  0  0  0
 19 38  1  0  0  0  0
 20 21  1  0  0  0  0
 20 39  1  0  0  0  0
 20 40  1  0  0  0  0
 21 41  1  0  0  0  0
 21 42  1  0  0  0  0
M  END
> <s_m_source_file>
AV-unprocessed.smi

> <i_m_source_file_index>
1200

> <i_lp_mmshare_version>
43012

> <i_f3d_flags>
0

> <s_epik_input>
W0NIM11bTkhdQyg9TylbQ0gyXU4xW0NIMl1bQ0gyXVtDSF0oW0NIMl1bQ0gyXTEpW05IXUMoPU8pW05IXWMyW2NIXVtjSF1bY0hdbltjSF0y

> <s_epik_cmdline>
J2VwaWtfcHl0aG9uJywgJy1waCcsICc3LjAnLCAnLXRuJywgJzgnLCAnLW1hJywgJzIwMCcsICctbWV0YWxfYmluZGluZycsICctaW1hZScsICc8aW5maWxlLm1hZT4nLCAnLW9tYWUnLCAnPG91dGZpbGUubWFlPic=

> <r_epik_Ionization_Penalty>
0.169655

> <r_epik_Ionization_Penalty_Charging>
0

> <r_epik_Ionization_Penalty_Neutral>
0.169655

> <r_epik_State_Penalty>
0.162809

> <r_epik_Charging_Adjusted_Penalty>
0.162809

> <i_epik_Tot_Q>
0

> <i_epik_Tot_abs_Q>
0

> <r_epik_Metal_State_Penalty>
0.163912

> <b_epik_Metal_Only>
0

> <s_lp_Force_Field>
OPLS_2005

> <r_lp_Energy>
16.8115

> <b_lp_Chiralities_Consistent>
1

> <s_lp_Variant>
AV-unprocessed.smi:1200-1

> <Gold.Version>
5.8.1

> <Gold.Id.Protein>
6NUR|6NUR_protein|mol2

> <Gold.PLP.Fitness>
45.3170

> <Gold.PLP.PLP>
-36.9455

> <Gold.PLP.part.hbond>
-3.0000

> <Gold.PLP.part.metal>
0.0000

> <Gold.PLP.part.buried>
-4.3978

> <Gold.PLP.part.nonpolar>
-30.4862

> <Gold.PLP.part.repulsive>
0.5782

> <Gold.PLP.ligand.clash>
0.0000

> <Gold.PLP.ligand.torsion>
0.3252

> <Gold.PLP.Chemscore.Hbond>
3.0000

> <Gold.PLP.Chemscore.CHOScore>
0.0000

> <Gold.PLP.Chemscore.Metal>
0.0000

> <Gold.Chemscore.Hbonds>
donor molecule, donor type, donor heavy atom, donor atom, acceptor molecule, acceptor atom, score
      L1  H     2    25       P1  7948  1.00
      L1  H    10    33       P1  8028  1.00
      L1  H    13    34       P1  8028  1.00

> <Gold.PLP.Chemscore.Internal.Correction>
0.0219

> <Gold.Rescore>
     Score         DG    S(hbond)    S(metal)    S(lipo)     H(rot)  DE(clash)    DE(int)     intcor
     19.70     -22.82       2.90        0.00     101.79       1.66       0.19       2.93       ----

> <Gold.Chemscore.Fitness>
19.7017

> <Gold.Chemscore.DG>
-22.8199

> <Gold.Chemscore.ZeroCoef>
-5.4800

> <Gold.Chemscore.Hbond>
2.8998

> <Gold.Chemscore.Metal>
0.0000

> <Gold.Chemscore.Lipo>
101.7947

> <Gold.Chemscore.Internal_Hbond>
0.0000

> <Gold.Chemscore.DEClash>
0.1869

> <Gold.Chemscore.DEInternal>
2.9314

> <Gold.Chemscore.Rot>
1.6623

> <Gold.Chemscore.Internal.Correction>
   9.000000E+99

> <Gold.Chemscore.Hbonds>
donor molecule, donor type, donor heavy atom, donor atom, acceptor molecule, acceptor atom, score
      L1  H     2    25       P1  7948  1.00
      L1  H    10    33       P1  8028  0.96
      L1  H    13    34       P1  8028  0.97

> <Gold.Chemscore.Hbond.Weighted>
-9.6854

> <Gold.Chemscore.Metal.Weighted>
-0.0000

> <Gold.Chemscore.Lipo.Weighted>
-11.9100

> <Gold.Chemscore.Internal_Hbond.Weighted>
0.0000

> <Gold.Chemscore.DEClash.Weighted>
0.1869

> <Gold.Chemscore.DEInternal.Weighted>
2.9314

> <Gold.Chemscore.Rot.Weighted>
4.2554

> <Gold.Chemscore.Internal.Correction.Weighted>
   9.000000E+99

> <Gold.Protein.RotatedTorsions>
[ 6907 6896 6895 6894 ] final -133.56 input  -60.11 | X-H torsion
[ 7974 7965 7964 7962 ] final   19.30 input  175.53 | X-H torsion
[ 8008 7997 7996 7995 ] final  132.04 input   59.86 | X-H torsion
[ 10167 10162 10161 10158 ] final  143.52 input  -65.29 | X-H torsion
[ 10718 10713 10712 10709 ] final   23.21 input   66.30 | X-H torsion
[ 10763 10752 10751 10750 ] final  -85.66 input  -60.55 | X-H torsion
[ 11005 11000 10999 10996 ] final  138.88 input  -57.11 | X-H torsion

> <Gold.Protein.ActiveResidues>
 VAL166  LYS551  ARG553  GLY616  TRP617  ASP618  TYR619  PRO620  LYS621  CYS622 
 ASP623  PHE694  ASN695  SER759  ASP760  ASP761  ALA762  ILE779  LEU786  VAL792 
 PHE793  MET794  SER795  GLU796  ALA797  LYS798  CYS799  TRP800  GLU811  SER814 

> <Gold.Protein.RotatedAtoms>
  150.9755  133.6299  159.2730 H   0  0  0  0  0  0  0  0  0  0  0  0  # atno 6907 bound_to 6896
  151.3573  135.0896  159.9432 H   0  0  0  0  0  0  0  0  0  0  0  0  # atno 6908 bound_to 6896
  152.5198  133.9336  159.7647 H   0  0  0  0  0  0  0  0  0  0  0  0  # atno 6909 bound_to 6896
  146.2154  139.8333  142.8656 H   0  0  0  0  0  0  0  0  0  0  0  0  # atno 7974 bound_to 7965
  156.2978  140.2556  156.3025 H   0  0  0  0  0  0  0  0  0  0  0  0  # atno 8008 bound_to 7997
  154.9404  140.0396  157.2112 H   0  0  0  0  0  0  0  0  0  0  0  0  # atno 8009 bound_to 7997
  154.8132  140.2848  155.5843 H   0  0  0  0  0  0  0  0  0  0  0  0  # atno 8010 bound_to 7997
  139.4968  144.6034  151.6431 H   0  0  0  0  0  0  0  0  0  0  0  0  # atno 10167 bound_to 10162
  157.1629  130.6725  149.6050 H   0  0  0  0  0  0  0  0  0  0  0  0  # atno 10718 bound_to 10713
  154.6137  135.5477  153.7500 H   0  0  0  0  0  0  0  0  0  0  0  0  # atno 10763 bound_to 10752
  153.0206  135.6395  154.1542 H   0  0  0  0  0  0  0  0  0  0  0  0  # atno 10764 bound_to 10752
  154.1478  135.2904  155.3123 H   0  0  0  0  0  0  0  0  0  0  0  0  # atno 10765 bound_to 10752
  140.0215  134.9394  157.0483 H   0  0  0  0  0  0  0  0  0  0  0  0  # atno 11005 bound_to 11000
  145.2975  141.0185  143.3628 LP  0  0  0  0  0  0  0  0  0  0  0  0  # atno 17320 bound_to 7965
  144.9031  139.4624  143.6623 LP  0  0  0  0  0  0  0  0  0  0  0  0  # atno 17321 bound_to 7965
  140.5690  144.0141  150.6207 LP  0  0  0  0  0  0  0  0  0  0  0  0  # atno 17342 bound_to 10162
  140.3252  143.3112  152.0743 LP  0  0  0  0  0  0  0  0  0  0  0  0  # atno 17343 bound_to 10162
  155.9751  130.4705  150.6433 LP  0  0  0  0  0  0  0  0  0  0  0  0  # atno 17370 bound_to 10713
  157.4115  131.0824  151.1216 LP  0  0  0  0  0  0  0  0  0  0  0  0  # atno 17371 bound_to 10713
  140.4379  134.1712  155.7172 LP  0  0  0  0  0  0  0  0  0  0  0  0  # atno 17394 bound_to 11000
  141.1776  133.8480  157.1367 LP  0  0  0  0  0  0  0  0  0  0  0  0  # atno 17395 bound_to 11000

$$$$
