AV-unprocessed.smi:1740|AV-procd|sdf|7013|dock9
  -GOLD-   22720 8233D 1   1.00000     0.00000
 Structure written by MMmdl.
 51 53  0  0  0  0  0  0  0  0  3 V2000
  146.0076  137.6346  150.9590 N   0  5  0  0  0  0  0  0  0  0  0  0
  145.9681  137.8884  152.2824 C   0  0  0  0  0  0  0  0  0  0  0  0
  146.1442  138.9633  152.8510 O   0  0  0  0  0  0  0  0  0  0  0  0
  145.6626  136.6342  153.1087 C   0  0  0  0  0  0  0  0  0  0  0  0
  146.9113  136.0323  153.6432 N   0  3  2  0  0  0  0  0  0  0  0  0
  146.7438  134.5957  153.9793 C   0  0  0  0  0  0  0  0  0  0  0  0
  148.0807  133.9598  154.4014 C   0  0  0  0  0  0  0  0  0  0  0  0
  148.7345  134.7191  155.5719 C   0  0  2  0  0  0  0  0  0  0  0  0
  147.9785  134.5461  156.8116 N   0  0  0  0  0  0  0  0  0  0  0  0
  148.3746  134.9455  158.0283 C   0  0  0  0  0  0  0  0  0  0  0  0
  149.4313  135.5400  158.2376 O   0  0  0  0  0  0  0  0  0  0  0  0
  147.4645  134.6150  158.9595 N   0  0  0  0  0  0  0  0  0  0  0  0
  147.4747  134.8736  160.3608 C   0  0  0  0  0  0  0  0  0  0  0  0
  147.9233  136.1051  160.9001 C   0  0  0  0  0  0  0  0  0  0  0  0
  147.9684  136.2721  162.2949 C   0  0  0  0  0  0  0  0  0  0  0  0
  147.5789  135.1948  163.1071 C   0  0  0  0  0  0  0  0  0  0  0  0
  147.1622  134.0130  162.6115 N   0  0  0  0  0  0  0  0  0  0  0  0
  147.0983  133.8419  161.2682 C   0  0  0  0  0  0  0  0  0  0  0  0
  146.6391  132.5880  160.8041 N   0  0  0  0  0  0  0  0  0  0  0  0
  145.2091  132.3110  160.9053 C   0  0  0  0  0  0  0  0  0  0  0  0
  145.0783  130.8245  161.2543 C   0  0  0  0  0  0  0  0  0  0  0  0
  146.4131  130.2308  160.8148 C   0  0  0  0  0  0  0  0  0  0  0  0
  147.3860  131.3705  161.1022 C   0  0  0  0  0  0  0  0  0  0  0  0
  148.8473  136.2110  155.2156 C   0  0  0  0  0  0  0  0  0  0  0  0
  147.4955  136.8021  154.7746 C   0  0  0  0  0  0  0  0  0  0  0  0
  145.1259  137.4383  150.4696 H   0  0  0  0  0  0  0  0  0  0  0  0
  144.9747  136.8679  153.9229 H   0  0  0  0  0  0  0  0  0  0  0  0
  145.1458  135.9248  152.4598 H   0  0  0  0  0  0  0  0  0  0  0  0
  146.0039  134.4905  154.7743 H   0  0  0  0  0  0  0  0  0  0  0  0
  146.3540  134.0602  153.1129 H   0  0  0  0  0  0  0  0  0  0  0  0
  147.9313  132.9108  154.6601 H   0  0  0  0  0  0  0  0  0  0  0  0
  148.7609  133.9649  153.5487 H   0  0  0  0  0  0  0  0  0  0  0  0
  149.7425  134.3303  155.7281 H   0  0  0  0  0  0  0  0  0  0  0  0
  147.0879  134.0767  156.7380 H   0  0  0  0  0  0  0  0  0  0  0  0
  146.6153  134.1926  158.6136 H   0  0  0  0  0  0  0  0  0  0  0  0
  148.2566  136.9184  160.2752 H   0  0  0  0  0  0  0  0  0  0  0  0
  148.3062  137.2004  162.7310 H   0  0  0  0  0  0  0  0  0  0  0  0
  147.6082  135.2810  164.1832 H   0  0  0  0  0  0  0  0  0  0  0  0
  144.7200  132.9398  161.6506 H   0  0  0  0  0  0  0  0  0  0  0  0
  144.7433  132.5071  159.9393 H   0  0  0  0  0  0  0  0  0  0  0  0
  144.9656  130.7101  162.3332 H   0  0  0  0  0  0  0  0  0  0  0  0
  144.2218  130.3498  160.7754 H   0  0  0  0  0  0  0  0  0  0  0  0
  146.6680  129.3113  161.3424 H   0  0  0  0  0  0  0  0  0  0  0  0
  146.3926  130.0168  159.7453 H   0  0  0  0  0  0  0  0  0  0  0  0
  148.2868  131.2978  160.4920 H   0  0  0  0  0  0  0  0  0  0  0  0
  147.6793  131.3392  162.1523 H   0  0  0  0  0  0  0  0  0  0  0  0
  149.2446  136.7733  156.0614 H   0  0  0  0  0  0  0  0  0  0  0  0
  149.5686  136.3325  154.4061 H   0  0  0  0  0  0  0  0  0  0  0  0
  147.6441  137.8424  154.4840 H   0  0  0  0  0  0  0  0  0  0  0  0
  146.7946  136.8093  155.6108 H   0  0  0  0  0  0  0  0  0  0  0  0
  147.5747  136.0738  152.8816 H   0  0  0  0  0  0  0  0  0  0  0  0
  1  2  1  0  0  0  0
  1 26  1  0  0  0  0
  2  3  2  0  0  0  0
  2  4  1  0  0  0  0
  4  5  1  0  0  0  0
  4 27  1  0  0  0  0
  4 28  1  0  0  0  0
  5 25  1  0  0  0  0
  5  6  1  0  0  0  0
  5 51  1  0  0  0  0
  6  7  1  0  0  0  0
  6 29  1  0  0  0  0
  6 30  1  0  0  0  0
  7  8  1  0  0  0  0
  7 31  1  0  0  0  0
  7 32  1  0  0  0  0
  8  9  1  0  0  0  0
  8 24  1  0  0  0  0
  8 33  1  0  0  0  0
  9 10  1  0  0  0  0
  9 34  1  0  0  0  0
 10 11  2  0  0  0  0
 10 12  1  0  0  0  0
 12 13  1  0  0  0  0
 12 35  1  0  0  0  0
 13 18  1  0  0  0  0
 13 14  2  0  0  0  0
 14 15  1  0  0  0  0
 14 36  1  0  0  0  0
 15 16  2  0  0  0  0
 15 37  1  0  0  0  0
 16 17  1  0  0  0  0
 16 38  1  0  0  0  0
 17 18  2  0  0  0  0
 18 19  1  0  0  0  0
 19 23  1  0  0  0  0
 19 20  1  0  0  0  0
 20 21  1  0  0  0  0
 20 39  1  0  0  0  0
 20 40  1  0  0  0  0
 21 22  1  0  0  0  0
 21 41  1  0  0  0  0
 21 42  1  0  0  0  0
 22 23  1  0  0  0  0
 22 43  1  0  0  0  0
 22 44  1  0  0  0  0
 23 45  1  0  0  0  0
 23 46  1  0  0  0  0
 24 25  1  0  0  0  0
 24 47  1  0  0  0  0
 24 48  1  0  0  0  0
 25 49  1  0  0  0  0
 25 50  1  0  0  0  0
M  CHG  1   1  -1
M  CHG  1   5   1
M  END
> <s_m_source_file>
AV-unprocessed.smi

> <i_m_source_file_index>
1740

> <i_lp_mmshare_version>
43012

> <i_f3d_flags>
0

> <s_epik_input>
W05IMl1DKD1PKVtDSDJdTjFbQ0gyXVtDSDJdW0NIXShbQ0gyXVtDSDJdMSlbTkhdQyg9TylbTkhdYzJbY0hdW2NIXVtjSF1uYzJOM1tDSDJdW0NIMl1bQ0gyXVtDSDJdMw==

> <s_epik_cmdline>
J2VwaWtfcHl0aG9uJywgJy1waCcsICc3LjAnLCAnLXRuJywgJzgnLCAnLW1hJywgJzIwMCcsICctbWV0YWxfYmluZGluZycsICctaW1hZScsICc8aW5maWxlLm1hZT4nLCAnLW9tYWUnLCAnPG91dGZpbGUubWFlPic=

> <r_lp_tautomer_probability>
1

> <r_epik_Ionization_Penalty>
5.80652

> <r_epik_Ionization_Penalty_Charging>
5.7288

> <r_epik_Ionization_Penalty_Neutral>
0.0777157

> <r_epik_State_Penalty>
6.60246

> <r_epik_Charging_Adjusted_Penalty>
12.3313

> <i_epik_Tot_Q>
0

> <i_epik_Tot_abs_Q>
2

> <r_epik_Metal_State_Penalty>
2.64988

> <b_epik_Metal_Only>
1

> <s_lp_Force_Field>
OPLS_2005

> <r_lp_Energy>
35.9305

> <b_lp_Chiralities_Consistent>
1

> <s_lp_Variant>
AV-unprocessed.smi:1740-8

> <Gold.Version>
5.8.1

> <Gold.Id.Protein>
6NUR|6NUR_protein|mol2

> <Gold.PLP.Fitness>
45.4875

> <Gold.PLP.PLP>
-32.3294

> <Gold.PLP.part.hbond>
-4.5881

> <Gold.PLP.part.metal>
0.0000

> <Gold.PLP.part.buried>
-4.9301

> <Gold.PLP.part.nonpolar>
-23.9296

> <Gold.PLP.part.repulsive>
0.3116

> <Gold.PLP.ligand.clash>
0.0000

> <Gold.PLP.ligand.torsion>
1.0561

> <Gold.PLP.Chemscore.Hbond>
4.9825

> <Gold.PLP.Chemscore.CHOScore>
0.0000

> <Gold.PLP.Chemscore.Metal>
0.0000

> <Gold.Chemscore.Hbonds>
donor molecule, donor type, donor heavy atom, donor atom, acceptor molecule, acceptor atom, score
      L1  H     1    26       P1 10171  0.61
      L1  H     5    51       P1  7948  2.00
      P1  H  6896  6907       L1    11  0.93
      P1  H  7954  7966       L1     1  0.05

> <Gold.PLP.Chemscore.Internal.Correction>
0.3228

> <Gold.Rescore>
     Score         DG    S(hbond)    S(metal)    S(lipo)     H(rot)  DE(clash)    DE(int)     intcor
     19.18     -20.48       3.91        0.00      63.69       2.16       0.26       1.04       ----

> <Gold.Chemscore.Fitness>
19.1847

> <Gold.Chemscore.DG>
-20.4837

> <Gold.Chemscore.ZeroCoef>
-5.4800

> <Gold.Chemscore.Hbond>
3.9136

> <Gold.Chemscore.Metal>
0.0000

> <Gold.Chemscore.Lipo>
63.6923

> <Gold.Chemscore.Internal_Hbond>
0.0000

> <Gold.Chemscore.DEClash>
0.2570

> <Gold.Chemscore.DEInternal>
1.0419

> <Gold.Chemscore.Rot>
2.1562

> <Gold.Chemscore.Internal.Correction>
   9.000000E+99

> <Gold.Chemscore.Hbonds>
donor molecule, donor type, donor heavy atom, donor atom, acceptor molecule, acceptor atom, score
      L1  H     1    26       P1 10171  0.60
      L1  H     5    51       P1  7948  1.00
      P1  H  6896  6907       L1    11  0.65
      P1  H  7954  7966       L1     1  0.09

> <Gold.Chemscore.Hbond.Weighted>
-13.0715

> <Gold.Chemscore.Metal.Weighted>
-0.0000

> <Gold.Chemscore.Lipo.Weighted>
-7.4520

> <Gold.Chemscore.Internal_Hbond.Weighted>
0.0000

> <Gold.Chemscore.DEClash.Weighted>
0.2570

> <Gold.Chemscore.DEInternal.Weighted>
1.0419

> <Gold.Chemscore.Rot.Weighted>
5.5198

> <Gold.Chemscore.Internal.Correction.Weighted>
   9.000000E+99

> <Gold.Protein.RotatedTorsions>
[ 6907 6896 6895 6894 ] final  -82.30 input  -60.11 | X-H torsion
[ 7974 7965 7964 7962 ] final  -29.24 input  175.53 | X-H torsion
[ 8008 7997 7996 7995 ] final  -36.22 input   59.86 | X-H torsion
[ 10167 10162 10161 10158 ] final  119.27 input  -65.29 | X-H torsion
[ 10718 10713 10712 10709 ] final  137.45 input   66.30 | X-H torsion
[ 10763 10752 10751 10750 ] final    1.17 input  -60.55 | X-H torsion
[ 11005 11000 10999 10996 ] final -137.92 input  -57.11 | X-H torsion

> <Gold.Protein.ActiveResidues>
 VAL166  LYS551  ARG553  GLY616  TRP617  ASP618  TYR619  PRO620  LYS621  CYS622 
 ASP623  PHE694  ASN695  SER759  ASP760  ASP761  ALA762  ILE779  LEU786  VAL792 
 PHE793  MET794  SER795  GLU796  ALA797  LYS798  CYS799  TRP800  GLU811  SER814 

> <Gold.Protein.RotatedAtoms>
  150.6899  134.3686  159.4981 H   0  0  0  0  0  0  0  0  0  0  0  0  # atno 6907 bound_to 6896
  152.1505  134.8989  160.0557 H   0  0  0  0  0  0  0  0  0  0  0  0  # atno 6908 bound_to 6896
  152.0088  133.3819  159.4248 H   0  0  0  0  0  0  0  0  0  0  0  0  # atno 6909 bound_to 6896
  146.1230  140.5387  142.8727 H   0  0  0  0  0  0  0  0  0  0  0  0  # atno 7974 bound_to 7965
  154.4078  140.1636  156.2338 H   0  0  0  0  0  0  0  0  0  0  0  0  # atno 8008 bound_to 7997
  155.9260  140.3418  155.6188 H   0  0  0  0  0  0  0  0  0  0  0  0  # atno 8009 bound_to 7997
  155.7165  140.0763  157.2340 H   0  0  0  0  0  0  0  0  0  0  0  0  # atno 8010 bound_to 7997
  139.6057  144.7069  151.2959 H   0  0  0  0  0  0  0  0  0  0  0  0  # atno 10167 bound_to 10162
  157.4359  131.1053  151.0198 H   0  0  0  0  0  0  0  0  0  0  0  0  # atno 10718 bound_to 10713
  153.3114  135.6963  153.7112 H   0  0  0  0  0  0  0  0  0  0  0  0  # atno 10763 bound_to 10752
  153.5987  135.3466  155.2938 H   0  0  0  0  0  0  0  0  0  0  0  0  # atno 10764 bound_to 10752
  154.8576  135.4335  154.2254 H   0  0  0  0  0  0  0  0  0  0  0  0  # atno 10765 bound_to 10752
  140.8665  134.2104  157.4676 H   0  0  0  0  0  0  0  0  0  0  0  0  # atno 11005 bound_to 11000
  144.7616  140.5434  143.6732 LP  0  0  0  0  0  0  0  0  0  0  0  0  # atno 17320 bound_to 7965
  145.5425  139.1475  143.3439 LP  0  0  0  0  0  0  0  0  0  0  0  0  # atno 17321 bound_to 7965
  140.7283  143.6940  150.7899 LP  0  0  0  0  0  0  0  0  0  0  0  0  # atno 17342 bound_to 10162
  140.0525  143.5236  152.2667 LP  0  0  0  0  0  0  0  0  0  0  0  0  # atno 17343 bound_to 10162
  157.1078  130.6009  149.5475 LP  0  0  0  0  0  0  0  0  0  0  0  0  # atno 17370 bound_to 10713
  155.9930  130.4990  150.7364 LP  0  0  0  0  0  0  0  0  0  0  0  0  # atno 17371 bound_to 10713
  139.8709  134.9754  156.4883 LP  0  0  0  0  0  0  0  0  0  0  0  0  # atno 17394 bound_to 11000
  140.8623  133.8051  155.9277 LP  0  0  0  0  0  0  0  0  0  0  0  0  # atno 17395 bound_to 11000

$$$$
