AV-unprocessed.smi:2438|AV-procd|sdf|9601|dock5
  -GOLD-   2272013233D 1   1.00000     0.00000
 Structure written by MMmdl.
 44 45  0  0  0  0  0  0  0  0  2 V2000
  144.3300  146.8552  158.4620 C   0  0  0  0  0  0  0  0  0  0  0  0
  144.5635  145.4233  158.6041 N   0  0  0  0  0  0  0  0  0  0  0  0
  143.8224  144.5579  157.6968 C   0  0  0  0  0  0  0  0  0  0  0  0
  144.6384  144.9255  159.9204 C   0  0  0  0  0  0  0  0  0  0  0  0
  143.4859  144.8024  160.6186 N   0  0  0  0  0  0  0  0  0  0  0  0
  143.5119  144.3196  161.8646 C   0  0  0  0  0  0  0  0  0  0  0  0
  144.6431  143.9453  162.4754 N   0  3  0  0  0  0  0  0  0  0  0  0
  145.8246  144.0514  161.8220 C   0  0  0  0  0  0  0  0  0  0  0  0
  145.8755  144.5476  160.4968 C   0  0  0  0  0  0  0  0  0  0  0  0
  147.0828  144.7241  159.7592 N   0  0  0  0  0  0  0  0  0  0  0  0
  148.3547  144.5678  160.1630 C   0  0  0  0  0  0  0  0  0  0  0  0
  148.7047  144.2205  161.2901 O   0  0  0  0  0  0  0  0  0  0  0  0
  149.2101  144.8326  159.1654 N   0  0  0  0  0  0  0  0  0  0  0  0
  150.6674  144.7743  159.2470 C   0  0  2  0  0  0  0  0  0  0  0  0
  151.2778  145.0844  157.8686 C   0  0  0  0  0  0  0  0  0  0  0  0
  152.8076  144.9514  157.8945 C   0  0  0  0  0  0  0  0  0  0  0  0
  153.2384  143.5624  158.3912 C   0  0  0  0  0  0  0  0  0  0  0  0
  152.6441  143.2438  159.7797 C   0  0  2  0  0  0  0  0  0  0  0  0
  153.0866  141.8586  160.2945 C   0  0  0  0  0  0  0  0  0  0  0  0
  152.3687  140.8892  159.7264 F   0  0  0  0  0  0  0  0  0  0  0  0
  154.3752  141.6588  160.0179 F   0  0  0  0  0  0  0  0  0  0  0  0
  152.9307  141.7919  161.6167 F   0  0  0  0  0  0  0  0  0  0  0  0
  151.1066  143.3838  159.7432 C   0  0  0  0  0  0  0  0  0  0  0  0
  144.9727  147.4239  159.1355 H   0  0  0  0  0  0  0  0  0  0  0  0
  143.2905  147.1054  158.6790 H   0  0  0  0  0  0  0  0  0  0  0  0
  144.5502  147.1732  157.4426 H   0  0  0  0  0  0  0  0  0  0  0  0
  144.1646  143.5243  157.7503 H   0  0  0  0  0  0  0  0  0  0  0  0
  143.9441  144.8962  156.6673 H   0  0  0  0  0  0  0  0  0  0  0  0
  142.7586  144.5774  157.9367 H   0  0  0  0  0  0  0  0  0  0  0  0
  142.5969  144.2196  162.4299 H   0  0  0  0  0  0  0  0  0  0  0  0
  146.6783  143.7453  162.4059 H   0  0  0  0  0  0  0  0  0  0  0  0
  146.9563  144.9659  158.7868 H   0  0  0  0  0  0  0  0  0  0  0  0
  148.8230  145.1053  158.2738 H   0  0  0  0  0  0  0  0  0  0  0  0
  151.0376  145.5166  159.9566 H   0  0  0  0  0  0  0  0  0  0  0  0
  150.8693  144.4037  157.1200 H   0  0  0  0  0  0  0  0  0  0  0  0
  151.0015  146.0916  157.5540 H   0  0  0  0  0  0  0  0  0  0  0  0
  153.2124  145.1316  156.8982 H   0  0  0  0  0  0  0  0  0  0  0  0
  153.2305  145.7196  158.5432 H   0  0  0  0  0  0  0  0  0  0  0  0
  152.9232  142.8063  157.6710 H   0  0  0  0  0  0  0  0  0  0  0  0
  154.3272  143.5153  158.4288 H   0  0  0  0  0  0  0  0  0  0  0  0
  153.0264  143.9873  160.4812 H   0  0  0  0  0  0  0  0  0  0  0  0
  150.6953  143.2079  160.7380 H   0  0  0  0  0  0  0  0  0  0  0  0
  150.6855  142.6130  159.0960 H   0  0  0  0  0  0  0  0  0  0  0  0
  144.6260  143.5874  163.4308 H   0  0  0  0  0  0  0  0  0  0  0  0
  1  2  1  0  0  0  0
  1 24  1  0  0  0  0
  1 25  1  0  0  0  0
  1 26  1  0  0  0  0
  2  3  1  0  0  0  0
  2  4  1  0  0  0  0
  3 27  1  0  0  0  0
  3 28  1  0  0  0  0
  3 29  1  0  0  0  0
  4  9  1  0  0  0  0
  4  5  2  0  0  0  0
  5  6  1  0  0  0  0
  6  7  2  0  0  0  0
  6 30  1  0  0  0  0
  7  8  1  0  0  0  0
  7 44  1  0  0  0  0
  8  9  2  0  0  0  0
  8 31  1  0  0  0  0
  9 10  1  0  0  0  0
 10 11  1  0  0  0  0
 10 32  1  0  0  0  0
 11 12  2  0  0  0  0
 11 13  1  0  0  0  0
 13 14  1  0  0  0  0
 13 33  1  0  0  0  0
 14 23  1  0  0  0  0
 14 15  1  0  0  0  0
 14 34  1  0  0  0  0
 15 16  1  0  0  0  0
 15 35  1  0  0  0  0
 15 36  1  0  0  0  0
 16 17  1  0  0  0  0
 16 37  1  0  0  0  0
 16 38  1  0  0  0  0
 17 18  1  0  0  0  0
 17 39  1  0  0  0  0
 17 40  1  0  0  0  0
 18 19  1  0  0  0  0
 18 23  1  0  0  0  0
 18 41  1  0  0  0  0
 19 20  1  0  0  0  0
 19 21  1  0  0  0  0
 19 22  1  0  0  0  0
 23 42  1  0  0  0  0
 23 43  1  0  0  0  0
M  CHG  1   7   1
M  END
> <s_m_source_file>
AV-unprocessed.smi

> <i_m_source_file_index>
2438

> <i_lp_mmshare_version>
43012

> <i_f3d_flags>
0

> <s_epik_input>
W0NIM11OKFtDSDNdKWMxbltjSF1uW2NIXWMxW05IXUMoPU8pW05IXVtDQEBIXTJbQ0gyXVtDSDJdW0NIMl1bQ0BASF0oQyhGKShGKUYpW0NIMl0y

> <s_epik_cmdline>
J2VwaWtfcHl0aG9uJywgJy1waCcsICc3LjAnLCAnLXRuJywgJzgnLCAnLW1hJywgJzIwMCcsICctbWV0YWxfYmluZGluZycsICctaW1hZScsICc8aW5maWxlLm1hZT4nLCAnLW9tYWUnLCAnPG91dGZpbGUubWFlPic=

> <r_lp_tautomer_probability>
0.999336

> <r_epik_Ionization_Penalty>
2.11643

> <r_epik_Ionization_Penalty_Charging>
2.11639

> <r_epik_Ionization_Penalty_Neutral>
4.47523e-05

> <r_epik_State_Penalty>
2.25369

> <r_epik_Charging_Adjusted_Penalty>
4.37008

> <i_epik_Tot_Q>
1

> <i_epik_Tot_abs_Q>
1

> <r_epik_Metal_State_Penalty>
2.27019

> <b_epik_Metal_Only>
0

> <s_lp_Force_Field>
OPLS_2005

> <r_lp_Energy>
18.5992

> <b_lp_Chiralities_Consistent>
1

> <s_lp_Variant>
AV-unprocessed.smi:2438-7

> <Gold.Version>
5.8.1

> <Gold.Id.Protein>
6NUR|6NUR_protein|mol2

> <Gold.PLP.Fitness>
48.9100

> <Gold.PLP.PLP>
-42.0868

> <Gold.PLP.part.hbond>
-3.7782

> <Gold.PLP.part.metal>
0.0000

> <Gold.PLP.part.buried>
-6.3249

> <Gold.PLP.part.nonpolar>
-32.6253

> <Gold.PLP.part.repulsive>
0.8460

> <Gold.PLP.ligand.clash>
0.0022

> <Gold.PLP.ligand.torsion>
0.6621

> <Gold.PLP.Chemscore.Hbond>
2.5948

> <Gold.PLP.Chemscore.CHOScore>
0.0000

> <Gold.PLP.Chemscore.Metal>
0.0000

> <Gold.Chemscore.Hbonds>
donor molecule, donor type, donor heavy atom, donor atom, acceptor molecule, acceptor atom, score
      L1  H    10    32       P1  8029  0.83
      L1  H    13    33       P1  8029  1.00
      P1  H  6933  6944       L1    12  0.75

> <Gold.PLP.Chemscore.Internal.Correction>
0.3651

> <Gold.Rescore>
     Score         DG    S(hbond)    S(metal)    S(lipo)     H(rot)  DE(clash)    DE(int)     intcor
     18.89     -22.00       2.52        0.00      97.82       1.31       1.45       1.66       ----

> <Gold.Chemscore.Fitness>
18.8868

> <Gold.Chemscore.DG>
-22.0013

> <Gold.Chemscore.ZeroCoef>
-5.4800

> <Gold.Chemscore.Hbond>
2.5224

> <Gold.Chemscore.Metal>
0.0000

> <Gold.Chemscore.Lipo>
97.8153

> <Gold.Chemscore.Internal_Hbond>
0.0000

> <Gold.Chemscore.DEClash>
1.4506

> <Gold.Chemscore.DEInternal>
1.6639

> <Gold.Chemscore.Rot>
1.3078

> <Gold.Chemscore.Internal.Correction>
   9.000000E+99

> <Gold.Chemscore.Hbonds>
donor molecule, donor type, donor heavy atom, donor atom, acceptor molecule, acceptor atom, score
      L1  H    10    32       P1  8029  0.79
      L1  H    13    33       P1  8029  0.80
      P1  H  6933  6944       L1    12  0.56

> <Gold.Chemscore.Hbond.Weighted>
-8.4250

> <Gold.Chemscore.Metal.Weighted>
-0.0000

> <Gold.Chemscore.Lipo.Weighted>
-11.4444

> <Gold.Chemscore.Internal_Hbond.Weighted>
0.0000

> <Gold.Chemscore.DEClash.Weighted>
1.4506

> <Gold.Chemscore.DEInternal.Weighted>
1.6639

> <Gold.Chemscore.Rot.Weighted>
3.3481

> <Gold.Chemscore.Internal.Correction.Weighted>
   9.000000E+99

> <Gold.Protein.RotatedTorsions>
[ 6907 6896 6895 6894 ] final  173.85 input  -60.11 | X-H torsion
[ 7974 7965 7964 7962 ] final  -33.26 input  175.53 | X-H torsion
[ 8008 7997 7996 7995 ] final  -84.81 input   59.86 | X-H torsion
[ 10167 10162 10161 10158 ] final  173.22 input  -65.29 | X-H torsion
[ 10718 10713 10712 10709 ] final  122.16 input   66.30 | X-H torsion
[ 10763 10752 10751 10750 ] final  145.53 input  -60.55 | X-H torsion
[ 11005 11000 10999 10996 ] final  120.26 input  -57.11 | X-H torsion

> <Gold.Protein.ActiveResidues>
 VAL166  LYS551  ARG553  GLY616  TRP617  ASP618  TYR619  PRO620  LYS621  CYS622 
 ASP623  PHE694  ASN695  SER759  ASP760  ASP761  ALA762  ILE779  LEU786  VAL792 
 PHE793  MET794  SER795  GLU796  ALA797  LYS798  CYS799  TRP800  GLU811  SER814 

> <Gold.Protein.RotatedAtoms>
  151.7617  133.3334  159.3419 H   0  0  0  0  0  0  0  0  0  0  0  0  # atno 6907 bound_to 6896
  150.7495  134.6099  159.6090 H   0  0  0  0  0  0  0  0  0  0  0  0  # atno 6908 bound_to 6896
  152.3401  134.7148  160.0317 H   0  0  0  0  0  0  0  0  0  0  0  0  # atno 6909 bound_to 6896
  146.0924  140.5895  142.8858 H   0  0  0  0  0  0  0  0  0  0  0  0  # atno 7974 bound_to 7965
  154.6339  140.0600  156.9765 H   0  0  0  0  0  0  0  0  0  0  0  0  # atno 8008 bound_to 7997
  155.1622  140.3283  155.4390 H   0  0  0  0  0  0  0  0  0  0  0  0  # atno 8009 bound_to 7997
  156.2497  140.1928  156.6729 H   0  0  0  0  0  0  0  0  0  0  0  0  # atno 8010 bound_to 7997
  139.5101  144.3285  152.0134 H   0  0  0  0  0  0  0  0  0  0  0  0  # atno 10167 bound_to 10162
  157.5763  131.1079  150.8272 H   0  0  0  0  0  0  0  0  0  0  0  0  # atno 10718 bound_to 10713
  154.0069  135.2918  155.3396 H   0  0  0  0  0  0  0  0  0  0  0  0  # atno 10763 bound_to 10752
  154.7126  135.5143  153.8693 H   0  0  0  0  0  0  0  0  0  0  0  0  # atno 10764 bound_to 10752
  153.0741  135.6657  154.0304 H   0  0  0  0  0  0  0  0  0  0  0  0  # atno 10765 bound_to 10752
  139.9178  134.9633  156.7779 H   0  0  0  0  0  0  0  0  0  0  0  0  # atno 11005 bound_to 11000
  144.7370  140.4837  143.6896 LP  0  0  0  0  0  0  0  0  0  0  0  0  # atno 17320 bound_to 7965
  145.6013  139.1504  143.3127 LP  0  0  0  0  0  0  0  0  0  0  0  0  # atno 17321 bound_to 7965
  140.2725  144.3948  150.6146 LP  0  0  0  0  0  0  0  0  0  0  0  0  # atno 17342 bound_to 10162
  140.6078  143.2168  151.6946 LP  0  0  0  0  0  0  0  0  0  0  0  0  # atno 17343 bound_to 10162
  156.8730  130.5152  149.5295 LP  0  0  0  0  0  0  0  0  0  0  0  0  # atno 17370 bound_to 10713
  156.0808  130.5819  150.9560 LP  0  0  0  0  0  0  0  0  0  0  0  0  # atno 17371 bound_to 10713
  140.6568  133.9682  155.7783 LP  0  0  0  0  0  0  0  0  0  0  0  0  # atno 17394 bound_to 11000
  141.0671  134.0261  157.3579 LP  0  0  0  0  0  0  0  0  0  0  0  0  # atno 17395 bound_to 11000

$$$$
