AV-unprocessed.smi:2786|AV-procd|sdf|10748|dock7
  -GOLD-   2272015183D 1   1.00000     0.00000
 Structure written by MMmdl.
 27 28  0  0  0  0  0  0  0  0  2 V2000
  151.2266  144.8160  159.3261 C   0  0  0  0  0  0  0  0  0  0  0  0
  151.9021  143.5496  159.5333 N   0  0  0  0  0  0  0  0  0  0  0  0
  152.7889  143.2608  160.5622 C   0  0  0  0  0  0  0  0  0  0  0  0
  153.1833  141.9564  160.3885 C   0  0  0  0  0  0  0  0  0  0  0  0
  152.5537  141.4308  159.2656 N   0  0  0  0  0  0  0  0  0  0  0  0
  151.8100  142.4280  158.7918 C   0  0  0  0  0  0  0  0  0  0  0  0
  150.9319  142.3163  157.5788 C   0  0  2  0  0  0  0  0  0  0  0  0
  149.4361  142.3252  157.9649 C   0  0  0  0  0  0  0  0  0  0  0  0
  148.5908  142.2584  156.7547 N   0  3  0  0  0  0  0  0  0  0  0  0
  148.9403  141.0892  155.9230 C   0  0  0  0  0  0  0  0  0  0  0  0
  150.4415  141.1174  155.5822 C   0  0  0  0  0  0  0  0  0  0  0  0
  151.2237  141.1031  156.8144 N   0  0  0  0  0  0  0  0  0  0  0  0
  151.4403  145.4956  160.1517 H   0  0  0  0  0  0  0  0  0  0  0  0
  150.1493  144.6575  159.2717 H   0  0  0  0  0  0  0  0  0  0  0  0
  151.5724  145.2706  158.3974 H   0  0  0  0  0  0  0  0  0  0  0  0
  153.0582  143.9874  161.3148 H   0  0  0  0  0  0  0  0  0  0  0  0
  153.8636  141.3609  160.9792 H   0  0  0  0  0  0  0  0  0  0  0  0
  151.1398  143.1685  156.9310 H   0  0  0  0  0  0  0  0  0  0  0  0
  149.1996  141.4851  158.6203 H   0  0  0  0  0  0  0  0  0  0  0  0
  149.1899  143.2356  158.5121 H   0  0  0  0  0  0  0  0  0  0  0  0
  147.6187  142.2046  157.0230 H   0  0  0  0  0  0  0  0  0  0  0  0
  148.6831  140.1721  156.4554 H   0  0  0  0  0  0  0  0  0  0  0  0
  148.3430  141.1088  155.0113 H   0  0  0  0  0  0  0  0  0  0  0  0
  150.7051  140.2412  154.9893 H   0  0  0  0  0  0  0  0  0  0  0  0
  150.6943  141.9952  154.9854 H   0  0  0  0  0  0  0  0  0  0  0  0
  150.9358  140.3037  157.3616 H   0  0  0  0  0  0  0  0  0  0  0  0
  148.7390  143.0963  156.2109 H   0  0  0  0  0  0  0  0  0  0  0  0
  1  2  1  0  0  0  0
  1 13  1  0  0  0  0
  1 14  1  0  0  0  0
  1 15  1  0  0  0  0
  2  6  1  0  0  0  0
  2  3  1  0  0  0  0
  3  4  2  0  0  0  0
  3 16  1  0  0  0  0
  4  5  1  0  0  0  0
  4 17  1  0  0  0  0
  5  6  2  0  0  0  0
  6  7  1  0  0  0  0
  7 12  1  0  0  0  0
  7  8  1  0  0  0  0
  7 18  1  0  0  0  0
  8  9  1  0  0  0  0
  8 19  1  0  0  0  0
  8 20  1  0  0  0  0
  9 10  1  0  0  0  0
  9 21  1  0  0  0  0
  9 27  1  0  0  0  0
 10 11  1  0  0  0  0
 10 22  1  0  0  0  0
 10 23  1  0  0  0  0
 11 12  1  0  0  0  0
 11 24  1  0  0  0  0
 11 25  1  0  0  0  0
 12 26  1  0  0  0  0
M  CHG  1   9   1
M  END
> <s_m_source_file>
AV-unprocessed.smi

> <i_m_source_file_index>
2786

> <i_lp_mmshare_version>
43012

> <i_f3d_flags>
0

> <s_epik_input>
W0NIM11uMVtjSF1bY0hdbmMxW0NAQEhdMltDSDJdW05IXVtDSDJdW0NIMl1bTkhdMg==

> <s_epik_cmdline>
J2VwaWtfcHl0aG9uJywgJy1waCcsICc3LjAnLCAnLXRuJywgJzgnLCAnLW1hJywgJzIwMCcsICctbWV0YWxfYmluZGluZycsICctaW1hZScsICc8aW5maWxlLm1hZT4nLCAnLW9tYWUnLCAnPG91dGZpbGUubWFlPic=

> <r_lp_tautomer_probability>
1

> <r_epik_Ionization_Penalty>
0.130484

> <r_epik_Ionization_Penalty_Charging>
0.130409

> <r_epik_Ionization_Penalty_Neutral>
7.57914e-05

> <r_epik_State_Penalty>
0.270147

> <r_epik_Charging_Adjusted_Penalty>
0.400555

> <i_epik_Tot_Q>
1

> <i_epik_Tot_abs_Q>
1

> <r_epik_Metal_State_Penalty>
0.136376

> <b_epik_Metal_Only>
0

> <s_lp_Force_Field>
OPLS_2005

> <r_lp_Energy>
9.37099

> <b_lp_Chiralities_Consistent>
1

> <s_lp_Variant>
AV-unprocessed.smi:2786-1

> <Gold.Version>
5.8.1

> <Gold.Id.Protein>
6NUR|6NUR_protein|mol2

> <Gold.PLP.Fitness>
32.6207

> <Gold.PLP.PLP>
-27.0711

> <Gold.PLP.part.hbond>
-1.0000

> <Gold.PLP.part.metal>
0.0000

> <Gold.PLP.part.buried>
-3.9939

> <Gold.PLP.part.nonpolar>
-22.3429

> <Gold.PLP.part.repulsive>
0.0008

> <Gold.PLP.ligand.clash>
0.0000

> <Gold.PLP.ligand.torsion>
0.2289

> <Gold.PLP.Chemscore.Hbond>
2.0000

> <Gold.PLP.Chemscore.CHOScore>
0.0000

> <Gold.PLP.Chemscore.Metal>
0.0000

> <Gold.Chemscore.Hbonds>
donor molecule, donor type, donor heavy atom, donor atom, acceptor molecule, acceptor atom, score
      L1  H     9    27       P1  8028  2.00

> <Gold.PLP.Chemscore.Internal.Correction>
0.0074

> <Gold.Rescore>
     Score         DG    S(hbond)    S(metal)    S(lipo)     H(rot)  DE(clash)    DE(int)     intcor
     12.89     -12.97       0.99        0.00      57.61       1.00       0.00       0.07       ----

> <Gold.Chemscore.Fitness>
12.8922

> <Gold.Chemscore.DG>
-12.9670

> <Gold.Chemscore.ZeroCoef>
-5.4800

> <Gold.Chemscore.Hbond>
0.9899

> <Gold.Chemscore.Metal>
0.0000

> <Gold.Chemscore.Lipo>
57.6139

> <Gold.Chemscore.Internal_Hbond>
0.0000

> <Gold.Chemscore.DEClash>
0.0038

> <Gold.Chemscore.DEInternal>
0.0710

> <Gold.Chemscore.Rot>
1.0000

> <Gold.Chemscore.Internal.Correction>
   9.000000E+99

> <Gold.Chemscore.Hbonds>
donor molecule, donor type, donor heavy atom, donor atom, acceptor molecule, acceptor atom, score
      L1  H     9    27       P1  8028  0.98

> <Gold.Chemscore.Hbond.Weighted>
-3.3061

> <Gold.Chemscore.Metal.Weighted>
-0.0000

> <Gold.Chemscore.Lipo.Weighted>
-6.7408

> <Gold.Chemscore.Internal_Hbond.Weighted>
0.0000

> <Gold.Chemscore.DEClash.Weighted>
0.0038

> <Gold.Chemscore.DEInternal.Weighted>
0.0710

> <Gold.Chemscore.Rot.Weighted>
2.5600

> <Gold.Chemscore.Internal.Correction.Weighted>
   9.000000E+99

> <Gold.Protein.RotatedTorsions>
[ 6907 6896 6895 6894 ] final  169.65 input  -60.11 | X-H torsion
[ 7974 7965 7964 7962 ] final -169.61 input  175.53 | X-H torsion
[ 8008 7997 7996 7995 ] final -153.78 input   59.86 | X-H torsion
[ 10167 10162 10161 10158 ] final -110.15 input  -65.29 | X-H torsion
[ 10718 10713 10712 10709 ] final  -91.58 input   66.30 | X-H torsion
[ 10763 10752 10751 10750 ] final  125.11 input  -60.55 | X-H torsion
[ 11005 11000 10999 10996 ] final -171.50 input  -57.11 | X-H torsion

> <Gold.Protein.ActiveResidues>
 VAL166  LYS551  ARG553  GLY616  TRP617  ASP618  TYR619  PRO620  LYS621  CYS622 
 ASP623  PHE694  ASN695  SER759  ASP760  ASP761  ALA762  ILE779  LEU786  VAL792 
 PHE793  MET794  SER795  GLU796  ALA797  LYS798  CYS799  TRP800  GLU811  SER814 

> <Gold.Protein.RotatedAtoms>
  151.8285  133.3405  159.3605 H   0  0  0  0  0  0  0  0  0  0  0  0  # atno 6907 bound_to 6896
  150.7272  134.5505  159.5802 H   0  0  0  0  0  0  0  0  0  0  0  0  # atno 6908 bound_to 6896
  152.2953  134.7675  160.0420 H   0  0  0  0  0  0  0  0  0  0  0  0  # atno 6909 bound_to 6896
  144.7183  140.2196  143.6317 H   0  0  0  0  0  0  0  0  0  0  0  0  # atno 7974 bound_to 7965
  155.6761  140.0739  157.2502 H   0  0  0  0  0  0  0  0  0  0  0  0  # atno 8008 bound_to 7997
  154.4114  140.1690  156.1983 H   0  0  0  0  0  0  0  0  0  0  0  0  # atno 8009 bound_to 7997
  155.9575  140.3372  155.6464 H   0  0  0  0  0  0  0  0  0  0  0  0  # atno 8010 bound_to 7997
  140.1475  143.4226  152.1518 H   0  0  0  0  0  0  0  0  0  0  0  0  # atno 10167 bound_to 10162
  155.9995  130.4953  150.5496 H   0  0  0  0  0  0  0  0  0  0  0  0  # atno 10718 bound_to 10713
  153.6721  135.3328  155.3156 H   0  0  0  0  0  0  0  0  0  0  0  0  # atno 10763 bound_to 10752
  154.8488  135.4389  154.1694 H   0  0  0  0  0  0  0  0  0  0  0  0  # atno 10764 bound_to 10752
  153.2688  135.6998  153.7578 H   0  0  0  0  0  0  0  0  0  0  0  0  # atno 10765 bound_to 10752
  140.5075  134.5833  157.5008 H   0  0  0  0  0  0  0  0  0  0  0  0  # atno 11005 bound_to 11000
  145.8514  139.2177  143.1770 LP  0  0  0  0  0  0  0  0  0  0  0  0  # atno 17320 bound_to 7965
  146.0257  140.8305  142.9901 LP  0  0  0  0  0  0  0  0  0  0  0  0  # atno 17321 bound_to 7965
  139.5442  144.7283  151.4638 LP  0  0  0  0  0  0  0  0  0  0  0  0  # atno 17342 bound_to 10162
  140.6722  143.8268  150.7014 LP  0  0  0  0  0  0  0  0  0  0  0  0  # atno 17343 bound_to 10162
  157.3421  131.0718  151.1780 LP  0  0  0  0  0  0  0  0  0  0  0  0  # atno 17370 bound_to 10713
  157.2625  130.6666  149.5981 LP  0  0  0  0  0  0  0  0  0  0  0  0  # atno 17371 bound_to 10713
  139.9677  134.7344  156.0104 LP  0  0  0  0  0  0  0  0  0  0  0  0  # atno 17394 bound_to 11000
  141.1403  133.6566  156.3710 LP  0  0  0  0  0  0  0  0  0  0  0  0  # atno 17395 bound_to 11000

$$$$
