#       Name:                AV-unprocessed.smi:1284
#       Creating user name   scv26
#       Creation time:       Fri Mar 27 04:50:48 2020


#       File generated by GOLD software.
#

@<TRIPOS>MOLECULE
AV-unprocessed.smi:1284
    44    46     1
SMALL
NO_CHARGES


@<TRIPOS>ATOM
      1 ****        -1.0740   5.1027   1.5862 N.am           1 S1                 0.0000
      2 ****        -0.5631   3.8697   1.6305 C.2            1 S1                 0.0000
      3 ****        -0.1124   3.3870   2.6678 O.2            1 S1                 0.0000
      4 ****        -0.5558   3.0733   0.3217 C.3            1 S1                 0.0000
      5 ****        -0.9200   1.6387   0.5545 C.2            1 S1                 0.0000
      6 ****        -2.1860   1.1329   0.5785 N.pl3          1 S1                 1.0000
      7 ****        -2.1430  -0.2402   0.8206 C.ar           1 S1                 0.0000
      8 ****        -3.1664  -1.1765   0.9304 C.ar           1 S1                 0.0000
      9 ****        -2.7805  -2.5097   1.1795 C.ar           1 S1                 0.0000
     10 ****        -1.4235  -2.8679   1.3116 C.ar           1 S1                 0.0000
     11 ****        -0.3956  -1.9089   1.2023 C.ar           1 S1                 0.0000
     12 ****        -0.7841  -0.5923   0.9526 C.ar           1 S1                 0.0000
     13 ****        -0.0653   0.5972   0.7752 N.pl3          1 S1                 0.0000
     14 ****         1.4056   0.5782   0.8437 C.3            1 S1                 0.0000
     15 ****         2.0659   0.5114  -0.5486 C.3            1 S1                 0.0000
     16 ****         3.4566   0.6980  -0.3845 O.3            1 S1                 0.0000
     17 ****         1.7384  -0.7769  -1.2908 C.ar           1 S1                 0.0000
     18 ****         2.4181  -1.9781  -0.9892 C.ar           1 S1                 0.0000
     19 ****         2.0869  -3.1694  -1.6636 C.ar           1 S1                 0.0000
     20 ****         1.0752  -3.1673  -2.6429 C.ar           1 S1                 0.0000
     21 ****         0.3950  -1.9731  -2.9482 C.ar           1 S1                 0.0000
     22 ****         0.7263  -0.7814  -2.2749 C.ar           1 S1                 0.0000
     23 ****        -1.0921   5.6660   2.4245 H              1 S1                 0.0000
     24 ****        -1.4337   5.4731   0.7183 H              1 S1                 0.0000
     25 ****        -1.2583   3.5072  -0.3913 H              1 S1                 0.0000
     26 ****         0.4345   3.1368  -0.1290 H              1 S1                 0.0000
     27 ****        -4.2068  -0.9045   0.8293 H              1 S1                 0.0000
     28 ****        -3.5400  -3.2725   1.2711 H              1 S1                 0.0000
     29 ****        -1.1639  -3.8993   1.5006 H              1 S1                 0.0000
     30 ****         0.6393  -2.1994   1.3026 H              1 S1                 0.0000
     31 ****         1.7079   1.4941   1.3530 H              1 S1                 0.0000
     32 ****         1.7343  -0.2410   1.4834 H              1 S1                 0.0000
     33 ****         1.7150   1.3516  -1.1488 H              1 S1                 0.0000
     34 ****         3.8552   0.7512  -1.2398 H              1 S1                 0.0000
     35 ****         3.1893  -1.9922  -0.2328 H              1 S1                 0.0000
     36 ****         2.6079  -4.0858  -1.4280 H              1 S1                 0.0000
     37 ****         0.8210  -4.0810  -3.1596 H              1 S1                 0.0000
     38 ****        -0.3821  -1.9712  -3.6983 H              1 S1                 0.0000
     39 ****         0.1938   0.1286  -2.5099 H              1 S1                 0.0000
     40 ****        -3.0192   1.6904   0.4420 H              1 S1                 0.0000
     41 ****        -0.1213   3.9213   3.5131 LP             1 S1                 0.0000
     42 ****         0.2630   2.4602   2.6661 LP             1 S1                 0.0000
     43 ****         3.8432  -0.0738   0.1204 LP             1 S1                 0.0000
     44 ****         3.6261   1.5447   0.1199 LP             1 S1                 0.0000
@<TRIPOS>BOND
    1    1    2 am    
    2    1   23 1     
    3    1   24 1     
    4    2    3 2     
    5    2    4 1     
    6    4    5 1     
    7    4   25 1     
    8    4   26 1     
    9    5   13 1     
   10    5    6 2     
   11    6    7 1     
   12    6   40 1     
   13    7   12 ar    
   14    7    8 ar    
   15    8    9 ar    
   16    8   27 1     
   17    9   10 ar    
   18    9   28 1     
   19   10   11 ar    
   20   10   29 1     
   21   11   12 ar    
   22   11   30 1     
   23   12   13 1     
   24   13   14 1     
   25   14   15 1     
   26   14   31 1     
   27   14   32 1     
   28   15   16 1     
   29   15   17 1     
   30   15   33 1     
   31   16   34 1     
   32   17   22 ar    
   33   17   18 ar    
   34   18   19 ar    
   35   18   35 1     
   36   19   20 ar    
   37   19   36 1     
   38   20   21 ar    
   39   20   37 1     
   40   21   22 ar    
   41   21   38 1     
   42   22   39 1     
   43    3   41 1     
   44    3   42 1     
   45   16   43 1     
   46   16   44 1     
@<TRIPOS>SUBSTRUCTURE
      1 S1             1
@<TRIPOS>SET
LONE_PAIRS      STATIC     ATOMS    <user>   **** ""
4 41 42 43 44
DONOR_HYDROGENS      STATIC     ATOMS    <user>   **** ""
4 23 24 40 34
ATOM$BLUE        STATIC     ATOMS    COLORGROUP SYSTEM
4 41 42 43 44
ATOM$RED        STATIC     ATOMS    COLORGROUP SYSTEM
4 23 24 40 34
