AV-unprocessed.smi:2824|AV-procd|sdf|10887|dock2
  -GOLD-   2272015333D 1   1.00000     0.00000
 Structure written by MMmdl.
 38 39  0  0  0  0  0  0  0  0  1 V2000
  153.0150  143.7283  162.6641 C   0  0  0  0  0  0  0  0  0  0  0  0
  152.5743  143.6675  161.2134 C   0  0  0  0  0  0  0  0  0  0  0  0
  151.8245  144.7310  160.6681 C   0  0  0  0  0  0  0  0  0  0  0  0
  151.4093  144.6904  159.3248 C   0  0  0  0  0  0  0  0  0  0  0  0
  151.7445  143.5855  158.5224 C   0  0  0  0  0  0  0  0  0  0  0  0
  152.4930  142.5217  159.0615 C   0  0  0  0  0  0  0  0  0  0  0  0
  152.9165  142.5508  160.4150 C   0  0  0  0  0  0  0  0  0  0  0  0
  153.6524  141.5463  161.0095 O   0  0  0  0  0  0  0  0  0  0  0  0
  153.9567  140.3850  160.2485 C   0  0  0  0  0  0  0  0  0  0  0  0
  154.8353  139.4522  161.0989 C   0  0  1  0  0  0  0  0  0  0  0  0
  155.1442  138.3243  160.3026 O   0  0  0  0  0  0  0  0  0  0  0  0
  156.1648  140.1268  161.5034 C   0  0  0  0  0  0  0  0  0  0  0  0
  156.3067  140.2377  162.9603 N   0  0  0  0  0  0  0  0  0  0  0  0
  156.4131  141.5397  163.4171 N   0  0  0  0  0  0  0  0  0  0  0  0
  156.5574  141.8016  164.6763 C   0  0  0  0  0  0  0  0  0  0  0  0
  156.6736  143.2520  165.0751 C   0  0  0  0  0  0  0  0  0  0  0  0
  155.6539  143.9651  164.5963 F   0  0  0  0  0  0  0  0  0  0  0  0
  156.6802  143.3620  166.4039 F   0  0  0  0  0  0  0  0  0  0  0  0
  157.8094  143.7673  164.6032 F   0  0  0  0  0  0  0  0  0  0  0  0
  156.5997  140.7016  165.6255 C   0  0  0  0  0  0  0  0  0  0  0  0
  156.4941  139.4322  165.1775 C   0  0  0  0  0  0  0  0  0  0  0  0
  156.3382  139.1294  163.7569 C   0  0  0  0  0  0  0  0  0  0  0  0
  156.2477  137.9837  163.3166 O   0  0  0  0  0  0  0  0  0  0  0  0
  152.6377  144.6231  163.1596 H   0  0  0  0  0  0  0  0  0  0  0  0
  154.1033  143.7379  162.7282 H   0  0  0  0  0  0  0  0  0  0  0  0
  152.6465  142.8592  163.2096 H   0  0  0  0  0  0  0  0  0  0  0  0
  151.5643  145.5835  161.2782 H   0  0  0  0  0  0  0  0  0  0  0  0
  150.8355  145.5064  158.9108 H   0  0  0  0  0  0  0  0  0  0  0  0
  151.4280  143.5528  157.4902 H   0  0  0  0  0  0  0  0  0  0  0  0
  152.7305  141.6932  158.4121 H   0  0  0  0  0  0  0  0  0  0  0  0
  153.0532  139.8712  159.9145 H   0  0  0  0  0  0  0  0  0  0  0  0
  154.5111  140.6967  159.3618 H   0  0  0  0  0  0  0  0  0  0  0  0
  154.2813  139.1409  161.9855 H   0  0  0  0  0  0  0  0  0  0  0  0
  155.1929  137.5647  160.8624 H   0  0  0  0  0  0  0  0  0  0  0  0
  157.0129  139.5943  161.0679 H   0  0  0  0  0  0  0  0  0  0  0  0
  156.2175  141.1295  161.0753 H   0  0  0  0  0  0  0  0  0  0  0  0
  156.7152  140.9016  166.6803 H   0  0  0  0  0  0  0  0  0  0  0  0
  156.5259  138.6179  165.8864 H   0  0  0  0  0  0  0  0  0  0  0  0
  1  2  1  0  0  0  0
  1 24  1  0  0  0  0
  1 25  1  0  0  0  0
  1 26  1  0  0  0  0
  2  7  1  0  0  0  0
  2  3  2  0  0  0  0
  3  4  1  0  0  0  0
  3 27  1  0  0  0  0
  4  5  2  0  0  0  0
  4 28  1  0  0  0  0
  5  6  1  0  0  0  0
  5 29  1  0  0  0  0
  6  7  2  0  0  0  0
  6 30  1  0  0  0  0
  7  8  1  0  0  0  0
  8  9  1  0  0  0  0
  9 10  1  0  0  0  0
  9 31  1  0  0  0  0
  9 32  1  0  0  0  0
 10 11  1  0  0  0  0
 10 12  1  0  0  0  0
 10 33  1  0  0  0  0
 11 34  1  0  0  0  0
 12 13  1  0  0  0  0
 12 35  1  0  0  0  0
 12 36  1  0  0  0  0
 13 22  1  0  0  0  0
 13 14  1  0  0  0  0
 14 15  2  0  0  0  0
 15 16  1  0  0  0  0
 15 20  1  0  0  0  0
 16 17  1  0  0  0  0
 16 18  1  0  0  0  0
 16 19  1  0  0  0  0
 20 21  2  0  0  0  0
 20 37  1  0  0  0  0
 21 22  1  0  0  0  0
 21 38  1  0  0  0  0
 22 23  2  0  0  0  0
M  END
> <s_m_source_file>
AV-unprocessed.smi

> <i_m_source_file_index>
2824

> <i_lp_mmshare_version>
43012

> <i_f3d_flags>
0

> <s_epik_input>
W0NIM11jMVtjSF1bY0hdW2NIXVtjSF1jMU9bQ0gyXVtDQEhdKFtPSF0pW0NIMl1uMm5jKEMoRikoRilGKVtjSF1bY0hdYzI9Tw==

> <s_epik_cmdline>
J2VwaWtfcHl0aG9uJywgJy1waCcsICc3LjAnLCAnLXRuJywgJzgnLCAnLW1hJywgJzIwMCcsICctbWV0YWxfYmluZGluZycsICctaW1hZScsICc8aW5maWxlLm1hZT4nLCAnLW9tYWUnLCAnPG91dGZpbGUubWFlPic=

> <r_lp_tautomer_probability>
1

> <r_epik_Ionization_Penalty>
1.2156e-07

> <r_epik_Ionization_Penalty_Charging>
4.38548e-09

> <r_epik_Ionization_Penalty_Neutral>
1.17174e-07

> <r_epik_State_Penalty>
-0

> <r_epik_Charging_Adjusted_Penalty>
4.38548e-09

> <i_epik_Tot_Q>
0

> <i_epik_Tot_abs_Q>
0

> <r_epik_Metal_State_Penalty>
-0

> <b_epik_Metal_Only>
0

> <s_lp_Force_Field>
OPLS_2005

> <r_lp_Energy>
34.0789

> <b_lp_Chiralities_Consistent>
1

> <s_lp_Variant>
AV-unprocessed.smi:2824-2

> <Gold.Version>
5.8.1

> <Gold.Id.Protein>
6NUR|6NUR_protein|mol2

> <Gold.PLP.Fitness>
52.2441

> <Gold.PLP.PLP>
-53.9622

> <Gold.PLP.part.hbond>
-1.0000

> <Gold.PLP.part.metal>
0.0000

> <Gold.PLP.part.buried>
-5.7541

> <Gold.PLP.part.nonpolar>
-47.6156

> <Gold.PLP.part.repulsive>
0.0076

> <Gold.PLP.ligand.clash>
0.0000

> <Gold.PLP.ligand.torsion>
0.8882

> <Gold.PLP.Chemscore.Hbond>
0.0000

> <Gold.PLP.Chemscore.CHOScore>
0.0000

> <Gold.PLP.Chemscore.Metal>
0.0000

> <Gold.PLP.Chemscore.Internal.Correction>
0.0582

> <Gold.Rescore>
     Score         DG    S(hbond)    S(metal)    S(lipo)     H(rot)  DE(clash)    DE(int)     intcor
     13.13     -14.19       0.00        0.00     131.25       2.60       0.22       0.84       ----

> <Gold.Chemscore.Fitness>
13.1331

> <Gold.Chemscore.DG>
-14.1853

> <Gold.Chemscore.ZeroCoef>
-5.4800

> <Gold.Chemscore.Hbond>
0.0000

> <Gold.Chemscore.Metal>
0.0000

> <Gold.Chemscore.Lipo>
131.2453

> <Gold.Chemscore.Internal_Hbond>
0.0000

> <Gold.Chemscore.DEClash>
0.2158

> <Gold.Chemscore.DEInternal>
0.8365

> <Gold.Chemscore.Rot>
2.5978

> <Gold.Chemscore.Internal.Correction>
   9.000000E+99

> <Gold.Chemscore.Hbond.Weighted>
-0.0000

> <Gold.Chemscore.Metal.Weighted>
-0.0000

> <Gold.Chemscore.Lipo.Weighted>
-15.3557

> <Gold.Chemscore.Internal_Hbond.Weighted>
0.0000

> <Gold.Chemscore.DEClash.Weighted>
0.2158

> <Gold.Chemscore.DEInternal.Weighted>
0.8365

> <Gold.Chemscore.Rot.Weighted>
6.6504

> <Gold.Chemscore.Internal.Correction.Weighted>
   9.000000E+99

> <Gold.Protein.RotatedTorsions>
[ 6907 6896 6895 6894 ] final   69.67 input  -60.11 | X-H torsion
[ 7974 7965 7964 7962 ] final   -4.31 input  175.53 | X-H torsion
[ 8008 7997 7996 7995 ] final   87.72 input   59.86 | X-H torsion
[ 10167 10162 10161 10158 ] final  172.60 input  -65.29 | X-H torsion
[ 10718 10713 10712 10709 ] final   37.64 input   66.30 | X-H torsion
[ 10763 10752 10751 10750 ] final  144.02 input  -60.55 | X-H torsion
[ 11005 11000 10999 10996 ] final   38.72 input  -57.11 | X-H torsion

> <Gold.Protein.ActiveResidues>
 VAL166  LYS551  ARG553  GLY616  TRP617  ASP618  TYR619  PRO620  LYS621  CYS622 
 ASP623  PHE694  ASN695  SER759  ASP760  ASP761  ALA762  ILE779  LEU786  VAL792 
 PHE793  MET794  SER795  GLU796  ALA797  LYS798  CYS799  TRP800  GLU811  SER814 

> <Gold.Protein.RotatedAtoms>
  152.4701  134.4981  159.9716 H   0  0  0  0  0  0  0  0  0  0  0  0  # atno 6907 bound_to 6896
  151.5010  133.3498  159.2877 H   0  0  0  0  0  0  0  0  0  0  0  0  # atno 6908 bound_to 6896
  150.8706  134.8107  159.7213 H   0  0  0  0  0  0  0  0  0  0  0  0  # atno 6909 bound_to 6896
  146.2374  140.1852  142.8332 H   0  0  0  0  0  0  0  0  0  0  0  0  # atno 7974 bound_to 7965
  155.9789  140.3379  155.6644 H   0  0  0  0  0  0  0  0  0  0  0  0  # atno 8008 bound_to 7997
  155.6575  140.0712  157.2583 H   0  0  0  0  0  0  0  0  0  0  0  0  # atno 8009 bound_to 7997
  154.4186  140.1714  156.1728 H   0  0  0  0  0  0  0  0  0  0  0  0  # atno 8010 bound_to 7997
  139.5082  144.3355  152.0069 H   0  0  0  0  0  0  0  0  0  0  0  0  # atno 10167 bound_to 10162
  157.3493  130.7589  149.6967 H   0  0  0  0  0  0  0  0  0  0  0  0  # atno 10718 bound_to 10713
  153.9820  135.2940  155.3419 H   0  0  0  0  0  0  0  0  0  0  0  0  # atno 10763 bound_to 10752
  154.7263  135.5087  153.8895 H   0  0  0  0  0  0  0  0  0  0  0  0  # atno 10764 bound_to 10752
  153.0850  135.6690  154.0082 H   0  0  0  0  0  0  0  0  0  0  0  0  # atno 10765 bound_to 10752
  140.2099  134.3768  155.8054 H   0  0  0  0  0  0  0  0  0  0  0  0  # atno 11005 bound_to 11000
  144.9902  140.8540  143.5344 LP  0  0  0  0  0  0  0  0  0  0  0  0  # atno 17320 bound_to 7965
  145.1857  139.2328  143.5269 LP  0  0  0  0  0  0  0  0  0  0  0  0  # atno 17321 bound_to 7965
  140.2794  144.3876  150.6124 LP  0  0  0  0  0  0  0  0  0  0  0  0  # atno 17342 bound_to 10162
  140.6029  143.2167  151.7037 LP  0  0  0  0  0  0  0  0  0  0  0  0  # atno 17343 bound_to 10162
  155.9719  130.4145  150.4136 LP  0  0  0  0  0  0  0  0  0  0  0  0  # atno 17370 bound_to 10713
  157.2196  131.0479  151.2554 LP  0  0  0  0  0  0  0  0  0  0  0  0  # atno 17371 bound_to 10713
  141.2226  133.7137  156.8400 LP  0  0  0  0  0  0  0  0  0  0  0  0  # atno 17394 bound_to 11000
  140.1962  134.8930  157.3117 LP  0  0  0  0  0  0  0  0  0  0  0  0  # atno 17395 bound_to 11000

$$$$
