AV-unprocessed.smi:1665|AV-procd|sdf|6669|dock5
  -GOLD-   22720 7383D 1   1.00000     0.00000
 Structure written by MMmdl.
 37 38  0  0  0  0  0  0  0  0  1 V2000
  150.4818  140.4915  156.2405 C   0  0  0  0  0  0  0  0  0  0  0  0
  150.4251  141.9143  156.8189 C   0  0  2  0  0  0  0  0  0  0  0  0
  150.9126  141.9465  158.2800 C   0  0  0  0  0  0  0  0  0  0  0  0
  151.4391  143.2455  158.6610 N   0  0  0  0  0  0  0  0  0  0  0  0
  151.4610  144.4107  157.9242 C   0  0  0  0  0  0  0  0  0  0  0  0
  152.0551  145.3675  158.6961 C   0  0  0  0  0  0  0  0  0  0  0  0
  152.3657  144.6826  159.9041 C   0  0  0  0  0  0  0  0  0  0  0  0
  151.9930  143.4137  159.8814 N   0  0  0  0  0  0  0  0  0  0  0  0
  149.0645  142.4404  156.7337 N   0  0  0  0  0  0  0  0  0  0  0  0
  147.9689  141.8445  157.2262 C   0  0  0  0  0  0  0  0  0  0  0  0
  147.9994  140.7994  157.8760 O   0  0  0  0  0  0  0  0  0  0  0  0
  146.6305  142.5266  156.9264 C   0  0  0  0  0  0  0  0  0  0  0  0
  146.0829  142.2058  155.5184 C   0  0  0  0  0  0  0  0  0  0  0  0
  145.2868  143.2950  154.9472 N   0  0  0  0  0  0  0  0  0  0  0  0
  145.4770  143.6751  153.5541 C   0  0  0  0  0  0  0  0  0  0  0  0
  144.7986  145.0310  153.3533 C   0  0  0  0  0  0  0  0  0  0  0  0
  143.4984  145.1715  154.5959 S   0  0  0  0  0  0  0  0  0  0  0  0
  144.2571  143.9200  155.6374 C   0  0  0  0  0  0  0  0  0  0  0  0
  143.8706  143.6950  156.7828 O   0  0  0  0  0  0  0  0  0  0  0  0
  151.4970  140.0958  156.2759 H   0  0  0  0  0  0  0  0  0  0  0  0
  150.1607  140.4726  155.1985 H   0  0  0  0  0  0  0  0  0  0  0  0
  149.8392  139.8101  156.7993 H   0  0  0  0  0  0  0  0  0  0  0  0
  151.0885  142.5495  156.2284 H   0  0  0  0  0  0  0  0  0  0  0  0
  150.1050  141.6732  158.9615 H   0  0  0  0  0  0  0  0  0  0  0  0
  151.7038  141.2102  158.4264 H   0  0  0  0  0  0  0  0  0  0  0  0
  151.0559  144.4608  156.9243 H   0  0  0  0  0  0  0  0  0  0  0  0
  152.2376  146.4004  158.4393 H   0  0  0  0  0  0  0  0  0  0  0  0
  152.8415  145.0691  160.7934 H   0  0  0  0  0  0  0  0  0  0  0  0
  148.9420  143.2957  156.2105 H   0  0  0  0  0  0  0  0  0  0  0  0
  145.9097  142.2032  157.6780 H   0  0  0  0  0  0  0  0  0  0  0  0
  146.7307  143.6060  157.0486 H   0  0  0  0  0  0  0  0  0  0  0  0
  146.9085  141.9667  154.8463 H   0  0  0  0  0  0  0  0  0  0  0  0
  145.4693  141.3049  155.5627 H   0  0  0  0  0  0  0  0  0  0  0  0
  146.5338  143.7198  153.2889 H   0  0  0  0  0  0  0  0  0  0  0  0
  145.0079  142.9188  152.9235 H   0  0  0  0  0  0  0  0  0  0  0  0
  145.5161  145.8336  153.5273 H   0  0  0  0  0  0  0  0  0  0  0  0
  144.4003  145.1512  152.3458 H   0  0  0  0  0  0  0  0  0  0  0  0
  1  2  1  0  0  0  0
  1 20  1  0  0  0  0
  1 21  1  0  0  0  0
  1 22  1  0  0  0  0
  2  3  1  0  0  0  0
  2  9  1  0  0  0  0
  2 23  1  0  0  0  0
  3  4  1  0  0  0  0
  3 24  1  0  0  0  0
  3 25  1  0  0  0  0
  4  8  1  0  0  0  0
  4  5  1  0  0  0  0
  5  6  2  0  0  0  0
  5 26  1  0  0  0  0
  6  7  1  0  0  0  0
  6 27  1  0  0  0  0
  7  8  2  0  0  0  0
  7 28  1  0  0  0  0
  9 10  1  0  0  0  0
  9 29  1  0  0  0  0
 10 11  2  0  0  0  0
 10 12  1  0  0  0  0
 12 13  1  0  0  0  0
 12 30  1  0  0  0  0
 12 31  1  0  0  0  0
 13 14  1  0  0  0  0
 13 32  1  0  0  0  0
 13 33  1  0  0  0  0
 14 18  1  0  0  0  0
 14 15  1  0  0  0  0
 15 16  1  0  0  0  0
 15 34  1  0  0  0  0
 15 35  1  0  0  0  0
 16 17  1  0  0  0  0
 16 36  1  0  0  0  0
 16 37  1  0  0  0  0
 17 18  1  0  0  0  0
 18 19  2  0  0  0  0
M  END
> <s_m_source_file>
AV-unprocessed.smi

> <i_m_source_file_index>
1665

> <i_lp_mmshare_version>
43012

> <i_f3d_flags>
0

> <s_epik_input>
bjFbY0hdW2NIXVtjSF1uMVtDSDJdW0NAQEhdKFtDSDNdKVtOSF1DKD1PKVtDSDJdW0NIMl1OMltDSDJdW0NIMl1TQzI9Tw==

> <s_epik_cmdline>
J2VwaWtfcHl0aG9uJywgJy1waCcsICc3LjAnLCAnLXRuJywgJzgnLCAnLW1hJywgJzIwMCcsICctbWV0YWxfYmluZGluZycsICctaW1hZScsICc8aW5maWxlLm1hZT4nLCAnLW9tYWUnLCAnPG91dGZpbGUubWFlPic=

> <r_lp_tautomer_probability>
1

> <r_epik_Ionization_Penalty>
0.000300775

> <r_epik_Ionization_Penalty_Charging>
0

> <r_epik_Ionization_Penalty_Neutral>
0.000300775

> <r_epik_State_Penalty>
-0

> <r_epik_Charging_Adjusted_Penalty>
0

> <i_epik_Tot_Q>
0

> <i_epik_Tot_abs_Q>
0

> <r_epik_Metal_State_Penalty>
-0

> <b_epik_Metal_Only>
0

> <s_lp_Force_Field>
OPLS_2005

> <r_lp_Energy>
0.465271

> <b_lp_Chiralities_Consistent>
1

> <s_lp_Variant>
AV-unprocessed.smi:1665-1

> <Gold.Version>
5.8.1

> <Gold.Id.Protein>
6NUR|6NUR_protein|mol2

> <Gold.PLP.Fitness>
44.6445

> <Gold.PLP.PLP>
-40.5488

> <Gold.PLP.part.hbond>
-1.0000

> <Gold.PLP.part.metal>
0.0000

> <Gold.PLP.part.buried>
-7.8879

> <Gold.PLP.part.nonpolar>
-33.4084

> <Gold.PLP.part.repulsive>
0.0805

> <Gold.PLP.ligand.clash>
0.0000

> <Gold.PLP.ligand.torsion>
0.9945

> <Gold.PLP.Chemscore.Hbond>
1.0000

> <Gold.PLP.Chemscore.CHOScore>
0.9994

> <Gold.PLP.Chemscore.Metal>
0.0000

> <Gold.Chemscore.Hbonds>
donor molecule, donor type, donor heavy atom, donor atom, acceptor molecule, acceptor atom, score
      L1  H     9    29       P1  8028  0.99
      L1  C     5    26       P1  8028  1.00

> <Gold.PLP.Chemscore.Internal.Correction>
0.0866

> <Gold.Rescore>
     Score         DG    S(hbond)    S(metal)    S(lipo)     H(rot)  DE(clash)    DE(int)     intcor
     11.53     -13.42       0.99        0.00      87.71       2.20       0.02       1.87       ----

> <Gold.Chemscore.Fitness>
11.5334

> <Gold.Chemscore.DG>
-13.4216

> <Gold.Chemscore.ZeroCoef>
-5.4800

> <Gold.Chemscore.Hbond>
0.9935

> <Gold.Chemscore.Metal>
0.0000

> <Gold.Chemscore.Lipo>
87.7089

> <Gold.Chemscore.Internal_Hbond>
0.0000

> <Gold.Chemscore.DEClash>
0.0158

> <Gold.Chemscore.DEInternal>
1.8724

> <Gold.Chemscore.Rot>
2.2026

> <Gold.Chemscore.Internal.Correction>
   9.000000E+99

> <Gold.Chemscore.Hbonds>
donor molecule, donor type, donor heavy atom, donor atom, acceptor molecule, acceptor atom, score
      L1  H     9    29       P1  8028  0.92

> <Gold.Chemscore.Hbond.Weighted>
-3.3183

> <Gold.Chemscore.Metal.Weighted>
-0.0000

> <Gold.Chemscore.Lipo.Weighted>
-10.2619

> <Gold.Chemscore.Internal_Hbond.Weighted>
0.0000

> <Gold.Chemscore.DEClash.Weighted>
0.0158

> <Gold.Chemscore.DEInternal.Weighted>
1.8724

> <Gold.Chemscore.Rot.Weighted>
5.6387

> <Gold.Chemscore.Internal.Correction.Weighted>
   9.000000E+99

> <Gold.Protein.RotatedTorsions>
[ 6907 6896 6895 6894 ] final -101.91 input  -60.11 | X-H torsion
[ 7974 7965 7964 7962 ] final   80.62 input  175.53 | X-H torsion
[ 8008 7997 7996 7995 ] final   -4.75 input   59.86 | X-H torsion
[ 10167 10162 10161 10158 ] final  146.53 input  -65.29 | X-H torsion
[ 10718 10713 10712 10709 ] final  136.70 input   66.30 | X-H torsion
[ 10763 10752 10751 10750 ] final  -46.29 input  -60.55 | X-H torsion
[ 11005 11000 10999 10996 ] final   87.34 input  -57.11 | X-H torsion

> <Gold.Protein.ActiveResidues>
 VAL166  LYS551  ARG553  GLY616  TRP617  ASP618  TYR619  PRO620  LYS621  CYS622 
 ASP623  PHE694  ASN695  SER759  ASP760  ASP761  ALA762  ILE779  LEU786  VAL792 
 PHE793  MET794  SER795  GLU796  ALA797  LYS798  CYS799  TRP800  GLU811  SER814 

> <Gold.Protein.RotatedAtoms>
  150.7174  134.0662  159.3848 H   0  0  0  0  0  0  0  0  0  0  0  0  # atno 6907 bound_to 6896
  151.8643  135.0510  160.0482 H   0  0  0  0  0  0  0  0  0  0  0  0  # atno 6908 bound_to 6896
  152.2693  133.5332  159.5466 H   0  0  0  0  0  0  0  0  0  0  0  0  # atno 6909 bound_to 6896
  145.6488  139.2443  143.1988 H   0  0  0  0  0  0  0  0  0  0  0  0  # atno 7974 bound_to 7965
  154.6111  140.2476  155.7668 H   0  0  0  0  0  0  0  0  0  0  0  0  # atno 8008 bound_to 7997
  156.2371  140.2946  156.0292 H   0  0  0  0  0  0  0  0  0  0  0  0  # atno 8009 bound_to 7997
  155.2051  140.0395  157.2914 H   0  0  0  0  0  0  0  0  0  0  0  0  # atno 8010 bound_to 7997
  139.4905  144.5822  151.6849 H   0  0  0  0  0  0  0  0  0  0  0  0  # atno 10167 bound_to 10162
  157.4438  131.1060  151.0112 H   0  0  0  0  0  0  0  0  0  0  0  0  # atno 10718 bound_to 10713
  154.0426  135.6642  153.4791 H   0  0  0  0  0  0  0  0  0  0  0  0  # atno 10763 bound_to 10752
  153.0495  135.5093  154.7827 H   0  0  0  0  0  0  0  0  0  0  0  0  # atno 10764 bound_to 10752
  154.6808  135.3044  154.9581 H   0  0  0  0  0  0  0  0  0  0  0  0  # atno 10765 bound_to 10752
  139.8922  134.8415  156.2846 H   0  0  0  0  0  0  0  0  0  0  0  0  # atno 11005 bound_to 11000
  146.1220  140.7296  142.9453 LP  0  0  0  0  0  0  0  0  0  0  0  0  # atno 17320 bound_to 7965
  144.7130  140.4108  143.7066 LP  0  0  0  0  0  0  0  0  0  0  0  0  # atno 17321 bound_to 7965
  140.5431  144.0547  150.6096 LP  0  0  0  0  0  0  0  0  0  0  0  0  # atno 17342 bound_to 10162
  140.3576  143.2926  152.0419 LP  0  0  0  0  0  0  0  0  0  0  0  0  # atno 17343 bound_to 10162
  157.0966  130.5964  149.5451 LP  0  0  0  0  0  0  0  0  0  0  0  0  # atno 17370 bound_to 10713
  155.9959  130.5027  150.7477 LP  0  0  0  0  0  0  0  0  0  0  0  0  # atno 17371 bound_to 10713
  141.0016  133.7148  156.0970 LP  0  0  0  0  0  0  0  0  0  0  0  0  # atno 17394 bound_to 11000
  140.7490  134.4066  157.5544 LP  0  0  0  0  0  0  0  0  0  0  0  0  # atno 17395 bound_to 11000

$$$$
