AV-unprocessed.smi:1240|AV-procd|sdf|5196|dock10
  -GOLD-   22720 4283D 1   1.00000     0.00000
 Structure written by MMmdl.
 47 49  0  0  0  0  0  0  0  0  1 V2000
  144.5030  136.2441  153.1390 O   0  0  0  0  0  0  0  0  0  0  0  0
  145.7011  136.1431  152.8767 C   0  0  0  0  0  0  0  0  0  0  0  0
  146.6346  136.9851  153.3425 N   0  0  0  0  0  0  0  0  0  0  0  0
  146.3891  138.1315  154.2135 C   0  0  0  0  0  0  0  0  0  0  0  0
  147.5014  138.2833  155.2855 C   0  0  1  0  0  0  0  0  0  0  0  0
  148.1903  139.6835  155.2333 C   0  0  2  0  0  0  0  0  0  0  0  0
  147.2682  140.9068  155.2333 C   0  0  0  0  0  0  0  0  0  0  0  0
  147.7675  141.7443  154.0570 C   0  0  0  0  0  0  0  0  0  0  0  0
  149.1246  141.3603  153.9126 O   0  0  0  0  0  0  0  0  0  0  0  0
  149.1762  139.9530  154.0835 C   0  0  0  0  0  0  0  0  0  0  0  0
  147.1322  137.8109  156.6362 N   0  0  0  0  0  0  0  0  0  0  0  0
  146.0766  138.6068  157.2596 C   0  0  0  0  0  0  0  0  0  0  0  0
  145.6172  138.0000  158.5952 C   0  0  0  0  0  0  0  0  0  0  0  0
  146.7366  137.8791  159.4660 O   0  0  0  0  0  0  0  0  0  0  0  0
  147.7680  137.0636  158.9205 C   0  0  0  0  0  0  0  0  0  0  0  0
  148.2405  137.6388  157.5734 C   0  0  0  0  0  0  0  0  0  0  0  0
  146.2501  135.2075  152.0824 N   0  0  0  0  0  0  0  0  0  0  0  0
  145.6205  134.1319  151.3979 C   0  0  0  0  0  0  0  0  0  0  0  0
  146.4477  133.1099  150.8874 C   0  0  0  0  0  0  0  0  0  0  0  0
  145.8516  132.0229  150.2176 C   0  0  0  0  0  0  0  0  0  0  0  0
  144.5192  131.9003  150.0425 N   0  0  0  0  0  0  0  0  0  0  0  0
  143.7275  132.8726  150.5421 C   0  0  0  0  0  0  0  0  0  0  0  0
  144.2208  134.0007  151.2278 C   0  0  0  0  0  0  0  0  0  0  0  0
  147.5932  136.8251  153.0694 H   0  0  0  0  0  0  0  0  0  0  0  0
  146.2938  139.0522  153.6367 H   0  0  0  0  0  0  0  0  0  0  0  0
  145.4182  137.9623  154.6765 H   0  0  0  0  0  0  0  0  0  0  0  0
  148.2945  137.6068  154.9628 H   0  0  0  0  0  0  0  0  0  0  0  0
  148.7843  139.7682  156.1448 H   0  0  0  0  0  0  0  0  0  0  0  0
  146.2071  140.6804  155.1358 H   0  0  0  0  0  0  0  0  0  0  0  0
  147.3920  141.4600  156.1651 H   0  0  0  0  0  0  0  0  0  0  0  0
  147.2225  141.4951  153.1453 H   0  0  0  0  0  0  0  0  0  0  0  0
  147.6685  142.8158  154.2317 H   0  0  0  0  0  0  0  0  0  0  0  0
  150.1905  139.6333  154.3224 H   0  0  0  0  0  0  0  0  0  0  0  0
  148.8931  139.4657  153.1528 H   0  0  0  0  0  0  0  0  0  0  0  0
  146.4268  139.6216  157.4468 H   0  0  0  0  0  0  0  0  0  0  0  0
  145.2219  138.6860  156.5872 H   0  0  0  0  0  0  0  0  0  0  0  0
  144.8674  138.6377  159.0640 H   0  0  0  0  0  0  0  0  0  0  0  0
  145.1572  137.0228  158.4406 H   0  0  0  0  0  0  0  0  0  0  0  0
  148.5983  137.0194  159.6252 H   0  0  0  0  0  0  0  0  0  0  0  0
  147.4021  136.0434  158.7938 H   0  0  0  0  0  0  0  0  0  0  0  0
  148.9780  136.9521  157.1669 H   0  0  0  0  0  0  0  0  0  0  0  0
  148.7420  138.5919  157.7440 H   0  0  0  0  0  0  0  0  0  0  0  0
  147.2397  135.3038  151.9090 H   0  0  0  0  0  0  0  0  0  0  0  0
  147.5212  133.1555  151.0003 H   0  0  0  0  0  0  0  0  0  0  0  0
  146.4626  131.2295  149.8132 H   0  0  0  0  0  0  0  0  0  0  0  0
  142.6650  132.7449  150.3965 H   0  0  0  0  0  0  0  0  0  0  0  0
  143.5202  134.7250  151.6126 H   0  0  0  0  0  0  0  0  0  0  0  0
  1  2  2  0  0  0  0
  2  3  1  0  0  0  0
  2 17  1  0  0  0  0
  3  4  1  0  0  0  0
  3 24  1  0  0  0  0
  4  5  1  0  0  0  0
  4 25  1  0  0  0  0
  4 26  1  0  0  0  0
  5  6  1  0  0  0  0
  5 11  1  0  0  0  0
  5 27  1  0  0  0  0
  6 10  1  0  0  0  0
  6  7  1  0  0  0  0
  6 28  1  0  0  0  0
  7  8  1  0  0  0  0
  7 29  1  0  0  0  0
  7 30  1  0  0  0  0
  8  9  1  0  0  0  0
  8 31  1  0  0  0  0
  8 32  1  0  0  0  0
  9 10  1  0  0  0  0
 10 33  1  0  0  0  0
 10 34  1  0  0  0  0
 11 16  1  0  0  0  0
 11 12  1  0  0  0  0
 12 13  1  0  0  0  0
 12 35  1  0  0  0  0
 12 36  1  0  0  0  0
 13 14  1  0  0  0  0
 13 37  1  0  0  0  0
 13 38  1  0  0  0  0
 14 15  1  0  0  0  0
 15 16  1  0  0  0  0
 15 39  1  0  0  0  0
 15 40  1  0  0  0  0
 16 41  1  0  0  0  0
 16 42  1  0  0  0  0
 17 18  1  0  0  0  0
 17 43  1  0  0  0  0
 18 23  1  0  0  0  0
 18 19  2  0  0  0  0
 19 20  1  0  0  0  0
 19 44  1  0  0  0  0
 20 21  2  0  0  0  0
 20 45  1  0  0  0  0
 21 22  1  0  0  0  0
 22 23  2  0  0  0  0
 22 46  1  0  0  0  0
 23 47  1  0  0  0  0
M  END
> <s_m_source_file>
AV-unprocessed.smi

> <i_m_source_file_index>
1240

> <i_lp_mmshare_version>
43012

> <i_f3d_flags>
0

> <s_epik_input>
W2NIXTFbY0hdbltjSF1bY0hdYzFbTkhdQyg9TylbTkhdW0NIMl1bQ0BIXShbQ0BASF0yW0NIMl1bQ0gyXU9bQ0gyXTIpTjNbQ0gyXVtDSDJdT1tDSDJdW0NIMl0z

> <s_epik_cmdline>
J2VwaWtfcHl0aG9uJywgJy1waCcsICc3LjAnLCAnLXRuJywgJzgnLCAnLW1hJywgJzIwMCcsICctbWV0YWxfYmluZGluZycsICctaW1hZScsICc8aW5maWxlLm1hZT4nLCAnLW9tYWUnLCAnPG91dGZpbGUubWFlPic=

> <r_epik_Ionization_Penalty>
0.238664

> <r_epik_Ionization_Penalty_Charging>
0

> <r_epik_Ionization_Penalty_Neutral>
0.238664

> <r_epik_State_Penalty>
0.217087

> <r_epik_Charging_Adjusted_Penalty>
0.217087

> <i_epik_Tot_Q>
0

> <i_epik_Tot_abs_Q>
0

> <r_epik_Metal_State_Penalty>
0.199194

> <b_epik_Metal_Only>
0

> <s_lp_Force_Field>
OPLS_2005

> <r_lp_Energy>
59.2824

> <b_lp_Chiralities_Consistent>
1

> <s_lp_Variant>
AV-unprocessed.smi:1240-2

> <Gold.Version>
5.8.1

> <Gold.Id.Protein>
6NUR|6NUR_protein|mol2

> <Gold.PLP.Fitness>
43.1984

> <Gold.PLP.PLP>
-28.9809

> <Gold.PLP.part.hbond>
-4.8991

> <Gold.PLP.part.metal>
0.0000

> <Gold.PLP.part.buried>
-5.0500

> <Gold.PLP.part.nonpolar>
-20.5908

> <Gold.PLP.part.repulsive>
0.4731

> <Gold.PLP.ligand.clash>
0.0000

> <Gold.PLP.ligand.torsion>
1.3153

> <Gold.PLP.Chemscore.Hbond>
3.5520

> <Gold.PLP.Chemscore.CHOScore>
1.9431

> <Gold.PLP.Chemscore.Metal>
0.0000

> <Gold.Chemscore.Hbonds>
donor molecule, donor type, donor heavy atom, donor atom, acceptor molecule, acceptor atom, score
      L1  H     3    24       P1  7948  1.00
      L1  H    17    43       P1  7948  1.00
      P1  H  6934  6947       L1    14  0.78
      P1  H  8011  8017       L1     9  0.78
      L1  C    20    45       P1 10747  0.86
      L1  C    22    46       P1 10186  0.97

> <Gold.PLP.Chemscore.Internal.Correction>
0.3629

> <Gold.Rescore>
     Score         DG    S(hbond)    S(metal)    S(lipo)     H(rot)  DE(clash)    DE(int)     intcor
     17.11     -19.67       3.22        0.00      65.48       1.65       0.15       2.42       ----

> <Gold.Chemscore.Fitness>
17.1058

> <Gold.Chemscore.DG>
-19.6730

> <Gold.Chemscore.ZeroCoef>
-5.4800

> <Gold.Chemscore.Hbond>
3.2209

> <Gold.Chemscore.Metal>
0.0000

> <Gold.Chemscore.Lipo>
65.4809

> <Gold.Chemscore.Internal_Hbond>
0.0000

> <Gold.Chemscore.DEClash>
0.1521

> <Gold.Chemscore.DEInternal>
2.4151

> <Gold.Chemscore.Rot>
1.6508

> <Gold.Chemscore.Internal.Correction>
   9.000000E+99

> <Gold.Chemscore.Hbonds>
donor molecule, donor type, donor heavy atom, donor atom, acceptor molecule, acceptor atom, score
      L1  H     3    24       P1  7948  0.97
      L1  H    17    43       P1  7948  0.98
      P1  H  6934  6947       L1    14  0.75
      P1  H  8011  8017       L1     9  0.37

> <Gold.Chemscore.Hbond.Weighted>
-10.7579

> <Gold.Chemscore.Metal.Weighted>
-0.0000

> <Gold.Chemscore.Lipo.Weighted>
-7.6613

> <Gold.Chemscore.Internal_Hbond.Weighted>
0.0000

> <Gold.Chemscore.DEClash.Weighted>
0.1521

> <Gold.Chemscore.DEInternal.Weighted>
2.4151

> <Gold.Chemscore.Rot.Weighted>
4.2262

> <Gold.Chemscore.Internal.Correction.Weighted>
   9.000000E+99

> <Gold.Protein.RotatedTorsions>
[ 6907 6896 6895 6894 ] final  128.04 input  -60.11 | X-H torsion
[ 7974 7965 7964 7962 ] final -178.83 input  175.53 | X-H torsion
[ 8008 7997 7996 7995 ] final   81.19 input   59.86 | X-H torsion
[ 10167 10162 10161 10158 ] final -142.83 input  -65.29 | X-H torsion
[ 10718 10713 10712 10709 ] final -150.12 input   66.30 | X-H torsion
[ 10763 10752 10751 10750 ] final  -78.17 input  -60.55 | X-H torsion
[ 11005 11000 10999 10996 ] final   -2.04 input  -57.11 | X-H torsion

> <Gold.Protein.ActiveResidues>
 VAL166  LYS551  ARG553  GLY616  TRP617  ASP618  TYR619  PRO620  LYS621  CYS622 
 ASP623  PHE694  ASN695  SER759  ASP760  ASP761  ALA762  ILE779  LEU786  VAL792 
 PHE793  MET794  SER795  GLU796  ALA797  LYS798  CYS799  TRP800  GLU811  SER814 

> <Gold.Protein.RotatedAtoms>
  152.3757  133.6477  159.6121 H   0  0  0  0  0  0  0  0  0  0  0  0  # atno 6907 bound_to 6896
  150.7702  133.9198  159.3403 H   0  0  0  0  0  0  0  0  0  0  0  0  # atno 6908 bound_to 6896
  151.7012  135.0931  160.0302 H   0  0  0  0  0  0  0  0  0  0  0  0  # atno 6909 bound_to 6896
  144.7133  140.0809  143.6425 H   0  0  0  0  0  0  0  0  0  0  0  0  # atno 7974 bound_to 7965
  155.8938  140.3437  155.5975 H   0  0  0  0  0  0  0  0  0  0  0  0  # atno 8008 bound_to 7997
  155.7580  140.0829  157.2188 H   0  0  0  0  0  0  0  0  0  0  0  0  # atno 8009 bound_to 7997
  154.4036  140.1541  156.2787 H   0  0  0  0  0  0  0  0  0  0  0  0  # atno 8010 bound_to 7997
  139.8051  143.7780  152.2660 H   0  0  0  0  0  0  0  0  0  0  0  0  # atno 10167 bound_to 10162
  156.4420  130.8126  151.2356 H   0  0  0  0  0  0  0  0  0  0  0  0  # atno 10718 bound_to 10713
  154.5224  135.5739  153.6691 H   0  0  0  0  0  0  0  0  0  0  0  0  # atno 10763 bound_to 10752
  152.9920  135.6185  154.2737 H   0  0  0  0  0  0  0  0  0  0  0  0  # atno 10764 bound_to 10752
  154.2658  135.2855  155.2738 H   0  0  0  0  0  0  0  0  0  0  0  0  # atno 10765 bound_to 10752
  140.6540  133.9379  155.8397 H   0  0  0  0  0  0  0  0  0  0  0  0  # atno 11005 bound_to 11000
  145.9703  139.2865  143.1103 LP  0  0  0  0  0  0  0  0  0  0  0  0  # atno 17320 bound_to 7965
  145.9124  140.9171  143.0447 LP  0  0  0  0  0  0  0  0  0  0  0  0  # atno 17321 bound_to 7965
  139.7912  144.7409  150.9953 LP  0  0  0  0  0  0  0  0  0  0  0  0  # atno 17342 bound_to 10162
  140.7819  143.4440  151.0509 LP  0  0  0  0  0  0  0  0  0  0  0  0  # atno 17343 bound_to 10162
  157.7506  131.0165  150.3548 LP  0  0  0  0  0  0  0  0  0  0  0  0  # atno 17370 bound_to 10713
  156.3908  130.3897  149.7031 LP  0  0  0  0  0  0  0  0  0  0  0  0  # atno 17371 bound_to 10713
  141.0515  134.0477  157.3777 LP  0  0  0  0  0  0  0  0  0  0  0  0  # atno 17394 bound_to 11000
  139.9036  135.0173  156.7383 LP  0  0  0  0  0  0  0  0  0  0  0  0  # atno 17395 bound_to 11000

$$$$
