AV-unprocessed.smi:1083|AV-procd|sdf|4715|dock10
  -GOLD-   22720 3243D 1   1.00000     0.00000
 Structure written by MMmdl.
 43 45  0  0  0  0  0  0  0  0  1 V2000
  145.1796  137.7836  153.5220 O   0  0  0  0  0  0  0  0  0  0  0  0
  146.2493  137.2823  153.1758 C   0  0  0  0  0  0  0  0  0  0  0  0
  147.4376  137.9075  153.1913 N   0  0  0  0  0  0  0  0  0  0  0  0
  147.7087  139.2560  153.5560 C   0  0  0  0  0  0  0  0  0  0  0  0
  146.7593  140.2900  153.3729 C   0  0  0  0  0  0  0  0  0  0  0  0
  147.0719  141.5919  153.8027 C   0  0  0  0  0  0  0  0  0  0  0  0
  148.3198  141.8121  154.4118 C   0  0  0  0  0  0  0  0  0  0  0  0
  149.2294  140.8353  154.6049 N   0  0  0  0  0  0  0  0  0  0  0  0
  148.9389  139.5779  154.1901 C   0  0  0  0  0  0  0  0  0  0  0  0
  149.9215  138.5865  154.3852 N   0  0  0  0  0  0  0  0  0  0  0  0
  151.2478  139.1249  154.6664 C   0  0  0  0  0  0  0  0  0  0  0  0
  152.2960  138.0009  154.6009 C   0  0  0  0  0  0  0  0  0  0  0  0
  151.9311  136.9515  155.4933 O   0  0  0  0  0  0  0  0  0  0  0  0
  150.6672  136.3816  155.1640 C   0  0  0  0  0  0  0  0  0  0  0  0
  149.5757  137.4621  155.2496 C   0  0  0  0  0  0  0  0  0  0  0  0
  146.3676  136.0327  152.7063 N   0  0  0  0  0  0  0  0  0  0  0  0
  145.2633  135.0952  152.5211 C   0  0  0  0  0  0  0  0  0  0  0  0
  145.7709  133.7599  151.9423 C   0  0  0  0  0  0  0  0  0  0  0  0
  144.8753  133.4472  150.7419 C   0  0  0  0  0  0  0  0  0  0  0  0
  144.4270  134.8144  150.2357 C   0  0  0  0  0  0  0  0  0  0  0  0
  144.2342  135.6370  151.5094 C   0  0  0  0  0  0  0  0  0  0  0  0
  148.2132  137.4034  152.7867 H   0  0  0  0  0  0  0  0  0  0  0  0
  145.7939  140.1007  152.9286 H   0  0  0  0  0  0  0  0  0  0  0  0
  146.3675  142.4008  153.6763 H   0  0  0  0  0  0  0  0  0  0  0  0
  148.5936  142.7977  154.7581 H   0  0  0  0  0  0  0  0  0  0  0  0
  151.5081  139.9139  153.9608 H   0  0  0  0  0  0  0  0  0  0  0  0
  151.2454  139.5761  155.6596 H   0  0  0  0  0  0  0  0  0  0  0  0
  152.3869  137.6138  153.5847 H   0  0  0  0  0  0  0  0  0  0  0  0
  153.2762  138.3839  154.8848 H   0  0  0  0  0  0  0  0  0  0  0  0
  150.7031  135.9427  154.1656 H   0  0  0  0  0  0  0  0  0  0  0  0
  150.4501  135.5719  155.8608 H   0  0  0  0  0  0  0  0  0  0  0  0
  149.4787  137.8055  156.2806 H   0  0  0  0  0  0  0  0  0  0  0  0
  148.6125  137.0462  154.9516 H   0  0  0  0  0  0  0  0  0  0  0  0
  147.2867  135.7085  152.4433 H   0  0  0  0  0  0  0  0  0  0  0  0
  144.7716  134.9120  153.4785 H   0  0  0  0  0  0  0  0  0  0  0  0
  146.8031  133.8537  151.6007 H   0  0  0  0  0  0  0  0  0  0  0  0
  145.7501  132.9585  152.6816 H   0  0  0  0  0  0  0  0  0  0  0  0
  145.3870  132.8625  149.9771 H   0  0  0  0  0  0  0  0  0  0  0  0
  144.0059  132.8763  151.0709 H   0  0  0  0  0  0  0  0  0  0  0  0
  145.2157  135.2582  149.6267 H   0  0  0  0  0  0  0  0  0  0  0  0
  143.5235  134.7630  149.6276 H   0  0  0  0  0  0  0  0  0  0  0  0
  143.2288  135.4671  151.8966 H   0  0  0  0  0  0  0  0  0  0  0  0
  144.3267  136.7081  151.3235 H   0  0  0  0  0  0  0  0  0  0  0  0
  1  2  2  0  0  0  0
  2  3  1  0  0  0  0
  2 16  1  0  0  0  0
  3  4  1  0  0  0  0
  3 22  1  0  0  0  0
  4  9  1  0  0  0  0
  4  5  2  0  0  0  0
  5  6  1  0  0  0  0
  5 23  1  0  0  0  0
  6  7  2  0  0  0  0
  6 24  1  0  0  0  0
  7  8  1  0  0  0  0
  7 25  1  0  0  0  0
  8  9  2  0  0  0  0
  9 10  1  0  0  0  0
 10 15  1  0  0  0  0
 10 11  1  0  0  0  0
 11 12  1  0  0  0  0
 11 26  1  0  0  0  0
 11 27  1  0  0  0  0
 12 13  1  0  0  0  0
 12 28  1  0  0  0  0
 12 29  1  0  0  0  0
 13 14  1  0  0  0  0
 14 15  1  0  0  0  0
 14 30  1  0  0  0  0
 14 31  1  0  0  0  0
 15 32  1  0  0  0  0
 15 33  1  0  0  0  0
 16 17  1  0  0  0  0
 16 34  1  0  0  0  0
 17 21  1  0  0  0  0
 17 18  1  0  0  0  0
 17 35  1  0  0  0  0
 18 19  1  0  0  0  0
 18 36  1  0  0  0  0
 18 37  1  0  0  0  0
 19 20  1  0  0  0  0
 19 38  1  0  0  0  0
 19 39  1  0  0  0  0
 20 21  1  0  0  0  0
 20 40  1  0  0  0  0
 20 41  1  0  0  0  0
 21 42  1  0  0  0  0
 21 43  1  0  0  0  0
M  END
> <s_m_source_file>
AV-unprocessed.smi

> <i_m_source_file_index>
1083

> <i_lp_mmshare_version>
43012

> <i_f3d_flags>
0

> <s_epik_input>
W0NIMl0xW0NIMl1bQ0gyXVtDSDJdW0NIXTFbTkhdQyg9TylbTkhdYzJbY0hdW2NIXVtjSF1uYzJOM1tDSDJdW0NIMl1PW0NIMl1bQ0gyXTM=

> <s_epik_cmdline>
J2VwaWtfcHl0aG9uJywgJy1waCcsICc3LjAnLCAnLXRuJywgJzgnLCAnLW1hJywgJzIwMCcsICctbWV0YWxfYmluZGluZycsICctaW1hZScsICc8aW5maWxlLm1hZT4nLCAnLW9tYWUnLCAnPG91dGZpbGUubWFlPic=

> <r_lp_tautomer_probability>
1

> <r_epik_Ionization_Penalty>
0.00217669

> <r_epik_Ionization_Penalty_Charging>
0

> <r_epik_Ionization_Penalty_Neutral>
0.00217669

> <r_epik_State_Penalty>
0.00146536

> <r_epik_Charging_Adjusted_Penalty>
0.00146536

> <i_epik_Tot_Q>
0

> <i_epik_Tot_abs_Q>
0

> <r_epik_Metal_State_Penalty>
-0

> <b_epik_Metal_Only>
0

> <s_lp_Force_Field>
OPLS_2005

> <r_lp_Energy>
35.5183

> <b_lp_Chiralities_Consistent>
1

> <s_lp_Variant>
AV-unprocessed.smi:1083-1

> <Gold.Version>
5.8.1

> <Gold.Id.Protein>
6NUR|6NUR_protein|mol2

> <Gold.PLP.Fitness>
43.9827

> <Gold.PLP.PLP>
-32.8665

> <Gold.PLP.part.hbond>
-3.0000

> <Gold.PLP.part.metal>
0.0000

> <Gold.PLP.part.buried>
-0.3736

> <Gold.PLP.part.nonpolar>
-29.3541

> <Gold.PLP.part.repulsive>
0.6096

> <Gold.PLP.ligand.clash>
0.0000

> <Gold.PLP.ligand.torsion>
0.4386

> <Gold.PLP.Chemscore.Hbond>
2.9280

> <Gold.PLP.Chemscore.CHOScore>
1.0000

> <Gold.PLP.Chemscore.Metal>
0.0000

> <Gold.Chemscore.Hbonds>
donor molecule, donor type, donor heavy atom, donor atom, acceptor molecule, acceptor atom, score
      L1  H     3    22       P1  7948  1.00
      L1  H    16    34       P1  7948  0.91
      P1  H 10752 10764       L1    13  0.90
      L1  C     7    25       P1  8028  1.00

> <Gold.PLP.Chemscore.Internal.Correction>
0.2095

> <Gold.Rescore>
     Score         DG    S(hbond)    S(metal)    S(lipo)     H(rot)  DE(clash)    DE(int)     intcor
     16.02     -19.04       2.16        0.00      80.40       1.19       0.26       2.75       ----

> <Gold.Chemscore.Fitness>
16.0224

> <Gold.Chemscore.DG>
-19.0376

> <Gold.Chemscore.ZeroCoef>
-5.4800

> <Gold.Chemscore.Hbond>
2.1555

> <Gold.Chemscore.Metal>
0.0000

> <Gold.Chemscore.Lipo>
80.3998

> <Gold.Chemscore.Internal_Hbond>
0.0000

> <Gold.Chemscore.DEClash>
0.2640

> <Gold.Chemscore.DEInternal>
2.7512

> <Gold.Chemscore.Rot>
1.1909

> <Gold.Chemscore.Internal.Correction>
   9.000000E+99

> <Gold.Chemscore.Hbonds>
donor molecule, donor type, donor heavy atom, donor atom, acceptor molecule, acceptor atom, score
      L1  H     3    22       P1  7948  0.99
      L1  H    16    34       P1  7948  0.88
      P1  H 10752 10764       L1    13  0.05

> <Gold.Chemscore.Hbond.Weighted>
-7.1995

> <Gold.Chemscore.Metal.Weighted>
-0.0000

> <Gold.Chemscore.Lipo.Weighted>
-9.4068

> <Gold.Chemscore.Internal_Hbond.Weighted>
0.0000

> <Gold.Chemscore.DEClash.Weighted>
0.2640

> <Gold.Chemscore.DEInternal.Weighted>
2.7512

> <Gold.Chemscore.Rot.Weighted>
3.0487

> <Gold.Chemscore.Internal.Correction.Weighted>
   9.000000E+99

> <Gold.Protein.RotatedTorsions>
[ 6907 6896 6895 6894 ] final  -91.73 input  -60.11 | X-H torsion
[ 7974 7965 7964 7962 ] final  139.04 input  175.53 | X-H torsion
[ 8008 7997 7996 7995 ] final  -75.72 input   59.86 | X-H torsion
[ 10167 10162 10161 10158 ] final  157.99 input  -65.29 | X-H torsion
[ 10718 10713 10712 10709 ] final  -52.23 input   66.30 | X-H torsion
[ 10763 10752 10751 10750 ] final  -42.11 input  -60.55 | X-H torsion
[ 11005 11000 10999 10996 ] final -145.76 input  -57.11 | X-H torsion

> <Gold.Protein.ActiveResidues>
 VAL166  LYS551  ARG553  GLY616  TRP617  ASP618  TYR619  PRO620  LYS621  CYS622 
 ASP623  PHE694  ASN695  SER759  ASP760  ASP761  ALA762  ILE779  LEU786  VAL792 
 PHE793  MET794  SER795  GLU796  ALA797  LYS798  CYS799  TRP800  GLU811  SER814 

> <Gold.Protein.RotatedAtoms>
  150.6896  134.2231  159.4404 H   0  0  0  0  0  0  0  0  0  0  0  0  # atno 6907 bound_to 6896
  152.0186  134.9833  160.0579 H   0  0  0  0  0  0  0  0  0  0  0  0  # atno 6908 bound_to 6896
  152.1419  133.4434  159.4808 H   0  0  0  0  0  0  0  0  0  0  0  0  # atno 6909 bound_to 6896
  144.9316  139.5040  143.5615 H   0  0  0  0  0  0  0  0  0  0  0  0  # atno 7974 bound_to 7965
  154.5442  140.0739  156.8561 H   0  0  0  0  0  0  0  0  0  0  0  0  # atno 8008 bound_to 7997
  155.3120  140.3391  155.4225 H   0  0  0  0  0  0  0  0  0  0  0  0  # atno 8009 bound_to 7997
  156.1902  140.1683  156.8092 H   0  0  0  0  0  0  0  0  0  0  0  0  # atno 8010 bound_to 7997
  139.4825  144.4866  151.8368 H   0  0  0  0  0  0  0  0  0  0  0  0  # atno 10167 bound_to 10162
  156.1640  130.4149  149.9749 H   0  0  0  0  0  0  0  0  0  0  0  0  # atno 10718 bound_to 10713
  153.9737  135.6725  153.4748 H   0  0  0  0  0  0  0  0  0  0  0  0  # atno 10763 bound_to 10752
  153.0781  135.4938  154.8442 H   0  0  0  0  0  0  0  0  0  0  0  0  # atno 10764 bound_to 10752
  154.7204  135.3116  154.9017 H   0  0  0  0  0  0  0  0  0  0  0  0  # atno 10765 bound_to 10752
  140.7890  134.2991  157.5020 H   0  0  0  0  0  0  0  0  0  0  0  0  # atno 11005 bound_to 11000
  146.3249  139.8270  142.8915 LP  0  0  0  0  0  0  0  0  0  0  0  0  # atno 17320 bound_to 7965
  145.3133  141.0225  143.3542 LP  0  0  0  0  0  0  0  0  0  0  0  0  # atno 17321 bound_to 7965
  140.4347  144.2068  150.5889 LP  0  0  0  0  0  0  0  0  0  0  0  0  # atno 17342 bound_to 10162
  140.4744  143.2401  151.9044 LP  0  0  0  0  0  0  0  0  0  0  0  0  # atno 17343 bound_to 10162
  156.7570  130.9137  151.3640 LP  0  0  0  0  0  0  0  0  0  0  0  0  # atno 17370 bound_to 10713
  157.6754  130.9089  150.0137 LP  0  0  0  0  0  0  0  0  0  0  0  0  # atno 17371 bound_to 10713
  139.8733  134.9363  156.3657 LP  0  0  0  0  0  0  0  0  0  0  0  0  # atno 17394 bound_to 11000
  140.9408  133.7516  156.0144 LP  0  0  0  0  0  0  0  0  0  0  0  0  # atno 17395 bound_to 11000

$$$$
