AV-unprocessed.smi:1313|AV-procd|sdf|5452|dock10
  -GOLD-   22720 5 23D 1   1.00000     0.00000
 Structure written by MMmdl.
 36 37  0  0  0  0  0  0  0  0  2 V2000
  150.9567  142.6864  157.3463 C   0  0  0  0  0  0  0  0  0  0  0  0
  151.0478  141.4757  156.4423 C   0  0  0  0  0  0  0  0  0  0  0  0
  150.0448  141.1603  155.7153 N   0  0  0  0  0  0  0  0  0  0  0  0
  150.1257  140.0373  154.8742 C   0  0  0  0  0  0  0  0  0  0  0  0
  148.8865  139.7408  154.0471 C   0  0  0  0  0  0  0  0  0  0  0  0
  151.2574  139.2774  154.8177 C   0  0  0  0  0  0  0  0  0  0  0  0
  151.3955  138.0472  153.9215 C   0  0  0  0  0  0  0  0  0  0  0  0
  151.1883  136.7038  154.6226 C   0  0  0  0  0  0  0  0  0  0  0  0
  151.9433  136.3598  155.5317 O   0  0  0  0  0  0  0  0  0  0  0  0
  150.1658  135.9513  154.1881 N   0  0  0  0  0  0  0  0  0  0  0  0
  149.8207  134.6274  154.6979 C   0  0  0  0  0  0  0  0  0  0  0  0
  151.0446  133.6926  154.6663 C   0  0  0  0  0  0  0  0  0  0  0  0
  150.5534  132.3767  154.0612 C   0  0  0  0  0  0  0  0  0  0  0  0
  149.4394  132.7967  153.1080 C   0  0  0  0  0  0  0  0  0  0  0  0
  148.7395  133.9471  153.8336 C   0  0  0  0  0  0  0  0  0  0  0  0
  152.3924  139.6777  155.6693 C   0  0  0  0  0  0  0  0  0  0  0  0
  153.4413  139.0347  155.6507 O   0  0  0  0  0  0  0  0  0  0  0  0
  152.2325  140.7751  156.4627 N   0  5  0  0  0  0  0  0  0  0  0  0
  150.0193  143.2228  157.1933 H   0  0  0  0  0  0  0  0  0  0  0  0
  151.7793  143.3733  157.1442 H   0  0  0  0  0  0  0  0  0  0  0  0
  151.0101  142.3806  158.3915 H   0  0  0  0  0  0  0  0  0  0  0  0
  148.5216  138.7325  154.2433 H   0  0  0  0  0  0  0  0  0  0  0  0
  149.1068  139.8323  152.9834 H   0  0  0  0  0  0  0  0  0  0  0  0
  148.0808  140.4372  154.2819 H   0  0  0  0  0  0  0  0  0  0  0  0
  150.7042  138.1004  153.0801 H   0  0  0  0  0  0  0  0  0  0  0  0
  152.3832  138.0648  153.4599 H   0  0  0  0  0  0  0  0  0  0  0  0
  149.5974  136.3141  153.4366 H   0  0  0  0  0  0  0  0  0  0  0  0
  149.4610  134.7154  155.7250 H   0  0  0  0  0  0  0  0  0  0  0  0
  151.8264  134.1045  154.0256 H   0  0  0  0  0  0  0  0  0  0  0  0
  151.4815  133.5503  155.6551 H   0  0  0  0  0  0  0  0  0  0  0  0
  151.3477  131.8205  153.5626 H   0  0  0  0  0  0  0  0  0  0  0  0
  150.1431  131.7409  154.8470 H   0  0  0  0  0  0  0  0  0  0  0  0
  149.8729  133.1589  152.1747 H   0  0  0  0  0  0  0  0  0  0  0  0
  148.7612  131.9777  152.8660 H   0  0  0  0  0  0  0  0  0  0  0  0
  147.9640  133.5426  154.4853 H   0  0  0  0  0  0  0  0  0  0  0  0
  148.2466  134.6271  153.1372 H   0  0  0  0  0  0  0  0  0  0  0  0
  1  2  1  0  0  0  0
  1 19  1  0  0  0  0
  1 20  1  0  0  0  0
  1 21  1  0  0  0  0
  2 18  1  0  0  0  0
  2  3  2  0  0  0  0
  3  4  1  0  0  0  0
  4  5  1  0  0  0  0
  4  6  2  0  0  0  0
  5 22  1  0  0  0  0
  5 23  1  0  0  0  0
  5 24  1  0  0  0  0
  6  7  1  0  0  0  0
  6 16  1  0  0  0  0
  7  8  1  0  0  0  0
  7 25  1  0  0  0  0
  7 26  1  0  0  0  0
  8  9  2  0  0  0  0
  8 10  1  0  0  0  0
 10 11  1  0  0  0  0
 10 27  1  0  0  0  0
 11 15  1  0  0  0  0
 11 12  1  0  0  0  0
 11 28  1  0  0  0  0
 12 13  1  0  0  0  0
 12 29  1  0  0  0  0
 12 30  1  0  0  0  0
 13 14  1  0  0  0  0
 13 31  1  0  0  0  0
 13 32  1  0  0  0  0
 14 15  1  0  0  0  0
 14 33  1  0  0  0  0
 14 34  1  0  0  0  0
 15 35  1  0  0  0  0
 15 36  1  0  0  0  0
 16 17  2  0  0  0  0
 16 18  1  0  0  0  0
M  CHG  1  18  -1
M  END
> <s_m_source_file>
AV-unprocessed.smi

> <i_m_source_file_index>
1313

> <i_lp_mmshare_version>
43012

> <i_f3d_flags>
0

> <s_epik_input>
W0NIM11jMW5jKFtDSDNdKWMoYyg9TylbbkhdMSlbQ0gyXUMoPU8pW05IXVtDSF0yW0NIMl1bQ0gyXVtDSDJdW0NIMl0y

> <s_epik_cmdline>
J2VwaWtfcHl0aG9uJywgJy1waCcsICc3LjAnLCAnLXRuJywgJzgnLCAnLW1hJywgJzIwMCcsICctbWV0YWxfYmluZGluZycsICctaW1hZScsICc8aW5maWxlLm1hZT4nLCAnLW9tYWUnLCAnPG91dGZpbGUubWFlPic=

> <r_lp_tautomer_probability>
0.839158

> <r_epik_Ionization_Penalty>
6.62586

> <r_epik_Ionization_Penalty_Charging>
7.38068e-08

> <r_epik_Ionization_Penalty_Neutral>
6.62586

> <r_epik_State_Penalty>
4.443

> <r_epik_Charging_Adjusted_Penalty>
4.443

> <i_epik_Tot_Q>
-1

> <i_epik_Tot_abs_Q>
1

> <r_epik_Metal_State_Penalty>
0.804085

> <b_epik_Metal_Only>
1

> <s_lp_Force_Field>
OPLS_2005

> <r_lp_Energy>
23.3314

> <b_lp_Chiralities_Consistent>
1

> <s_lp_Variant>
AV-unprocessed.smi:1313-3

> <Gold.Version>
5.8.1

> <Gold.Id.Protein>
6NUR|6NUR_protein|mol2

> <Gold.PLP.Fitness>
41.0384

> <Gold.PLP.PLP>
-33.7637

> <Gold.PLP.part.hbond>
-3.7032

> <Gold.PLP.part.metal>
0.0000

> <Gold.PLP.part.buried>
0.4313

> <Gold.PLP.part.nonpolar>
-29.6927

> <Gold.PLP.part.repulsive>
0.1671

> <Gold.PLP.ligand.clash>
0.0000

> <Gold.PLP.ligand.torsion>
0.3602

> <Gold.PLP.Chemscore.Hbond>
2.6640

> <Gold.PLP.Chemscore.CHOScore>
0.0000

> <Gold.PLP.Chemscore.Metal>
0.0000

> <Gold.Chemscore.Hbonds>
donor molecule, donor type, donor heavy atom, donor atom, acceptor molecule, acceptor atom, score
      L1  H    10    27       P1  7948  1.00
      P1  H  7997  8008       L1    17  0.84
      P1  H 10752 10764       L1     9  0.96

> <Gold.PLP.Chemscore.Internal.Correction>
0.0031

> <Gold.Rescore>
     Score         DG    S(hbond)    S(metal)    S(lipo)     H(rot)  DE(clash)    DE(int)     intcor
     13.28     -14.61       1.83        0.00      58.20       1.48       0.09       1.25       ----

> <Gold.Chemscore.Fitness>
13.2770

> <Gold.Chemscore.DG>
-14.6126

> <Gold.Chemscore.ZeroCoef>
-5.4800

> <Gold.Chemscore.Hbond>
1.8280

> <Gold.Chemscore.Metal>
0.0000

> <Gold.Chemscore.Lipo>
58.2042

> <Gold.Chemscore.Internal_Hbond>
0.0000

> <Gold.Chemscore.DEClash>
0.0905

> <Gold.Chemscore.DEInternal>
1.2451

> <Gold.Chemscore.Rot>
1.4776

> <Gold.Chemscore.Internal.Correction>
   9.000000E+99

> <Gold.Chemscore.Hbonds>
donor molecule, donor type, donor heavy atom, donor atom, acceptor molecule, acceptor atom, score
      L1  H    10    27       P1  7948  0.43
      P1  H  7997  8008       L1    17  0.15
      P1  H 10752 10764       L1     9  0.50

> <Gold.Chemscore.Hbond.Weighted>
-6.1055

> <Gold.Chemscore.Metal.Weighted>
-0.0000

> <Gold.Chemscore.Lipo.Weighted>
-6.8099

> <Gold.Chemscore.Internal_Hbond.Weighted>
0.0000

> <Gold.Chemscore.DEClash.Weighted>
0.0905

> <Gold.Chemscore.DEInternal.Weighted>
1.2451

> <Gold.Chemscore.Rot.Weighted>
3.7827

> <Gold.Chemscore.Internal.Correction.Weighted>
   9.000000E+99

> <Gold.Protein.RotatedTorsions>
[ 6907 6896 6895 6894 ] final   70.83 input  -60.11 | X-H torsion
[ 7974 7965 7964 7962 ] final  -83.96 input  175.53 | X-H torsion
[ 8008 7997 7996 7995 ] final  -42.61 input   59.86 | X-H torsion
[ 10167 10162 10161 10158 ] final -178.44 input  -65.29 | X-H torsion
[ 10718 10713 10712 10709 ] final   24.50 input   66.30 | X-H torsion
[ 10763 10752 10751 10750 ] final  -41.34 input  -60.55 | X-H torsion
[ 11005 11000 10999 10996 ] final  -85.11 input  -57.11 | X-H torsion

> <Gold.Protein.ActiveResidues>
 VAL166  LYS551  ARG553  GLY616  TRP617  ASP618  TYR619  PRO620  LYS621  CYS622 
 ASP623  PHE694  ASN695  SER759  ASP760  ASP761  ALA762  ILE779  LEU786  VAL792 
 PHE793  MET794  SER795  GLU796  ALA797  LYS798  CYS799  TRP800  GLU811  SER814 

> <Gold.Protein.RotatedAtoms>
  152.4773  134.4810  159.9665 H   0  0  0  0  0  0  0  0  0  0  0  0  # atno 6907 bound_to 6896
  151.4823  133.3537  159.2848 H   0  0  0  0  0  0  0  0  0  0  0  0  # atno 6908 bound_to 6896
  150.8821  134.8240  159.7293 H   0  0  0  0  0  0  0  0  0  0  0  0  # atno 6909 bound_to 6896
  145.5129  140.9538  143.1697 H   0  0  0  0  0  0  0  0  0  0  0  0  # atno 7974 bound_to 7965
  154.3998  140.1469  156.3383 H   0  0  0  0  0  0  0  0  0  0  0  0  # atno 8008 bound_to 7997
  155.8380  140.3463  155.5593 H   0  0  0  0  0  0  0  0  0  0  0  0  # atno 8009 bound_to 7997
  155.8117  140.0885  157.1890 H   0  0  0  0  0  0  0  0  0  0  0  0  # atno 8010 bound_to 7997
  139.5432  144.2305  152.0937 H   0  0  0  0  0  0  0  0  0  0  0  0  # atno 10167 bound_to 10162
  157.1806  130.6801  149.6111 H   0  0  0  0  0  0  0  0  0  0  0  0  # atno 10718 bound_to 10713
  153.9609  135.6739  153.4745 H   0  0  0  0  0  0  0  0  0  0  0  0  # atno 10763 bound_to 10752
  153.0838  135.4909  154.8554 H   0  0  0  0  0  0  0  0  0  0  0  0  # atno 10764 bound_to 10752
  154.7273  135.3130  154.8910 H   0  0  0  0  0  0  0  0  0  0  0  0  # atno 10765 bound_to 10752
  141.1644  133.7382  156.8967 H   0  0  0  0  0  0  0  0  0  0  0  0  # atno 11005 bound_to 11000
  144.7717  139.6719  143.7192 LP  0  0  0  0  0  0  0  0  0  0  0  0  # atno 17320 bound_to 7965
  146.2155  139.5541  142.9653 LP  0  0  0  0  0  0  0  0  0  0  0  0  # atno 17321 bound_to 7965
  140.1787  144.4865  150.6540 LP  0  0  0  0  0  0  0  0  0  0  0  0  # atno 17342 bound_to 10162
  140.6671  143.2272  151.5716 LP  0  0  0  0  0  0  0  0  0  0  0  0  # atno 17343 bound_to 10162
  155.9725  130.4648  150.6231 LP  0  0  0  0  0  0  0  0  0  0  0  0  # atno 17370 bound_to 10713
  157.3956  131.0802  151.1354 LP  0  0  0  0  0  0  0  0  0  0  0  0  # atno 17371 bound_to 10713
  140.1611  134.9165  157.2715 LP  0  0  0  0  0  0  0  0  0  0  0  0  # atno 17394 bound_to 11000
  140.2610  134.3571  155.7406 LP  0  0  0  0  0  0  0  0  0  0  0  0  # atno 17395 bound_to 11000

$$$$
