AV-unprocessed.smi:3251|AV-procd|sdf|12435|dock1
  -GOLD-   2272018323D 1   1.00000     0.00000
 Structure written by MMmdl.
 41 42  0  0  0  0  0  0  0  0  2 V2000
  142.8256  133.4871  151.7694 C   0  0  0  0  0  0  0  0  0  0  0  0
  143.8261  134.6049  151.7036 C   0  0  0  0  0  0  0  0  0  0  0  0
  144.4360  135.1663  150.5458 C   0  0  0  0  0  0  0  0  0  0  0  0
  145.2842  136.1406  150.8328 N   0  0  0  0  0  0  0  0  0  0  0  0
  145.2442  136.2366  152.1788 N   0  0  0  0  0  0  0  0  0  0  0  0
  146.0834  137.2063  152.8592 C   0  0  0  0  0  0  0  0  0  0  0  0
  146.5381  138.3264  151.9113 C   0  0  0  0  0  0  0  0  0  0  0  0
  147.8273  138.9076  152.3462 N   0  3  0  0  0  0  0  0  0  0  0  0
  147.7766  139.6925  153.6000 C   0  0  2  0  0  0  0  0  0  0  0  0
  146.8771  140.9214  153.3929 C   0  0  0  0  0  0  0  0  0  0  0  0
  149.1869  140.1395  154.0368 C   0  0  0  0  0  0  0  0  0  0  0  0
  149.4628  141.3404  154.0150 O   0  0  0  0  0  0  0  0  0  0  0  0
  150.0799  139.2109  154.4419 N   0  0  0  0  0  0  0  0  0  0  0  0
  149.8580  137.7666  154.5152 C   0  0  0  0  0  0  0  0  0  0  0  0
  151.0605  137.2007  155.2706 C   0  0  0  0  0  0  0  0  0  0  0  0
  152.1703  138.2096  155.0134 C   0  0  0  0  0  0  0  0  0  0  0  0
  151.4362  139.5433  154.8754 C   0  0  0  0  0  0  0  0  0  0  0  0
  144.3720  135.3223  152.7301 C   0  0  0  0  0  0  0  0  0  0  0  0
  142.3311  133.3288  150.8106 H   0  0  0  0  0  0  0  0  0  0  0  0
  142.0448  133.6869  152.5034 H   0  0  0  0  0  0  0  0  0  0  0  0
  143.2961  132.5442  152.0483 H   0  0  0  0  0  0  0  0  0  0  0  0
  144.2892  134.8941  149.5108 H   0  0  0  0  0  0  0  0  0  0  0  0
  145.5429  137.6135  153.7154 H   0  0  0  0  0  0  0  0  0  0  0  0
  146.9527  136.6823  153.2582 H   0  0  0  0  0  0  0  0  0  0  0  0
  146.6536  137.9374  150.8993 H   0  0  0  0  0  0  0  0  0  0  0  0
  145.7676  139.0974  151.8678 H   0  0  0  0  0  0  0  0  0  0  0  0
  148.4904  138.1559  152.4782 H   0  0  0  0  0  0  0  0  0  0  0  0
  147.3235  139.0561  154.3605 H   0  0  0  0  0  0  0  0  0  0  0  0
  146.7970  141.5204  154.3003 H   0  0  0  0  0  0  0  0  0  0  0  0
  145.8667  140.6225  153.1121 H   0  0  0  0  0  0  0  0  0  0  0  0
  147.2603  141.5696  152.6034 H   0  0  0  0  0  0  0  0  0  0  0  0
  148.9269  137.5087  155.0202 H   0  0  0  0  0  0  0  0  0  0  0  0
  149.8222  137.3606  153.5032 H   0  0  0  0  0  0  0  0  0  0  0  0
  150.8391  137.1683  156.3384 H   0  0  0  0  0  0  0  0  0  0  0  0
  151.3237  136.1911  154.9535 H   0  0  0  0  0  0  0  0  0  0  0  0
  152.9237  138.2211  155.8018 H   0  0  0  0  0  0  0  0  0  0  0  0
  152.6724  137.9691  154.0752 H   0  0  0  0  0  0  0  0  0  0  0  0
  151.9439  140.2021  154.1690 H   0  0  0  0  0  0  0  0  0  0  0  0
  151.3862  140.0535  155.8388 H   0  0  0  0  0  0  0  0  0  0  0  0
  144.2169  135.2541  153.7971 H   0  0  0  0  0  0  0  0  0  0  0  0
  148.1638  139.5041  151.6043 H   0  0  0  0  0  0  0  0  0  0  0  0
  1  2  1  0  0  0  0
  1 19  1  0  0  0  0
  1 20  1  0  0  0  0
  1 21  1  0  0  0  0
  2 18  2  0  0  0  0
  2  3  1  0  0  0  0
  3  4  2  0  0  0  0
  3 22  1  0  0  0  0
  4  5  1  0  0  0  0
  5  6  1  0  0  0  0
  5 18  1  0  0  0  0
  6  7  1  0  0  0  0
  6 23  1  0  0  0  0
  6 24  1  0  0  0  0
  7  8  1  0  0  0  0
  7 25  1  0  0  0  0
  7 26  1  0  0  0  0
  8  9  1  0  0  0  0
  8 27  1  0  0  0  0
  8 41  1  0  0  0  0
  9 10  1  0  0  0  0
  9 11  1  0  0  0  0
  9 28  1  0  0  0  0
 10 29  1  0  0  0  0
 10 30  1  0  0  0  0
 10 31  1  0  0  0  0
 11 12  2  0  0  0  0
 11 13  1  0  0  0  0
 13 17  1  0  0  0  0
 13 14  1  0  0  0  0
 14 15  1  0  0  0  0
 14 32  1  0  0  0  0
 14 33  1  0  0  0  0
 15 16  1  0  0  0  0
 15 34  1  0  0  0  0
 15 35  1  0  0  0  0
 16 17  1  0  0  0  0
 16 36  1  0  0  0  0
 16 37  1  0  0  0  0
 17 38  1  0  0  0  0
 17 39  1  0  0  0  0
 18 40  1  0  0  0  0
M  CHG  1   8   1
M  END
> <s_m_source_file>
AV-unprocessed.smi

> <i_m_source_file_index>
3251

> <i_lp_mmshare_version>
43012

> <i_f3d_flags>
0

> <s_epik_input>
W0NIM11jMVtjSF1ubihbY0hdMSlbQ0gyXVtDSDJdW05IXVtDQEhdKFtDSDNdKUMoPU8pTjJbQ0gyXVtDSDJdW0NIMl1bQ0gyXTI=

> <s_epik_cmdline>
J2VwaWtfcHl0aG9uJywgJy1waCcsICc3LjAnLCAnLXRuJywgJzgnLCAnLW1hJywgJzIwMCcsICctbWV0YWxfYmluZGluZycsICctaW1hZScsICc8aW5maWxlLm1hZT4nLCAnLW9tYWUnLCAnPG91dGZpbGUubWFlPic=

> <r_lp_tautomer_probability>
1

> <r_epik_Ionization_Penalty>
0.203173

> <r_epik_Ionization_Penalty_Charging>
0.203168

> <r_epik_Ionization_Penalty_Neutral>
5.06494e-06

> <r_epik_State_Penalty>
0.193072

> <r_epik_Charging_Adjusted_Penalty>
0.39624

> <i_epik_Tot_Q>
1

> <i_epik_Tot_abs_Q>
1

> <r_epik_Metal_State_Penalty>
0.193587

> <b_epik_Metal_Only>
0

> <s_lp_Force_Field>
OPLS_2005

> <r_lp_Energy>
29.5605

> <b_lp_Chiralities_Consistent>
1

> <s_lp_Variant>
AV-unprocessed.smi:3251-1

> <Gold.Version>
5.8.1

> <Gold.Id.Protein>
6NUR|6NUR_protein|mol2

> <Gold.PLP.Fitness>
44.0658

> <Gold.PLP.PLP>
-33.1300

> <Gold.PLP.part.hbond>
-3.6192

> <Gold.PLP.part.metal>
0.0000

> <Gold.PLP.part.buried>
3.8863

> <Gold.PLP.part.nonpolar>
-34.2547

> <Gold.PLP.part.repulsive>
0.8165

> <Gold.PLP.ligand.clash>
0.0000

> <Gold.PLP.ligand.torsion>
0.5902

> <Gold.PLP.Chemscore.Hbond>
3.0781

> <Gold.PLP.Chemscore.CHOScore>
0.9508

> <Gold.PLP.Chemscore.Metal>
0.0000

> <Gold.Chemscore.Hbonds>
donor molecule, donor type, donor heavy atom, donor atom, acceptor molecule, acceptor atom, score
      L1  H     8    27       P1  7948  1.66
      L1  H     8    41       P1  7957  0.72
      P1  H  7989  7998       L1    12  0.08
      P1  H  8011  8017       L1    12  0.75
      L1  C     3    22       P1  7921  0.70

> <Gold.PLP.Chemscore.Internal.Correction>
0.0296

> <Gold.Rescore>
     Score         DG    S(hbond)    S(metal)    S(lipo)     H(rot)  DE(clash)    DE(int)     intcor
     13.51     -16.16       1.92        0.00      75.08       1.76       2.19       0.46       ----

> <Gold.Chemscore.Fitness>
13.5056

> <Gold.Chemscore.DG>
-16.1613

> <Gold.Chemscore.ZeroCoef>
-5.4800

> <Gold.Chemscore.Hbond>
1.9170

> <Gold.Chemscore.Metal>
0.0000

> <Gold.Chemscore.Lipo>
75.0768

> <Gold.Chemscore.Internal_Hbond>
0.0000

> <Gold.Chemscore.DEClash>
2.1918

> <Gold.Chemscore.DEInternal>
0.4640

> <Gold.Chemscore.Rot>
1.7599

> <Gold.Chemscore.Internal.Correction>
   9.000000E+99

> <Gold.Chemscore.Hbonds>
donor molecule, donor type, donor heavy atom, donor atom, acceptor molecule, acceptor atom, score
      L1  H     8    27       P1  7948  0.77
      L1  H     8    41       P1  7957  0.69
      P1  H  7989  7998       L1    12  0.01
      P1  H  8011  8017       L1    12  0.70

> <Gold.Chemscore.Hbond.Weighted>
-6.4027

> <Gold.Chemscore.Metal.Weighted>
-0.0000

> <Gold.Chemscore.Lipo.Weighted>
-8.7840

> <Gold.Chemscore.Internal_Hbond.Weighted>
0.0000

> <Gold.Chemscore.DEClash.Weighted>
2.1918

> <Gold.Chemscore.DEInternal.Weighted>
0.4640

> <Gold.Chemscore.Rot.Weighted>
4.5053

> <Gold.Chemscore.Internal.Correction.Weighted>
   9.000000E+99

> <Gold.Protein.RotatedTorsions>
[ 6907 6896 6895 6894 ] final  168.53 input  -60.11 | X-H torsion
[ 7974 7965 7964 7962 ] final   50.52 input  175.53 | X-H torsion
[ 8008 7997 7996 7995 ] final -116.26 input   59.86 | X-H torsion
[ 10167 10162 10161 10158 ] final   38.45 input  -65.29 | X-H torsion
[ 10718 10713 10712 10709 ] final  -89.90 input   66.30 | X-H torsion
[ 10763 10752 10751 10750 ] final  172.27 input  -60.55 | X-H torsion
[ 11005 11000 10999 10996 ] final  -88.69 input  -57.11 | X-H torsion

> <Gold.Protein.ActiveResidues>
 VAL166  LYS551  ARG553  GLY616  TRP617  ASP618  TYR619  PRO620  LYS621  CYS622 
 ASP623  PHE694  ASN695  SER759  ASP760  ASP761  ALA762  ILE779  LEU786  VAL792 
 PHE793  MET794  SER795  GLU796  ALA797  LYS798  CYS799  TRP800  GLU811  SER814 

> <Gold.Protein.RotatedAtoms>
  151.8462  133.3432  159.3658 H   0  0  0  0  0  0  0  0  0  0  0  0  # atno 6907 bound_to 6896
  150.7220  134.5343  159.5725 H   0  0  0  0  0  0  0  0  0  0  0  0  # atno 6908 bound_to 6896
  152.2827  134.7811  160.0444 H   0  0  0  0  0  0  0  0  0  0  0  0  # atno 6909 bound_to 6896
  146.0004  139.4433  143.0018 H   0  0  0  0  0  0  0  0  0  0  0  0  # atno 7974 bound_to 7965
  155.0651  140.0393  157.2590 H   0  0  0  0  0  0  0  0  0  0  0  0  # atno 8008 bound_to 7997
  154.7028  140.2677  155.6679 H   0  0  0  0  0  0  0  0  0  0  0  0  # atno 8009 bound_to 7997
  156.2765  140.2737  156.1644 H   0  0  0  0  0  0  0  0  0  0  0  0  # atno 8010 bound_to 7997
  140.3935  144.1820  150.6131 H   0  0  0  0  0  0  0  0  0  0  0  0  # atno 10167 bound_to 10162
  155.9986  130.4889  150.5242 H   0  0  0  0  0  0  0  0  0  0  0  0  # atno 10718 bound_to 10713
  154.4237  135.2758  155.1959 H   0  0  0  0  0  0  0  0  0  0  0  0  # atno 10763 bound_to 10752
  154.3894  135.6069  153.5838 H   0  0  0  0  0  0  0  0  0  0  0  0  # atno 10764 bound_to 10752
  152.9834  135.5899  154.4537 H   0  0  0  0  0  0  0  0  0  0  0  0  # atno 10765 bound_to 10752
  141.1597  133.7585  156.9488 H   0  0  0  0  0  0  0  0  0  0  0  0  # atno 11005 bound_to 11000
  145.7496  140.9977  143.1257 LP  0  0  0  0  0  0  0  0  0  0  0  0  # atno 17320 bound_to 7965
  144.6917  139.9199  143.7467 LP  0  0  0  0  0  0  0  0  0  0  0  0  # atno 17321 bound_to 7965
  140.4814  143.2378  151.8949 LP  0  0  0  0  0  0  0  0  0  0  0  0  # atno 17342 bound_to 10162
  139.4788  144.5265  151.8728 LP  0  0  0  0  0  0  0  0  0  0  0  0  # atno 17343 bound_to 10162
  157.3199  131.0680  151.1939 LP  0  0  0  0  0  0  0  0  0  0  0  0  # atno 17370 bound_to 10713
  157.2856  130.6771  149.6088 LP  0  0  0  0  0  0  0  0  0  0  0  0  # atno 17371 bound_to 10713
  140.1271  134.9379  157.2286 LP  0  0  0  0  0  0  0  0  0  0  0  0  # atno 17394 bound_to 11000
  140.2999  134.3144  155.7292 LP  0  0  0  0  0  0  0  0  0  0  0  0  # atno 17395 bound_to 11000

$$$$
