AV-unprocessed.smi:1410|AV-procd|sdf|5734|dock4
  -GOLD-   22720 5363D 1   1.00000     0.00000
 Structure written by MMmdl.
 41 42  0  0  0  0  0  0  0  0  3 V2000
  142.2627  140.6064  154.8159 N   0  0  0  0  0  0  0  0  0  0  0  0
  142.6750  141.5481  155.6673 C   0  0  0  0  0  0  0  0  0  0  0  0
  142.2284  141.6405  156.8095 O   0  0  0  0  0  0  0  0  0  0  0  0
  143.7570  142.5096  155.1641 C   0  0  0  0  0  0  0  0  0  0  0  0
  145.0076  141.8157  154.7621 N   0  3  2  0  0  0  0  0  0  0  0  0
  145.6787  141.1194  155.8921 C   0  0  0  0  0  0  0  0  0  0  0  0
  146.8795  140.2939  155.3985 C   0  0  0  0  0  0  0  0  0  0  0  0
  147.8901  141.1533  154.6120 C   0  0  2  0  0  0  0  0  0  0  0  0
  148.6264  142.0716  155.4815 N   0  0  0  0  0  0  0  0  0  0  0  0
  149.5457  141.7088  156.3886 C   0  0  0  0  0  0  0  0  0  0  0  0
  149.8489  140.5377  156.6127 O   0  0  0  0  0  0  0  0  0  0  0  0
  150.0635  142.7805  157.0143 N   0  0  0  0  0  0  0  0  0  0  0  0
  151.0489  142.8227  158.0394 C   0  0  0  0  0  0  0  0  0  0  0  0
  151.4969  144.0951  158.4596 C   0  0  0  0  0  0  0  0  0  0  0  0
  152.4807  144.1906  159.4648 C   0  0  0  0  0  0  0  0  0  0  0  0
  152.9938  143.0682  160.0121 N   0  3  0  0  0  0  0  0  0  0  0  0
  152.6085  141.8305  159.6345 C   0  0  0  0  0  0  0  0  0  0  0  0
  151.6287  141.6720  158.6332 C   0  0  0  0  0  0  0  0  0  0  0  0
  147.1598  141.9291  153.5017 C   0  0  0  0  0  0  0  0  0  0  0  0
  145.9466  142.7105  154.0392 C   0  0  0  0  0  0  0  0  0  0  0  0
  141.5533  139.9470  155.1039 H   0  0  0  0  0  0  0  0  0  0  0  0
  142.6593  140.5493  153.8889 H   0  0  0  0  0  0  0  0  0  0  0  0
  143.3328  143.0295  154.3041 H   0  0  0  0  0  0  0  0  0  0  0  0
  143.9745  143.2716  155.9146 H   0  0  0  0  0  0  0  0  0  0  0  0
  146.0021  141.8508  156.6343 H   0  0  0  0  0  0  0  0  0  0  0  0
  144.9747  140.4554  156.3947 H   0  0  0  0  0  0  0  0  0  0  0  0
  147.3649  139.7987  156.2402 H   0  0  0  0  0  0  0  0  0  0  0  0
  146.5152  139.4940  154.7524 H   0  0  0  0  0  0  0  0  0  0  0  0
  148.6168  140.4917  154.1368 H   0  0  0  0  0  0  0  0  0  0  0  0
  148.4404  143.0569  155.3638 H   0  0  0  0  0  0  0  0  0  0  0  0
  149.6632  143.6731  156.7650 H   0  0  0  0  0  0  0  0  0  0  0  0
  151.0884  144.9944  158.0217 H   0  0  0  0  0  0  0  0  0  0  0  0
  152.8707  145.1242  159.8434 H   0  0  0  0  0  0  0  0  0  0  0  0
  153.0961  141.0082  160.1376 H   0  0  0  0  0  0  0  0  0  0  0  0
  151.3531  140.6721  158.3360 H   0  0  0  0  0  0  0  0  0  0  0  0
  147.8487  142.6066  152.9956 H   0  0  0  0  0  0  0  0  0  0  0  0
  146.8175  141.2250  152.7421 H   0  0  0  0  0  0  0  0  0  0  0  0
  145.4319  143.1848  153.2026 H   0  0  0  0  0  0  0  0  0  0  0  0
  146.2721  143.5119  154.7042 H   0  0  0  0  0  0  0  0  0  0  0  0
  144.7287  141.1033  154.1019 H   0  0  0  0  0  0  0  0  0  0  0  0
  153.7052  143.1588  160.7380 H   0  0  0  0  0  0  0  0  0  0  0  0
  1  2  1  0  0  0  0
  1 21  1  0  0  0  0
  1 22  1  0  0  0  0
  2  3  2  0  0  0  0
  2  4  1  0  0  0  0
  4  5  1  0  0  0  0
  4 23  1  0  0  0  0
  4 24  1  0  0  0  0
  5 20  1  0  0  0  0
  5  6  1  0  0  0  0
  5 40  1  0  0  0  0
  6  7  1  0  0  0  0
  6 25  1  0  0  0  0
  6 26  1  0  0  0  0
  7  8  1  0  0  0  0
  7 27  1  0  0  0  0
  7 28  1  0  0  0  0
  8  9  1  0  0  0  0
  8 19  1  0  0  0  0
  8 29  1  0  0  0  0
  9 10  1  0  0  0  0
  9 30  1  0  0  0  0
 10 11  2  0  0  0  0
 10 12  1  0  0  0  0
 12 13  1  0  0  0  0
 12 31  1  0  0  0  0
 13 18  1  0  0  0  0
 13 14  2  0  0  0  0
 14 15  1  0  0  0  0
 14 32  1  0  0  0  0
 15 16  2  0  0  0  0
 15 33  1  0  0  0  0
 16 17  1  0  0  0  0
 16 41  1  0  0  0  0
 17 18  2  0  0  0  0
 17 34  1  0  0  0  0
 18 35  1  0  0  0  0
 19 20  1  0  0  0  0
 19 36  1  0  0  0  0
 19 37  1  0  0  0  0
 20 38  1  0  0  0  0
 20 39  1  0  0  0  0
M  CHG  1   5   1
M  CHG  1  16   1
M  END
> <s_m_source_file>
AV-unprocessed.smi

> <i_m_source_file_index>
1410

> <i_lp_mmshare_version>
43012

> <i_f3d_flags>
0

> <s_epik_input>
W05IMl1DKD1PKVtDSDJdTjFbQ0gyXVtDSDJdW0NIXShbQ0gyXVtDSDJdMSlbTkhdQyg9TylbTkhdYzJbY0hdW2NIXW5bY0hdW2NIXTI=

> <s_epik_cmdline>
J2VwaWtfcHl0aG9uJywgJy1waCcsICc3LjAnLCAnLXRuJywgJzgnLCAnLW1hJywgJzIwMCcsICctbWV0YWxfYmluZGluZycsICctaW1hZScsICc8aW5maWxlLm1hZT4nLCAnLW9tYWUnLCAnPG91dGZpbGUubWFlPic=

> <r_epik_Ionization_Penalty>
1.97414

> <r_epik_Ionization_Penalty_Charging>
1.97408

> <r_epik_Ionization_Penalty_Neutral>
5.94508e-05

> <r_epik_State_Penalty>
2.00676

> <r_epik_Charging_Adjusted_Penalty>
3.98084

> <i_epik_Tot_Q>
2

> <i_epik_Tot_abs_Q>
2

> <r_epik_Metal_State_Penalty>
2.12108

> <b_epik_Metal_Only>
0

> <s_lp_Force_Field>
OPLS_2005

> <r_lp_Energy>
26.1476

> <b_lp_Chiralities_Consistent>
1

> <s_lp_Variant>
AV-unprocessed.smi:1410-6

> <Gold.Version>
5.8.1

> <Gold.Id.Protein>
6NUR|6NUR_protein|mol2

> <Gold.PLP.Fitness>
46.8850

> <Gold.PLP.PLP>
-32.2312

> <Gold.PLP.part.hbond>
-4.0000

> <Gold.PLP.part.metal>
0.0000

> <Gold.PLP.part.buried>
-5.8319

> <Gold.PLP.part.nonpolar>
-23.7558

> <Gold.PLP.part.repulsive>
0.2267

> <Gold.PLP.ligand.clash>
0.0000

> <Gold.PLP.ligand.torsion>
0.1476

> <Gold.PLP.Chemscore.Hbond>
4.9745

> <Gold.PLP.Chemscore.CHOScore>
0.0000

> <Gold.PLP.Chemscore.Metal>
0.0000

> <Gold.Chemscore.Hbonds>
donor molecule, donor type, donor heavy atom, donor atom, acceptor molecule, acceptor atom, score
      L1  H     1    22       P1 10175  1.00
      L1  H     5    40       P1 10175  2.00
      L1  H     9    30       P1  8028  1.00
      L1  H    12    31       P1  8028  1.00

> <Gold.PLP.Chemscore.Internal.Correction>
0.0255

> <Gold.Rescore>
     Score         DG    S(hbond)    S(metal)    S(lipo)     H(rot)  DE(clash)    DE(int)     intcor
     20.05     -21.67       3.65        0.00      77.66       1.99       0.29       1.33       ----

> <Gold.Chemscore.Fitness>
20.0455

> <Gold.Chemscore.DG>
-21.6705

> <Gold.Chemscore.ZeroCoef>
-5.4800

> <Gold.Chemscore.Hbond>
3.6519

> <Gold.Chemscore.Metal>
0.0000

> <Gold.Chemscore.Lipo>
77.6567

> <Gold.Chemscore.Internal_Hbond>
0.0000

> <Gold.Chemscore.DEClash>
0.2946

> <Gold.Chemscore.DEInternal>
1.3304

> <Gold.Chemscore.Rot>
1.9894

> <Gold.Chemscore.Internal.Correction>
   9.000000E+99

> <Gold.Chemscore.Hbonds>
donor molecule, donor type, donor heavy atom, donor atom, acceptor molecule, acceptor atom, score
      L1  H     1    22       P1 10175  0.70
      L1  H     5    40       P1 10175  0.71
      L1  H     9    30       P1  8028  0.95
      L1  H    12    31       P1  8028  0.96

> <Gold.Chemscore.Hbond.Weighted>
-12.1974

> <Gold.Chemscore.Metal.Weighted>
-0.0000

> <Gold.Chemscore.Lipo.Weighted>
-9.0858

> <Gold.Chemscore.Internal_Hbond.Weighted>
0.0000

> <Gold.Chemscore.DEClash.Weighted>
0.2946

> <Gold.Chemscore.DEInternal.Weighted>
1.3304

> <Gold.Chemscore.Rot.Weighted>
5.0927

> <Gold.Chemscore.Internal.Correction.Weighted>
   9.000000E+99

> <Gold.Protein.RotatedTorsions>
[ 6907 6896 6895 6894 ] final -111.29 input  -60.11 | X-H torsion
[ 7974 7965 7964 7962 ] final  108.32 input  175.53 | X-H torsion
[ 8008 7997 7996 7995 ] final  166.47 input   59.86 | X-H torsion
[ 10167 10162 10161 10158 ] final  129.28 input  -65.29 | X-H torsion
[ 10718 10713 10712 10709 ] final  -89.84 input   66.30 | X-H torsion
[ 10763 10752 10751 10750 ] final   40.18 input  -60.55 | X-H torsion
[ 11005 11000 10999 10996 ] final   43.27 input  -57.11 | X-H torsion

> <Gold.Protein.ActiveResidues>
 VAL166  LYS551  ARG553  GLY616  TRP617  ASP618  TYR619  PRO620  LYS621  CYS622 
 ASP623  PHE694  ASN695  SER759  ASP760  ASP761  ALA762  ILE779  LEU786  VAL792 
 PHE793  MET794  SER795  GLU796  ALA797  LYS798  CYS799  TRP800  GLU811  SER814 

> <Gold.Protein.RotatedAtoms>
  150.7681  133.9256  159.3411 H   0  0  0  0  0  0  0  0  0  0  0  0  # atno 6907 bound_to 6896
  151.7149  135.0903  160.0283 H   0  0  0  0  0  0  0  0  0  0  0  0  # atno 6908 bound_to 6896
  152.3686  133.6351  159.6105 H   0  0  0  0  0  0  0  0  0  0  0  0  # atno 6909 bound_to 6896
  145.2821  139.2629  143.3910 H   0  0  0  0  0  0  0  0  0  0  0  0  # atno 7974 bound_to 7965
  156.1715  140.1642  156.8438 H   0  0  0  0  0  0  0  0  0  0  0  0  # atno 8008 bound_to 7997
  154.5262  140.0767  156.8297 H   0  0  0  0  0  0  0  0  0  0  0  0  # atno 8009 bound_to 7997
  155.3502  140.3389  155.4241 H   0  0  0  0  0  0  0  0  0  0  0  0  # atno 8010 bound_to 7997
  139.5486  144.6794  151.4396 H   0  0  0  0  0  0  0  0  0  0  0  0  # atno 10167 bound_to 10162
  155.9985  130.4887  150.5232 H   0  0  0  0  0  0  0  0  0  0  0  0  # atno 10718 bound_to 10713
  152.9944  135.6199  154.2584 H   0  0  0  0  0  0  0  0  0  0  0  0  # atno 10763 bound_to 10752
  154.2321  135.2792  155.2888 H   0  0  0  0  0  0  0  0  0  0  0  0  # atno 10764 bound_to 10752
  154.5441  135.5752  153.6922 H   0  0  0  0  0  0  0  0  0  0  0  0  # atno 10765 bound_to 10752
  140.1661  134.4280  155.8286 H   0  0  0  0  0  0  0  0  0  0  0  0  # atno 11005 bound_to 11000
  146.3213  140.3291  142.8639 LP  0  0  0  0  0  0  0  0  0  0  0  0  # atno 17320 bound_to 7965
  144.9244  140.7904  143.5728 LP  0  0  0  0  0  0  0  0  0  0  0  0  # atno 17321 bound_to 7965
  140.6741  143.8228  150.7036 LP  0  0  0  0  0  0  0  0  0  0  0  0  # atno 17342 bound_to 10162
  140.1661  143.4234  152.2033 LP  0  0  0  0  0  0  0  0  0  0  0  0  # atno 17343 bound_to 10162
  157.3191  131.0678  151.1945 LP  0  0  0  0  0  0  0  0  0  0  0  0  # atno 17370 bound_to 10713
  157.2865  130.6775  149.6092 LP  0  0  0  0  0  0  0  0  0  0  0  0  # atno 17371 bound_to 10713
  141.2214  133.6935  156.7680 LP  0  0  0  0  0  0  0  0  0  0  0  0  # atno 17394 bound_to 11000
  140.2432  134.8597  157.3594 LP  0  0  0  0  0  0  0  0  0  0  0  0  # atno 17395 bound_to 11000

$$$$
