AV-unprocessed.smi:2188|AV-procd|sdf|8881|dock4
  -GOLD-   2272012 83D 1   1.00000     0.00000
 Structure written by MMmdl.
 40 42  0  0  0  0  0  0  0  0  2 V2000
  150.7845  140.4533  155.2339 O   0  0  0  0  0  0  0  0  0  0  0  0
  151.2005  140.1907  156.3641 C   0  0  0  0  0  0  0  0  0  0  0  0
  151.4122  138.9139  156.7409 N   0  0  0  0  0  0  0  0  0  0  0  0
  151.2054  137.7267  155.9131 C   0  0  0  0  0  0  0  0  0  0  0  0
  151.0506  136.4398  156.7486 C   0  0  0  0  0  0  0  0  0  0  0  0
  150.3451  135.3138  156.0121 C   0  0  0  0  0  0  0  0  0  0  0  0
  150.3420  134.0002  156.5324 C   0  0  0  0  0  0  0  0  0  0  0  0
  149.7136  132.9690  155.8040 C   0  0  0  0  0  0  0  0  0  0  0  0
  149.1003  133.2744  154.5718 C   0  0  0  0  0  0  0  0  0  0  0  0
  149.1184  134.5432  154.1081 N   0  3  0  0  0  0  0  0  0  0  0  0
  149.7074  135.5589  154.7764 C   0  0  0  0  0  0  0  0  0  0  0  0
  151.5249  141.1901  157.4039 C   0  0  0  0  0  0  0  0  0  0  0  0
  150.8795  142.3881  157.4021 C   0  0  0  0  0  0  0  0  0  0  0  0
  151.1650  143.4103  158.3777 C   0  0  0  0  0  0  0  0  0  0  0  0
  152.0646  143.1389  159.3283 C   0  0  0  0  0  0  0  0  0  0  0  0
  152.7320  141.9195  159.4201 N   0  0  0  0  0  0  0  0  0  0  0  0
  153.5935  141.7257  160.5819 C   0  0  0  0  0  0  0  0  0  0  0  0
  154.8682  141.0057  160.1829 C   0  0  0  0  0  0  0  0  0  0  0  0
  154.3442  139.3578  159.5907 S   0  0  0  0  0  0  0  0  0  0  0  0
  155.5020  138.7088  158.9575 O   0  0  0  0  0  0  0  0  0  0  0  0
  153.6464  138.6761  160.6921 O   0  0  0  0  0  0  0  0  0  0  0  0
  153.2278  139.7965  158.4220 N   0  0  0  0  0  0  0  0  0  0  0  0
  152.5408  140.9039  158.4406 C   0  0  0  0  0  0  0  0  0  0  0  0
  151.7459  138.7544  157.6805 H   0  0  0  0  0  0  0  0  0  0  0  0
  150.3021  137.8848  155.3234 H   0  0  0  0  0  0  0  0  0  0  0  0
  152.0179  137.6157  155.1932 H   0  0  0  0  0  0  0  0  0  0  0  0
  152.0325  136.0953  157.0759 H   0  0  0  0  0  0  0  0  0  0  0  0
  150.4905  136.6618  157.6577 H   0  0  0  0  0  0  0  0  0  0  0  0
  150.8276  133.7800  157.4720 H   0  0  0  0  0  0  0  0  0  0  0  0
  149.7075  131.9576  156.1824 H   0  0  0  0  0  0  0  0  0  0  0  0
  148.6016  132.5476  153.9472 H   0  0  0  0  0  0  0  0  0  0  0  0
  149.6680  136.5259  154.2963 H   0  0  0  0  0  0  0  0  0  0  0  0
  150.1192  142.6222  156.6713 H   0  0  0  0  0  0  0  0  0  0  0  0
  150.6695  144.3693  158.3392 H   0  0  0  0  0  0  0  0  0  0  0  0
  152.3225  143.8653  160.0855 H   0  0  0  0  0  0  0  0  0  0  0  0
  153.8575  142.6838  161.0308 H   0  0  0  0  0  0  0  0  0  0  0  0
  153.0513  141.1639  161.3431 H   0  0  0  0  0  0  0  0  0  0  0  0
  155.4036  141.5250  159.3874 H   0  0  0  0  0  0  0  0  0  0  0  0
  155.5423  140.8755  161.0293 H   0  0  0  0  0  0  0  0  0  0  0  0
  148.6730  134.7421  153.2119 H   0  0  0  0  0  0  0  0  0  0  0  0
  1  2  2  0  0  0  0
  2  3  1  0  0  0  0
  2 12  1  0  0  0  0
  3  4  1  0  0  0  0
  3 24  1  0  0  0  0
  4  5  1  0  0  0  0
  4 25  1  0  0  0  0
  4 26  1  0  0  0  0
  5  6  1  0  0  0  0
  5 27  1  0  0  0  0
  5 28  1  0  0  0  0
  6 11  1  0  0  0  0
  6  7  2  0  0  0  0
  7  8  1  0  0  0  0
  7 29  1  0  0  0  0
  8  9  2  0  0  0  0
  8 30  1  0  0  0  0
  9 10  1  0  0  0  0
  9 31  1  0  0  0  0
 10 11  2  0  0  0  0
 10 40  1  0  0  0  0
 11 32  1  0  0  0  0
 12 23  1  0  0  0  0
 12 13  2  0  0  0  0
 13 14  1  0  0  0  0
 13 33  1  0  0  0  0
 14 15  2  0  0  0  0
 14 34  1  0  0  0  0
 15 16  1  0  0  0  0
 15 35  1  0  0  0  0
 16 23  1  0  0  0  0
 16 17  1  0  0  0  0
 17 18  1  0  0  0  0
 17 36  1  0  0  0  0
 17 37  1  0  0  0  0
 18 19  1  0  0  0  0
 18 38  1  0  0  0  0
 18 39  1  0  0  0  0
 19 20  2  0  0  0  0
 19 21  2  0  0  0  0
 19 22  1  0  0  0  0
 22 23  2  0  0  0  0
M  CHG  1  10   1
M  END
> <s_m_source_file>
AV-unprocessed.smi

> <i_m_source_file_index>
2188

> <i_lp_mmshare_version>
43012

> <i_f3d_flags>
0

> <s_epik_input>
W0NIMl0xW0NIMl1TKD1PKSg9TylOPUMoTjEyKUMoPVtDSF1bQ0hdPVtDSF0yKUMoPU8pW05IXVtDSDJdW0NIMl1jM1tjSF1bY0hdW2NIXW5bY0hdMw==

> <s_epik_cmdline>
J2VwaWtfcHl0aG9uJywgJy1waCcsICc3LjAnLCAnLXRuJywgJzgnLCAnLW1hJywgJzIwMCcsICctbWV0YWxfYmluZGluZycsICctaW1hZScsICc8aW5maWxlLm1hZT4nLCAnLW9tYWUnLCAnPG91dGZpbGUubWFlPic=

> <r_epik_Ionization_Penalty>
2.45954

> <r_epik_Ionization_Penalty_Charging>
2.45946

> <r_epik_Ionization_Penalty_Neutral>
8.13788e-05

> <r_epik_State_Penalty>
2.62155

> <r_epik_Charging_Adjusted_Penalty>
5.08101

> <i_epik_Tot_Q>
1

> <i_epik_Tot_abs_Q>
1

> <r_epik_Metal_State_Penalty>
2.74793

> <b_epik_Metal_Only>
0

> <s_lp_Force_Field>
OPLS_2005

> <r_lp_Energy>
33.7727

> <b_lp_Chiralities_Consistent>
1

> <s_lp_Variant>
AV-unprocessed.smi:2188-2

> <Gold.Version>
5.8.1

> <Gold.Id.Protein>
6NUR|6NUR_protein|mol2

> <Gold.PLP.Fitness>
47.5720

> <Gold.PLP.PLP>
-39.0217

> <Gold.PLP.part.hbond>
-4.0000

> <Gold.PLP.part.metal>
0.0000

> <Gold.PLP.part.buried>
-3.8317

> <Gold.PLP.part.nonpolar>
-32.0296

> <Gold.PLP.part.repulsive>
0.1357

> <Gold.PLP.ligand.clash>
0.0000

> <Gold.PLP.ligand.torsion>
0.6815

> <Gold.PLP.Chemscore.Hbond>
3.2665

> <Gold.PLP.Chemscore.CHOScore>
0.0000

> <Gold.PLP.Chemscore.Metal>
0.0000

> <Gold.Chemscore.Hbonds>
donor molecule, donor type, donor heavy atom, donor atom, acceptor molecule, acceptor atom, score
      L1  H    10    40       P1  7948  1.28
      P1  H  7989  7998       L1     1  1.00
      P1  H  7997  8008       L1    22  0.94

> <Gold.PLP.Chemscore.Internal.Correction>
0.1137

> <Gold.Rescore>
     Score         DG    S(hbond)    S(metal)    S(lipo)     H(rot)  DE(clash)    DE(int)     intcor
     15.10     -17.41       1.60        0.00      89.84       1.54       0.02       2.29       ----

> <Gold.Chemscore.Fitness>
15.0973

> <Gold.Chemscore.DG>
-17.4076

> <Gold.Chemscore.ZeroCoef>
-5.4800

> <Gold.Chemscore.Hbond>
1.6010

> <Gold.Chemscore.Metal>
0.0000

> <Gold.Chemscore.Lipo>
89.8392

> <Gold.Chemscore.Internal_Hbond>
0.0000

> <Gold.Chemscore.DEClash>
0.0160

> <Gold.Chemscore.DEInternal>
2.2943

> <Gold.Chemscore.Rot>
1.5355

> <Gold.Chemscore.Internal.Correction>
   9.000000E+99

> <Gold.Chemscore.Hbonds>
donor molecule, donor type, donor heavy atom, donor atom, acceptor molecule, acceptor atom, score
      L1  H    10    40       P1  7948  0.21
      P1  H  7989  7998       L1     1  0.93
      P1  H  7997  8008       L1    22  0.08

> <Gold.Chemscore.Hbond.Weighted>
-5.3473

> <Gold.Chemscore.Metal.Weighted>
-0.0000

> <Gold.Chemscore.Lipo.Weighted>
-10.5112

> <Gold.Chemscore.Internal_Hbond.Weighted>
0.0000

> <Gold.Chemscore.DEClash.Weighted>
0.0160

> <Gold.Chemscore.DEInternal.Weighted>
2.2943

> <Gold.Chemscore.Rot.Weighted>
3.9309

> <Gold.Chemscore.Internal.Correction.Weighted>
   9.000000E+99

> <Gold.Protein.RotatedTorsions>
[ 6907 6896 6895 6894 ] final  115.96 input  -60.11 | X-H torsion
[ 7974 7965 7964 7962 ] final  -44.27 input  175.53 | X-H torsion
[ 8008 7997 7996 7995 ] final  -70.01 input   59.86 | X-H torsion
[ 10167 10162 10161 10158 ] final -126.48 input  -65.29 | X-H torsion
[ 10718 10713 10712 10709 ] final -108.47 input   66.30 | X-H torsion
[ 10763 10752 10751 10750 ] final  125.55 input  -60.55 | X-H torsion
[ 11005 11000 10999 10996 ] final  153.45 input  -57.11 | X-H torsion

> <Gold.Protein.ActiveResidues>
 VAL166  LYS551  ARG553  GLY616  TRP617  ASP618  TYR619  PRO620  LYS621  CYS622 
 ASP623  PHE694  ASN695  SER759  ASP760  ASP761  ALA762  ILE779  LEU786  VAL792 
 PHE793  MET794  SER795  GLU796  ALA797  LYS798  CYS799  TRP800  GLU811  SER814 

> <Gold.Protein.RotatedAtoms>
  152.4708  133.8026  159.6960 H   0  0  0  0  0  0  0  0  0  0  0  0  # atno 6907 bound_to 6896
  150.8696  133.7514  159.2972 H   0  0  0  0  0  0  0  0  0  0  0  0  # atno 6908 bound_to 6896
  151.5053  135.1066  159.9892 H   0  0  0  0  0  0  0  0  0  0  0  0  # atno 6909 bound_to 6896
  145.9937  140.7152  142.9304 H   0  0  0  0  0  0  0  0  0  0  0  0  # atno 7974 bound_to 7965
  154.4981  140.0842  156.7739 H   0  0  0  0  0  0  0  0  0  0  0  0  # atno 8008 bound_to 7997
  155.4069  140.3439  155.4242 H   0  0  0  0  0  0  0  0  0  0  0  0  # atno 8009 bound_to 7997
  156.1420  140.1532  156.8893 H   0  0  0  0  0  0  0  0  0  0  0  0  # atno 8010 bound_to 7997
  139.9710  143.5845  152.2412 H   0  0  0  0  0  0  0  0  0  0  0  0  # atno 10167 bound_to 10162
  156.0487  130.5714  150.7965 H   0  0  0  0  0  0  0  0  0  0  0  0  # atno 10718 bound_to 10713
  153.6791  135.3317  155.3173 H   0  0  0  0  0  0  0  0  0  0  0  0  # atno 10763 bound_to 10752
  154.8471  135.4404  154.1625 H   0  0  0  0  0  0  0  0  0  0  0  0  # atno 10764 bound_to 10752
  153.2637  135.6993  153.7629 H   0  0  0  0  0  0  0  0  0  0  0  0  # atno 10765 bound_to 10752
  140.1399  134.8746  157.2316 H   0  0  0  0  0  0  0  0  0  0  0  0  # atno 11005 bound_to 11000
  144.6897  140.3113  143.7247 LP  0  0  0  0  0  0  0  0  0  0  0  0  # atno 17320 bound_to 7965
  145.7592  139.1819  143.2277 LP  0  0  0  0  0  0  0  0  0  0  0  0  # atno 17321 bound_to 7965
  139.6481  144.7659  151.2203 LP  0  0  0  0  0  0  0  0  0  0  0  0  # atno 17342 bound_to 10162
  140.7522  143.6206  150.8517 LP  0  0  0  0  0  0  0  0  0  0  0  0  # atno 17343 bound_to 10162
  157.5391  131.0940  150.9852 LP  0  0  0  0  0  0  0  0  0  0  0  0  # atno 17370 bound_to 10713
  157.0139  130.5647  149.5324 LP  0  0  0  0  0  0  0  0  0  0  0  0  # atno 17371 bound_to 10713
  140.2736  134.3432  155.7365 LP  0  0  0  0  0  0  0  0  0  0  0  0  # atno 17394 bound_to 11000
  141.2184  133.7437  156.9259 LP  0  0  0  0  0  0  0  0  0  0  0  0  # atno 17395 bound_to 11000

$$$$
