#       Name:                AV-unprocessed.smi:109
#       Creating user name   scv26
#       Creation time:       Thu Mar 26 18:11:06 2020


#       File generated by GOLD software.
#

@<TRIPOS>MOLECULE
AV-unprocessed.smi:109
    71    74     1
SMALL
NO_CHARGES


@<TRIPOS>ATOM
      1 ****        -1.7617   3.1581  -3.7406 O.3            1 S1                 0.0000
      2 ****        -1.3797   2.7133  -2.4569 C.3            1 S1                 0.0000
      3 ****        -2.6284   2.3440  -1.6377 C.3            1 S1                 0.0000
      4 ****        -2.3319   1.9335  -0.1737 C.3            1 S1                 0.0000
      5 ****        -1.4704   0.7492  -0.1616 N.pl3          1 S1                 0.0000
      6 ****        -0.1361   0.8253   0.0424 C.ar           1 S1                 0.0000
      7 ****         0.4839   2.0129   0.2686 N.ar           1 S1                 0.0000
      8 ****         1.8067   2.0538   0.4561 C.ar           1 S1                 0.0000
      9 ****         2.6808   1.0446   0.4585 N.ar           1 S1                 0.0000
     10 ****         2.0604  -0.1495   0.2348 C.ar           1 S1                 0.0000
     11 ****         0.6684  -0.3426   0.0193 C.ar           1 S1                 0.0000
     12 ****         0.4061  -1.6925  -0.1770 N.2            1 S1                 0.0000
     13 ****         1.5792  -2.2595  -0.0823 C.2            1 S1                 0.0000
     14 ****         2.6305  -1.4003   0.1605 N.pl3          1 S1                 0.0000
     15 ****         4.0855  -1.7027   0.3117 C.3            1 S1                 0.0000
     16 ****         4.2058  -3.0634   0.6055 O.3            1 S1                 0.0000
     17 ****         5.0181  -3.7180  -0.3627 C.3            1 S1                 0.0000
     18 ****         4.6111  -5.1936  -0.5219 C.3            1 S1                 0.0000
     19 ****         5.5364  -5.8706  -1.3454 O.3            1 S1                 0.0000
     20 ****         4.9475  -2.8318  -1.6141 C.3            1 S1                 0.0000
     21 ****         3.8247  -3.1423  -2.4189 O.3            1 S1                 0.0000
     22 ****         4.8050  -1.4377  -1.0212 C.3            1 S1                 0.0000
     23 ****         6.0699  -0.8441  -0.8088 O.3            1 S1                 0.0000
     24 ****        -3.6099   1.6432   0.6649 C.3            1 S1                 0.0000
     25 ****        -4.6296   2.8097   0.6558 C.3            1 S1                 0.0000
     26 ****        -5.8634   2.5190   1.5260 C.3            1 S1                 0.0000
     27 ****        -5.4667   2.1828   2.9683 C.3            1 S1                 0.0000
     28 ****        -4.4820   1.0081   2.9951 C.3            1 S1                 0.0000
     29 ****        -3.2447   1.3026   2.1329 C.3            1 S1                 0.0000
     30 ****         4.4137  -1.0731   1.1401 H              1 S1                 0.0000
     31 ****         6.0374  -3.6743   0.0257 H              1 S1                 0.0000
     32 ****         5.8394  -2.9340  -2.2340 H              1 S1                 0.0000
     33 ****         4.2269  -0.7656  -1.6582 H              1 S1                 0.0000
     34 ****        -2.2149   2.4550  -4.1800 H              1 S1                 0.0000
     35 ****        -0.7143   1.8577  -2.5722 H              1 S1                 0.0000
     36 ****        -0.8155   3.5047  -1.9627 H              1 S1                 0.0000
     37 ****        -3.2779   3.2178  -1.6505 H              1 S1                 0.0000
     38 ****        -3.1754   1.5452  -2.1405 H              1 S1                 0.0000
     39 ****        -1.8329   2.7745   0.3074 H              1 S1                 0.0000
     40 ****        -1.9430  -0.1291  -0.3207 H              1 S1                 0.0000
     41 ****         2.2243   3.0352   0.6269 H              1 S1                 0.0000
     42 ****         1.7065  -3.3265  -0.1932 H              1 S1                 0.0000
     43 ****         4.6046  -5.6822   0.4526 H              1 S1                 0.0000
     44 ****         3.6060  -5.2937  -0.9315 H              1 S1                 0.0000
     45 ****         5.2688  -6.7740  -1.4191 H              1 S1                 0.0000
     46 ****         3.0427  -3.0163  -1.9036 H              1 S1                 0.0000
     47 ****         6.5783  -1.4115  -0.2495 H              1 S1                 0.0000
     48 ****        -4.1054   0.7725   0.2321 H              1 S1                 0.0000
     49 ****        -4.1462   3.7249   1.0002 H              1 S1                 0.0000
     50 ****        -4.9857   3.0054  -0.3543 H              1 S1                 0.0000
     51 ****        -6.5344   3.3785   1.5169 H              1 S1                 0.0000
     52 ****        -6.4235   1.6864   1.0983 H              1 S1                 0.0000
     53 ****        -5.0121   3.0559   3.4381 H              1 S1                 0.0000
     54 ****        -6.3542   1.9408   3.5535 H              1 S1                 0.0000
     55 ****        -4.1786   0.8021   4.0219 H              1 S1                 0.0000
     56 ****        -4.9757   0.1062   2.6315 H              1 S1                 0.0000
     57 ****        -2.5839   0.4367   2.1771 H              1 S1                 0.0000
     58 ****        -2.6877   2.1314   2.5724 H              1 S1                 0.0000
     59 ****        -0.9492   3.4145  -4.2641 LP             1 S1                 0.0000
     60 ****        -2.3676   3.9492  -3.6568 LP             1 S1                 0.0000
     61 ****        -0.0504   2.8578   0.2948 LP             1 S1                 0.0000
     62 ****         3.6642   1.1505   0.6054 LP             1 S1                 0.0000
     63 ****        -0.4766  -2.1293  -0.3507 LP             1 S1                 0.0000
     64 ****         3.2968  -3.4804   0.6071 LP             1 S1                 0.0000
     65 ****         4.6224  -3.1686   1.5084 LP             1 S1                 0.0000
     66 ****         6.4486  -5.8214  -0.9387 LP             1 S1                 0.0000
     67 ****         5.5524  -5.4488  -2.2520 LP             1 S1                 0.0000
     68 ****         3.8794  -4.0938  -2.7219 LP             1 S1                 0.0000
     69 ****         3.8040  -2.5393  -3.2164 LP             1 S1                 0.0000
     70 ****         5.9546   0.0469  -0.3698 LP             1 S1                 0.0000
     71 ****         6.5382  -0.7262  -1.6845 LP             1 S1                 0.0000
@<TRIPOS>BOND
    1    1    2 1     
    2    1   34 1     
    3    2    3 1     
    4    2   35 1     
    5    2   36 1     
    6    3    4 1     
    7    3   37 1     
    8    3   38 1     
    9    4    5 1     
   10    4   24 1     
   11    4   39 1     
   12    5    6 1     
   13    5   40 1     
   14    6   11 ar    
   15    6    7 ar    
   16    7    8 ar    
   17    8    9 ar    
   18    8   41 1     
   19    9   10 ar    
   20   10   14 1     
   21   10   11 ar    
   22   11   12 1     
   23   12   13 2     
   24   13   14 1     
   25   13   42 1     
   26   14   15 1     
   27   15   30 1     
   28   15   22 1     
   29   15   16 1     
   30   16   17 1     
   31   17   31 1     
   32   17   18 1     
   33   17   20 1     
   34   18   19 1     
   35   18   43 1     
   36   18   44 1     
   37   19   45 1     
   38   20   32 1     
   39   20   21 1     
   40   20   22 1     
   41   21   46 1     
   42   22   33 1     
   43   22   23 1     
   44   23   47 1     
   45   24   29 1     
   46   24   25 1     
   47   24   48 1     
   48   25   26 1     
   49   25   49 1     
   50   25   50 1     
   51   26   27 1     
   52   26   51 1     
   53   26   52 1     
   54   27   28 1     
   55   27   53 1     
   56   27   54 1     
   57   28   29 1     
   58   28   55 1     
   59   28   56 1     
   60   29   57 1     
   61   29   58 1     
   62    1   59 1     
   63    1   60 1     
   64    7   61 1     
   65    9   62 1     
   66   12   63 1     
   67   16   64 1     
   68   16   65 1     
   69   19   66 1     
   70   19   67 1     
   71   21   68 1     
   72   21   69 1     
   73   23   70 1     
   74   23   71 1     
@<TRIPOS>SUBSTRUCTURE
      1 S1             1
@<TRIPOS>SET
LONE_PAIRS      STATIC     ATOMS    <user>   **** ""
13 59 60 61 62 63 64 65 66 67 68 69 70 71
DONOR_HYDROGENS      STATIC     ATOMS    <user>   **** ""
5 34 40 45 46 47
ATOM$BLUE        STATIC     ATOMS    COLORGROUP SYSTEM
13 59 60 61 62 63 64 65 66 67 68 69 70 71
ATOM$RED        STATIC     ATOMS    COLORGROUP SYSTEM
5 34 40 45 46 47
