AV-unprocessed.smi:500|AV-procd|sdf|2741|dock8
  -GOLD-   2262023203D 1   1.00000     0.00000
 Structure written by MMmdl.
 45 47  0  0  0  0  0  0  0  0  3 V2000
  153.0167  138.6022  154.9591 C   0  0  0  0  0  0  0  0  0  0  0  0
  151.5496  138.2813  154.6428 C   0  0  0  0  0  0  0  0  0  0  0  0
  150.6567  138.9406  155.5296 O   0  0  0  0  0  0  0  0  0  0  0  0
  150.5078  140.3321  155.2837 C   0  0  0  0  0  0  0  0  0  0  0  0
  149.9014  141.0137  156.5189 C   0  0  0  0  0  0  0  0  0  0  0  0
  150.7209  140.8052  157.7314 N   0  0  0  0  0  0  0  0  0  0  0  0
  150.9701  139.6792  158.4753 C   0  0  0  0  0  0  0  0  0  0  0  0
  150.4544  138.2779  158.2643 C   0  0  1  0  0  0  0  0  0  0  0  0
  151.6245  137.3024  158.0773 C   0  0  0  0  0  0  0  0  0  0  0  0
  149.6297  137.8293  159.3875 N   0  5  0  0  0  0  0  0  0  0  0  0
  149.2163  136.5418  159.5659 C   0  0  0  0  0  0  0  0  0  0  0  0
  149.4902  135.5281  158.9143 O   0  0  0  0  0  0  0  0  0  0  0  0
  148.2719  136.4121  160.6993 C   0  0  0  0  0  0  0  0  0  0  0  0
  147.6267  135.3277  161.2383 C   0  0  0  0  0  0  0  0  0  0  0  0
  146.8262  135.8150  162.3082 C   0  0  0  0  0  0  0  0  0  0  0  0
  147.0313  137.1638  162.3445 C   0  0  0  0  0  0  0  0  0  0  0  0
  147.9029  137.5428  161.3711 O   0  0  0  0  0  0  0  0  0  0  0  0
  151.7912  140.0532  159.4984 N   0  3  0  0  0  0  0  0  0  0  0  0
  152.0572  141.4185  159.4275 C   0  0  0  0  0  0  0  0  0  0  0  0
  152.8233  142.2383  160.2500 C   0  0  0  0  0  0  0  0  0  0  0  0
  152.8811  143.6039  159.9046 C   0  0  0  0  0  0  0  0  0  0  0  0
  152.1924  144.1056  158.7816 C   0  0  0  0  0  0  0  0  0  0  0  0
  151.4200  143.2630  157.9552 C   0  0  0  0  0  0  0  0  0  0  0  0
  151.3702  141.9113  158.2999 C   0  0  0  0  0  0  0  0  0  0  0  0
  153.6762  138.1659  154.2087 H   0  0  0  0  0  0  0  0  0  0  0  0
  153.3185  138.2044  155.9277 H   0  0  0  0  0  0  0  0  0  0  0  0
  153.1883  139.6790  154.9673 H   0  0  0  0  0  0  0  0  0  0  0  0
  151.3224  138.6283  153.6347 H   0  0  0  0  0  0  0  0  0  0  0  0
  151.3743  137.2044  154.6438 H   0  0  0  0  0  0  0  0  0  0  0  0
  151.4760  140.7806  155.0592 H   0  0  0  0  0  0  0  0  0  0  0  0
  149.8651  140.5012  154.4201 H   0  0  0  0  0  0  0  0  0  0  0  0
  149.8093  142.0867  156.3495 H   0  0  0  0  0  0  0  0  0  0  0  0
  148.8878  140.6575  156.6992 H   0  0  0  0  0  0  0  0  0  0  0  0
  149.8793  138.2722  157.3378 H   0  0  0  0  0  0  0  0  0  0  0  0
  152.2428  137.5951  157.2280 H   0  0  0  0  0  0  0  0  0  0  0  0
  151.2666  136.2898  157.8879 H   0  0  0  0  0  0  0  0  0  0  0  0
  152.2658  137.2691  158.9591 H   0  0  0  0  0  0  0  0  0  0  0  0
  147.7202  134.3052  160.9029 H   0  0  0  0  0  0  0  0  0  0  0  0
  146.1812  135.2506  162.9650 H   0  0  0  0  0  0  0  0  0  0  0  0
  146.6550  137.9642  162.9642 H   0  0  0  0  0  0  0  0  0  0  0  0
  153.3458  141.8544  161.1138 H   0  0  0  0  0  0  0  0  0  0  0  0
  153.4618  144.2799  160.5153 H   0  0  0  0  0  0  0  0  0  0  0  0
  152.2547  145.1588  158.5499 H   0  0  0  0  0  0  0  0  0  0  0  0
  150.8903  143.6637  157.1040 H   0  0  0  0  0  0  0  0  0  0  0  0
  152.1191  139.4083  160.2057 H   0  0  0  0  0  0  0  0  0  0  0  0
  1  2  1  0  0  0  0
  1 25  1  0  0  0  0
  1 26  1  0  0  0  0
  1 27  1  0  0  0  0
  2  3  1  0  0  0  0
  2 28  1  0  0  0  0
  2 29  1  0  0  0  0
  3  4  1  0  0  0  0
  4  5  1  0  0  0  0
  4 30  1  0  0  0  0
  4 31  1  0  0  0  0
  5  6  1  0  0  0  0
  5 32  1  0  0  0  0
  5 33  1  0  0  0  0
  6 24  1  0  0  0  0
  6  7  1  0  0  0  0
  7  8  1  0  0  0  0
  7 18  2  0  0  0  0
  8  9  1  0  0  0  0
  8 10  1  0  0  0  0
  8 34  1  0  0  0  0
  9 35  1  0  0  0  0
  9 36  1  0  0  0  0
  9 37  1  0  0  0  0
 10 11  1  0  0  0  0
 11 12  2  0  0  0  0
 11 13  1  0  0  0  0
 13 17  1  0  0  0  0
 13 14  2  0  0  0  0
 14 15  1  0  0  0  0
 14 38  1  0  0  0  0
 15 16  2  0  0  0  0
 15 39  1  0  0  0  0
 16 17  1  0  0  0  0
 16 40  1  0  0  0  0
 18 19  1  0  0  0  0
 18 45  1  0  0  0  0
 19 24  2  0  0  0  0
 19 20  1  0  0  0  0
 20 21  2  0  0  0  0
 20 41  1  0  0  0  0
 21 22  1  0  0  0  0
 21 42  1  0  0  0  0
 22 23  2  0  0  0  0
 22 43  1  0  0  0  0
 23 24  1  0  0  0  0
 23 44  1  0  0  0  0
M  CHG  1  10  -1
M  CHG  1  18   1
M  END
> <s_m_source_file>
AV-unprocessed.smi

> <i_m_source_file_index>
500

> <i_lp_mmshare_version>
43012

> <i_f3d_flags>
0

> <s_epik_input>
W0NIM11bQ0gyXU9bQ0gyXVtDSDJdbihjKGMxMilbY0hdW2NIXVtjSF1bY0hdMiljKG4xKVtDQEhdKFtDSDNdKVtOSF1DKD1PKWMzW2NIXVtjSF1bY0hdbzM=

> <s_epik_cmdline>
J2VwaWtfcHl0aG9uJywgJy1waCcsICc3LjAnLCAnLXRuJywgJzgnLCAnLW1hJywgJzIwMCcsICctbWV0YWxfYmluZGluZycsICctaW1hZScsICc8aW5maWxlLm1hZT4nLCAnLW9tYWUnLCAnPG91dGZpbGUubWFlPic=

> <r_epik_Ionization_Penalty>
6.22753

> <r_epik_Ionization_Penalty_Charging>
6.22753

> <r_epik_Ionization_Penalty_Neutral>
2.56065e-12

> <r_epik_State_Penalty>
7.17947

> <r_epik_Charging_Adjusted_Penalty>
13.407

> <i_epik_Tot_Q>
0

> <i_epik_Tot_abs_Q>
2

> <r_epik_Metal_State_Penalty>
3.2092

> <b_epik_Metal_Only>
1

> <s_lp_Force_Field>
OPLS_2005

> <r_lp_Energy>
10.9404

> <b_lp_Chiralities_Consistent>
1

> <s_lp_Variant>
AV-unprocessed.smi:500-8

> <Gold.Version>
5.8.1

> <Gold.Id.Protein>
6NUR|6NUR_protein|mol2

> <Gold.PLP.Fitness>
57.3184

> <Gold.PLP.PLP>
-49.8297

> <Gold.PLP.part.hbond>
-3.6203

> <Gold.PLP.part.metal>
0.0000

> <Gold.PLP.part.buried>
-4.8658

> <Gold.PLP.part.nonpolar>
-42.3080

> <Gold.PLP.part.repulsive>
0.2220

> <Gold.PLP.ligand.clash>
0.0000

> <Gold.PLP.ligand.torsion>
0.3405

> <Gold.PLP.Chemscore.Hbond>
2.6640

> <Gold.PLP.Chemscore.CHOScore>
0.0000

> <Gold.PLP.Chemscore.Metal>
0.0000

> <Gold.Chemscore.Hbonds>
donor molecule, donor type, donor heavy atom, donor atom, acceptor molecule, acceptor atom, score
      P1  H  6896  6909       L1    12  1.00
      P1  H  6931  6943       L1    17  0.65
      P1  H  6934  6947       L1    17  0.59

> <Gold.PLP.Chemscore.Internal.Correction>
0.1777

> <Gold.Rescore>
     Score         DG    S(hbond)    S(metal)    S(lipo)     H(rot)  DE(clash)    DE(int)     intcor
     19.51     -22.06       2.11        0.00     123.05       1.90       0.22       2.33       ----

> <Gold.Chemscore.Fitness>
19.5129

> <Gold.Chemscore.DG>
-22.0645

> <Gold.Chemscore.ZeroCoef>
-5.4800

> <Gold.Chemscore.Hbond>
2.1106

> <Gold.Chemscore.Metal>
0.0000

> <Gold.Chemscore.Lipo>
123.0547

> <Gold.Chemscore.Internal_Hbond>
0.0000

> <Gold.Chemscore.DEClash>
0.2177

> <Gold.Chemscore.DEInternal>
2.3339

> <Gold.Chemscore.Rot>
1.8993

> <Gold.Chemscore.Internal.Correction>
   9.000000E+99

> <Gold.Chemscore.Hbonds>
donor molecule, donor type, donor heavy atom, donor atom, acceptor molecule, acceptor atom, score
      P1  H  6896  6909       L1    12  0.90
      P1  H  6931  6943       L1    17  0.44
      P1  H  6934  6947       L1    17  0.13

> <Gold.Chemscore.Hbond.Weighted>
-7.0493

> <Gold.Chemscore.Metal.Weighted>
-0.0000

> <Gold.Chemscore.Lipo.Weighted>
-14.3974

> <Gold.Chemscore.Internal_Hbond.Weighted>
0.0000

> <Gold.Chemscore.DEClash.Weighted>
0.2177

> <Gold.Chemscore.DEInternal.Weighted>
2.3339

> <Gold.Chemscore.Rot.Weighted>
4.8622

> <Gold.Chemscore.Internal.Correction.Weighted>
   9.000000E+99

> <Gold.Protein.RotatedTorsions>
[ 6907 6896 6895 6894 ] final   50.51 input  -60.11 | X-H torsion
[ 7974 7965 7964 7962 ] final   71.73 input  175.53 | X-H torsion
[ 8008 7997 7996 7995 ] final  -45.15 input   59.86 | X-H torsion
[ 10167 10162 10161 10158 ] final   21.75 input  -65.29 | X-H torsion
[ 10718 10713 10712 10709 ] final  133.05 input   66.30 | X-H torsion
[ 10763 10752 10751 10750 ] final  -68.95 input  -60.55 | X-H torsion
[ 11005 11000 10999 10996 ] final   87.07 input  -57.11 | X-H torsion

> <Gold.Protein.ActiveResidues>
 VAL166  LYS551  ARG553  GLY616  TRP617  ASP618  TYR619  PRO620  LYS621  CYS622 
 ASP623  PHE694  ASN695  SER759  ASP760  ASP761  ALA762  ILE779  LEU786  VAL792 
 PHE793  MET794  SER795  GLU796  ALA797  LYS798  CYS799  TRP800  GLU811  SER814 

> <Gold.Protein.RotatedAtoms>
  152.3025  134.7593  160.0354 H   0  0  0  0  0  0  0  0  0  0  0  0  # atno 6907 bound_to 6896
  151.8102  133.3375  159.3561 H   0  0  0  0  0  0  0  0  0  0  0  0  # atno 6908 bound_to 6896
  150.7281  134.5601  159.5882 H   0  0  0  0  0  0  0  0  0  0  0  0  # atno 6909 bound_to 6896
  145.7622  139.2806  143.1369 H   0  0  0  0  0  0  0  0  0  0  0  0  # atno 7974 bound_to 7965
  154.4000  140.1404  156.3800 H   0  0  0  0  0  0  0  0  0  0  0  0  # atno 8008 bound_to 7997
  155.8013  140.3476  155.5384 H   0  0  0  0  0  0  0  0  0  0  0  0  # atno 8009 bound_to 7997
  155.8481  140.0937  157.1683 H   0  0  0  0  0  0  0  0  0  0  0  0  # atno 8010 bound_to 7997
  140.5402  143.9690  150.6515 H   0  0  0  0  0  0  0  0  0  0  0  0  # atno 10167 bound_to 10162
  157.4811  131.1086  150.9680 H   0  0  0  0  0  0  0  0  0  0  0  0  # atno 10718 bound_to 10713
  154.3965  135.6041  153.5872 H   0  0  0  0  0  0  0  0  0  0  0  0  # atno 10763 bound_to 10752
  152.9788  135.5896  154.4236 H   0  0  0  0  0  0  0  0  0  0  0  0  # atno 10764 bound_to 10752
  154.4028  135.2843  155.2064 H   0  0  0  0  0  0  0  0  0  0  0  0  # atno 10765 bound_to 10752
  139.8928  134.8398  156.2809 H   0  0  0  0  0  0  0  0  0  0  0  0  # atno 11005 bound_to 11000
  146.0252  140.8310  142.9903 LP  0  0  0  0  0  0  0  0  0  0  0  0  # atno 17320 bound_to 7965
  144.6828  140.2688  143.7309 LP  0  0  0  0  0  0  0  0  0  0  0  0  # atno 17321 bound_to 7965
  140.3089  143.3211  152.0899 LP  0  0  0  0  0  0  0  0  0  0  0  0  # atno 17342 bound_to 10162
  139.4986  144.6649  151.6379 LP  0  0  0  0  0  0  0  0  0  0  0  0  # atno 17343 bound_to 10162
  157.0413  130.5750  149.5356 LP  0  0  0  0  0  0  0  0  0  0  0  0  # atno 17370 bound_to 10713
  156.0122  130.5214  150.8024 LP  0  0  0  0  0  0  0  0  0  0  0  0  # atno 17371 bound_to 10713
  141.0039  133.7135  156.1004 LP  0  0  0  0  0  0  0  0  0  0  0  0  # atno 17394 bound_to 11000
  140.7460  134.4098  157.5548 LP  0  0  0  0  0  0  0  0  0  0  0  0  # atno 17395 bound_to 11000

$$$$
