AV-unprocessed.smi:2007|AV-procd|sdf|8137|dock2
  -GOLD-   2272010373D 1   1.00000     0.00000
 Structure written by MMmdl.
 35 36  0  0  0  0  0  0  0  0  2 V2000
  152.2043  144.2667  161.4629 C   0  0  0  0  0  0  0  0  0  0  0  0
  150.8862  143.9243  160.7560 C   0  0  2  0  0  0  0  0  0  0  0  0
  151.1397  143.4733  159.3004 C   0  0  0  0  0  0  0  0  0  0  0  0
  151.4475  142.0541  159.1175 N   0  0  0  0  0  0  0  0  0  0  0  0
  151.4987  141.7013  157.7038 C   0  0  0  0  0  0  0  0  0  0  0  0
  151.8024  140.2071  157.4979 C   0  0  0  0  0  0  0  0  0  0  0  0
  153.0264  139.8750  158.1453 O   0  0  0  0  0  0  0  0  0  0  0  0
  153.0053  140.1669  159.5392 C   0  0  0  0  0  0  0  0  0  0  0  0
  152.7046  141.6607  159.7498 C   0  0  0  0  0  0  0  0  0  0  0  0
  150.0190  145.1021  160.7800 N   0  0  0  0  0  0  0  0  0  0  0  0
  148.7251  145.1389  161.1324 C   0  0  0  0  0  0  0  0  0  0  0  0
  148.1536  144.1105  161.5021 O   0  0  0  0  0  0  0  0  0  0  0  0
  148.1700  146.3680  161.0288 N   0  5  0  0  0  0  0  0  0  0  0  0
  146.9606  146.5121  160.4633 C   0  0  0  0  0  0  0  0  0  0  0  0
  146.4381  147.7035  160.1511 N   0  0  0  0  0  0  0  0  0  0  0  0
  145.1729  147.6187  159.5674 C   0  0  0  0  0  0  0  0  0  0  0  0
  144.7255  146.3322  159.4232 C   0  0  0  0  0  0  0  0  0  0  0  0
  145.8869  145.1817  160.0206 S   0  0  0  0  0  0  0  0  0  0  0  0
  152.8713  143.4048  161.4872 H   0  0  0  0  0  0  0  0  0  0  0  0
  152.0275  144.5745  162.4940 H   0  0  0  0  0  0  0  0  0  0  0  0
  152.7280  145.0792  160.9579 H   0  0  0  0  0  0  0  0  0  0  0  0
  150.4336  143.1110  161.3235 H   0  0  0  0  0  0  0  0  0  0  0  0
  150.2495  143.7191  158.7194 H   0  0  0  0  0  0  0  0  0  0  0  0
  151.9449  144.0721  158.8721 H   0  0  0  0  0  0  0  0  0  0  0  0
  150.5479  141.9428  157.2273 H   0  0  0  0  0  0  0  0  0  0  0  0
  152.2611  142.2981  157.2006 H   0  0  0  0  0  0  0  0  0  0  0  0
  150.9940  139.5905  157.8945 H   0  0  0  0  0  0  0  0  0  0  0  0
  151.8877  139.9799  156.4353 H   0  0  0  0  0  0  0  0  0  0  0  0
  152.2555  139.5496  160.0370 H   0  0  0  0  0  0  0  0  0  0  0  0
  153.9716  139.9095  159.9728 H   0  0  0  0  0  0  0  0  0  0  0  0
  153.5248  142.2554  159.3452 H   0  0  0  0  0  0  0  0  0  0  0  0
  152.6739  141.8597  160.8198 H   0  0  0  0  0  0  0  0  0  0  0  0
  150.4348  145.9732  160.4851 H   0  0  0  0  0  0  0  0  0  0  0  0
  144.6628  148.5270  159.2834 H   0  0  0  0  0  0  0  0  0  0  0  0
  143.7907  145.9921  159.0040 H   0  0  0  0  0  0  0  0  0  0  0  0
  1  2  1  0  0  0  0
  1 19  1  0  0  0  0
  1 20  1  0  0  0  0
  1 21  1  0  0  0  0
  2  3  1  0  0  0  0
  2 10  1  0  0  0  0
  2 22  1  0  0  0  0
  3  4  1  0  0  0  0
  3 23  1  0  0  0  0
  3 24  1  0  0  0  0
  4  9  1  0  0  0  0
  4  5  1  0  0  0  0
  5  6  1  0  0  0  0
  5 25  1  0  0  0  0
  5 26  1  0  0  0  0
  6  7  1  0  0  0  0
  6 27  1  0  0  0  0
  6 28  1  0  0  0  0
  7  8  1  0  0  0  0
  8  9  1  0  0  0  0
  8 29  1  0  0  0  0
  8 30  1  0  0  0  0
  9 31  1  0  0  0  0
  9 32  1  0  0  0  0
 10 11  1  0  0  0  0
 10 33  1  0  0  0  0
 11 12  2  0  0  0  0
 11 13  1  0  0  0  0
 13 14  1  0  0  0  0
 14 18  1  0  0  0  0
 14 15  2  0  0  0  0
 15 16  1  0  0  0  0
 16 17  2  0  0  0  0
 16 34  1  0  0  0  0
 17 18  1  0  0  0  0
 17 35  1  0  0  0  0
M  CHG  1  13  -1
M  END
> <s_m_source_file>
AV-unprocessed.smi

> <i_m_source_file_index>
2007

> <i_lp_mmshare_version>
43012

> <i_f3d_flags>
0

> <s_epik_input>
W0NIMl0xW0NIMl1PW0NIMl1bQ0gyXU4xW0NIMl1bQ0BASF0oW0NIM10pW05IXUMoPU8pW05IXWMybltjSF1bY0hdczI=

> <s_epik_cmdline>
J2VwaWtfcHl0aG9uJywgJy1waCcsICc3LjAnLCAnLXRuJywgJzgnLCAnLW1hJywgJzIwMCcsICctbWV0YWxfYmluZGluZycsICctaW1hZScsICc8aW5maWxlLm1hZT4nLCAnLW9tYWUnLCAnPG91dGZpbGUubWFlPic=

> <r_lp_tautomer_probability>
0.999

> <r_epik_Ionization_Penalty>
7.09127

> <r_epik_Ionization_Penalty_Charging>
5.74083

> <r_epik_Ionization_Penalty_Neutral>
1.35044

> <r_epik_State_Penalty>
5.95014

> <r_epik_Charging_Adjusted_Penalty>
11.691

> <i_epik_Tot_Q>
-1

> <i_epik_Tot_abs_Q>
1

> <r_epik_Metal_State_Penalty>
1.93831

> <b_epik_Metal_Only>
1

> <s_lp_Force_Field>
OPLS_2005

> <r_lp_Energy>
21.0216

> <b_lp_Chiralities_Consistent>
1

> <s_lp_Variant>
AV-unprocessed.smi:2007-5

> <Gold.Version>
5.8.1

> <Gold.Id.Protein>
6NUR|6NUR_protein|mol2

> <Gold.PLP.Fitness>
37.5660

> <Gold.PLP.PLP>
-33.0844

> <Gold.PLP.part.hbond>
-6.8638

> <Gold.PLP.part.metal>
0.0000

> <Gold.PLP.part.buried>
-3.2995

> <Gold.PLP.part.nonpolar>
-23.7097

> <Gold.PLP.part.repulsive>
0.7838

> <Gold.PLP.ligand.clash>
0.0000

> <Gold.PLP.ligand.torsion>
0.8637

> <Gold.PLP.Chemscore.Hbond>
2.0000

> <Gold.PLP.Chemscore.CHOScore>
0.0000

> <Gold.PLP.Chemscore.Metal>
0.0000

> <Gold.Chemscore.Hbonds>
donor molecule, donor type, donor heavy atom, donor atom, acceptor molecule, acceptor atom, score
      P1  H  6933  6944       L1    12  0.99
      P1  H  7997  8008       L1     7  1.00

> <Gold.PLP.Chemscore.Internal.Correction>
0.2089

> <Gold.Rescore>
     Score         DG    S(hbond)    S(metal)    S(lipo)     H(rot)  DE(clash)    DE(int)     intcor
     13.55     -16.43       1.90        0.00      73.17       1.55       0.76       2.12       ----

> <Gold.Chemscore.Fitness>
13.5509

> <Gold.Chemscore.DG>
-16.4273

> <Gold.Chemscore.ZeroCoef>
-5.4800

> <Gold.Chemscore.Hbond>
1.9034

> <Gold.Chemscore.Metal>
0.0000

> <Gold.Chemscore.Lipo>
73.1681

> <Gold.Chemscore.Internal_Hbond>
0.0000

> <Gold.Chemscore.DEClash>
0.7588

> <Gold.Chemscore.DEInternal>
2.1177

> <Gold.Chemscore.Rot>
1.5510

> <Gold.Chemscore.Internal.Correction>
   9.000000E+99

> <Gold.Chemscore.Hbonds>
donor molecule, donor type, donor heavy atom, donor atom, acceptor molecule, acceptor atom, score
      P1  H  6933  6944       L1    12  0.93
      P1  H  7997  8008       L1     7  0.87

> <Gold.Chemscore.Hbond.Weighted>
-6.3572

> <Gold.Chemscore.Metal.Weighted>
-0.0000

> <Gold.Chemscore.Lipo.Weighted>
-8.5607

> <Gold.Chemscore.Internal_Hbond.Weighted>
0.0000

> <Gold.Chemscore.DEClash.Weighted>
0.7588

> <Gold.Chemscore.DEInternal.Weighted>
2.1177

> <Gold.Chemscore.Rot.Weighted>
3.9706

> <Gold.Chemscore.Internal.Correction.Weighted>
   9.000000E+99

> <Gold.Protein.RotatedTorsions>
[ 6907 6896 6895 6894 ] final   32.44 input  -60.11 | X-H torsion
[ 7974 7965 7964 7962 ] final -140.75 input  175.53 | X-H torsion
[ 8008 7997 7996 7995 ] final  -84.28 input   59.86 | X-H torsion
[ 10167 10162 10161 10158 ] final -163.86 input  -65.29 | X-H torsion
[ 10718 10713 10712 10709 ] final  115.07 input   66.30 | X-H torsion
[ 10763 10752 10751 10750 ] final  -58.36 input  -60.55 | X-H torsion
[ 11005 11000 10999 10996 ] final  -51.92 input  -57.11 | X-H torsion

> <Gold.Protein.ActiveResidues>
 VAL166  LYS551  ARG553  GLY616  TRP617  ASP618  TYR619  PRO620  LYS621  CYS622 
 ASP623  PHE694  ASN695  SER759  ASP760  ASP761  ALA762  ILE779  LEU786  VAL792 
 PHE793  MET794  SER795  GLU796  ALA797  LYS798  CYS799  TRP800  GLU811  SER814 

> <Gold.Protein.RotatedAtoms>
  152.0745  134.9512  160.0573 H   0  0  0  0  0  0  0  0  0  0  0  0  # atno 6907 bound_to 6896
  152.0825  133.4155  159.4516 H   0  0  0  0  0  0  0  0  0  0  0  0  # atno 6908 bound_to 6896
  150.6836  134.2885  159.4700 H   0  0  0  0  0  0  0  0  0  0  0  0  # atno 6909 bound_to 6896
  144.8573  140.6162  143.5351 H   0  0  0  0  0  0  0  0  0  0  0  0  # atno 7974 bound_to 7965
  154.6281  140.0607  156.9698 H   0  0  0  0  0  0  0  0  0  0  0  0  # atno 8008 bound_to 7997
  155.1710  140.3291  155.4374 H   0  0  0  0  0  0  0  0  0  0  0  0  # atno 8009 bound_to 7997
  156.2468  140.1914  156.6812 H   0  0  0  0  0  0  0  0  0  0  0  0  # atno 8010 bound_to 7997
  139.6291  144.0475  152.2000 H   0  0  0  0  0  0  0  0  0  0  0  0  # atno 10167 bound_to 10162
  157.6244  131.1007  150.7277 H   0  0  0  0  0  0  0  0  0  0  0  0  # atno 10718 bound_to 10713
  154.2369  135.6350  153.5194 H   0  0  0  0  0  0  0  0  0  0  0  0  # atno 10763 bound_to 10752
  152.9938  135.5533  154.5952 H   0  0  0  0  0  0  0  0  0  0  0  0  # atno 10764 bound_to 10752
  154.5448  135.2897  155.1037 H   0  0  0  0  0  0  0  0  0  0  0  0  # atno 10765 bound_to 10752
  141.0897  133.6635  156.3949 H   0  0  0  0  0  0  0  0  0  0  0  0  # atno 11005 bound_to 11000
  145.4382  139.1539  143.3985 LP  0  0  0  0  0  0  0  0  0  0  0  0  # atno 17320 bound_to 7965
  146.2833  140.4502  142.8768 LP  0  0  0  0  0  0  0  0  0  0  0  0  # atno 17321 bound_to 7965
  140.0136  144.6205  150.7626 LP  0  0  0  0  0  0  0  0  0  0  0  0  # atno 17342 bound_to 10162
  140.7428  143.2837  151.3524 LP  0  0  0  0  0  0  0  0  0  0  0  0  # atno 17343 bound_to 10162
  156.7628  130.4804  149.5433 LP  0  0  0  0  0  0  0  0  0  0  0  0  # atno 17370 bound_to 10713
  156.1407  130.6242  151.0463 LP  0  0  0  0  0  0  0  0  0  0  0  0  # atno 17371 bound_to 10713
  140.5281  134.6239  157.5341 LP  0  0  0  0  0  0  0  0  0  0  0  0  # atno 17394 bound_to 11000
  139.9721  134.7276  156.0022 LP  0  0  0  0  0  0  0  0  0  0  0  0  # atno 17395 bound_to 11000

$$$$
