AV-unprocessed.smi:158|AV-procd|sdf|1333|dock7
  -GOLD-   2262019 33D 1   1.00000     0.00000
 Structure written by MMmdl.
 31 33  0  0  0  0  0  0  0  0  1 V2000
  154.7508  137.4340  158.7123 N   0  0  0  0  0  0  0  0  0  0  0  0
  153.9359  138.4691  158.4655 C   0  0  0  0  0  0  0  0  0  0  0  0
  153.2167  138.4622  157.3198 N   0  0  0  0  0  0  0  0  0  0  0  0
  152.3924  139.4769  157.0354 C   0  0  0  0  0  0  0  0  0  0  0  0
  151.5236  139.3679  155.5502 Cl  0  0  0  0  0  0  0  0  0  0  0  0
  152.1678  140.5685  157.7732 N   0  0  0  0  0  0  0  0  0  0  0  0
  152.8895  140.5842  158.9318 C   0  0  0  0  0  0  0  0  0  0  0  0
  153.7938  139.5687  159.3470 C   0  0  0  0  0  0  0  0  0  0  0  0
  154.3530  139.9015  160.5720 N   0  0  0  0  0  0  0  0  0  0  0  0
  153.8077  141.0516  160.8613 C   0  0  0  0  0  0  0  0  0  0  0  0
  152.9192  141.5439  159.9297 N   0  0  0  0  0  0  0  0  0  0  0  0
  152.1677  142.8424  160.0196 C   0  0  2  0  0  0  0  0  0  0  0  0
  150.7924  142.5971  159.9332 O   0  0  0  0  0  0  0  0  0  0  0  0
  150.2581  143.0122  158.6687 C   0  0  1  0  0  0  0  0  0  0  0  0
  149.3539  144.2353  158.9308 C   0  0  0  0  0  0  0  0  0  0  0  0
  148.3113  143.8795  159.8134 O   0  0  0  0  0  0  0  0  0  0  0  0
  151.5073  143.2880  157.8132 C   0  0  1  0  0  0  0  0  0  0  0  0
  151.3448  144.2121  156.7549 O   0  0  0  0  0  0  0  0  0  0  0  0
  152.5340  143.7350  158.8347 C   0  0  1  0  0  0  0  0  0  0  0  0
  152.3522  145.0054  159.2011 F   0  0  0  0  0  0  0  0  0  0  0  0
  152.4487  143.2487  160.9917 H   0  0  0  0  0  0  0  0  0  0  0  0
  149.6729  142.2116  158.2139 H   0  0  0  0  0  0  0  0  0  0  0  0
  151.8440  142.3488  157.3724 H   0  0  0  0  0  0  0  0  0  0  0  0
  153.5716  143.6118  158.5217 H   0  0  0  0  0  0  0  0  0  0  0  0
  155.2985  137.4168  159.5606 H   0  0  0  0  0  0  0  0  0  0  0  0
  154.8160  136.6739  158.0510 H   0  0  0  0  0  0  0  0  0  0  0  0
  154.0445  141.5828  161.7718 H   0  0  0  0  0  0  0  0  0  0  0  0
  149.9160  145.0762  159.3370 H   0  0  0  0  0  0  0  0  0  0  0  0
  148.8796  144.5771  158.0112 H   0  0  0  0  0  0  0  0  0  0  0  0
  147.6124  143.4891  159.3112 H   0  0  0  0  0  0  0  0  0  0  0  0
  150.5001  144.0661  156.3568 H   0  0  0  0  0  0  0  0  0  0  0  0
  1  2  1  0  0  0  0
  1 25  1  0  0  0  0
  1 26  1  0  0  0  0
  2  8  1  0  0  0  0
  2  3  2  0  0  0  0
  3  4  1  0  0  0  0
  4  5  1  0  0  0  0
  4  6  2  0  0  0  0
  6  7  1  0  0  0  0
  7 11  1  0  0  0  0
  7  8  2  0  0  0  0
  8  9  1  0  0  0  0
  9 10  2  0  0  0  0
 10 11  1  0  0  0  0
 10 27  1  0  0  0  0
 11 12  1  0  0  0  0
 12 21  1  0  0  0  0
 12 19  1  0  0  0  0
 12 13  1  0  0  0  0
 13 14  1  0  0  0  0
 14 22  1  0  0  0  0
 14 15  1  0  0  0  0
 14 17  1  0  0  0  0
 15 16  1  0  0  0  0
 15 28  1  0  0  0  0
 15 29  1  0  0  0  0
 16 30  1  0  0  0  0
 17 23  1  0  0  0  0
 17 18  1  0  0  0  0
 17 19  1  0  0  0  0
 18 31  1  0  0  0  0
 19 24  1  0  0  0  0
 19 20  1  0  0  0  0
M  END
> <s_m_source_file>
AV-unprocessed.smi

> <i_m_source_file_index>
158

> <i_lp_mmshare_version>
43012

> <i_f3d_flags>
0

> <s_epik_input>
Q2xjKG4xKW5jKFtOSDJdKWMoYzEyKW5bY0hdbjJbQ0BASF0zT1tDQEhdKFtDSDJdW09IXSlbQ0BASF0oW09IXSlbQ0BASF0zRg==

> <s_epik_cmdline>
J2VwaWtfcHl0aG9uJywgJy1waCcsICc3LjAnLCAnLXRuJywgJzgnLCAnLW1hJywgJzIwMCcsICctbWV0YWxfYmluZGluZycsICctaW1hZScsICc8aW5maWxlLm1hZT4nLCAnLW9tYWUnLCAnPG91dGZpbGUubWFlPic=

> <r_lp_tautomer_probability>
1

> <r_epik_Ionization_Penalty>
6.51543e-05

> <r_epik_Ionization_Penalty_Charging>
0

> <r_epik_Ionization_Penalty_Neutral>
6.51543e-05

> <r_epik_State_Penalty>
-0

> <r_epik_Charging_Adjusted_Penalty>
0

> <i_epik_Tot_Q>
0

> <i_epik_Tot_abs_Q>
0

> <r_epik_Metal_State_Penalty>
-0

> <b_epik_Metal_Only>
0

> <s_epik_Chemistry_Notes>
This compound contains an acetal/aminal-like group ( X-CH(R)-Y where X, Y are N, S, or O) that may be acid/base labile, releasing an aldehyde.

> <s_lp_Force_Field>
OPLS_2005

> <r_lp_Energy>
36.1336

> <b_lp_Chiralities_Consistent>
1

> <s_lp_Variant>
AV-unprocessed.smi:158-11

> <Gold.Version>
5.8.1

> <Gold.Id.Protein>
6NUR|6NUR_protein|mol2

> <Gold.PLP.Fitness>
38.4943

> <Gold.PLP.PLP>
-33.1641

> <Gold.PLP.part.hbond>
-4.0000

> <Gold.PLP.part.metal>
0.0000

> <Gold.PLP.part.buried>
0.1550

> <Gold.PLP.part.nonpolar>
-29.5181

> <Gold.PLP.part.repulsive>
0.1180

> <Gold.PLP.ligand.clash>
0.0000

> <Gold.PLP.ligand.torsion>
0.0152

> <Gold.PLP.Chemscore.Hbond>
1.7819

> <Gold.PLP.Chemscore.CHOScore>
0.0000

> <Gold.PLP.Chemscore.Metal>
0.0000

> <Gold.Chemscore.Hbonds>
donor molecule, donor type, donor heavy atom, donor atom, acceptor molecule, acceptor atom, score
      L1  H    18    31       P1  8028  0.98
      P1  H  6933  6944       L1    16  0.46

> <Gold.PLP.Chemscore.Internal.Correction>
0.0148

> <Gold.Rescore>
     Score         DG    S(hbond)    S(metal)    S(lipo)     H(rot)  DE(clash)    DE(int)     intcor
      5.12      -6.71       1.05        0.00      48.85       3.12       0.20       1.39       ----

> <Gold.Chemscore.Fitness>
5.1228

> <Gold.Chemscore.DG>
-6.7088

> <Gold.Chemscore.ZeroCoef>
-5.4800

> <Gold.Chemscore.Hbond>
1.0506

> <Gold.Chemscore.Metal>
0.0000

> <Gold.Chemscore.Lipo>
48.8452

> <Gold.Chemscore.Internal_Hbond>
0.0000

> <Gold.Chemscore.DEClash>
0.1954

> <Gold.Chemscore.DEInternal>
1.3907

> <Gold.Chemscore.Rot>
3.1230

> <Gold.Chemscore.Internal.Correction>
   9.000000E+99

> <Gold.Chemscore.Hbonds>
donor molecule, donor type, donor heavy atom, donor atom, acceptor molecule, acceptor atom, score
      L1  H    18    31       P1  8028  0.93
      P1  H  6933  6944       L1    16  0.11

> <Gold.Chemscore.Hbond.Weighted>
-3.5088

> <Gold.Chemscore.Metal.Weighted>
-0.0000

> <Gold.Chemscore.Lipo.Weighted>
-5.7149

> <Gold.Chemscore.Internal_Hbond.Weighted>
0.0000

> <Gold.Chemscore.DEClash.Weighted>
0.1954

> <Gold.Chemscore.DEInternal.Weighted>
1.3907

> <Gold.Chemscore.Rot.Weighted>
7.9950

> <Gold.Chemscore.Internal.Correction.Weighted>
   9.000000E+99

> <Gold.Protein.RotatedTorsions>
[ 6907 6896 6895 6894 ] final  -58.85 input  -60.11 | X-H torsion
[ 7974 7965 7964 7962 ] final  121.75 input  175.53 | X-H torsion
[ 8008 7997 7996 7995 ] final  -87.99 input   59.86 | X-H torsion
[ 10167 10162 10161 10158 ] final -133.08 input  -65.29 | X-H torsion
[ 10718 10713 10712 10709 ] final   -5.05 input   66.30 | X-H torsion
[ 10763 10752 10751 10750 ] final  170.02 input  -60.55 | X-H torsion
[ 11005 11000 10999 10996 ] final  -74.83 input  -57.11 | X-H torsion

> <Gold.Protein.ActiveResidues>
 VAL166  LYS551  ARG553  GLY616  TRP617  ASP618  TYR619  PRO620  LYS621  CYS622 
 ASP623  PHE694  ASN695  SER759  ASP760  ASP761  ALA762  ILE779  LEU786  VAL792 
 PHE793  MET794  SER795  GLU796  ALA797  LYS798  CYS799  TRP800  GLU811  SER814 

> <Gold.Protein.RotatedAtoms>
  150.7975  134.7045  159.6568 H   0  0  0  0  0  0  0  0  0  0  0  0  # atno 6907 bound_to 6896
  152.4089  134.6156  160.0047 H   0  0  0  0  0  0  0  0  0  0  0  0  # atno 6908 bound_to 6896
  151.6405  133.3289  159.3165 H   0  0  0  0  0  0  0  0  0  0  0  0  # atno 6909 bound_to 6896
  145.1157  139.3423  143.4740 H   0  0  0  0  0  0  0  0  0  0  0  0  # atno 7974 bound_to 7965
  154.6696  140.0559  157.0151 H   0  0  0  0  0  0  0  0  0  0  0  0  # atno 8008 bound_to 7997
  155.1108  140.3238  155.4503 H   0  0  0  0  0  0  0  0  0  0  0  0  # atno 8009 bound_to 7997
  156.2652  140.2014  156.6232 H   0  0  0  0  0  0  0  0  0  0  0  0  # atno 8010 bound_to 7997
  139.9019  143.6597  152.2593 H   0  0  0  0  0  0  0  0  0  0  0  0  # atno 10167 bound_to 10162
  156.7523  130.5243  149.5801 H   0  0  0  0  0  0  0  0  0  0  0  0  # atno 10718 bound_to 10713
  154.3916  135.2754  155.2151 H   0  0  0  0  0  0  0  0  0  0  0  0  # atno 10763 bound_to 10752
  154.4215  135.5999  153.6016 H   0  0  0  0  0  0  0  0  0  0  0  0  # atno 10764 bound_to 10752
  152.9832  135.5973  154.4172 H   0  0  0  0  0  0  0  0  0  0  0  0  # atno 10765 bound_to 10752
  141.1639  133.6925  156.7425 H   0  0  0  0  0  0  0  0  0  0  0  0  # atno 11005 bound_to 11000
  146.3524  140.1094  142.8604 LP  0  0  0  0  0  0  0  0  0  0  0  0  # atno 17320 bound_to 7965
  145.0797  140.9212  143.4833 LP  0  0  0  0  0  0  0  0  0  0  0  0  # atno 17321 bound_to 7965
  139.7018  144.7634  151.1261 LP  0  0  0  0  0  0  0  0  0  0  0  0  # atno 17342 bound_to 10162
  140.7705  143.5448  150.9271 LP  0  0  0  0  0  0  0  0  0  0  0  0  # atno 17343 bound_to 10162
  156.1393  130.6233  151.0445 LP  0  0  0  0  0  0  0  0  0  0  0  0  # atno 17370 bound_to 10713
  157.6772  131.0847  150.7465 LP  0  0  0  0  0  0  0  0  0  0  0  0  # atno 17371 bound_to 10713
  140.2664  134.8426  157.3806 LP  0  0  0  0  0  0  0  0  0  0  0  0  # atno 17394 bound_to 11000
  140.1562  134.4786  155.7926 LP  0  0  0  0  0  0  0  0  0  0  0  0  # atno 17395 bound_to 11000

$$$$
