AV-unprocessed.smi:2945|AV-procd|sdf|11276|dock6
  -GOLD-   2272016173D 1   1.00000     0.00000
 Structure written by MMmdl.
 36 37  0  0  0  0  0  0  0  0  1 V2000
  147.4955  138.9979  153.2069 C   0  0  0  0  0  0  0  0  0  0  0  0
  148.5805  139.4994  154.0969 C   0  0  0  0  0  0  0  0  0  0  0  0
  148.5809  140.3109  155.1964 C   0  0  0  0  0  0  0  0  0  0  0  0
  149.9556  140.3726  155.5477 C   0  0  0  0  0  0  0  0  0  0  0  0
  150.3872  141.1351  156.6628 N   0  0  0  0  0  0  0  0  0  0  0  0
  151.5344  141.0049  157.3506 C   0  0  0  0  0  0  0  0  0  0  0  0
  152.4110  140.1733  157.1141 O   0  0  0  0  0  0  0  0  0  0  0  0
  151.6086  141.9058  158.3419 N   0  0  0  0  0  0  0  0  0  0  0  0
  152.7034  142.0394  159.3028 C   0  0  2  0  0  0  0  0  0  0  0  0
  153.1413  140.6302  159.7486 C   0  0  0  0  0  0  0  0  0  0  0  0
  154.2450  140.6862  160.8142 C   0  0  0  0  0  0  0  0  0  0  0  0
  153.7990  141.5228  162.0203 C   0  0  0  0  0  0  0  0  0  0  0  0
  153.3825  142.9356  161.5853 C   0  0  0  0  0  0  0  0  0  0  0  0
  152.2728  142.9067  160.5142 C   0  0  1  0  0  0  0  0  0  0  0  0
  151.8803  144.3390  160.1101 C   0  0  0  0  0  0  0  0  0  0  0  0
  150.7251  139.6641  154.7355 N   0  0  0  0  0  0  0  0  0  0  0  0
  149.8476  139.1010  153.8013 O   0  0  0  0  0  0  0  0  0  0  0  0
  146.5150  139.2774  153.5924 H   0  0  0  0  0  0  0  0  0  0  0  0
  147.5307  137.9111  153.1287 H   0  0  0  0  0  0  0  0  0  0  0  0
  147.5959  139.4132  152.2041 H   0  0  0  0  0  0  0  0  0  0  0  0
  147.7329  140.7820  155.6708 H   0  0  0  0  0  0  0  0  0  0  0  0
  149.7529  141.8572  156.9707 H   0  0  0  0  0  0  0  0  0  0  0  0
  150.8386  142.5495  158.4497 H   0  0  0  0  0  0  0  0  0  0  0  0
  153.5631  142.5174  158.8292 H   0  0  0  0  0  0  0  0  0  0  0  0
  152.2842  140.0861  160.1486 H   0  0  0  0  0  0  0  0  0  0  0  0
  153.4941  140.0596  158.8886 H   0  0  0  0  0  0  0  0  0  0  0  0
  154.5029  139.6770  161.1367 H   0  0  0  0  0  0  0  0  0  0  0  0
  155.1504  141.1156  160.3831 H   0  0  0  0  0  0  0  0  0  0  0  0
  152.9636  141.0308  162.5200 H   0  0  0  0  0  0  0  0  0  0  0  0
  154.6062  141.5812  162.7511 H   0  0  0  0  0  0  0  0  0  0  0  0
  153.0447  143.4975  162.4570 H   0  0  0  0  0  0  0  0  0  0  0  0
  154.2536  143.4657  161.1976 H   0  0  0  0  0  0  0  0  0  0  0  0
  151.3941  142.4429  160.9656 H   0  0  0  0  0  0  0  0  0  0  0  0
  152.7071  144.8496  159.6154 H   0  0  0  0  0  0  0  0  0  0  0  0
  151.5998  144.9293  160.9826 H   0  0  0  0  0  0  0  0  0  0  0  0
  151.0291  144.3481  159.4295 H   0  0  0  0  0  0  0  0  0  0  0  0
  1  2  1  0  0  0  0
  1 18  1  0  0  0  0
  1 19  1  0  0  0  0
  1 20  1  0  0  0  0
  2 17  1  0  0  0  0
  2  3  2  0  0  0  0
  3  4  1  0  0  0  0
  3 21  1  0  0  0  0
  4  5  1  0  0  0  0
  4 16  2  0  0  0  0
  5  6  1  0  0  0  0
  5 22  1  0  0  0  0
  6  7  2  0  0  0  0
  6  8  1  0  0  0  0
  8  9  1  0  0  0  0
  8 23  1  0  0  0  0
  9 14  1  0  0  0  0
  9 10  1  0  0  0  0
  9 24  1  0  0  0  0
 10 11  1  0  0  0  0
 10 25  1  0  0  0  0
 10 26  1  0  0  0  0
 11 12  1  0  0  0  0
 11 27  1  0  0  0  0
 11 28  1  0  0  0  0
 12 13  1  0  0  0  0
 12 29  1  0  0  0  0
 12 30  1  0  0  0  0
 13 14  1  0  0  0  0
 13 31  1  0  0  0  0
 13 32  1  0  0  0  0
 14 15  1  0  0  0  0
 14 33  1  0  0  0  0
 15 34  1  0  0  0  0
 15 35  1  0  0  0  0
 15 36  1  0  0  0  0
 16 17  1  0  0  0  0
M  END
> <s_m_source_file>
AV-unprocessed.smi

> <i_m_source_file_index>
2945

> <i_lp_mmshare_version>
43012

> <i_f3d_flags>
0

> <s_epik_input>
W0NIM11jMVtjSF1jKG5vMSlbTkhdQyg9TylbTkhdW0NAQEhdMltDSDJdW0NIMl1bQ0gyXVtDSDJdW0NASF0yW0NIM10=

> <s_epik_cmdline>
J2VwaWtfcHl0aG9uJywgJy1waCcsICc3LjAnLCAnLXRuJywgJzgnLCAnLW1hJywgJzIwMCcsICctbWV0YWxfYmluZGluZycsICctaW1hZScsICc8aW5maWxlLm1hZT4nLCAnLW9tYWUnLCAnPG91dGZpbGUubWFlPic=

> <r_lp_tautomer_probability>
1

> <r_epik_Ionization_Penalty>
2.357e-05

> <r_epik_Ionization_Penalty_Charging>
0

> <r_epik_Ionization_Penalty_Neutral>
2.357e-05

> <r_epik_State_Penalty>
-0

> <r_epik_Charging_Adjusted_Penalty>
0

> <i_epik_Tot_Q>
0

> <i_epik_Tot_abs_Q>
0

> <r_epik_Metal_State_Penalty>
-0

> <b_epik_Metal_Only>
0

> <s_lp_Force_Field>
OPLS_2005

> <r_lp_Energy>
8.52615

> <b_lp_Chiralities_Consistent>
1

> <s_lp_Variant>
AV-unprocessed.smi:2945-1

> <Gold.Version>
5.8.1

> <Gold.Id.Protein>
6NUR|6NUR_protein|mol2

> <Gold.PLP.Fitness>
35.1586

> <Gold.PLP.PLP>
-30.2421

> <Gold.PLP.part.hbond>
-2.0000

> <Gold.PLP.part.metal>
0.0000

> <Gold.PLP.part.buried>
-4.0960

> <Gold.PLP.part.nonpolar>
-25.4529

> <Gold.PLP.part.repulsive>
2.4426

> <Gold.PLP.ligand.clash>
0.0000

> <Gold.PLP.ligand.torsion>
0.3188

> <Gold.PLP.Chemscore.Hbond>
1.8500

> <Gold.PLP.Chemscore.CHOScore>
0.0000

> <Gold.PLP.Chemscore.Metal>
0.0000

> <Gold.Chemscore.Hbonds>
donor molecule, donor type, donor heavy atom, donor atom, acceptor molecule, acceptor atom, score
      P1  H  7989  7998       L1    16  0.80
      P1  H  7997  8008       L1     7  0.99

> <Gold.PLP.Chemscore.Internal.Correction>
0.0040

> <Gold.Rescore>
     Score         DG    S(hbond)    S(metal)    S(lipo)     H(rot)  DE(clash)    DE(int)     intcor
     13.01     -16.68       1.06        0.00      87.33       1.00       0.74       2.93       ----

> <Gold.Chemscore.Fitness>
13.0150

> <Gold.Chemscore.DG>
-16.6806

> <Gold.Chemscore.ZeroCoef>
-5.4800

> <Gold.Chemscore.Hbond>
1.0608

> <Gold.Chemscore.Metal>
0.0000

> <Gold.Chemscore.Lipo>
87.3298

> <Gold.Chemscore.Internal_Hbond>
0.0000

> <Gold.Chemscore.DEClash>
0.7370

> <Gold.Chemscore.DEInternal>
2.9287

> <Gold.Chemscore.Rot>
1.0000

> <Gold.Chemscore.Internal.Correction>
   9.000000E+99

> <Gold.Chemscore.Hbonds>
donor molecule, donor type, donor heavy atom, donor atom, acceptor molecule, acceptor atom, score
      P1  H  7989  7998       L1    16  0.08
      P1  H  7997  8008       L1     7  0.88

> <Gold.Chemscore.Hbond.Weighted>
-3.5430

> <Gold.Chemscore.Metal.Weighted>
-0.0000

> <Gold.Chemscore.Lipo.Weighted>
-10.2176

> <Gold.Chemscore.Internal_Hbond.Weighted>
0.0000

> <Gold.Chemscore.DEClash.Weighted>
0.7370

> <Gold.Chemscore.DEInternal.Weighted>
2.9287

> <Gold.Chemscore.Rot.Weighted>
2.5600

> <Gold.Chemscore.Internal.Correction.Weighted>
   9.000000E+99

> <Gold.Protein.RotatedTorsions>
[ 6907 6896 6895 6894 ] final  -33.84 input  -60.11 | X-H torsion
[ 7974 7965 7964 7962 ] final  131.78 input  175.53 | X-H torsion
[ 8008 7997 7996 7995 ] final  -49.17 input   59.86 | X-H torsion
[ 10167 10162 10161 10158 ] final   52.43 input  -65.29 | X-H torsion
[ 10718 10713 10712 10709 ] final   13.54 input   66.30 | X-H torsion
[ 10763 10752 10751 10750 ] final   22.45 input  -60.55 | X-H torsion
[ 11005 11000 10999 10996 ] final   79.32 input  -57.11 | X-H torsion

> <Gold.Protein.ActiveResidues>
 VAL166  LYS551  ARG553  GLY616  TRP617  ASP618  TYR619  PRO620  LYS621  CYS622 
 ASP623  PHE694  ASN695  SER759  ASP760  ASP761  ALA762  ILE779  LEU786  VAL792 
 PHE793  MET794  SER795  GLU796  ALA797  LYS798  CYS799  TRP800  GLU811  SER814 

> <Gold.Protein.RotatedAtoms>
  151.0604  134.9732  159.8257 H   0  0  0  0  0  0  0  0  0  0  0  0  # atno 6907 bound_to 6896
  152.5394  134.2425  159.8877 H   0  0  0  0  0  0  0  0  0  0  0  0  # atno 6908 bound_to 6896
  151.2445  133.4339  159.2642 H   0  0  0  0  0  0  0  0  0  0  0  0  # atno 6909 bound_to 6896
  145.0037  139.4287  143.5279 H   0  0  0  0  0  0  0  0  0  0  0  0  # atno 7974 bound_to 7965
  154.4040  140.1303  156.4459 H   0  0  0  0  0  0  0  0  0  0  0  0  # atno 8008 bound_to 7997
  155.7413  140.3490  155.5086 H   0  0  0  0  0  0  0  0  0  0  0  0  # atno 8009 bound_to 7997
  155.9036  140.1023  157.1322 H   0  0  0  0  0  0  0  0  0  0  0  0  # atno 8010 bound_to 7997
  140.2514  144.3474  150.6347 H   0  0  0  0  0  0  0  0  0  0  0  0  # atno 10167 bound_to 10162
  157.0261  130.6174  149.5728 H   0  0  0  0  0  0  0  0  0  0  0  0  # atno 10718 bound_to 10713
  153.0914  135.6648  153.9846 H   0  0  0  0  0  0  0  0  0  0  0  0  # atno 10763 bound_to 10752
  153.9442  135.2990  155.3443 H   0  0  0  0  0  0  0  0  0  0  0  0  # atno 10764 bound_to 10752
  154.7329  135.5115  153.9067 H   0  0  0  0  0  0  0  0  0  0  0  0  # atno 10765 bound_to 10752
  139.9177  134.7833  156.1764 H   0  0  0  0  0  0  0  0  0  0  0  0  # atno 11005 bound_to 11000
  146.3457  139.9440  142.8737 LP  0  0  0  0  0  0  0  0  0  0  0  0  # atno 17320 bound_to 7965
  145.2118  140.9899  143.4096 LP  0  0  0  0  0  0  0  0  0  0  0  0  # atno 17321 bound_to 7965
  140.6037  143.2167  151.7022 LP  0  0  0  0  0  0  0  0  0  0  0  0  # atno 17342 bound_to 10162
  139.5045  144.3752  152.0431 LP  0  0  0  0  0  0  0  0  0  0  0  0  # atno 17343 bound_to 10162
  156.0085  130.5175  150.7911 LP  0  0  0  0  0  0  0  0  0  0  0  0  # atno 17370 bound_to 10713
  157.5213  131.0931  151.0075 LP  0  0  0  0  0  0  0  0  0  0  0  0  # atno 17371 bound_to 10713
  141.0669  133.6815  156.2063 LP  0  0  0  0  0  0  0  0  0  0  0  0  # atno 17394 bound_to 11000
  140.6570  134.5007  157.5581 LP  0  0  0  0  0  0  0  0  0  0  0  0  # atno 17395 bound_to 11000

$$$$
