AV-unprocessed.smi:213|AV-procd|sdf|1637|dock5
  -GOLD-   2262020 03D 1   1.00000     0.00000
 Structure written by MMmdl.
 59 62  0  0  0  0  0  0  0  0  2 V2000
  145.9522  137.2194  156.3384 C   0  0  0  0  0  0  0  0  0  0  0  0
  146.0948  137.0301  154.8195 C   0  0  2  0  0  0  0  0  0  0  0  0
  146.3541  135.5468  154.4590 C   0  0  0  0  0  0  0  0  0  0  0  0
  146.1272  135.2487  153.0220 N   0  3  0  0  0  0  0  0  0  0  0  0
  146.1519  133.8002  152.7168 C   0  0  0  0  0  0  0  0  0  0  0  0
  146.0168  133.5796  151.2008 C   0  0  0  0  0  0  0  0  0  0  0  0
  144.8153  134.1830  150.7359 O   0  0  0  0  0  0  0  0  0  0  0  0
  144.8034  135.5883  150.9554 C   0  0  0  0  0  0  0  0  0  0  0  0
  144.9051  135.8765  152.4625 C   0  0  0  0  0  0  0  0  0  0  0  0
  147.1081  137.9360  154.2570 N   0  0  0  0  0  0  0  0  0  0  0  0
  146.6882  139.0403  153.3948 C   0  0  0  0  0  0  0  0  0  0  0  0
  148.2243  138.1348  155.0071 C   0  0  0  0  0  0  0  0  0  0  0  0
  148.8292  137.0688  155.5973 N   0  0  0  0  0  0  0  0  0  0  0  0
  149.9567  137.2320  156.2947 C   0  0  0  0  0  0  0  0  0  0  0  0
  150.6419  138.3536  156.5191 N   0  0  0  0  0  0  0  0  0  0  0  0
  150.0329  139.4308  155.9473 C   0  0  0  0  0  0  0  0  0  0  0  0
  148.8337  139.4101  155.1797 C   0  0  0  0  0  0  0  0  0  0  0  0
  148.5226  140.6963  154.7553 N   0  0  0  0  0  0  0  0  0  0  0  0
  149.4836  141.4339  155.2393 C   0  0  0  0  0  0  0  0  0  0  0  0
  150.4282  140.7570  155.9775 N   0  0  0  0  0  0  0  0  0  0  0  0
  151.5934  141.3359  156.6275 C   0  0  0  0  0  0  0  0  0  0  0  0
  151.2722  142.4901  157.6052 C   0  0  2  0  0  0  0  0  0  0  0  0
  151.1528  143.6980  156.8810 O   0  0  0  0  0  0  0  0  0  0  0  0
  152.2766  142.6420  158.7746 C   0  0  1  0  0  0  0  0  0  0  0  0
  151.9981  143.7062  159.8478 C   0  0  0  0  0  0  0  0  0  0  0  0
  152.6844  143.1518  161.0886 C   0  0  0  0  0  0  0  0  0  0  0  0
  153.0917  141.7278  160.6999 C   0  0  0  0  0  0  0  0  0  0  0  0
  152.3504  141.4399  159.5236 O   0  0  0  0  0  0  0  0  0  0  0  0
  145.1214  136.6293  156.7260 H   0  0  0  0  0  0  0  0  0  0  0  0
  145.7540  138.2630  156.5850 H   0  0  0  0  0  0  0  0  0  0  0  0
  146.8477  136.9101  156.8770 H   0  0  0  0  0  0  0  0  0  0  0  0
  145.1220  137.2929  154.4096 H   0  0  0  0  0  0  0  0  0  0  0  0
  147.3853  135.3019  154.7165 H   0  0  0  0  0  0  0  0  0  0  0  0
  145.7285  134.8907  155.0661 H   0  0  0  0  0  0  0  0  0  0  0  0
  147.0869  133.3618  153.0679 H   0  0  0  0  0  0  0  0  0  0  0  0
  145.3403  133.2985  153.2461 H   0  0  0  0  0  0  0  0  0  0  0  0
  146.8754  133.9941  150.6695 H   0  0  0  0  0  0  0  0  0  0  0  0
  145.9869  132.5131  150.9770 H   0  0  0  0  0  0  0  0  0  0  0  0
  145.6226  136.0612  150.4117 H   0  0  0  0  0  0  0  0  0  0  0  0
  143.8770  136.0011  150.5560 H   0  0  0  0  0  0  0  0  0  0  0  0
  144.0244  135.4898  152.9777 H   0  0  0  0  0  0  0  0  0  0  0  0
  144.9194  136.9542  152.6199 H   0  0  0  0  0  0  0  0  0  0  0  0
  147.5457  139.4838  152.8869 H   0  0  0  0  0  0  0  0  0  0  0  0
  146.1920  139.8201  153.9733 H   0  0  0  0  0  0  0  0  0  0  0  0
  145.9990  138.6993  152.6233 H   0  0  0  0  0  0  0  0  0  0  0  0
  150.3739  136.3351  156.7287 H   0  0  0  0  0  0  0  0  0  0  0  0
  149.5238  142.5017  155.0798 H   0  0  0  0  0  0  0  0  0  0  0  0
  152.1371  140.5408  157.1395 H   0  0  0  0  0  0  0  0  0  0  0  0
  152.2614  141.7027  155.8472 H   0  0  0  0  0  0  0  0  0  0  0  0
  150.2889  142.2808  158.0283 H   0  0  0  0  0  0  0  0  0  0  0  0
  150.2885  143.7322  156.4999 H   0  0  0  0  0  0  0  0  0  0  0  0
  153.2734  142.8064  158.3600 H   0  0  0  0  0  0  0  0  0  0  0  0
  152.3784  144.6894  159.5732 H   0  0  0  0  0  0  0  0  0  0  0  0
  150.9329  143.8122  160.0520 H   0  0  0  0  0  0  0  0  0  0  0  0
  153.5559  143.7437  161.3707 H   0  0  0  0  0  0  0  0  0  0  0  0
  151.9962  143.1471  161.9346 H   0  0  0  0  0  0  0  0  0  0  0  0
  154.1573  141.6840  160.4695 H   0  0  0  0  0  0  0  0  0  0  0  0
  152.8842  141.0021  161.4864 H   0  0  0  0  0  0  0  0  0  0  0  0
  146.9129  135.6478  152.5271 H   0  0  0  0  0  0  0  0  0  0  0  0
  1  2  1  0  0  0  0
  1 29  1  0  0  0  0
  1 30  1  0  0  0  0
  1 31  1  0  0  0  0
  2  3  1  0  0  0  0
  2 10  1  0  0  0  0
  2 32  1  0  0  0  0
  3  4  1  0  0  0  0
  3 33  1  0  0  0  0
  3 34  1  0  0  0  0
  4  9  1  0  0  0  0
  4  5  1  0  0  0  0
  4 59  1  0  0  0  0
  5  6  1  0  0  0  0
  5 35  1  0  0  0  0
  5 36  1  0  0  0  0
  6  7  1  0  0  0  0
  6 37  1  0  0  0  0
  6 38  1  0  0  0  0
  7  8  1  0  0  0  0
  8  9  1  0  0  0  0
  8 39  1  0  0  0  0
  8 40  1  0  0  0  0
  9 41  1  0  0  0  0
  9 42  1  0  0  0  0
 10 11  1  0  0  0  0
 10 12  1  0  0  0  0
 11 43  1  0  0  0  0
 11 44  1  0  0  0  0
 11 45  1  0  0  0  0
 12 17  1  0  0  0  0
 12 13  2  0  0  0  0
 13 14  1  0  0  0  0
 14 15  2  0  0  0  0
 14 46  1  0  0  0  0
 15 16  1  0  0  0  0
 16 20  1  0  0  0  0
 16 17  2  0  0  0  0
 17 18  1  0  0  0  0
 18 19  2  0  0  0  0
 19 20  1  0  0  0  0
 19 47  1  0  0  0  0
 20 21  1  0  0  0  0
 21 22  1  0  0  0  0
 21 48  1  0  0  0  0
 21 49  1  0  0  0  0
 22 23  1  0  0  0  0
 22 24  1  0  0  0  0
 22 50  1  0  0  0  0
 23 51  1  0  0  0  0
 24 28  1  0  0  0  0
 24 25  1  0  0  0  0
 24 52  1  0  0  0  0
 25 26  1  0  0  0  0
 25 53  1  0  0  0  0
 25 54  1  0  0  0  0
 26 27  1  0  0  0  0
 26 55  1  0  0  0  0
 26 56  1  0  0  0  0
 27 28  1  0  0  0  0
 27 57  1  0  0  0  0
 27 58  1  0  0  0  0
M  CHG  1   4   1
M  END
> <s_m_source_file>
AV-unprocessed.smi

> <i_m_source_file_index>
213

> <i_lp_mmshare_version>
43012

> <i_f3d_flags>
0

> <s_epik_input>
W0NIMl0xW0NIMl1PW0NIMl1bQ0gyXU4xW0NIMl1bQ0BASF0oW0NIM10pTihbQ0gzXSljKG5bY0hdbjIpYyhjMjMpbltjSF1uM1tDSDJdW0NASF0oW09IXSlbQ0BASF00W0NIMl1bQ0gyXVtDSDJdTzQ=

> <s_epik_cmdline>
J2VwaWtfcHl0aG9uJywgJy1waCcsICc3LjAnLCAnLXRuJywgJzgnLCAnLW1hJywgJzIwMCcsICctbWV0YWxfYmluZGluZycsICctaW1hZScsICc8aW5maWxlLm1hZT4nLCAnLW9tYWUnLCAnPG91dGZpbGUubWFlPic=

> <r_lp_tautomer_probability>
1

> <r_epik_Ionization_Penalty>
0.399679

> <r_epik_Ionization_Penalty_Charging>
0.399433

> <r_epik_Ionization_Penalty_Neutral>
0.000246213

> <r_epik_State_Penalty>
0.286032

> <r_epik_Charging_Adjusted_Penalty>
0.685465

> <i_epik_Tot_Q>
1

> <i_epik_Tot_abs_Q>
1

> <r_epik_Metal_State_Penalty>
0.286072

> <b_epik_Metal_Only>
0

> <s_lp_Force_Field>
OPLS_2005

> <r_lp_Energy>
48.2471

> <b_lp_Chiralities_Consistent>
1

> <s_lp_Variant>
AV-unprocessed.smi:213-5

> <Gold.Version>
5.8.1

> <Gold.Id.Protein>
6NUR|6NUR_protein|mol2

> <Gold.PLP.Fitness>
51.9700

> <Gold.PLP.PLP>
-41.4829

> <Gold.PLP.part.hbond>
-2.0000

> <Gold.PLP.part.metal>
0.0000

> <Gold.PLP.part.buried>
-8.2815

> <Gold.PLP.part.nonpolar>
-33.2337

> <Gold.PLP.part.repulsive>
0.8947

> <Gold.PLP.ligand.clash>
0.0000

> <Gold.PLP.ligand.torsion>
1.2900

> <Gold.PLP.Chemscore.Hbond>
3.0000

> <Gold.PLP.Chemscore.CHOScore>
1.0000

> <Gold.PLP.Chemscore.Metal>
0.0000

> <Gold.Chemscore.Hbonds>
donor molecule, donor type, donor heavy atom, donor atom, acceptor molecule, acceptor atom, score
      L1  H     4    59       P1  7948  1.14
      L1  H    23    51       P1  8028  0.98
      L1  C    19    47       P1  8028  1.00

> <Gold.PLP.Chemscore.Internal.Correction>
1.0672

> <Gold.Rescore>
     Score         DG    S(hbond)    S(metal)    S(lipo)     H(rot)  DE(clash)    DE(int)     intcor
     12.03     -16.24       1.98        0.00      97.31       2.83       1.31       2.89       ----

> <Gold.Chemscore.Fitness>
12.0325

> <Gold.Chemscore.DG>
-16.2362

> <Gold.Chemscore.ZeroCoef>
-5.4800

> <Gold.Chemscore.Hbond>
1.9773

> <Gold.Chemscore.Metal>
0.0000

> <Gold.Chemscore.Lipo>
97.3085

> <Gold.Chemscore.Internal_Hbond>
0.0000

> <Gold.Chemscore.DEClash>
1.3150

> <Gold.Chemscore.DEInternal>
2.8887

> <Gold.Chemscore.Rot>
2.8254

> <Gold.Chemscore.Internal.Correction>
   9.000000E+99

> <Gold.Chemscore.Hbonds>
donor molecule, donor type, donor heavy atom, donor atom, acceptor molecule, acceptor atom, score
      L1  H     4    59       P1  7948  0.56
      L1  H    23    51       P1  8028  0.93

> <Gold.Chemscore.Hbond.Weighted>
-6.6041

> <Gold.Chemscore.Metal.Weighted>
-0.0000

> <Gold.Chemscore.Lipo.Weighted>
-11.3851

> <Gold.Chemscore.Internal_Hbond.Weighted>
0.0000

> <Gold.Chemscore.DEClash.Weighted>
1.3150

> <Gold.Chemscore.DEInternal.Weighted>
2.8887

> <Gold.Chemscore.Rot.Weighted>
7.2330

> <Gold.Chemscore.Internal.Correction.Weighted>
   9.000000E+99

> <Gold.Protein.RotatedTorsions>
[ 6907 6896 6895 6894 ] final -158.59 input  -60.11 | X-H torsion
[ 7974 7965 7964 7962 ] final  127.83 input  175.53 | X-H torsion
[ 8008 7997 7996 7995 ] final   27.79 input   59.86 | X-H torsion
[ 10167 10162 10161 10158 ] final    9.68 input  -65.29 | X-H torsion
[ 10718 10713 10712 10709 ] final -153.01 input   66.30 | X-H torsion
[ 10763 10752 10751 10750 ] final   63.36 input  -60.55 | X-H torsion
[ 11005 11000 10999 10996 ] final   -2.08 input  -57.11 | X-H torsion

> <Gold.Protein.ActiveResidues>
 VAL166  LYS551  ARG553  GLY616  TRP617  ASP618  TYR619  PRO620  LYS621  CYS622 
 ASP623  PHE694  ASN695  SER759  ASP760  ASP761  ALA762  ILE779  LEU786  VAL792 
 PHE793  MET794  SER795  GLU796  ALA797  LYS798  CYS799  TRP800  GLU811  SER814 

> <Gold.Protein.RotatedAtoms>
  151.3205  133.4042  159.2653 H   0  0  0  0  0  0  0  0  0  0  0  0  # atno 6907 bound_to 6896
  151.0038  134.9344  159.7979 H   0  0  0  0  0  0  0  0  0  0  0  0  # atno 6908 bound_to 6896
  152.5282  134.3170  159.9187 H   0  0  0  0  0  0  0  0  0  0  0  0  # atno 6909 bound_to 6896
  145.0462  139.3921  143.5077 H   0  0  0  0  0  0  0  0  0  0  0  0  # atno 7974 bound_to 7965
  155.0485  140.3177  155.4700 H   0  0  0  0  0  0  0  0  0  0  0  0  # atno 8008 bound_to 7997
  156.2839  140.2150  156.5554 H   0  0  0  0  0  0  0  0  0  0  0  0  # atno 8009 bound_to 7997
  154.7230  140.0488  157.0644 H   0  0  0  0  0  0  0  0  0  0  0  0  # atno 8010 bound_to 7997
  140.6240  143.8142  150.7210 H   0  0  0  0  0  0  0  0  0  0  0  0  # atno 10167 bound_to 10162
  156.4802  130.8299  151.2526 H   0  0  0  0  0  0  0  0  0  0  0  0  # atno 10718 bound_to 10713
  153.0015  135.5432  154.6339 H   0  0  0  0  0  0  0  0  0  0  0  0  # atno 10763 bound_to 10752
  154.5610  135.2834  155.0921 H   0  0  0  0  0  0  0  0  0  0  0  0  # atno 10764 bound_to 10752
  154.2124  135.6465  153.5172 H   0  0  0  0  0  0  0  0  0  0  0  0  # atno 10765 bound_to 10752
  140.6544  133.9375  155.8399 H   0  0  0  0  0  0  0  0  0  0  0  0  # atno 11005 bound_to 11000
  146.3514  140.0088  142.8669 LP  0  0  0  0  0  0  0  0  0  0  0  0  # atno 17320 bound_to 7965
  145.1585  140.9660  143.4391 LP  0  0  0  0  0  0  0  0  0  0  0  0  # atno 17321 bound_to 7965
  140.1738  143.4172  152.1982 LP  0  0  0  0  0  0  0  0  0  0  0  0  # atno 17342 bound_to 10162
  139.5463  144.7301  151.4572 LP  0  0  0  0  0  0  0  0  0  0  0  0  # atno 17343 bound_to 10162
  157.7484  131.0047  150.3088 LP  0  0  0  0  0  0  0  0  0  0  0  0  # atno 17370 bound_to 10713
  156.3530  130.3834  149.7314 LP  0  0  0  0  0  0  0  0  0  0  0  0  # atno 17371 bound_to 10713
  141.0512  134.0482  157.3781 LP  0  0  0  0  0  0  0  0  0  0  0  0  # atno 17394 bound_to 11000
  139.9034  135.0172  156.7377 LP  0  0  0  0  0  0  0  0  0  0  0  0  # atno 17395 bound_to 11000

$$$$
