AV-unprocessed.smi:1578|AV-procd|sdf|6352|dock7
  -GOLD-   22720 6573D 1   1.00000     0.00000
 Structure written by MMmdl.
 45 46  0  0  0  0  0  0  0  0  2 V2000
  146.7784  140.2604  153.7194 C   0  0  0  0  0  0  0  0  0  0  0  0
  147.1247  141.4504  154.6239 C   0  0  2  0  0  0  0  0  0  0  0  0
  146.5723  142.7775  154.0582 C   0  0  0  0  0  0  0  0  0  0  0  0
  145.3775  143.2612  154.7956 N   0  3  0  0  0  0  0  0  0  0  0  0
  145.6323  143.4904  156.2365 C   0  0  0  0  0  0  0  0  0  0  0  0
  144.3307  143.9019  156.9455 C   0  0  0  0  0  0  0  0  0  0  0  0
  143.7908  145.0605  156.3210 O   0  0  0  0  0  0  0  0  0  0  0  0
  143.4692  144.8304  154.9544 C   0  0  0  0  0  0  0  0  0  0  0  0
  144.7441  144.4529  154.1824 C   0  0  0  0  0  0  0  0  0  0  0  0
  148.5758  141.5329  154.7820 N   0  0  0  0  0  0  0  0  0  0  0  0
  149.2597  141.4419  155.9367 C   0  0  0  0  0  0  0  0  0  0  0  0
  148.7176  141.2218  157.0186 O   0  0  0  0  0  0  0  0  0  0  0  0
  150.7782  141.6829  155.8984 C   0  0  0  0  0  0  0  0  0  0  0  0
  151.4046  141.8190  157.2255 N   0  0  0  0  0  0  0  0  0  0  0  0
  151.1652  143.0254  157.9128 C   0  0  0  0  0  0  0  0  0  0  0  0
  151.6829  143.2937  159.1264 C   0  0  0  0  0  0  0  0  0  0  0  0
  151.4667  144.6368  159.8061 C   0  0  0  0  0  0  0  0  0  0  0  0
  152.0583  145.6198  159.1273 F   0  0  0  0  0  0  0  0  0  0  0  0
  150.1671  144.9200  159.9044 F   0  0  0  0  0  0  0  0  0  0  0  0
  151.9798  144.6113  161.0350 F   0  0  0  0  0  0  0  0  0  0  0  0
  152.5361  142.2731  159.7026 C   0  0  0  0  0  0  0  0  0  0  0  0
  152.7884  141.1205  159.0517 C   0  0  0  0  0  0  0  0  0  0  0  0
  152.2154  140.8427  157.7327 C   0  0  0  0  0  0  0  0  0  0  0  0
  152.4589  139.8053  157.1169 O   0  0  0  0  0  0  0  0  0  0  0  0
  145.6994  140.1623  153.5972 H   0  0  0  0  0  0  0  0  0  0  0  0
  147.1471  139.3256  154.1429 H   0  0  0  0  0  0  0  0  0  0  0  0
  147.2171  140.3719  152.7271 H   0  0  0  0  0  0  0  0  0  0  0  0
  146.6574  141.2606  155.5910 H   0  0  0  0  0  0  0  0  0  0  0  0
  147.3594  143.5294  154.1359 H   0  0  0  0  0  0  0  0  0  0  0  0
  146.3449  142.6846  152.9952 H   0  0  0  0  0  0  0  0  0  0  0  0
  146.0248  142.5812  156.6935 H   0  0  0  0  0  0  0  0  0  0  0  0
  146.3900  144.2662  156.3570 H   0  0  0  0  0  0  0  0  0  0  0  0
  143.6017  143.0902  156.9224 H   0  0  0  0  0  0  0  0  0  0  0  0
  144.5272  144.1236  157.9946 H   0  0  0  0  0  0  0  0  0  0  0  0
  142.7167  144.0443  154.8712 H   0  0  0  0  0  0  0  0  0  0  0  0
  143.0309  145.7365  154.5362 H   0  0  0  0  0  0  0  0  0  0  0  0
  145.4463  145.2879  154.1894 H   0  0  0  0  0  0  0  0  0  0  0  0
  144.4927  144.2556  153.1407 H   0  0  0  0  0  0  0  0  0  0  0  0
  149.1078  141.7036  153.9405 H   0  0  0  0  0  0  0  0  0  0  0  0
  151.2432  140.8526  155.3643 H   0  0  0  0  0  0  0  0  0  0  0  0
  150.9719  142.5582  155.2765 H   0  0  0  0  0  0  0  0  0  0  0  0
  150.5433  143.7287  157.3771 H   0  0  0  0  0  0  0  0  0  0  0  0
  152.9768  142.4319  160.6759 H   0  0  0  0  0  0  0  0  0  0  0  0
  153.4271  140.3814  159.5132 H   0  0  0  0  0  0  0  0  0  0  0  0
  144.6988  142.5146  154.7486 H   0  0  0  0  0  0  0  0  0  0  0  0
  1  2  1  0  0  0  0
  1 25  1  0  0  0  0
  1 26  1  0  0  0  0
  1 27  1  0  0  0  0
  2  3  1  0  0  0  0
  2 10  1  0  0  0  0
  2 28  1  0  0  0  0
  3  4  1  0  0  0  0
  3 29  1  0  0  0  0
  3 30  1  0  0  0  0
  4  9  1  0  0  0  0
  4  5  1  0  0  0  0
  4 45  1  0  0  0  0
  5  6  1  0  0  0  0
  5 31  1  0  0  0  0
  5 32  1  0  0  0  0
  6  7  1  0  0  0  0
  6 33  1  0  0  0  0
  6 34  1  0  0  0  0
  7  8  1  0  0  0  0
  8  9  1  0  0  0  0
  8 35  1  0  0  0  0
  8 36  1  0  0  0  0
  9 37  1  0  0  0  0
  9 38  1  0  0  0  0
 10 11  1  0  0  0  0
 10 39  1  0  0  0  0
 11 12  2  0  0  0  0
 11 13  1  0  0  0  0
 13 14  1  0  0  0  0
 13 40  1  0  0  0  0
 13 41  1  0  0  0  0
 14 23  1  0  0  0  0
 14 15  1  0  0  0  0
 15 16  2  0  0  0  0
 15 42  1  0  0  0  0
 16 17  1  0  0  0  0
 16 21  1  0  0  0  0
 17 18  1  0  0  0  0
 17 19  1  0  0  0  0
 17 20  1  0  0  0  0
 21 22  2  0  0  0  0
 21 43  1  0  0  0  0
 22 23  1  0  0  0  0
 22 44  1  0  0  0  0
 23 24  2  0  0  0  0
M  CHG  1   4   1
M  END
> <s_m_source_file>
AV-unprocessed.smi

> <i_m_source_file_index>
1578

> <i_lp_mmshare_version>
43012

> <i_f3d_flags>
0

> <s_epik_input>
W0NIMl0xW0NIMl1PW0NIMl1bQ0gyXU4xW0NIMl1bQ0BASF0oW0NIM10pW05IXUMoPU8pW0NIMl1uMltjSF1jKEMoRikoRilGKVtjSF1bY0hdYzI9Tw==

> <s_epik_cmdline>
J2VwaWtfcHl0aG9uJywgJy1waCcsICc3LjAnLCAnLXRuJywgJzgnLCAnLW1hJywgJzIwMCcsICctbWV0YWxfYmluZGluZycsICctaW1hZScsICc8aW5maWxlLm1hZT4nLCAnLW9tYWUnLCAnPG91dGZpbGUubWFlPic=

> <r_lp_tautomer_probability>
1

> <r_epik_Ionization_Penalty>
0.656654

> <r_epik_Ionization_Penalty_Charging>
0.656653

> <r_epik_Ionization_Penalty_Neutral>
9.12373e-08

> <r_epik_State_Penalty>
0.675641

> <r_epik_Charging_Adjusted_Penalty>
1.33229

> <i_epik_Tot_Q>
1

> <i_epik_Tot_abs_Q>
1

> <r_epik_Metal_State_Penalty>
0.675695

> <b_epik_Metal_Only>
0

> <s_lp_Force_Field>
OPLS_2005

> <r_lp_Energy>
34.2523

> <b_lp_Chiralities_Consistent>
1

> <s_lp_Variant>
AV-unprocessed.smi:1578-3

> <Gold.Version>
5.8.1

> <Gold.Id.Protein>
6NUR|6NUR_protein|mol2

> <Gold.PLP.Fitness>
51.1677

> <Gold.PLP.PLP>
-47.4072

> <Gold.PLP.part.hbond>
-1.0000

> <Gold.PLP.part.metal>
0.0000

> <Gold.PLP.part.buried>
-7.9760

> <Gold.PLP.part.nonpolar>
-37.7715

> <Gold.PLP.part.repulsive>
0.3056

> <Gold.PLP.ligand.clash>
0.0696

> <Gold.PLP.ligand.torsion>
1.0737

> <Gold.PLP.Chemscore.Hbond>
1.0000

> <Gold.PLP.Chemscore.CHOScore>
0.9518

> <Gold.PLP.Chemscore.Metal>
0.0000

> <Gold.Chemscore.Hbonds>
donor molecule, donor type, donor heavy atom, donor atom, acceptor molecule, acceptor atom, score
      P1  H  7997  8010       L1    24  1.00
      L1  C    15    42       P1  8028  0.91

> <Gold.PLP.Chemscore.Internal.Correction>
0.1221

> <Gold.Rescore>
     Score         DG    S(hbond)    S(metal)    S(lipo)     H(rot)  DE(clash)    DE(int)     intcor
     12.45     -13.55       0.81        0.00      93.44       2.17       0.22       0.89       ----

> <Gold.Chemscore.Fitness>
12.4461

> <Gold.Chemscore.DG>
-13.5550

> <Gold.Chemscore.ZeroCoef>
-5.4800

> <Gold.Chemscore.Hbond>
0.8089

> <Gold.Chemscore.Metal>
0.0000

> <Gold.Chemscore.Lipo>
93.4405

> <Gold.Chemscore.Internal_Hbond>
0.0000

> <Gold.Chemscore.DEClash>
0.2221

> <Gold.Chemscore.DEInternal>
0.8868

> <Gold.Chemscore.Rot>
2.1716

> <Gold.Chemscore.Internal.Correction>
   9.000000E+99

> <Gold.Chemscore.Hbonds>
donor molecule, donor type, donor heavy atom, donor atom, acceptor molecule, acceptor atom, score
      P1  H  7997  8010       L1    24  0.24

> <Gold.Chemscore.Hbond.Weighted>
-2.7016

> <Gold.Chemscore.Metal.Weighted>
-0.0000

> <Gold.Chemscore.Lipo.Weighted>
-10.9325

> <Gold.Chemscore.Internal_Hbond.Weighted>
0.0000

> <Gold.Chemscore.DEClash.Weighted>
0.2221

> <Gold.Chemscore.DEInternal.Weighted>
0.8868

> <Gold.Chemscore.Rot.Weighted>
5.5592

> <Gold.Chemscore.Internal.Correction.Weighted>
   9.000000E+99

> <Gold.Protein.RotatedTorsions>
[ 6907 6896 6895 6894 ] final  -36.18 input  -60.11 | X-H torsion
[ 7974 7965 7964 7962 ] final  136.38 input  175.53 | X-H torsion
[ 8008 7997 7996 7995 ] final   51.94 input   59.86 | X-H torsion
[ 10167 10162 10161 10158 ] final -150.33 input  -65.29 | X-H torsion
[ 10718 10713 10712 10709 ] final   27.73 input   66.30 | X-H torsion
[ 10763 10752 10751 10750 ] final  165.28 input  -60.55 | X-H torsion
[ 11005 11000 10999 10996 ] final  -96.48 input  -57.11 | X-H torsion

> <Gold.Protein.ActiveResidues>
 VAL166  LYS551  ARG553  GLY616  TRP617  ASP618  TYR619  PRO620  LYS621  CYS622 
 ASP623  PHE694  ASN695  SER759  ASP760  ASP761  ALA762  ILE779  LEU786  VAL792 
 PHE793  MET794  SER795  GLU796  ALA797  LYS798  CYS799  TRP800  GLU811  SER814 

> <Gold.Protein.RotatedAtoms>
  151.0304  134.9535  159.8107 H   0  0  0  0  0  0  0  0  0  0  0  0  # atno 6907 bound_to 6896
  152.5344  134.2787  159.9009 H   0  0  0  0  0  0  0  0  0  0  0  0  # atno 6908 bound_to 6896
  151.2797  133.4173  159.2660 H   0  0  0  0  0  0  0  0  0  0  0  0  # atno 6909 bound_to 6896
  144.9571  139.4752  143.5498 H   0  0  0  0  0  0  0  0  0  0  0  0  # atno 7974 bound_to 7965
  155.4436  140.3455  155.4293 H   0  0  0  0  0  0  0  0  0  0  0  0  # atno 8008 bound_to 7997
  156.1263  140.1501  156.9161 H   0  0  0  0  0  0  0  0  0  0  0  0  # atno 8009 bound_to 7997
  154.4861  140.0855  156.7469 H   0  0  0  0  0  0  0  0  0  0  0  0  # atno 8010 bound_to 7997
  139.7364  143.8729  152.2550 H   0  0  0  0  0  0  0  0  0  0  0  0  # atno 10167 bound_to 10162
  157.2241  130.6992  149.6283 H   0  0  0  0  0  0  0  0  0  0  0  0  # atno 10718 bound_to 10713
  154.3216  135.2756  155.2517 H   0  0  0  0  0  0  0  0  0  0  0  0  # atno 10763 bound_to 10752
  154.4868  135.5844  153.6433 H   0  0  0  0  0  0  0  0  0  0  0  0  # atno 10764 bound_to 10752
  152.9876  135.6125  154.3401 H   0  0  0  0  0  0  0  0  0  0  0  0  # atno 10765 bound_to 10752
  141.1410  133.8101  157.0576 H   0  0  0  0  0  0  0  0  0  0  0  0  # atno 11005 bound_to 11000
  146.3341  139.8695  142.8842 LP  0  0  0  0  0  0  0  0  0  0  0  0  # atno 17320 bound_to 7965
  145.2756  141.0122  143.3747 LP  0  0  0  0  0  0  0  0  0  0  0  0  # atno 17321 bound_to 7965
  139.8667  144.7089  150.9035 LP  0  0  0  0  0  0  0  0  0  0  0  0  # atno 17342 bound_to 10162
  140.7779  143.3772  151.1542 LP  0  0  0  0  0  0  0  0  0  0  0  0  # atno 17343 bound_to 10162
  155.9680  130.4510  150.5720 LP  0  0  0  0  0  0  0  0  0  0  0  0  # atno 17370 bound_to 10713
  157.3546  131.0739  151.1686 LP  0  0  0  0  0  0  0  0  0  0  0  0  # atno 17371 bound_to 10713
  140.0591  134.9764  157.1274 LP  0  0  0  0  0  0  0  0  0  0  0  0  # atno 17394 bound_to 11000
  140.3874  134.2221  155.7167 LP  0  0  0  0  0  0  0  0  0  0  0  0  # atno 17395 bound_to 11000

$$$$
