#       Name:                AV-unprocessed.smi:509
#       Creating user name   scv26
#       Creation time:       Thu Mar 26 23:22:45 2020


#       File generated by GOLD software.
#

@<TRIPOS>MOLECULE
AV-unprocessed.smi:509
    53    55     1
SMALL
NO_CHARGES


@<TRIPOS>ATOM
      1 ****        -2.6496   2.6069   0.7444 C.3            1 S1                 0.0000
      2 ****        -2.0117   1.3429   0.7417 O.3            1 S1                 0.0000
      3 ****        -2.4575   0.5077  -0.3143 C.3            1 S1                 0.0000
      4 ****        -1.7134  -0.8334  -0.2549 C.3            1 S1                 0.0000
      5 ****        -0.2666  -0.6595  -0.3767 N.pl3          1 S1                 0.0000
      6 ****         0.6660  -0.5231   0.6069 C.2            1 S1                 0.0000
      7 ****         0.3425  -0.5767   1.9631 N.pl3          1 S1                 0.0000
      8 ****        -0.3059  -1.6771   2.6731 C.3            1 S1                 0.0000
      9 ****        -1.4538  -1.1583   3.5615 C.3            1 S1                 0.0000
     10 ****        -0.9159  -0.2420   4.5611 N.3            1 S1                 0.0000
     11 ****        -0.2689   0.8707   3.8737 C.3            1 S1                 0.0000
     12 ****         0.8640   0.3420   2.9709 C.3            1 S1                 0.0000
     13 ****         1.9046  -0.2897   0.1663 N.2            1 S1                 0.0000
     14 ****         1.7571  -0.3066  -1.2113 C.2            1 S1                 0.0000
     15 ****         0.4669  -0.5214  -1.5587 C.2            1 S1                 0.0000
     16 ****         0.0182  -0.5543  -2.9574 C.2            1 S1                 0.0000
     17 ****        -1.1675  -0.7193  -3.2464 O.2            1 S1                 0.0000
     18 ****         1.0257  -0.3859  -3.8707 N.am           1 S1                 0.0000
     19 ****         0.6840  -0.4216  -5.3051 C.3            1 S1                 0.0000
     20 ****         2.3578  -0.1782  -3.5590 C.2            1 S1                 0.0000
     21 ****         3.2079  -0.0461  -4.4444 O.2            1 S1                 0.0000
     22 ****         2.7189  -0.1207  -2.2369 N.am           1 S1                 0.0000
     23 ****         4.1181   0.1110  -1.8668 C.3            1 S1                 0.0000
     24 ****        -2.2722   3.2045   1.5741 H              1 S1                 0.0000
     25 ****        -3.7286   2.5036   0.8663 H              1 S1                 0.0000
     26 ****        -2.4508   3.1504  -0.1801 H              1 S1                 0.0000
     27 ****        -3.5314   0.3376  -0.2270 H              1 S1                 0.0000
     28 ****        -2.2812   0.9939  -1.2749 H              1 S1                 0.0000
     29 ****        -1.9609  -1.3378   0.6730 H              1 S1                 0.0000
     30 ****        -2.0628  -1.5025  -1.0397 H              1 S1                 0.0000
     31 ****        -0.6689  -2.4240   1.9683 H              1 S1                 0.0000
     32 ****         0.4361  -2.1911   3.2859 H              1 S1                 0.0000
     33 ****        -2.2150  -0.6545   2.9642 H              1 S1                 0.0000
     34 ****        -1.9411  -1.9898   4.0706 H              1 S1                 0.0000
     35 ****        -1.6657   0.1074   5.1405 H              1 S1                 0.0000
     36 ****        -1.0042   1.4240   3.2882 H              1 S1                 0.0000
     37 ****         0.1334   1.5592   4.6168 H              1 S1                 0.0000
     38 ****         1.6292  -0.1593   3.5653 H              1 S1                 0.0000
     39 ****         1.3534   1.1816   2.4761 H              1 S1                 0.0000
     40 ****         1.2395  -1.2141  -5.8091 H              1 S1                 0.0000
     41 ****         0.9442   0.5251  -5.7812 H              1 S1                 0.0000
     42 ****        -0.3696  -0.5992  -5.5228 H              1 S1                 0.0000
     43 ****         4.7246  -0.7585  -2.1221 H              1 S1                 0.0000
     44 ****         4.2446   0.3000  -0.8011 H              1 S1                 0.0000
     45 ****         4.5243   0.9764  -2.3923 H              1 S1                 0.0000
     46 ****        -2.2005   0.8873   1.6116 LP             1 S1                 0.0000
     47 ****        -1.0261   1.4820   0.6454 LP             1 S1                 0.0000
     48 ****        -0.2534  -0.7186   5.1391 LP             1 S1                 0.0000
     49 ****         2.7365  -0.1393   0.7006 LP             1 S1                 0.0000
     50 ****        -1.8473  -0.8343  -2.5221 LP             1 S1                 0.0000
     51 ****        -1.4504  -0.7383  -4.2053 LP             1 S1                 0.0000
     52 ****         2.9386  -0.0885  -5.4065 LP             1 S1                 0.0000
     53 ****         4.1659   0.1033  -4.1995 LP             1 S1                 0.0000
@<TRIPOS>BOND
    1    1    2 1     
    2    1   24 1     
    3    1   25 1     
    4    1   26 1     
    5    2    3 1     
    6    3    4 1     
    7    3   27 1     
    8    3   28 1     
    9    4    5 1     
   10    4   29 1     
   11    4   30 1     
   12    5   15 1     
   13    5    6 1     
   14    6    7 1     
   15    6   13 2     
   16    7   12 1     
   17    7    8 1     
   18    8    9 1     
   19    8   31 1     
   20    8   32 1     
   21    9   10 1     
   22    9   33 1     
   23    9   34 1     
   24   10   11 1     
   25   10   35 1     
   26   11   12 1     
   27   11   36 1     
   28   11   37 1     
   29   12   38 1     
   30   12   39 1     
   31   13   14 1     
   32   14   22 1     
   33   14   15 2     
   34   15   16 1     
   35   16   17 2     
   36   16   18 am    
   37   18   19 1     
   38   18   20 am    
   39   19   40 1     
   40   19   41 1     
   41   19   42 1     
   42   20   21 2     
   43   20   22 am    
   44   22   23 1     
   45   23   43 1     
   46   23   44 1     
   47   23   45 1     
   48    2   46 1     
   49    2   47 1     
   50   10   48 1     
   51   13   49 1     
   52   17   50 1     
   53   17   51 1     
   54   21   52 1     
   55   21   53 1     
@<TRIPOS>SUBSTRUCTURE
      1 S1             1
@<TRIPOS>SET
LONE_PAIRS      STATIC     ATOMS    <user>   **** ""
8 46 47 48 49 50 51 52 53
DONOR_HYDROGENS      STATIC     ATOMS    <user>   **** ""
1 35
ATOM$BLUE        STATIC     ATOMS    COLORGROUP SYSTEM
8 46 47 48 49 50 51 52 53
ATOM$RED        STATIC     ATOMS    COLORGROUP SYSTEM
1 35
