AV-unprocessed.smi:3303|AV-procd|sdf|12676|dock8
  -GOLD-   2272019 13D 1   1.00000     0.00000
 Structure written by MMmdl.
 44 45  0  0  0  0  0  0  0  0  2 V2000
  151.3253  140.1805  157.6045 C   0  0  0  0  0  0  0  0  0  0  0  0
  150.2455  140.3688  156.5265 C   0  0  1  0  0  0  0  0  0  0  0  0
  148.8216  140.2428  157.1012 C   0  0  0  0  0  0  0  0  0  0  0  0
  147.8153  140.2944  156.0366 N   0  0  0  0  0  0  0  0  0  0  0  0
  146.5135  140.0750  156.6620 C   0  0  0  0  0  0  0  0  0  0  0  0
  147.8718  141.5801  155.3181 C   0  0  2  0  0  0  0  0  0  0  0  0
  146.8091  141.6649  154.2039 C   0  0  0  0  0  0  0  0  0  0  0  0
  149.2766  141.7722  154.6998 C   0  0  0  0  0  0  0  0  0  0  0  0
  150.4005  141.6855  155.7421 C   0  0  1  0  0  0  0  0  0  0  0  0
  150.3692  142.8683  156.6347 N   0  3  0  0  0  0  0  0  0  0  0  0
  151.6794  143.2664  157.1868 C   0  0  0  0  0  0  0  0  0  0  0  0
  151.5070  144.1286  158.4444 C   0  0  0  0  0  0  0  0  0  0  0  0
  152.1260  143.4847  159.6702 C   0  0  0  0  0  0  0  0  0  0  0  0
  152.8524  142.2796  159.5634 C   0  0  0  0  0  0  0  0  0  0  0  0
  153.4109  141.7276  160.7328 C   0  0  0  0  0  0  0  0  0  0  0  0
  153.2230  142.3988  161.9564 C   0  0  0  0  0  0  0  0  0  0  0  0
  152.4832  143.5983  161.9565 C   0  0  0  0  0  0  0  0  0  0  0  0
  151.9450  144.1370  160.8405 N   0  0  0  0  0  0  0  0  0  0  0  0
  151.2465  140.9299  158.3923 H   0  0  0  0  0  0  0  0  0  0  0  0
  152.3250  140.2508  157.1748 H   0  0  0  0  0  0  0  0  0  0  0  0
  151.2391  139.2007  158.0750 H   0  0  0  0  0  0  0  0  0  0  0  0
  150.3775  139.5515  155.8147 H   0  0  0  0  0  0  0  0  0  0  0  0
  148.7366  139.2899  157.6259 H   0  0  0  0  0  0  0  0  0  0  0  0
  148.6335  141.0262  157.8372 H   0  0  0  0  0  0  0  0  0  0  0  0
  145.7262  139.9631  155.9175 H   0  0  0  0  0  0  0  0  0  0  0  0
  146.2476  140.8989  157.3260 H   0  0  0  0  0  0  0  0  0  0  0  0
  146.5177  139.1552  157.2481 H   0  0  0  0  0  0  0  0  0  0  0  0
  147.6864  142.3867  156.0293 H   0  0  0  0  0  0  0  0  0  0  0  0
  146.9519  142.5607  153.5989 H   0  0  0  0  0  0  0  0  0  0  0  0
  145.7964  141.7218  154.6026 H   0  0  0  0  0  0  0  0  0  0  0  0
  146.8628  140.8054  153.5346 H   0  0  0  0  0  0  0  0  0  0  0  0
  149.4400  141.0085  153.9374 H   0  0  0  0  0  0  0  0  0  0  0  0
  149.3321  142.7298  154.1800 H   0  0  0  0  0  0  0  0  0  0  0  0
  151.3541  141.6644  155.2116 H   0  0  0  0  0  0  0  0  0  0  0  0
  149.9915  143.6479  156.1154 H   0  0  0  0  0  0  0  0  0  0  0  0
  152.2556  142.3718  157.4276 H   0  0  0  0  0  0  0  0  0  0  0  0
  152.2347  143.8164  156.4256 H   0  0  0  0  0  0  0  0  0  0  0  0
  151.9633  145.1080  158.2926 H   0  0  0  0  0  0  0  0  0  0  0  0
  150.4474  144.3092  158.6307 H   0  0  0  0  0  0  0  0  0  0  0  0
  152.9806  141.7873  158.6105 H   0  0  0  0  0  0  0  0  0  0  0  0
  153.9724  140.8058  160.6922 H   0  0  0  0  0  0  0  0  0  0  0  0
  153.6353  142.0041  162.8733 H   0  0  0  0  0  0  0  0  0  0  0  0
  152.3197  144.1394  162.8765 H   0  0  0  0  0  0  0  0  0  0  0  0
  149.7469  142.6649  157.4036 H   0  0  0  0  0  0  0  0  0  0  0  0
  1  2  1  0  0  0  0
  1 19  1  0  0  0  0
  1 20  1  0  0  0  0
  1 21  1  0  0  0  0
  2  9  1  0  0  0  0
  2  3  1  0  0  0  0
  2 22  1  0  0  0  0
  3  4  1  0  0  0  0
  3 23  1  0  0  0  0
  3 24  1  0  0  0  0
  4  5  1  0  0  0  0
  4  6  1  0  0  0  0
  5 25  1  0  0  0  0
  5 26  1  0  0  0  0
  5 27  1  0  0  0  0
  6  7  1  0  0  0  0
  6  8  1  0  0  0  0
  6 28  1  0  0  0  0
  7 29  1  0  0  0  0
  7 30  1  0  0  0  0
  7 31  1  0  0  0  0
  8  9  1  0  0  0  0
  8 32  1  0  0  0  0
  8 33  1  0  0  0  0
  9 10  1  0  0  0  0
  9 34  1  0  0  0  0
 10 11  1  0  0  0  0
 10 35  1  0  0  0  0
 10 44  1  0  0  0  0
 11 12  1  0  0  0  0
 11 36  1  0  0  0  0
 11 37  1  0  0  0  0
 12 13  1  0  0  0  0
 12 38  1  0  0  0  0
 12 39  1  0  0  0  0
 13 18  1  0  0  0  0
 13 14  2  0  0  0  0
 14 15  1  0  0  0  0
 14 40  1  0  0  0  0
 15 16  2  0  0  0  0
 15 41  1  0  0  0  0
 16 17  1  0  0  0  0
 16 42  1  0  0  0  0
 17 18  2  0  0  0  0
 17 43  1  0  0  0  0
M  CHG  1  10   1
M  END
> <s_m_source_file>
AV-unprocessed.smi

> <i_m_source_file_index>
3303

> <i_lp_mmshare_version>
43012

> <i_f3d_flags>
0

> <s_epik_input>
W0NIM11bQ0BASF0xW0NIMl1OKFtDSDNdKVtDQEBIXShbQ0gzXSlbQ0gyXVtDQEhdMVtOSF1bQ0gyXVtDSDJdYzJbY0hdW2NIXVtjSF1bY0hdbjI=

> <s_epik_cmdline>
J2VwaWtfcHl0aG9uJywgJy1waCcsICc3LjAnLCAnLXRuJywgJzgnLCAnLW1hJywgJzIwMCcsICctbWV0YWxfYmluZGluZycsICctaW1hZScsICc8aW5maWxlLm1hZT4nLCAnLW9tYWUnLCAnPG91dGZpbGUubWFlPic=

> <r_epik_Ionization_Penalty>
1.37325

> <r_epik_Ionization_Penalty_Charging>
0.000251572

> <r_epik_Ionization_Penalty_Neutral>
1.373

> <r_epik_State_Penalty>
1.46343

> <r_epik_Charging_Adjusted_Penalty>
1.46368

> <i_epik_Tot_Q>
1

> <i_epik_Tot_abs_Q>
1

> <r_epik_Metal_State_Penalty>
1.46331

> <b_epik_Metal_Only>
0

> <s_lp_Force_Field>
OPLS_2005

> <r_lp_Energy>
25.9316

> <b_lp_Chiralities_Consistent>
1

> <s_lp_Variant>
AV-unprocessed.smi:3303-20

> <Gold.Version>
5.8.1

> <Gold.Id.Protein>
6NUR|6NUR_protein|mol2

> <Gold.PLP.Fitness>
45.4838

> <Gold.PLP.PLP>
-41.1507

> <Gold.PLP.part.hbond>
-1.0000

> <Gold.PLP.part.metal>
0.0000

> <Gold.PLP.part.buried>
-4.8213

> <Gold.PLP.part.nonpolar>
-34.2756

> <Gold.PLP.part.repulsive>
0.1989

> <Gold.PLP.ligand.clash>
0.0000

> <Gold.PLP.ligand.torsion>
0.8382

> <Gold.PLP.Chemscore.Hbond>
2.0000

> <Gold.PLP.Chemscore.CHOScore>
0.0000

> <Gold.PLP.Chemscore.Metal>
0.0000

> <Gold.Chemscore.Hbonds>
donor molecule, donor type, donor heavy atom, donor atom, acceptor molecule, acceptor atom, score
      L1  H    10    35       P1  8028  2.00

> <Gold.PLP.Chemscore.Internal.Correction>
0.0095

> <Gold.Rescore>
     Score         DG    S(hbond)    S(metal)    S(lipo)     H(rot)  DE(clash)    DE(int)     intcor
     18.51     -19.42       0.97        0.00     120.51       1.33       0.05       0.87       ----

> <Gold.Chemscore.Fitness>
18.5095

> <Gold.Chemscore.DG>
-19.4219

> <Gold.Chemscore.ZeroCoef>
-5.4800

> <Gold.Chemscore.Hbond>
0.9720

> <Gold.Chemscore.Metal>
0.0000

> <Gold.Chemscore.Lipo>
120.5112

> <Gold.Chemscore.Internal_Hbond>
0.0000

> <Gold.Chemscore.DEClash>
0.0467

> <Gold.Chemscore.DEInternal>
0.8657

> <Gold.Chemscore.Rot>
1.3298

> <Gold.Chemscore.Internal.Correction>
   9.000000E+99

> <Gold.Chemscore.Hbonds>
donor molecule, donor type, donor heavy atom, donor atom, acceptor molecule, acceptor atom, score
      L1  H    10    35       P1  8028  0.98

> <Gold.Chemscore.Hbond.Weighted>
-3.2464

> <Gold.Chemscore.Metal.Weighted>
-0.0000

> <Gold.Chemscore.Lipo.Weighted>
-14.0998

> <Gold.Chemscore.Internal_Hbond.Weighted>
0.0000

> <Gold.Chemscore.DEClash.Weighted>
0.0467

> <Gold.Chemscore.DEInternal.Weighted>
0.8657

> <Gold.Chemscore.Rot.Weighted>
3.4043

> <Gold.Chemscore.Internal.Correction.Weighted>
   9.000000E+99

> <Gold.Protein.RotatedTorsions>
[ 6907 6896 6895 6894 ] final   66.86 input  -60.11 | X-H torsion
[ 7974 7965 7964 7962 ] final   67.10 input  175.53 | X-H torsion
[ 8008 7997 7996 7995 ] final  115.25 input   59.86 | X-H torsion
[ 10167 10162 10161 10158 ] final  170.70 input  -65.29 | X-H torsion
[ 10718 10713 10712 10709 ] final -105.54 input   66.30 | X-H torsion
[ 10763 10752 10751 10750 ] final  116.47 input  -60.55 | X-H torsion
[ 11005 11000 10999 10996 ] final -139.04 input  -57.11 | X-H torsion

> <Gold.Protein.ActiveResidues>
 VAL166  LYS551  ARG553  GLY616  TRP617  ASP618  TYR619  PRO620  LYS621  CYS622 
 ASP623  PHE694  ASN695  SER759  ASP760  ASP761  ALA762  ILE779  LEU786  VAL792 
 PHE793  MET794  SER795  GLU796  ALA797  LYS798  CYS799  TRP800  GLU811  SER814 

> <Gold.Protein.RotatedAtoms>
  152.4511  134.5391  159.9833 H   0  0  0  0  0  0  0  0  0  0  0  0  # atno 6907 bound_to 6896
  151.5463  133.3419  159.2952 H   0  0  0  0  0  0  0  0  0  0  0  0  # atno 6908 bound_to 6896
  150.8441  134.7775  159.7019 H   0  0  0  0  0  0  0  0  0  0  0  0  # atno 6909 bound_to 6896
  145.8187  139.3072  143.1056 H   0  0  0  0  0  0  0  0  0  0  0  0  # atno 7974 bound_to 7965
  156.2370  140.2942  156.0340 H   0  0  0  0  0  0  0  0  0  0  0  0  # atno 8008 bound_to 7997
  155.2062  140.0411  157.2943 H   0  0  0  0  0  0  0  0  0  0  0  0  # atno 8009 bound_to 7997
  154.6097  140.2448  155.7692 H   0  0  0  0  0  0  0  0  0  0  0  0  # atno 8010 bound_to 7997
  139.5026  144.3567  151.9867 H   0  0  0  0  0  0  0  0  0  0  0  0  # atno 10167 bound_to 10162
  156.0350  130.5569  150.7554 H   0  0  0  0  0  0  0  0  0  0  0  0  # atno 10718 bound_to 10713
  153.5377  135.3565  155.2704 H   0  0  0  0  0  0  0  0  0  0  0  0  # atno 10763 bound_to 10752
  154.8720  135.4083  154.3079 H   0  0  0  0  0  0  0  0  0  0  0  0  # atno 10764 bound_to 10752
  153.3780  135.7067  153.6655 H   0  0  0  0  0  0  0  0  0  0  0  0  # atno 10765 bound_to 10752
  140.8558  134.2230  157.4735 H   0  0  0  0  0  0  0  0  0  0  0  0  # atno 11005 bound_to 11000
  145.9698  140.8769  143.0168 LP  0  0  0  0  0  0  0  0  0  0  0  0  # atno 17320 bound_to 7965
  144.6750  140.1930  143.7395 LP  0  0  0  0  0  0  0  0  0  0  0  0  # atno 17321 bound_to 7965
  140.3004  144.3653  150.6062 LP  0  0  0  0  0  0  0  0  0  0  0  0  # atno 17342 bound_to 10162
  140.5878  143.2169  151.7310 LP  0  0  0  0  0  0  0  0  0  0  0  0  # atno 17343 bound_to 10162
  157.5087  131.0924  151.0225 LP  0  0  0  0  0  0  0  0  0  0  0  0  # atno 17370 bound_to 10713
  157.0586  130.5816  149.5382 LP  0  0  0  0  0  0  0  0  0  0  0  0  # atno 17371 bound_to 10713
  139.8705  134.9705  156.4705 LP  0  0  0  0  0  0  0  0  0  0  0  0  # atno 17394 bound_to 11000
  140.8739  133.7968  155.9394 LP  0  0  0  0  0  0  0  0  0  0  0  0  # atno 17395 bound_to 11000

$$$$
