AV-unprocessed.smi:2254|AV-procd|sdf|9124|dock2
  -GOLD-   2272012323D 1   1.00000     0.00000
 Structure written by MMmdl.
 41 42  0  0  0  0  0  0  0  0  1 V2000
  151.9011  144.2425  160.0400 C   0  0  0  0  0  0  0  0  0  0  0  0
  151.7255  143.2075  158.9428 C   0  0  0  0  0  0  0  0  0  0  0  0
  150.8533  143.5640  157.9102 N   0  0  0  0  0  0  0  0  0  0  0  0
  150.6369  142.7417  156.9363 C   0  0  0  0  0  0  0  0  0  0  0  0
  151.2579  141.4824  156.8814 N   0  0  0  0  0  0  0  0  0  0  0  0
  150.9244  140.6370  155.7226 C   0  0  0  0  0  0  0  0  0  0  0  0
  149.6452  141.1161  154.9991 C   0  0  1  0  0  0  0  0  0  0  0  0
  149.7753  140.9613  153.6003 O   0  0  0  0  0  0  0  0  0  0  0  0
  148.3866  140.3446  155.4320 C   0  0  0  0  0  0  0  0  0  0  0  0
  147.2880  141.2360  155.5421 O   0  0  0  0  0  0  0  0  0  0  0  0
  146.9884  141.9045  154.3285 C   0  0  0  0  0  0  0  0  0  0  0  0
  145.9020  142.9453  154.5173 C   0  0  0  0  0  0  0  0  0  0  0  0
  145.2781  143.1017  155.7732 C   0  0  0  0  0  0  0  0  0  0  0  0
  144.2611  144.0613  155.9440 C   0  0  0  0  0  0  0  0  0  0  0  0
  143.8592  144.8639  154.8583 C   0  0  0  0  0  0  0  0  0  0  0  0
  142.6140  146.0395  155.0683 Cl  0  0  0  0  0  0  0  0  0  0  0  0
  144.4729  144.7039  153.6006 C   0  0  0  0  0  0  0  0  0  0  0  0
  145.4900  143.7445  153.4296 C   0  0  0  0  0  0  0  0  0  0  0  0
  152.1351  141.0630  157.8381 C   0  0  0  0  0  0  0  0  0  0  0  0
  152.6925  139.9661  157.7697 O   0  0  0  0  0  0  0  0  0  0  0  0
  152.3651  142.0061  158.9446 C   0  0  0  0  0  0  0  0  0  0  0  0
  153.3246  141.5632  160.0422 C   0  0  0  0  0  0  0  0  0  0  0  0
  152.9470  144.5399  160.1215 H   0  0  0  0  0  0  0  0  0  0  0  0
  151.5762  143.8402  160.9998 H   0  0  0  0  0  0  0  0  0  0  0  0
  151.3144  145.1395  159.8378 H   0  0  0  0  0  0  0  0  0  0  0  0
  149.9702  142.9737  156.1039 H   0  0  0  0  0  0  0  0  0  0  0  0
  151.7596  140.5670  155.0227 H   0  0  0  0  0  0  0  0  0  0  0  0
  150.7789  139.6095  156.0630 H   0  0  0  0  0  0  0  0  0  0  0  0
  149.4746  142.1753  155.1966 H   0  0  0  0  0  0  0  0  0  0  0  0
  149.2961  140.1904  153.3361 H   0  0  0  0  0  0  0  0  0  0  0  0
  148.1526  139.5918  154.6777 H   0  0  0  0  0  0  0  0  0  0  0  0
  148.5572  139.8148  156.3710 H   0  0  0  0  0  0  0  0  0  0  0  0
  147.8798  142.4046  153.9468 H   0  0  0  0  0  0  0  0  0  0  0  0
  146.6747  141.1771  153.5780 H   0  0  0  0  0  0  0  0  0  0  0  0
  145.5788  142.4892  156.6104 H   0  0  0  0  0  0  0  0  0  0  0  0
  143.7900  144.1802  156.9087 H   0  0  0  0  0  0  0  0  0  0  0  0
  144.1641  145.3155  152.7655 H   0  0  0  0  0  0  0  0  0  0  0  0
  145.9542  143.6254  152.4614 H   0  0  0  0  0  0  0  0  0  0  0  0
  152.9716  140.6384  160.4998 H   0  0  0  0  0  0  0  0  0  0  0  0
  153.4374  142.2985  160.8372 H   0  0  0  0  0  0  0  0  0  0  0  0
  154.3142  141.3771  159.6235 H   0  0  0  0  0  0  0  0  0  0  0  0
  1  2  1  0  0  0  0
  1 23  1  0  0  0  0
  1 24  1  0  0  0  0
  1 25  1  0  0  0  0
  2 21  2  0  0  0  0
  2  3  1  0  0  0  0
  3  4  2  0  0  0  0
  4  5  1  0  0  0  0
  4 26  1  0  0  0  0
  5  6  1  0  0  0  0
  5 19  1  0  0  0  0
  6  7  1  0  0  0  0
  6 27  1  0  0  0  0
  6 28  1  0  0  0  0
  7  8  1  0  0  0  0
  7  9  1  0  0  0  0
  7 29  1  0  0  0  0
  8 30  1  0  0  0  0
  9 10  1  0  0  0  0
  9 31  1  0  0  0  0
  9 32  1  0  0  0  0
 10 11  1  0  0  0  0
 11 12  1  0  0  0  0
 11 33  1  0  0  0  0
 11 34  1  0  0  0  0
 12 18  1  0  0  0  0
 12 13  2  0  0  0  0
 13 14  1  0  0  0  0
 13 35  1  0  0  0  0
 14 15  2  0  0  0  0
 14 36  1  0  0  0  0
 15 16  1  0  0  0  0
 15 17  1  0  0  0  0
 17 18  2  0  0  0  0
 17 37  1  0  0  0  0
 18 38  1  0  0  0  0
 19 20  2  0  0  0  0
 19 21  1  0  0  0  0
 21 22  1  0  0  0  0
 22 39  1  0  0  0  0
 22 40  1  0  0  0  0
 22 41  1  0  0  0  0
M  END
> <s_m_source_file>
AV-unprocessed.smi

> <i_m_source_file_index>
2254

> <i_lp_mmshare_version>
43012

> <i_f3d_flags>
0

> <s_epik_input>
W0NIM11jMW5bY0hdbihjKD1PKWMxW0NIM10pW0NIMl1bQ0BIXShbT0hdKVtDSDJdT1tDSDJdYzJbY0hdW2NIXWMoQ2wpW2NIXVtjSF0y

> <s_epik_cmdline>
J2VwaWtfcHl0aG9uJywgJy1waCcsICc3LjAnLCAnLXRuJywgJzgnLCAnLW1hJywgJzIwMCcsICctbWV0YWxfYmluZGluZycsICctaW1hZScsICc8aW5maWxlLm1hZT4nLCAnLW9tYWUnLCAnPG91dGZpbGUubWFlPic=

> <r_lp_tautomer_probability>
1

> <r_epik_Ionization_Penalty>
5.36e-05

> <r_epik_Ionization_Penalty_Charging>
1.17753e-07

> <r_epik_Ionization_Penalty_Neutral>
5.34822e-05

> <r_epik_State_Penalty>
-0

> <r_epik_Charging_Adjusted_Penalty>
1.17753e-07

> <i_epik_Tot_Q>
0

> <i_epik_Tot_abs_Q>
0

> <r_epik_Metal_State_Penalty>
-0

> <b_epik_Metal_Only>
0

> <s_lp_Force_Field>
OPLS_2005

> <r_lp_Energy>
22.8907

> <b_lp_Chiralities_Consistent>
1

> <s_lp_Variant>
AV-unprocessed.smi:2254-2

> <Gold.Version>
5.8.1

> <Gold.Id.Protein>
6NUR|6NUR_protein|mol2

> <Gold.PLP.Fitness>
56.2635

> <Gold.PLP.PLP>
-49.6959

> <Gold.PLP.part.hbond>
-3.7564

> <Gold.PLP.part.metal>
0.0000

> <Gold.PLP.part.buried>
-3.5487

> <Gold.PLP.part.nonpolar>
-41.5558

> <Gold.PLP.part.repulsive>
0.2802

> <Gold.PLP.ligand.clash>
1.2115

> <Gold.PLP.ligand.torsion>
1.2805

> <Gold.PLP.Chemscore.Hbond>
2.3648

> <Gold.PLP.Chemscore.CHOScore>
0.9471

> <Gold.PLP.Chemscore.Metal>
0.0000

> <Gold.Chemscore.Hbonds>
donor molecule, donor type, donor heavy atom, donor atom, acceptor molecule, acceptor atom, score
      L1  H     8    30       P1  7957  0.05
      P1  H  7989  7998       L1     8  0.32
      P1  H  7997  8009       L1    20  1.00
      P1  H  8011  8017       L1     8  1.00
      L1  C     4    26       P1  8028  1.00

> <Gold.PLP.Chemscore.Internal.Correction>
0.4044

> <Gold.Rescore>
     Score         DG    S(hbond)    S(metal)    S(lipo)     H(rot)  DE(clash)    DE(int)     intcor
     16.96     -18.66       1.97        0.00     111.49       2.52       0.56       1.14       ----

> <Gold.Chemscore.Fitness>
16.9600

> <Gold.Chemscore.DG>
-18.6596

> <Gold.Chemscore.ZeroCoef>
-5.4800

> <Gold.Chemscore.Hbond>
1.9691

> <Gold.Chemscore.Metal>
0.0000

> <Gold.Chemscore.Lipo>
111.4887

> <Gold.Chemscore.Internal_Hbond>
0.0000

> <Gold.Chemscore.DEClash>
0.5610

> <Gold.Chemscore.DEInternal>
1.1386

> <Gold.Chemscore.Rot>
2.5162

> <Gold.Chemscore.Internal.Correction>
   9.000000E+99

> <Gold.Chemscore.Hbonds>
donor molecule, donor type, donor heavy atom, donor atom, acceptor molecule, acceptor atom, score
      L1  H     8    30       P1  7957  0.07
      P1  H  7989  7998       L1     8  0.08
      P1  H  7997  8009       L1    20  0.79
      P1  H  8011  8017       L1     8  0.87

> <Gold.Chemscore.Hbond.Weighted>
-6.5768

> <Gold.Chemscore.Metal.Weighted>
-0.0000

> <Gold.Chemscore.Lipo.Weighted>
-13.0442

> <Gold.Chemscore.Internal_Hbond.Weighted>
0.0000

> <Gold.Chemscore.DEClash.Weighted>
0.5610

> <Gold.Chemscore.DEInternal.Weighted>
1.1386

> <Gold.Chemscore.Rot.Weighted>
6.4414

> <Gold.Chemscore.Internal.Correction.Weighted>
   9.000000E+99

> <Gold.Protein.RotatedTorsions>
[ 6907 6896 6895 6894 ] final  123.39 input  -60.11 | X-H torsion
[ 7974 7965 7964 7962 ] final  -21.50 input  175.53 | X-H torsion
[ 8008 7997 7996 7995 ] final  171.00 input   59.86 | X-H torsion
[ 10167 10162 10161 10158 ] final  136.94 input  -65.29 | X-H torsion
[ 10718 10713 10712 10709 ] final  -53.63 input   66.30 | X-H torsion
[ 10763 10752 10751 10750 ] final  156.77 input  -60.55 | X-H torsion
[ 11005 11000 10999 10996 ] final   19.58 input  -57.11 | X-H torsion

> <Gold.Protein.ActiveResidues>
 VAL166  LYS551  ARG553  GLY616  TRP617  ASP618  TYR619  PRO620  LYS621  CYS622 
 ASP623  PHE694  ASN695  SER759  ASP760  ASP761  ALA762  ILE779  LEU786  VAL792 
 PHE793  MET794  SER795  GLU796  ALA797  LYS798  CYS799  TRP800  GLU811  SER814 

> <Gold.Protein.RotatedAtoms>
  152.4165  133.7047  159.6443 H   0  0  0  0  0  0  0  0  0  0  0  0  # atno 6907 bound_to 6896
  150.8042  133.8530  159.3219 H   0  0  0  0  0  0  0  0  0  0  0  0  # atno 6908 bound_to 6896
  151.6259  135.1029  160.0163 H   0  0  0  0  0  0  0  0  0  0  0  0  # atno 6909 bound_to 6896
  146.1729  140.4349  142.8525 H   0  0  0  0  0  0  0  0  0  0  0  0  # atno 7974 bound_to 7965
  156.1313  140.1523  156.9062 H   0  0  0  0  0  0  0  0  0  0  0  0  # atno 8008 bound_to 7997
  154.4911  140.0851  156.7636 H   0  0  0  0  0  0  0  0  0  0  0  0  # atno 8009 bound_to 7997
  155.4251  140.3425  155.4277 H   0  0  0  0  0  0  0  0  0  0  0  0  # atno 8010 bound_to 7997
  139.5162  144.6437  151.5499 H   0  0  0  0  0  0  0  0  0  0  0  0  # atno 10167 bound_to 10162
  156.1518  130.4151  149.9932 H   0  0  0  0  0  0  0  0  0  0  0  0  # atno 10718 bound_to 10713
  154.1897  135.2795  155.3026 H   0  0  0  0  0  0  0  0  0  0  0  0  # atno 10763 bound_to 10752
  154.5939  135.5551  153.7309 H   0  0  0  0  0  0  0  0  0  0  0  0  # atno 10764 bound_to 10752
  153.0116  135.6375  154.2035 H   0  0  0  0  0  0  0  0  0  0  0  0  # atno 10765 bound_to 10752
  140.4122  134.1607  155.7668 H   0  0  0  0  0  0  0  0  0  0  0  0  # atno 11005 bound_to 11000
  144.8191  140.6520  143.6364 LP  0  0  0  0  0  0  0  0  0  0  0  0  # atno 17320 bound_to 7965
  145.4290  139.1552  143.4033 LP  0  0  0  0  0  0  0  0  0  0  0  0  # atno 17321 bound_to 7965
  140.6213  143.9252  150.6529 LP  0  0  0  0  0  0  0  0  0  0  0  0  # atno 17342 bound_to 10162
  140.2527  143.3582  152.1392 LP  0  0  0  0  0  0  0  0  0  0  0  0  # atno 17343 bound_to 10162
  156.7787  130.9213  151.3645 LP  0  0  0  0  0  0  0  0  0  0  0  0  # atno 17370 bound_to 10713
  157.6663  130.9011  149.9940 LP  0  0  0  0  0  0  0  0  0  0  0  0  # atno 17371 bound_to 10713
  141.1817  133.8400  157.1235 LP  0  0  0  0  0  0  0  0  0  0  0  0  # atno 17394 bound_to 11000
  140.0259  134.9924  157.0686 LP  0  0  0  0  0  0  0  0  0  0  0  0  # atno 17395 bound_to 11000

$$$$
