AV-unprocessed.smi:1449|AV-procd|sdf|5895|dock6
  -GOLD-   22720 5583D 1   1.00000     0.00000
 Structure written by MMmdl.
 34 35  0  0  0  0  0  0  0  0  1 V2000
  146.5284  128.2582  152.7091 C   0  0  0  0  0  0  0  0  0  0  0  0
  147.4655  128.6689  153.6983 O   0  0  0  0  0  0  0  0  0  0  0  0
  147.9062  129.9763  153.6812 C   0  0  0  0  0  0  0  0  0  0  0  0
  147.1915  130.9184  152.9156 C   0  0  0  0  0  0  0  0  0  0  0  0
  147.6328  132.2554  152.8934 C   0  0  0  0  0  0  0  0  0  0  0  0
  148.7863  132.6073  153.6345 C   0  0  0  0  0  0  0  0  0  0  0  0
  149.3239  133.9206  153.7116 N   0  0  0  0  0  0  0  0  0  0  0  0
  149.9948  134.5040  154.7245 C   0  0  0  0  0  0  0  0  0  0  0  0
  150.2194  133.9784  155.8123 O   0  0  0  0  0  0  0  0  0  0  0  0
  150.3933  135.7632  154.4692 N   0  0  0  0  0  0  0  0  0  0  0  0
  151.1359  136.6756  155.3400 C   0  0  2  0  0  0  0  0  0  0  0  0
  150.1772  137.6016  156.1117 C   0  0  0  0  0  0  0  0  0  0  0  0
  150.9862  138.7546  156.7186 C   0  0  0  0  0  0  0  0  0  0  0  0
  152.3902  139.0465  155.5769 S   0  0  0  0  0  0  0  0  0  0  0  0
  152.1323  140.2513  154.7740 O   0  0  0  0  0  0  0  0  0  0  0  0
  153.6489  138.8865  156.3206 O   0  0  0  0  0  0  0  0  0  0  0  0
  152.1036  137.5631  154.5406 C   0  0  0  0  0  0  0  0  0  0  0  0
  149.4230  131.5915  154.3771 C   0  0  0  0  0  0  0  0  0  0  0  0
  149.0049  130.3085  154.4032 N   0  0  0  0  0  0  0  0  0  0  0  0
  146.2843  127.2067  152.8592 H   0  0  0  0  0  0  0  0  0  0  0  0
  146.9376  128.3619  151.7031 H   0  0  0  0  0  0  0  0  0  0  0  0
  145.5998  128.8264  152.7792 H   0  0  0  0  0  0  0  0  0  0  0  0
  146.3153  130.6222  152.3579 H   0  0  0  0  0  0  0  0  0  0  0  0
  147.0708  132.9774  152.3225 H   0  0  0  0  0  0  0  0  0  0  0  0
  149.1427  134.5064  152.9097 H   0  0  0  0  0  0  0  0  0  0  0  0
  150.1279  136.1390  153.5701 H   0  0  0  0  0  0  0  0  0  0  0  0
  151.7047  136.1093  156.0797 H   0  0  0  0  0  0  0  0  0  0  0  0
  149.4458  138.0193  155.4181 H   0  0  0  0  0  0  0  0  0  0  0  0
  149.6173  137.0610  156.8755 H   0  0  0  0  0  0  0  0  0  0  0  0
  150.4016  139.6667  156.8398 H   0  0  0  0  0  0  0  0  0  0  0  0
  151.3955  138.4719  157.6888 H   0  0  0  0  0  0  0  0  0  0  0  0
  153.0518  137.0745  154.3153 H   0  0  0  0  0  0  0  0  0  0  0  0
  151.6527  137.8951  153.6047 H   0  0  0  0  0  0  0  0  0  0  0  0
  150.2991  131.8133  154.9691 H   0  0  0  0  0  0  0  0  0  0  0  0
  1  2  1  0  0  0  0
  1 20  1  0  0  0  0
  1 21  1  0  0  0  0
  1 22  1  0  0  0  0
  2  3  1  0  0  0  0
  3 19  1  0  0  0  0
  3  4  2  0  0  0  0
  4  5  1  0  0  0  0
  4 23  1  0  0  0  0
  5  6  2  0  0  0  0
  5 24  1  0  0  0  0
  6  7  1  0  0  0  0
  6 18  1  0  0  0  0
  7  8  1  0  0  0  0
  7 25  1  0  0  0  0
  8  9  2  0  0  0  0
  8 10  1  0  0  0  0
 10 11  1  0  0  0  0
 10 26  1  0  0  0  0
 11 17  1  0  0  0  0
 11 12  1  0  0  0  0
 11 27  1  0  0  0  0
 12 13  1  0  0  0  0
 12 28  1  0  0  0  0
 12 29  1  0  0  0  0
 13 14  1  0  0  0  0
 13 30  1  0  0  0  0
 13 31  1  0  0  0  0
 14 15  2  0  0  0  0
 14 16  2  0  0  0  0
 14 17  1  0  0  0  0
 17 32  1  0  0  0  0
 17 33  1  0  0  0  0
 18 19  2  0  0  0  0
 18 34  1  0  0  0  0
M  END
> <s_m_source_file>
AV-unprocessed.smi

> <i_m_source_file_index>
1449

> <i_lp_mmshare_version>
43012

> <i_f3d_flags>
0

> <s_epik_input>
W0NIM11PYzFbY0hdW2NIXWMoW2NIXW4xKVtOSF1DKD1PKVtOSF1bQ0BASF0oW0NIMl0yKVtDSDJdW0NIMl1TMig9Tyk9Tw==

> <s_epik_cmdline>
J2VwaWtfcHl0aG9uJywgJy1waCcsICc3LjAnLCAnLXRuJywgJzgnLCAnLW1hJywgJzIwMCcsICctbWV0YWxfYmluZGluZycsICctaW1hZScsICc8aW5maWxlLm1hZT4nLCAnLW9tYWUnLCAnPG91dGZpbGUubWFlPic=

> <r_lp_tautomer_probability>
1

> <r_epik_Ionization_Penalty>
7.6506e-05

> <r_epik_Ionization_Penalty_Charging>
0

> <r_epik_Ionization_Penalty_Neutral>
7.6506e-05

> <r_epik_State_Penalty>
-0

> <r_epik_Charging_Adjusted_Penalty>
0

> <i_epik_Tot_Q>
0

> <i_epik_Tot_abs_Q>
0

> <r_epik_Metal_State_Penalty>
-0

> <b_epik_Metal_Only>
0

> <s_lp_Force_Field>
OPLS_2005

> <r_lp_Energy>
18.5668

> <b_lp_Chiralities_Consistent>
1

> <s_lp_Variant>
AV-unprocessed.smi:1449-1

> <Gold.Version>
5.8.1

> <Gold.Id.Protein>
6NUR|6NUR_protein|mol2

> <Gold.PLP.Fitness>
39.3060

> <Gold.PLP.PLP>
-29.0816

> <Gold.PLP.part.hbond>
-4.0918

> <Gold.PLP.part.metal>
0.0000

> <Gold.PLP.part.buried>
-4.2439

> <Gold.PLP.part.nonpolar>
-21.1485

> <Gold.PLP.part.repulsive>
0.2872

> <Gold.PLP.ligand.clash>
0.0225

> <Gold.PLP.ligand.torsion>
0.7214

> <Gold.PLP.Chemscore.Hbond>
3.8960

> <Gold.PLP.Chemscore.CHOScore>
0.0000

> <Gold.PLP.Chemscore.Metal>
0.0000

> <Gold.Chemscore.Hbonds>
donor molecule, donor type, donor heavy atom, donor atom, acceptor molecule, acceptor atom, score
      L1  H     7    25       P1  7948  0.25
      L1  H    10    26       P1  7948  0.50
      P1  H  7989  7998       L1    15  0.60
      P1  H  7997  8008       L1    16  0.57

> <Gold.PLP.Chemscore.Internal.Correction>
0.0017

> <Gold.Rescore>
     Score         DG    S(hbond)    S(metal)    S(lipo)     H(rot)  DE(clash)    DE(int)     intcor
     16.50     -18.45       3.13        0.00      50.03       1.31       0.07       1.87       ----

> <Gold.Chemscore.Fitness>
16.5046

> <Gold.Chemscore.DG>
-18.4450

> <Gold.Chemscore.ZeroCoef>
-5.4800

> <Gold.Chemscore.Hbond>
3.1338

> <Gold.Chemscore.Metal>
0.0000

> <Gold.Chemscore.Lipo>
50.0348

> <Gold.Chemscore.Internal_Hbond>
0.0000

> <Gold.Chemscore.DEClash>
0.0666

> <Gold.Chemscore.DEInternal>
1.8739

> <Gold.Chemscore.Rot>
1.3109

> <Gold.Chemscore.Internal.Correction>
   9.000000E+99

> <Gold.Chemscore.Hbonds>
donor molecule, donor type, donor heavy atom, donor atom, acceptor molecule, acceptor atom, score
      L1  H    10    26       P1  7948  0.02
      P1  H  7989  7998       L1    15  0.58
      P1  H  7997  8008       L1    16  0.34

> <Gold.Chemscore.Hbond.Weighted>
-10.4669

> <Gold.Chemscore.Metal.Weighted>
-0.0000

> <Gold.Chemscore.Lipo.Weighted>
-5.8541

> <Gold.Chemscore.Internal_Hbond.Weighted>
0.0000

> <Gold.Chemscore.DEClash.Weighted>
0.0666

> <Gold.Chemscore.DEInternal.Weighted>
1.8739

> <Gold.Chemscore.Rot.Weighted>
3.3559

> <Gold.Chemscore.Internal.Correction.Weighted>
   9.000000E+99

> <Gold.Protein.RotatedTorsions>
[ 6907 6896 6895 6894 ] final  109.69 input  -60.11 | X-H torsion
[ 7974 7965 7964 7962 ] final   32.34 input  175.53 | X-H torsion
[ 8008 7997 7996 7995 ] final  -31.03 input   59.86 | X-H torsion
[ 10167 10162 10161 10158 ] final -104.24 input  -65.29 | X-H torsion
[ 10718 10713 10712 10709 ] final -135.06 input   66.30 | X-H torsion
[ 10763 10752 10751 10750 ] final   37.15 input  -60.55 | X-H torsion
[ 11005 11000 10999 10996 ] final   33.46 input  -57.11 | X-H torsion

> <Gold.Protein.ActiveResidues>
 VAL166  LYS551  ARG553  GLY616  TRP617  ASP618  TYR619  PRO620  LYS621  CYS622 
 ASP623  PHE694  ASN695  SER759  ASP760  ASP761  ALA762  ILE779  LEU786  VAL792 
 PHE793  MET794  SER795  GLU796  ALA797  LYS798  CYS799  TRP800  GLU811  SER814 

> <Gold.Protein.RotatedAtoms>
  152.5055  133.8908  159.7392 H   0  0  0  0  0  0  0  0  0  0  0  0  # atno 6907 bound_to 6896
  150.9347  133.6716  159.2810 H   0  0  0  0  0  0  0  0  0  0  0  0  # atno 6908 bound_to 6896
  151.4049  135.0981  159.9620 H   0  0  0  0  0  0  0  0  0  0  0  0  # atno 6909 bound_to 6896
  146.1493  139.6539  142.9110 H   0  0  0  0  0  0  0  0  0  0  0  0  # atno 7974 bound_to 7965
  154.4228  140.1775  156.1502 H   0  0  0  0  0  0  0  0  0  0  0  0  # atno 8008 bound_to 7997
  155.9921  140.3368  155.6739 H   0  0  0  0  0  0  0  0  0  0  0  0  # atno 8009 bound_to 7997
  155.6358  140.0674  157.2625 H   0  0  0  0  0  0  0  0  0  0  0  0  # atno 8010 bound_to 7997
  140.2113  143.3744  152.1048 H   0  0  0  0  0  0  0  0  0  0  0  0  # atno 10167 bound_to 10162
  156.2621  130.7216  151.1153 H   0  0  0  0  0  0  0  0  0  0  0  0  # atno 10718 bound_to 10713
  153.0048  135.6286  154.2099 H   0  0  0  0  0  0  0  0  0  0  0  0  # atno 10763 bound_to 10752
  154.1843  135.2812  155.3044 H   0  0  0  0  0  0  0  0  0  0  0  0  # atno 10764 bound_to 10752
  154.5810  135.5647  153.7245 H   0  0  0  0  0  0  0  0  0  0  0  0  # atno 10765 bound_to 10752
  140.2629  134.3172  155.7852 H   0  0  0  0  0  0  0  0  0  0  0  0  # atno 11005 bound_to 11000
  145.4862  141.0438  143.2618 LP  0  0  0  0  0  0  0  0  0  0  0  0  # atno 17320 bound_to 7965
  144.7884  139.6379  143.7124 LP  0  0  0  0  0  0  0  0  0  0  0  0  # atno 17321 bound_to 7965
  139.5179  144.6998  151.5527 LP  0  0  0  0  0  0  0  0  0  0  0  0  # atno 17342 bound_to 10162
  140.6321  143.9056  150.6615 LP  0  0  0  0  0  0  0  0  0  0  0  0  # atno 17343 bound_to 10162
  157.7254  131.0653  150.5954 LP  0  0  0  0  0  0  0  0  0  0  0  0  # atno 17370 bound_to 10713
  156.6042  130.4362  149.5885 LP  0  0  0  0  0  0  0  0  0  0  0  0  # atno 17371 bound_to 10713
  141.2188  133.7420  156.9214 LP  0  0  0  0  0  0  0  0  0  0  0  0  # atno 17394 bound_to 11000
  140.1447  134.9270  157.2514 LP  0  0  0  0  0  0  0  0  0  0  0  0  # atno 17395 bound_to 11000

$$$$
