AV-unprocessed.smi:356|AV-procd|sdf|2415|dock10
  -GOLD-   2262022353D 1   1.00000     0.00000
 Structure written by MMmdl.
 43 45  0  0  0  0  0  0  0  0  3 V2000
  150.0381  141.3389  154.9804 C   0  0  0  0  0  0  0  0  0  0  0  0
  150.7217  141.8753  156.1930 C   0  0  0  0  0  0  0  0  0  0  0  0
  150.8656  143.1913  156.5155 N   0  3  0  0  0  0  0  0  0  0  0  0
  151.5566  143.3090  157.7221 C   0  0  0  0  0  0  0  0  0  0  0  0
  151.9385  144.4346  158.4457 C   0  0  0  0  0  0  0  0  0  0  0  0
  152.6415  144.2065  159.6467 C   0  0  0  0  0  0  0  0  0  0  0  0
  152.9375  142.9001  160.0865 C   0  0  0  0  0  0  0  0  0  0  0  0
  152.5431  141.7664  159.3457 C   0  0  0  0  0  0  0  0  0  0  0  0
  151.8491  141.9997  158.1579 C   0  0  0  0  0  0  0  0  0  0  0  0
  151.3162  141.1476  157.1815 N   0  0  0  0  0  0  0  0  0  0  0  0
  151.4514  139.6887  157.3256 C   0  0  0  0  0  0  0  0  0  0  0  0
  151.8614  138.9939  156.0114 C   0  0  1  0  0  0  0  0  0  0  0  0
  153.0827  139.5373  155.5483 O   0  0  0  0  0  0  0  0  0  0  0  0
  152.0333  137.4728  156.1950 C   0  0  0  0  0  0  0  0  0  0  0  0
  150.7479  136.7829  156.4758 N   0  3  0  0  0  0  0  0  0  0  0  0
  150.7981  135.3359  156.1587 C   0  0  0  0  0  0  0  0  0  0  0  0
  149.4266  134.6837  156.4026 C   0  0  0  0  0  0  0  0  0  0  0  0
  149.0271  134.9025  157.7498 O   0  0  0  0  0  0  0  0  0  0  0  0
  148.8915  136.2866  158.0466 C   0  0  0  0  0  0  0  0  0  0  0  0
  150.2458  136.9915  157.8567 C   0  0  0  0  0  0  0  0  0  0  0  0
  149.6953  142.1532  154.3416 H   0  0  0  0  0  0  0  0  0  0  0  0
  149.1755  140.7388  155.2704 H   0  0  0  0  0  0  0  0  0  0  0  0
  150.7217  140.7133  154.4066 H   0  0  0  0  0  0  0  0  0  0  0  0
  151.7123  145.4364  158.1103 H   0  0  0  0  0  0  0  0  0  0  0  0
  152.9602  145.0503  160.2417 H   0  0  0  0  0  0  0  0  0  0  0  0
  153.4794  142.7648  161.0116 H   0  0  0  0  0  0  0  0  0  0  0  0
  152.7788  140.7726  159.6947 H   0  0  0  0  0  0  0  0  0  0  0  0
  152.1533  139.4668  158.1297 H   0  0  0  0  0  0  0  0  0  0  0  0
  150.4842  139.3096  157.6577 H   0  0  0  0  0  0  0  0  0  0  0  0
  151.0972  139.1981  155.2624 H   0  0  0  0  0  0  0  0  0  0  0  0
  153.4128  138.9912  154.8511 H   0  0  0  0  0  0  0  0  0  0  0  0
  152.4791  137.0637  155.2867 H   0  0  0  0  0  0  0  0  0  0  0  0
  152.7385  137.2601  157.0001 H   0  0  0  0  0  0  0  0  0  0  0  0
  151.0890  135.1935  155.1173 H   0  0  0  0  0  0  0  0  0  0  0  0
  151.5582  134.8524  156.7749 H   0  0  0  0  0  0  0  0  0  0  0  0
  148.6768  135.0829  155.7175 H   0  0  0  0  0  0  0  0  0  0  0  0
  149.4838  133.6103  156.2214 H   0  0  0  0  0  0  0  0  0  0  0  0
  148.1253  136.7347  157.4118 H   0  0  0  0  0  0  0  0  0  0  0  0
  148.5533  136.3942  159.0773 H   0  0  0  0  0  0  0  0  0  0  0  0
  150.9704  136.6014  158.5733 H   0  0  0  0  0  0  0  0  0  0  0  0
  150.1295  138.0538  158.0673 H   0  0  0  0  0  0  0  0  0  0  0  0
  150.0656  137.1853  155.8483 H   0  0  0  0  0  0  0  0  0  0  0  0
  150.5162  143.9535  155.9488 H   0  0  0  0  0  0  0  0  0  0  0  0
  1  2  1  0  0  0  0
  1 21  1  0  0  0  0
  1 22  1  0  0  0  0
  1 23  1  0  0  0  0
  2 10  1  0  0  0  0
  2  3  2  0  0  0  0
  3  4  1  0  0  0  0
  3 43  1  0  0  0  0
  4  9  2  0  0  0  0
  4  5  1  0  0  0  0
  5  6  2  0  0  0  0
  5 24  1  0  0  0  0
  6  7  1  0  0  0  0
  6 25  1  0  0  0  0
  7  8  2  0  0  0  0
  7 26  1  0  0  0  0
  8  9  1  0  0  0  0
  8 27  1  0  0  0  0
  9 10  1  0  0  0  0
 10 11  1  0  0  0  0
 11 12  1  0  0  0  0
 11 28  1  0  0  0  0
 11 29  1  0  0  0  0
 12 13  1  0  0  0  0
 12 14  1  0  0  0  0
 12 30  1  0  0  0  0
 13 31  1  0  0  0  0
 14 15  1  0  0  0  0
 14 32  1  0  0  0  0
 14 33  1  0  0  0  0
 15 20  1  0  0  0  0
 15 16  1  0  0  0  0
 15 42  1  0  0  0  0
 16 17  1  0  0  0  0
 16 34  1  0  0  0  0
 16 35  1  0  0  0  0
 17 18  1  0  0  0  0
 17 36  1  0  0  0  0
 17 37  1  0  0  0  0
 18 19  1  0  0  0  0
 19 20  1  0  0  0  0
 19 38  1  0  0  0  0
 19 39  1  0  0  0  0
 20 40  1  0  0  0  0
 20 41  1  0  0  0  0
M  CHG  1   3   1
M  CHG  1  15   1
M  END
> <s_m_source_file>
AV-unprocessed.smi

> <i_m_source_file_index>
356

> <i_lp_mmshare_version>
43012

> <i_f3d_flags>
0

> <s_epik_input>
W2NIXTFbY0hdW2NIXVtjSF1jKGMxMiluKGMobjIpW0NIM10pW0NIMl1bQ0BIXShbT0hdKVtDSDJdTjNbQ0gyXVtDSDJdT1tDSDJdW0NIMl0z

> <s_epik_cmdline>
J2VwaWtfcHl0aG9uJywgJy1waCcsICc3LjAnLCAnLXRuJywgJzgnLCAnLW1hJywgJzIwMCcsICctbWV0YWxfYmluZGluZycsICctaW1hZScsICc8aW5maWxlLm1hZT4nLCAnLW9tYWUnLCAnPG91dGZpbGUubWFlPic=

> <r_epik_Ionization_Penalty>
1.81899

> <r_epik_Ionization_Penalty_Charging>
1.81898

> <r_epik_Ionization_Penalty_Neutral>
1.42224e-05

> <r_epik_State_Penalty>
1.87399

> <r_epik_Charging_Adjusted_Penalty>
3.69296

> <i_epik_Tot_Q>
2

> <i_epik_Tot_abs_Q>
2

> <r_epik_Metal_State_Penalty>
5.87601

> <b_epik_Metal_Only>
0

> <s_lp_Force_Field>
OPLS_2005

> <r_lp_Energy>
27.965

> <b_lp_Chiralities_Consistent>
1

> <s_lp_Variant>
AV-unprocessed.smi:356-8

> <Gold.Version>
5.8.1

> <Gold.Id.Protein>
6NUR|6NUR_protein|mol2

> <Gold.PLP.Fitness>
51.1775

> <Gold.PLP.PLP>
-39.9993

> <Gold.PLP.part.hbond>
-2.7615

> <Gold.PLP.part.metal>
0.0000

> <Gold.PLP.part.buried>
-4.8956

> <Gold.PLP.part.nonpolar>
-32.9355

> <Gold.PLP.part.repulsive>
0.1700

> <Gold.PLP.ligand.clash>
0.0000

> <Gold.PLP.ligand.torsion>
0.3997

> <Gold.PLP.Chemscore.Hbond>
3.9840

> <Gold.PLP.Chemscore.CHOScore>
0.0000

> <Gold.PLP.Chemscore.Metal>
0.0000

> <Gold.Chemscore.Hbonds>
donor molecule, donor type, donor heavy atom, donor atom, acceptor molecule, acceptor atom, score
      L1  H     3    43       P1  8028  1.47
      P1  H  7997  8009       L1    13  1.00

> <Gold.PLP.Chemscore.Internal.Correction>
0.0255

> <Gold.Rescore>
     Score         DG    S(hbond)    S(metal)    S(lipo)     H(rot)  DE(clash)    DE(int)     intcor
     18.96     -20.31       2.37        0.00     105.64       2.13       0.00       1.35       ----

> <Gold.Chemscore.Fitness>
18.9564

> <Gold.Chemscore.DG>
-20.3056

> <Gold.Chemscore.ZeroCoef>
-5.4800

> <Gold.Chemscore.Hbond>
2.3730

> <Gold.Chemscore.Metal>
0.0000

> <Gold.Chemscore.Lipo>
105.6357

> <Gold.Chemscore.Internal_Hbond>
0.0000

> <Gold.Chemscore.DEClash>
0.0000

> <Gold.Chemscore.DEInternal>
1.3492

> <Gold.Chemscore.Rot>
2.1327

> <Gold.Chemscore.Internal.Correction>
   9.000000E+99

> <Gold.Chemscore.Hbonds>
donor molecule, donor type, donor heavy atom, donor atom, acceptor molecule, acceptor atom, score
      L1  H     3    43       P1  8028  0.74
      P1  H  6896  6908       L1    18  0.02
      P1  H  7997  8009       L1    13  0.48

> <Gold.Chemscore.Hbond.Weighted>
-7.9258

> <Gold.Chemscore.Metal.Weighted>
-0.0000

> <Gold.Chemscore.Lipo.Weighted>
-12.3594

> <Gold.Chemscore.Internal_Hbond.Weighted>
0.0000

> <Gold.Chemscore.DEClash.Weighted>
0.0000

> <Gold.Chemscore.DEInternal.Weighted>
1.3492

> <Gold.Chemscore.Rot.Weighted>
5.4596

> <Gold.Chemscore.Internal.Correction.Weighted>
   9.000000E+99

> <Gold.Protein.RotatedTorsions>
[ 6907 6896 6895 6894 ] final  132.40 input  -60.11 | X-H torsion
[ 7974 7965 7964 7962 ] final  -21.08 input  175.53 | X-H torsion
[ 8008 7997 7996 7995 ] final -158.06 input   59.86 | X-H torsion
[ 10167 10162 10161 10158 ] final  -22.02 input  -65.29 | X-H torsion
[ 10718 10713 10712 10709 ] final  -24.21 input   66.30 | X-H torsion
[ 10763 10752 10751 10750 ] final -125.44 input  -60.55 | X-H torsion
[ 11005 11000 10999 10996 ] final -167.52 input  -57.11 | X-H torsion

> <Gold.Protein.ActiveResidues>
 VAL166  LYS551  ARG553  GLY616  TRP617  ASP618  TYR619  PRO620  LYS621  CYS622 
 ASP623  PHE694  ASN695  SER759  ASP760  ASP761  ALA762  ILE779  LEU786  VAL792 
 PHE793  MET794  SER795  GLU796  ALA797  LYS798  CYS799  TRP800  GLU811  SER814 

> <Gold.Protein.RotatedAtoms>
  152.3328  133.5977  159.5821 H   0  0  0  0  0  0  0  0  0  0  0  0  # atno 6907 bound_to 6896
  150.7433  133.9842  159.3595 H   0  0  0  0  0  0  0  0  0  0  0  0  # atno 6908 bound_to 6896
  151.7715  135.0786  160.0411 H   0  0  0  0  0  0  0  0  0  0  0  0  # atno 6909 bound_to 6896
  146.1753  140.4291  142.8516 H   0  0  0  0  0  0  0  0  0  0  0  0  # atno 7974 bound_to 7965
  155.7419  140.0815  157.2242 H   0  0  0  0  0  0  0  0  0  0  0  0  # atno 8008 bound_to 7997
  154.4021  140.1576  156.2681 H   0  0  0  0  0  0  0  0  0  0  0  0  # atno 8009 bound_to 7997
  155.9012  140.3409  155.6031 H   0  0  0  0  0  0  0  0  0  0  0  0  # atno 8010 bound_to 7997
  140.7284  143.4573  151.0430 H   0  0  0  0  0  0  0  0  0  0  0  0  # atno 10167 bound_to 10162
  156.4807  130.4544  149.6813 H   0  0  0  0  0  0  0  0  0  0  0  0  # atno 10718 bound_to 10713
  154.8736  135.4029  154.3268 H   0  0  0  0  0  0  0  0  0  0  0  0  # atno 10763 bound_to 10752
  153.4087  135.7020  153.6379 H   0  0  0  0  0  0  0  0  0  0  0  0  # atno 10764 bound_to 10752
  153.5091  135.3711  155.2548 H   0  0  0  0  0  0  0  0  0  0  0  0  # atno 10765 bound_to 10752
  140.5523  134.5415  157.5125 H   0  0  0  0  0  0  0  0  0  0  0  0  # atno 11005 bound_to 11000
  144.8226  140.6575  143.6343 LP  0  0  0  0  0  0  0  0  0  0  0  0  # atno 17320 bound_to 7965
  145.4229  139.1561  143.4064 LP  0  0  0  0  0  0  0  0  0  0  0  0  # atno 17321 bound_to 7965
  139.8255  143.7762  152.3178 LP  0  0  0  0  0  0  0  0  0  0  0  0  # atno 17342 bound_to 10162
  139.7860  144.7428  151.0022 LP  0  0  0  0  0  0  0  0  0  0  0  0  # atno 17343 bound_to 10162
  156.3525  130.7439  151.2400 LP  0  0  0  0  0  0  0  0  0  0  0  0  # atno 17370 bound_to 10713
  157.7483  131.0373  150.4450 LP  0  0  0  0  0  0  0  0  0  0  0  0  # atno 17371 bound_to 10713
  139.9449  134.7720  156.0587 LP  0  0  0  0  0  0  0  0  0  0  0  0  # atno 17394 bound_to 11000
  141.1164  133.6626  156.3104 LP  0  0  0  0  0  0  0  0  0  0  0  0  # atno 17395 bound_to 11000

$$$$
