AV-unprocessed.smi:1154|AV-procd|sdf|4902|dock1
  -GOLD-   22720 3473D 1   1.00000     0.00000
 Structure written by MMmdl.
 42 43  0  0  0  0  0  0  0  0  2 V2000
  147.3365  131.2695  154.5657 C   0  0  0  0  0  0  0  0  0  0  0  0
  146.6893  132.4559  153.8374 C   0  0  2  0  0  0  0  0  0  0  0  0
  145.9021  131.9897  152.5999 C   0  0  0  0  0  0  0  0  0  0  0  0
  145.2966  133.1871  151.8466 C   0  0  2  0  0  0  0  0  0  0  0  0
  144.5331  132.7334  150.5944 C   0  0  0  0  0  0  0  0  0  0  0  0
  146.4023  134.2038  151.4931 C   0  0  0  0  0  0  0  0  0  0  0  0
  147.1509  134.6584  152.6943 N   0  3  1  0  0  0  0  0  0  0  0  0
  146.3927  135.6263  153.5322 C   0  0  0  0  0  0  0  0  0  0  0  0
  147.2439  136.2170  154.6677 C   0  0  0  0  0  0  0  0  0  0  0  0
  148.2239  137.1527  154.1345 N   0  0  0  0  0  0  0  0  0  0  0  0
  148.4728  138.3651  154.6522 C   0  0  0  0  0  0  0  0  0  0  0  0
  147.8805  138.8140  155.6328 O   0  0  0  0  0  0  0  0  0  0  0  0
  149.5470  139.2041  153.9571 C   0  0  0  0  0  0  0  0  0  0  0  0
  150.8601  138.9593  154.5244 N   0  0  0  0  0  0  0  0  0  0  0  0
  151.5269  137.8223  154.7334 C   0  0  0  0  0  0  0  0  0  0  0  0
  152.7063  138.0427  155.2933 N   0  0  0  0  0  0  0  0  0  0  0  0
  152.7411  139.4213  155.4214 N   0  0  0  0  0  0  0  0  0  0  0  0
  151.6486  139.9707  154.9665 N   0  0  0  0  0  0  0  0  0  0  0  0
  147.7433  133.5120  153.4372 C   0  0  0  0  0  0  0  0  0  0  0  0
  148.0508  130.7511  153.9251 H   0  0  0  0  0  0  0  0  0  0  0  0
  146.5846  130.5447  154.8791 H   0  0  0  0  0  0  0  0  0  0  0  0
  147.8680  131.5983  155.4592 H   0  0  0  0  0  0  0  0  0  0  0  0
  145.9858  132.9106  154.5353 H   0  0  0  0  0  0  0  0  0  0  0  0
  146.5616  131.4317  151.9331 H   0  0  0  0  0  0  0  0  0  0  0  0
  145.1118  131.3005  152.9007 H   0  0  0  0  0  0  0  0  0  0  0  0
  144.5755  133.6737  152.5047 H   0  0  0  0  0  0  0  0  0  0  0  0
  145.1937  132.2339  149.8849 H   0  0  0  0  0  0  0  0  0  0  0  0
  144.0764  133.5818  150.0837 H   0  0  0  0  0  0  0  0  0  0  0  0
  143.7346  132.0370  150.8523 H   0  0  0  0  0  0  0  0  0  0  0  0
  147.1119  133.7462  150.8021 H   0  0  0  0  0  0  0  0  0  0  0  0
  145.9827  135.0626  150.9673 H   0  0  0  0  0  0  0  0  0  0  0  0
  146.0604  136.4523  152.9015 H   0  0  0  0  0  0  0  0  0  0  0  0
  145.4880  135.1676  153.9305 H   0  0  0  0  0  0  0  0  0  0  0  0
  146.6267  136.7496  155.3910 H   0  0  0  0  0  0  0  0  0  0  0  0
  147.7523  135.4140  155.2045 H   0  0  0  0  0  0  0  0  0  0  0  0
  148.7498  136.8608  153.3233 H   0  0  0  0  0  0  0  0  0  0  0  0
  149.5700  138.9661  152.8929 H   0  0  0  0  0  0  0  0  0  0  0  0
  149.3133  140.2661  154.0456 H   0  0  0  0  0  0  0  0  0  0  0  0
  151.1497  136.8416  154.4831 H   0  0  0  0  0  0  0  0  0  0  0  0
  148.2867  133.8604  154.3145 H   0  0  0  0  0  0  0  0  0  0  0  0
  148.4907  133.0479  152.7920 H   0  0  0  0  0  0  0  0  0  0  0  0
  147.9314  135.1887  152.3335 H   0  0  0  0  0  0  0  0  0  0  0  0
  1  2  1  0  0  0  0
  1 20  1  0  0  0  0
  1 21  1  0  0  0  0
  1 22  1  0  0  0  0
  2 19  1  0  0  0  0
  2  3  1  0  0  0  0
  2 23  1  0  0  0  0
  3  4  1  0  0  0  0
  3 24  1  0  0  0  0
  3 25  1  0  0  0  0
  4  5  1  0  0  0  0
  4  6  1  0  0  0  0
  4 26  1  0  0  0  0
  5 27  1  0  0  0  0
  5 28  1  0  0  0  0
  5 29  1  0  0  0  0
  6  7  1  0  0  0  0
  6 30  1  0  0  0  0
  6 31  1  0  0  0  0
  7  8  1  0  0  0  0
  7 19  1  0  0  0  0
  7 42  1  0  0  0  0
  8  9  1  0  0  0  0
  8 32  1  0  0  0  0
  8 33  1  0  0  0  0
  9 10  1  0  0  0  0
  9 34  1  0  0  0  0
  9 35  1  0  0  0  0
 10 11  1  0  0  0  0
 10 36  1  0  0  0  0
 11 12  2  0  0  0  0
 11 13  1  0  0  0  0
 13 14  1  0  0  0  0
 13 37  1  0  0  0  0
 13 38  1  0  0  0  0
 14 18  1  0  0  0  0
 14 15  1  0  0  0  0
 15 16  2  0  0  0  0
 15 39  1  0  0  0  0
 16 17  1  0  0  0  0
 17 18  2  0  0  0  0
 19 40  1  0  0  0  0
 19 41  1  0  0  0  0
M  CHG  1   7   1
M  END
> <s_m_source_file>
AV-unprocessed.smi

> <i_m_source_file_index>
1154

> <i_lp_mmshare_version>
43012

> <i_f3d_flags>
0

> <s_epik_input>
W0NIM11bQ0BASF0xW0NIMl1bQ0BASF0oW0NIM10pW0NIMl1OKFtDSDJdMSlbQ0gyXVtDSDJdW05IXUMoPU8pW0NIMl1uMltjSF1ubm4y

> <s_epik_cmdline>
J2VwaWtfcHl0aG9uJywgJy1waCcsICc3LjAnLCAnLXRuJywgJzgnLCAnLW1hJywgJzIwMCcsICctbWV0YWxfYmluZGluZycsICctaW1hZScsICc8aW5maWxlLm1hZT4nLCAnLW9tYWUnLCAnPG91dGZpbGUubWFlPic=

> <r_lp_tautomer_probability>
1

> <r_epik_Ionization_Penalty>
0.00217773

> <r_epik_Ionization_Penalty_Charging>
0.00217329

> <r_epik_Ionization_Penalty_Neutral>
4.43997e-06

> <r_epik_State_Penalty>
0.00149294

> <r_epik_Charging_Adjusted_Penalty>
0.00366623

> <i_epik_Tot_Q>
1

> <i_epik_Tot_abs_Q>
1

> <r_epik_Metal_State_Penalty>
-0

> <b_epik_Metal_Only>
0

> <s_lp_Force_Field>
OPLS_2005

> <r_lp_Energy>
22.2263

> <b_lp_Chiralities_Consistent>
1

> <s_lp_Variant>
AV-unprocessed.smi:1154-3

> <Gold.Version>
5.8.1

> <Gold.Id.Protein>
6NUR|6NUR_protein|mol2

> <Gold.PLP.Fitness>
49.5984

> <Gold.PLP.PLP>
-32.6265

> <Gold.PLP.part.hbond>
-5.8982

> <Gold.PLP.part.metal>
0.0000

> <Gold.PLP.part.buried>
-4.6121

> <Gold.PLP.part.nonpolar>
-23.1283

> <Gold.PLP.part.repulsive>
0.1243

> <Gold.PLP.ligand.clash>
0.0000

> <Gold.PLP.ligand.torsion>
0.5624

> <Gold.PLP.Chemscore.Hbond>
5.0000

> <Gold.PLP.Chemscore.CHOScore>
1.0000

> <Gold.PLP.Chemscore.Metal>
0.0000

> <Gold.Chemscore.Hbonds>
donor molecule, donor type, donor heavy atom, donor atom, acceptor molecule, acceptor atom, score
      L1  H     7    42       P1  7948  1.85
      L1  H    10    36       P1  7948  1.00
      P1  H  7989  7998       L1    18  0.85
      P1  H  7997  8008       L1    17  1.00

> <Gold.PLP.Chemscore.Internal.Correction>
0.0967

> <Gold.Rescore>
     Score         DG    S(hbond)    S(metal)    S(lipo)     H(rot)  DE(clash)    DE(int)     intcor
     16.01     -16.73       3.67        0.00      49.92       2.67       0.00       0.72       ----

> <Gold.Chemscore.Fitness>
16.0085

> <Gold.Chemscore.DG>
-16.7341

> <Gold.Chemscore.ZeroCoef>
-5.4800

> <Gold.Chemscore.Hbond>
3.6653

> <Gold.Chemscore.Metal>
0.0000

> <Gold.Chemscore.Lipo>
49.9201

> <Gold.Chemscore.Internal_Hbond>
0.0000

> <Gold.Chemscore.DEClash>
0.0038

> <Gold.Chemscore.DEInternal>
0.7218

> <Gold.Chemscore.Rot>
2.6674

> <Gold.Chemscore.Internal.Correction>
   9.000000E+99

> <Gold.Chemscore.Hbonds>
donor molecule, donor type, donor heavy atom, donor atom, acceptor molecule, acceptor atom, score
      L1  H     7    42       P1  7948  0.84
      L1  H    10    36       P1  7948  0.97
      P1  H  7989  7998       L1    18  0.14
      P1  H  7997  8008       L1    17  0.92

> <Gold.Chemscore.Hbond.Weighted>
-12.2420

> <Gold.Chemscore.Metal.Weighted>
-0.0000

> <Gold.Chemscore.Lipo.Weighted>
-5.8407

> <Gold.Chemscore.Internal_Hbond.Weighted>
0.0000

> <Gold.Chemscore.DEClash.Weighted>
0.0038

> <Gold.Chemscore.DEInternal.Weighted>
0.7218

> <Gold.Chemscore.Rot.Weighted>
6.8286

> <Gold.Chemscore.Internal.Correction.Weighted>
   9.000000E+99

> <Gold.Protein.RotatedTorsions>
[ 6907 6896 6895 6894 ] final  -88.76 input  -60.11 | X-H torsion
[ 7974 7965 7964 7962 ] final  -84.77 input  175.53 | X-H torsion
[ 8008 7997 7996 7995 ] final  -23.01 input   59.86 | X-H torsion
[ 10167 10162 10161 10158 ] final -121.45 input  -65.29 | X-H torsion
[ 10718 10713 10712 10709 ] final  130.03 input   66.30 | X-H torsion
[ 10763 10752 10751 10750 ] final -176.59 input  -60.55 | X-H torsion
[ 11005 11000 10999 10996 ] final  171.82 input  -57.11 | X-H torsion

> <Gold.Protein.ActiveResidues>
 VAL166  LYS551  ARG553  GLY616  TRP617  ASP618  TYR619  PRO620  LYS621  CYS622 
 ASP623  PHE694  ASN695  SER759  ASP760  ASP761  ALA762  ILE779  LEU786  VAL792 
 PHE793  MET794  SER795  GLU796  ALA797  LYS798  CYS799  TRP800  GLU811  SER814 

> <Gold.Protein.RotatedAtoms>
  150.6870  134.2691  159.4580 H   0  0  0  0  0  0  0  0  0  0  0  0  # atno 6907 bound_to 6896
  152.0615  134.9589  160.0584 H   0  0  0  0  0  0  0  0  0  0  0  0  # atno 6908 bound_to 6896
  152.1014  133.4217  159.4626 H   0  0  0  0  0  0  0  0  0  0  0  0  # atno 6909 bound_to 6896
  145.5022  140.9546  143.1753 H   0  0  0  0  0  0  0  0  0  0  0  0  # atno 7974 bound_to 7965
  154.4610  140.1992  156.0245 H   0  0  0  0  0  0  0  0  0  0  0  0  # atno 8008 bound_to 7997
  156.0839  140.3267  155.7701 H   0  0  0  0  0  0  0  0  0  0  0  0  # atno 8009 bound_to 7997
  155.5066  140.0558  157.2921 H   0  0  0  0  0  0  0  0  0  0  0  0  # atno 8010 bound_to 7997
  140.0249  143.5306  152.2203 H   0  0  0  0  0  0  0  0  0  0  0  0  # atno 10167 bound_to 10162
  157.5100  131.1096  150.9306 H   0  0  0  0  0  0  0  0  0  0  0  0  # atno 10718 bound_to 10713
  154.5705  135.2827  155.0831 H   0  0  0  0  0  0  0  0  0  0  0  0  # atno 10763 bound_to 10752
  154.2205  135.6392  153.5147 H   0  0  0  0  0  0  0  0  0  0  0  0  # atno 10764 bound_to 10752
  153.0056  135.5513  154.6328 H   0  0  0  0  0  0  0  0  0  0  0  0  # atno 10765 bound_to 10752
  140.3231  134.7420  157.4079 H   0  0  0  0  0  0  0  0  0  0  0  0  # atno 11005 bound_to 11000
  144.7774  139.6600  143.7169 LP  0  0  0  0  0  0  0  0  0  0  0  0  # atno 17320 bound_to 7965
  146.2219  139.5651  142.9613 LP  0  0  0  0  0  0  0  0  0  0  0  0  # atno 17321 bound_to 7965
  139.6115  144.7609  151.2942 LP  0  0  0  0  0  0  0  0  0  0  0  0  # atno 17342 bound_to 10162
  140.7327  143.6817  150.7996 LP  0  0  0  0  0  0  0  0  0  0  0  0  # atno 17343 bound_to 10162
  156.9950  130.5578  149.5306 LP  0  0  0  0  0  0  0  0  0  0  0  0  # atno 17370 bound_to 10713
  156.0283  130.5376  150.8466 LP  0  0  0  0  0  0  0  0  0  0  0  0  # atno 17371 bound_to 10713
  140.0924  134.5582  155.8431 LP  0  0  0  0  0  0  0  0  0  0  0  0  # atno 17394 bound_to 11000
  141.2082  133.6671  156.6353 LP  0  0  0  0  0  0  0  0  0  0  0  0  # atno 17395 bound_to 11000

$$$$
