AV-unprocessed.smi:2895|AV-procd|sdf|11133|dock8
  -GOLD-   2272016 03D 1   1.00000     0.00000
 Structure written by MMmdl.
 54 57  0  0  0  0  0  0  0  0  3 V2000
  151.2650  136.8536  159.8440 O   0  0  0  0  0  0  0  0  0  0  0  0
  150.6005  137.6554  159.1851 C   0  0  0  0  0  0  0  0  0  0  0  0
  149.3113  137.4204  158.8804 N   0  0  0  0  0  0  0  0  0  0  0  0
  148.5551  136.2374  159.2742 C   0  0  0  0  0  0  0  0  0  0  0  0
  147.3576  136.6033  160.1655 C   0  0  0  0  0  0  0  0  0  0  0  0
  147.3430  135.8073  161.4564 C   0  0  0  0  0  0  0  0  0  0  0  0
  146.2352  134.9950  161.7849 C   0  0  0  0  0  0  0  0  0  0  0  0
  146.2512  134.2652  162.9912 C   0  0  0  0  0  0  0  0  0  0  0  0
  147.3197  134.3486  163.8141 N   0  3  0  0  0  0  0  0  0  0  0  0
  148.3998  135.1114  163.5362 C   0  0  0  0  0  0  0  0  0  0  0  0
  148.4399  135.8639  162.3445 C   0  0  0  0  0  0  0  0  0  0  0  0
  151.0935  138.8414  158.7365 N   0  0  0  0  0  0  0  0  0  0  0  0
  150.3691  139.7033  157.7726 C   0  0  0  0  0  0  0  0  0  0  0  0
  151.2614  140.6953  157.0071 C   0  0  0  0  0  0  0  0  0  0  0  0
  152.1969  141.4171  157.8996 N   0  3  0  0  0  0  0  0  0  0  0  0
  151.5650  142.3712  158.8654 C   0  0  1  0  0  0  0  0  0  0  0  0
  152.6106  143.0567  159.7847 C   0  0  0  0  0  0  0  0  0  0  0  0
  152.3233  144.5563  159.6055 C   0  0  2  0  0  0  0  0  0  0  0  0
  150.9682  144.9055  160.2443 C   0  0  0  0  0  0  0  0  0  0  0  0
  149.9647  144.2710  159.2658 C   0  0  0  0  0  0  0  0  0  0  0  0
  150.8784  143.6061  158.2171 C   0  0  1  0  0  0  0  0  0  0  0  0
  152.0094  144.6235  158.1175 C   0  0  0  0  0  0  0  0  0  0  0  0
  153.0897  140.4222  158.5388 C   0  0  0  0  0  0  0  0  0  0  0  0
  152.3182  139.3776  159.3689 C   0  0  0  0  0  0  0  0  0  0  0  0
  148.8157  138.1203  158.3475 H   0  0  0  0  0  0  0  0  0  0  0  0
  148.2213  135.6931  158.3890 H   0  0  0  0  0  0  0  0  0  0  0  0
  149.2293  135.5699  159.8116 H   0  0  0  0  0  0  0  0  0  0  0  0
  147.3804  137.6671  160.4057 H   0  0  0  0  0  0  0  0  0  0  0  0
  146.4217  136.4297  159.6324 H   0  0  0  0  0  0  0  0  0  0  0  0
  145.3841  134.9299  161.1221 H   0  0  0  0  0  0  0  0  0  0  0  0
  145.4479  133.6222  163.3201 H   0  0  0  0  0  0  0  0  0  0  0  0
  149.1930  135.0968  164.2694 H   0  0  0  0  0  0  0  0  0  0  0  0
  149.3016  136.4743  162.1162 H   0  0  0  0  0  0  0  0  0  0  0  0
  149.8466  139.1110  157.0198 H   0  0  0  0  0  0  0  0  0  0  0  0
  149.6004  140.2500  158.3207 H   0  0  0  0  0  0  0  0  0  0  0  0
  151.8550  140.1402  156.2790 H   0  0  0  0  0  0  0  0  0  0  0  0
  150.6599  141.3728  156.4057 H   0  0  0  0  0  0  0  0  0  0  0  0
  150.8356  141.8291  159.4680 H   0  0  0  0  0  0  0  0  0  0  0  0
  152.5230  142.7370  160.8240 H   0  0  0  0  0  0  0  0  0  0  0  0
  153.6329  142.8553  159.4626 H   0  0  0  0  0  0  0  0  0  0  0  0
  153.1404  145.1997  159.9330 H   0  0  0  0  0  0  0  0  0  0  0  0
  150.8734  144.5084  161.2558 H   0  0  0  0  0  0  0  0  0  0  0  0
  150.8260  145.9860  160.2929 H   0  0  0  0  0  0  0  0  0  0  0  0
  149.2972  143.5599  159.7538 H   0  0  0  0  0  0  0  0  0  0  0  0
  149.3455  145.0412  158.8039 H   0  0  0  0  0  0  0  0  0  0  0  0
  150.3454  143.4269  157.2863 H   0  0  0  0  0  0  0  0  0  0  0  0
  151.6769  145.6101  157.7899 H   0  0  0  0  0  0  0  0  0  0  0  0
  152.8344  144.2948  157.4831 H   0  0  0  0  0  0  0  0  0  0  0  0
  153.6433  139.9094  157.7510 H   0  0  0  0  0  0  0  0  0  0  0  0
  153.8483  140.9015  159.1564 H   0  0  0  0  0  0  0  0  0  0  0  0
  152.0280  139.8194  160.3231 H   0  0  0  0  0  0  0  0  0  0  0  0
  153.0195  138.5772  159.6121 H   0  0  0  0  0  0  0  0  0  0  0  0
  152.7802  141.9826  157.2994 H   0  0  0  0  0  0  0  0  0  0  0  0
  147.3103  133.8124  164.6822 H   0  0  0  0  0  0  0  0  0  0  0  0
  1  2  2  0  0  0  0
  2  3  1  0  0  0  0
  2 12  1  0  0  0  0
  3  4  1  0  0  0  0
  3 25  1  0  0  0  0
  4  5  1  0  0  0  0
  4 26  1  0  0  0  0
  4 27  1  0  0  0  0
  5  6  1  0  0  0  0
  5 28  1  0  0  0  0
  5 29  1  0  0  0  0
  6 11  1  0  0  0  0
  6  7  2  0  0  0  0
  7  8  1  0  0  0  0
  7 30  1  0  0  0  0
  8  9  2  0  0  0  0
  8 31  1  0  0  0  0
  9 10  1  0  0  0  0
  9 54  1  0  0  0  0
 10 11  2  0  0  0  0
 10 32  1  0  0  0  0
 11 33  1  0  0  0  0
 12 24  1  0  0  0  0
 12 13  1  0  0  0  0
 13 14  1  0  0  0  0
 13 34  1  0  0  0  0
 13 35  1  0  0  0  0
 14 15  1  0  0  0  0
 14 36  1  0  0  0  0
 14 37  1  0  0  0  0
 15 16  1  0  0  0  0
 15 23  1  0  0  0  0
 15 53  1  0  0  0  0
 16 21  1  0  0  0  0
 16 17  1  0  0  0  0
 16 38  1  0  0  0  0
 17 18  1  0  0  0  0
 17 39  1  0  0  0  0
 17 40  1  0  0  0  0
 18 22  1  0  0  0  0
 18 19  1  0  0  0  0
 18 41  1  0  0  0  0
 19 20  1  0  0  0  0
 19 42  1  0  0  0  0
 19 43  1  0  0  0  0
 20 21  1  0  0  0  0
 20 44  1  0  0  0  0
 20 45  1  0  0  0  0
 21 22  1  0  0  0  0
 21 46  1  0  0  0  0
 22 47  1  0  0  0  0
 22 48  1  0  0  0  0
 23 24  1  0  0  0  0
 23 49  1  0  0  0  0
 23 50  1  0  0  0  0
 24 51  1  0  0  0  0
 24 52  1  0  0  0  0
M  CHG  1   9   1
M  CHG  1  15   1
M  END
> <s_m_source_file>
AV-unprocessed.smi

> <i_m_source_file_index>
2895

> <i_lp_mmshare_version>
43012

> <i_f3d_flags>
0

> <s_epik_input>
W0NIMl0xW0NIMl1bQ0BASF0oW0NIMl0yKVtDQEBIXShbQ0gyXVtDQEhdMTIpTihbQ0gyXVtDSDJdMylbQ0gyXVtDSDJdTjNDKD1PKVtOSF1bQ0gyXVtDSDJdYzRbY0hdW2NIXW5bY0hdW2NIXTQ=

> <s_epik_cmdline>
J2VwaWtfcHl0aG9uJywgJy1waCcsICc3LjAnLCAnLXRuJywgJzgnLCAnLW1hJywgJzIwMCcsICctbWV0YWxfYmluZGluZycsICctaW1hZScsICc8aW5maWxlLm1hZT4nLCAnLW9tYWUnLCAnPG91dGZpbGUubWFlPic=

> <r_epik_Ionization_Penalty>
1.44916

> <r_epik_Ionization_Penalty_Charging>
1.44913

> <r_epik_Ionization_Penalty_Neutral>
2.64641e-05

> <r_epik_State_Penalty>
1.53218

> <r_epik_Charging_Adjusted_Penalty>
2.98131

> <i_epik_Tot_Q>
2

> <i_epik_Tot_abs_Q>
2

> <r_epik_Metal_State_Penalty>
1.58241

> <b_epik_Metal_Only>
0

> <s_lp_Force_Field>
OPLS_2005

> <r_lp_Energy>
108.8

> <b_lp_Chiralities_Consistent>
1

> <s_lp_Variant>
AV-unprocessed.smi:2895-6

> <Gold.Version>
5.8.1

> <Gold.Id.Protein>
6NUR|6NUR_protein|mol2

> <Gold.PLP.Fitness>
46.2345

> <Gold.PLP.PLP>
-44.1834

> <Gold.PLP.part.hbond>
-1.0000

> <Gold.PLP.part.metal>
0.0000

> <Gold.PLP.part.buried>
-5.7110

> <Gold.PLP.part.nonpolar>
-37.5215

> <Gold.PLP.part.repulsive>
0.3602

> <Gold.PLP.ligand.clash>
0.0300

> <Gold.PLP.ligand.torsion>
0.5331

> <Gold.PLP.Chemscore.Hbond>
1.0000

> <Gold.PLP.Chemscore.CHOScore>
0.0000

> <Gold.PLP.Chemscore.Metal>
0.0000

> <Gold.Chemscore.Hbonds>
donor molecule, donor type, donor heavy atom, donor atom, acceptor molecule, acceptor atom, score
      P1  H  6896  6909       L1     1  1.00

> <Gold.PLP.Chemscore.Internal.Correction>
0.1473

> <Gold.Rescore>
     Score         DG    S(hbond)    S(metal)    S(lipo)     H(rot)  DE(clash)    DE(int)     intcor
     20.91     -21.67       1.00        0.00     141.74       1.46       0.19       0.57       ----

> <Gold.Chemscore.Fitness>
20.9126

> <Gold.Chemscore.DG>
-21.6733

> <Gold.Chemscore.ZeroCoef>
-5.4800

> <Gold.Chemscore.Hbond>
1.0000

> <Gold.Chemscore.Metal>
0.0000

> <Gold.Chemscore.Lipo>
141.7423

> <Gold.Chemscore.Internal_Hbond>
0.0000

> <Gold.Chemscore.DEClash>
0.1939

> <Gold.Chemscore.DEInternal>
0.5667

> <Gold.Chemscore.Rot>
1.4572

> <Gold.Chemscore.Internal.Correction>
   9.000000E+99

> <Gold.Chemscore.Hbonds>
donor molecule, donor type, donor heavy atom, donor atom, acceptor molecule, acceptor atom, score
      P1  H  6896  6909       L1     1  1.00

> <Gold.Chemscore.Hbond.Weighted>
-3.3400

> <Gold.Chemscore.Metal.Weighted>
-0.0000

> <Gold.Chemscore.Lipo.Weighted>
-16.5838

> <Gold.Chemscore.Internal_Hbond.Weighted>
0.0000

> <Gold.Chemscore.DEClash.Weighted>
0.1939

> <Gold.Chemscore.DEInternal.Weighted>
0.5667

> <Gold.Chemscore.Rot.Weighted>
3.7305

> <Gold.Chemscore.Internal.Correction.Weighted>
   9.000000E+99

> <Gold.Protein.RotatedTorsions>
[ 6907 6896 6895 6894 ] final  105.52 input  -60.11 | X-H torsion
[ 7974 7965 7964 7962 ] final   60.75 input  175.53 | X-H torsion
[ 8008 7997 7996 7995 ] final   93.22 input   59.86 | X-H torsion
[ 10167 10162 10161 10158 ] final -141.95 input  -65.29 | X-H torsion
[ 10718 10713 10712 10709 ] final  -29.10 input   66.30 | X-H torsion
[ 10763 10752 10751 10750 ] final   70.14 input  -60.55 | X-H torsion
[ 11005 11000 10999 10996 ] final  130.69 input  -57.11 | X-H torsion

> <Gold.Protein.ActiveResidues>
 VAL166  LYS551  ARG553  GLY616  TRP617  ASP618  TYR619  PRO620  LYS621  CYS622 
 ASP623  PHE694  ASN695  SER759  ASP760  ASP761  ALA762  ILE779  LEU786  VAL792 
 PHE793  MET794  SER795  GLU796  ALA797  LYS798  CYS799  TRP800  GLU811  SER814 

> <Gold.Protein.RotatedAtoms>
  152.5227  133.9517  159.7674 H   0  0  0  0  0  0  0  0  0  0  0  0  # atno 6907 bound_to 6896
  150.9825  133.6222  159.2727 H   0  0  0  0  0  0  0  0  0  0  0  0  # atno 6908 bound_to 6896
  151.3394  135.0866  159.9419 H   0  0  0  0  0  0  0  0  0  0  0  0  # atno 6909 bound_to 6896
  145.8925  139.3521  143.0641 H   0  0  0  0  0  0  0  0  0  0  0  0  # atno 7974 bound_to 7965
  156.0443  140.3315  155.7279 H   0  0  0  0  0  0  0  0  0  0  0  0  # atno 8008 bound_to 7997
  155.5697  140.0626  157.2827 H   0  0  0  0  0  0  0  0  0  0  0  0  # atno 8009 bound_to 7997
  154.4407  140.1863  156.0855 H   0  0  0  0  0  0  0  0  0  0  0  0  # atno 8010 bound_to 7997
  139.8135  143.7670  152.2664 H   0  0  0  0  0  0  0  0  0  0  0  0  # atno 10167 bound_to 10162
  156.4167  130.4418  149.7213 H   0  0  0  0  0  0  0  0  0  0  0  0  # atno 10718 bound_to 10713
  153.0325  135.5184  154.7396 H   0  0  0  0  0  0  0  0  0  0  0  0  # atno 10763 bound_to 10752
  154.6400  135.2911  155.0117 H   0  0  0  0  0  0  0  0  0  0  0  0  # atno 10764 bound_to 10752
  154.1039  135.6632  153.4925 H   0  0  0  0  0  0  0  0  0  0  0  0  # atno 10765 bound_to 10752
  139.9687  134.9583  156.9331 H   0  0  0  0  0  0  0  0  0  0  0  0  # atno 11005 bound_to 11000
  145.8891  140.9315  143.0561 LP  0  0  0  0  0  0  0  0  0  0  0  0  # atno 17320 bound_to 7965
  144.6731  140.0882  143.7466 LP  0  0  0  0  0  0  0  0  0  0  0  0  # atno 17321 bound_to 7965
  139.7826  144.7439  151.0066 LP  0  0  0  0  0  0  0  0  0  0  0  0  # atno 17342 bound_to 10162
  140.7817  143.4525  151.0392 LP  0  0  0  0  0  0  0  0  0  0  0  0  # atno 17343 bound_to 10162
  156.4170  130.7750  151.2766 LP  0  0  0  0  0  0  0  0  0  0  0  0  # atno 17370 bound_to 10713
  157.7508  131.0194  150.3666 LP  0  0  0  0  0  0  0  0  0  0  0  0  # atno 17371 bound_to 10713
  140.5341  134.0785  155.7323 LP  0  0  0  0  0  0  0  0  0  0  0  0  # atno 17394 bound_to 11000
  141.1367  133.9210  157.2419 LP  0  0  0  0  0  0  0  0  0  0  0  0  # atno 17395 bound_to 11000

$$$$
