AV-unprocessed.smi:1503|AV-procd|sdf|6068|dock7
  -GOLD-   22720 6183D 1   1.00000     0.00000
 Structure written by MMmdl.
 44 45  0  0  0  0  0  0  0  0  1 V2000
  148.8327  133.1852  153.4299 C   0  0  0  0  0  0  0  0  0  0  0  0
  149.7675  133.4245  154.3617 C   0  0  0  0  0  0  0  0  0  0  0  0
  149.7263  134.5795  155.3432 C   0  0  0  0  0  0  0  0  0  0  0  0
  149.6168  135.8610  154.6565 N   0  0  0  0  0  0  0  0  0  0  0  0
  149.7023  137.0648  155.2441 C   0  0  0  0  0  0  0  0  0  0  0  0
  149.8764  137.2142  156.4539 O   0  0  0  0  0  0  0  0  0  0  0  0
  149.5675  138.2785  154.3200 C   0  0  0  0  0  0  0  0  0  0  0  0
  150.8706  139.0911  154.1982 C   0  0  0  0  0  0  0  0  0  0  0  0
  151.1182  139.9657  155.4243 C   0  0  0  0  0  0  0  0  0  0  0  0
  150.4035  141.0940  155.6925 C   0  0  0  0  0  0  0  0  0  0  0  0
  149.2716  141.5849  154.8070 C   0  0  0  0  0  0  0  0  0  0  0  0
  150.6710  141.8761  156.8230 N   0  0  0  0  0  0  0  0  0  0  0  0
  151.6136  141.5364  157.6453 C   0  0  0  0  0  0  0  0  0  0  0  0
  151.9824  142.2309  158.7997 N   0  0  0  0  0  0  0  0  0  0  0  0
  152.5361  141.5422  159.9685 C   0  0  0  0  0  0  0  0  0  0  0  0
  153.3557  142.5023  160.8466 C   0  0  0  0  0  0  0  0  0  0  0  0
  152.5535  143.6146  161.2187 O   0  0  0  0  0  0  0  0  0  0  0  0
  152.1262  144.3492  160.0800 C   0  0  0  0  0  0  0  0  0  0  0  0
  151.2668  143.4502  159.1752 C   0  0  0  0  0  0  0  0  0  0  0  0
  152.3774  140.3897  157.4017 N   0  0  0  0  0  0  0  0  0  0  0  0
  152.1973  139.5692  156.3431 C   0  0  0  0  0  0  0  0  0  0  0  0
  152.9041  138.5727  156.1999 O   0  0  0  0  0  0  0  0  0  0  0  0
  153.1109  140.1524  158.0533 H   0  0  0  0  0  0  0  0  0  0  0  0
  147.9706  133.8271  153.3214 H   0  0  0  0  0  0  0  0  0  0  0  0
  148.9188  132.3407  152.7620 H   0  0  0  0  0  0  0  0  0  0  0  0
  150.6131  132.7565  154.4419 H   0  0  0  0  0  0  0  0  0  0  0  0
  148.8748  134.4691  156.0154 H   0  0  0  0  0  0  0  0  0  0  0  0
  150.6236  134.5569  155.9633 H   0  0  0  0  0  0  0  0  0  0  0  0
  149.4705  135.8311  153.6579 H   0  0  0  0  0  0  0  0  0  0  0  0
  149.2542  137.9433  153.3300 H   0  0  0  0  0  0  0  0  0  0  0  0
  148.7660  138.9108  154.7032 H   0  0  0  0  0  0  0  0  0  0  0  0
  151.7233  138.4250  154.0563 H   0  0  0  0  0  0  0  0  0  0  0  0
  150.8383  139.7060  153.2987 H   0  0  0  0  0  0  0  0  0  0  0  0
  148.5490  140.7883  154.6279 H   0  0  0  0  0  0  0  0  0  0  0  0
  149.6605  141.9246  153.8469 H   0  0  0  0  0  0  0  0  0  0  0  0
  148.7407  142.4183  155.2687 H   0  0  0  0  0  0  0  0  0  0  0  0
  151.7115  141.1255  160.5481 H   0  0  0  0  0  0  0  0  0  0  0  0
  153.1706  140.7032  159.6829 H   0  0  0  0  0  0  0  0  0  0  0  0
  153.6909  141.9904  161.7488 H   0  0  0  0  0  0  0  0  0  0  0  0
  154.2508  142.8407  160.3219 H   0  0  0  0  0  0  0  0  0  0  0  0
  151.5467  145.2107  160.4116 H   0  0  0  0  0  0  0  0  0  0  0  0
  152.9892  144.7365  159.5361 H   0  0  0  0  0  0  0  0  0  0  0  0
  150.9781  144.0142  158.2869 H   0  0  0  0  0  0  0  0  0  0  0  0
  150.3456  143.1742  159.6900 H   0  0  0  0  0  0  0  0  0  0  0  0
  1  2  2  0  0  0  0
  1 24  1  0  0  0  0
  1 25  1  0  0  0  0
  2  3  1  0  0  0  0
  2 26  1  0  0  0  0
  3  4  1  0  0  0  0
  3 27  1  0  0  0  0
  3 28  1  0  0  0  0
  4  5  1  0  0  0  0
  4 29  1  0  0  0  0
  5  6  2  0  0  0  0
  5  7  1  0  0  0  0
  7  8  1  0  0  0  0
  7 30  1  0  0  0  0
  7 31  1  0  0  0  0
  8  9  1  0  0  0  0
  8 32  1  0  0  0  0
  8 33  1  0  0  0  0
  9 21  1  0  0  0  0
  9 10  2  0  0  0  0
 10 11  1  0  0  0  0
 10 12  1  0  0  0  0
 11 34  1  0  0  0  0
 11 35  1  0  0  0  0
 11 36  1  0  0  0  0
 12 13  2  0  0  0  0
 13 14  1  0  0  0  0
 13 20  1  0  0  0  0
 14 19  1  0  0  0  0
 14 15  1  0  0  0  0
 15 16  1  0  0  0  0
 15 37  1  0  0  0  0
 15 38  1  0  0  0  0
 16 17  1  0  0  0  0
 16 39  1  0  0  0  0
 16 40  1  0  0  0  0
 17 18  1  0  0  0  0
 18 19  1  0  0  0  0
 18 41  1  0  0  0  0
 18 42  1  0  0  0  0
 19 43  1  0  0  0  0
 19 44  1  0  0  0  0
 20 23  1  0  0  0  0
 20 21  1  0  0  0  0
 21 22  2  0  0  0  0
M  END
> <s_m_source_file>
AV-unprocessed.smi

> <i_m_source_file_index>
1503

> <i_lp_mmshare_version>
43012

> <i_f3d_flags>
0

> <s_epik_input>
W0NIMl09W0NIXVtDSDJdW05IXUMoPU8pW0NIMl1bQ0gyXWMxYyhbQ0gzXSluYyhbbkhdYzE9TylOMltDSDJdW0NIMl1PW0NIMl1bQ0gyXTI=

> <s_epik_cmdline>
J2VwaWtfcHl0aG9uJywgJy1waCcsICc3LjAnLCAnLXRuJywgJzgnLCAnLW1hJywgJzIwMCcsICctbWV0YWxfYmluZGluZycsICctaW1hZScsICc8aW5maWxlLm1hZT4nLCAnLW9tYWUnLCAnPG91dGZpbGUubWFlPic=

> <r_lp_tautomer_probability>
0.878553

> <r_epik_Ionization_Penalty>
0.00125265

> <r_epik_Ionization_Penalty_Charging>
0.00122759

> <r_epik_Ionization_Penalty_Neutral>
2.50575e-05

> <r_epik_State_Penalty>
0.0426914

> <r_epik_Charging_Adjusted_Penalty>
0.043919

> <i_epik_Tot_Q>
0

> <i_epik_Tot_abs_Q>
0

> <r_epik_Metal_State_Penalty>
1.02948

> <b_epik_Metal_Only>
0

> <s_lp_Force_Field>
OPLS_2005

> <r_lp_Energy>
21.7502

> <b_lp_Chiralities_Consistent>
1

> <s_lp_Variant>
AV-unprocessed.smi:1503-1

> <Gold.Version>
5.8.1

> <Gold.Id.Protein>
6NUR|6NUR_protein|mol2

> <Gold.PLP.Fitness>
44.6716

> <Gold.PLP.PLP>
-42.3898

> <Gold.PLP.part.hbond>
-1.8784

> <Gold.PLP.part.metal>
0.0000

> <Gold.PLP.part.buried>
-3.6066

> <Gold.PLP.part.nonpolar>
-37.1929

> <Gold.PLP.part.repulsive>
0.6771

> <Gold.PLP.ligand.clash>
0.0000

> <Gold.PLP.ligand.torsion>
0.4915

> <Gold.PLP.Chemscore.Hbond>
1.0000

> <Gold.PLP.Chemscore.CHOScore>
0.0000

> <Gold.PLP.Chemscore.Metal>
0.0000

> <Gold.Chemscore.Hbonds>
donor molecule, donor type, donor heavy atom, donor atom, acceptor molecule, acceptor atom, score
      L1  H     4    29       P1  7948  1.00

> <Gold.PLP.Chemscore.Internal.Correction>
0.2647

> <Gold.Rescore>
     Score         DG    S(hbond)    S(metal)    S(lipo)     H(rot)  DE(clash)    DE(int)     intcor
     13.82     -14.34       0.99        0.00      89.50       1.92       0.04       0.48       ----

> <Gold.Chemscore.Fitness>
13.8214

> <Gold.Chemscore.DG>
-14.3351

> <Gold.Chemscore.ZeroCoef>
-5.4800

> <Gold.Chemscore.Hbond>
0.9867

> <Gold.Chemscore.Metal>
0.0000

> <Gold.Chemscore.Lipo>
89.4985

> <Gold.Chemscore.Internal_Hbond>
0.0000

> <Gold.Chemscore.DEClash>
0.0370

> <Gold.Chemscore.DEInternal>
0.4768

> <Gold.Chemscore.Rot>
1.9187

> <Gold.Chemscore.Internal.Correction>
   9.000000E+99

> <Gold.Chemscore.Hbonds>
donor molecule, donor type, donor heavy atom, donor atom, acceptor molecule, acceptor atom, score
      L1  H     4    29       P1  7948  0.40

> <Gold.Chemscore.Hbond.Weighted>
-3.2957

> <Gold.Chemscore.Metal.Weighted>
-0.0000

> <Gold.Chemscore.Lipo.Weighted>
-10.4713

> <Gold.Chemscore.Internal_Hbond.Weighted>
0.0000

> <Gold.Chemscore.DEClash.Weighted>
0.0370

> <Gold.Chemscore.DEInternal.Weighted>
0.4768

> <Gold.Chemscore.Rot.Weighted>
4.9119

> <Gold.Chemscore.Internal.Correction.Weighted>
   9.000000E+99

> <Gold.Protein.RotatedTorsions>
[ 6907 6896 6895 6894 ] final  -61.36 input  -60.11 | X-H torsion
[ 7974 7965 7964 7962 ] final -118.68 input  175.53 | X-H torsion
[ 8008 7997 7996 7995 ] final -175.98 input   59.86 | X-H torsion
[ 10167 10162 10161 10158 ] final -123.91 input  -65.29 | X-H torsion
[ 10718 10713 10712 10709 ] final  164.63 input   66.30 | X-H torsion
[ 10763 10752 10751 10750 ] final  -18.69 input  -60.55 | X-H torsion
[ 11005 11000 10999 10996 ] final   22.23 input  -57.11 | X-H torsion

> <Gold.Protein.ActiveResidues>
 VAL166  LYS551  ARG553  GLY616  TRP617  ASP618  TYR619  PRO620  LYS621  CYS622 
 ASP623  PHE694  ASN695  SER759  ASP760  ASP761  ALA762  ILE779  LEU786  VAL792 
 PHE793  MET794  SER795  GLU796  ALA797  LYS798  CYS799  TRP800  GLU811  SER814 

> <Gold.Protein.RotatedAtoms>
  150.7790  134.6714  159.6393 H   0  0  0  0  0  0  0  0  0  0  0  0  # atno 6907 bound_to 6896
  152.3869  134.6501  160.0131 H   0  0  0  0  0  0  0  0  0  0  0  0  # atno 6908 bound_to 6896
  151.6813  133.3275  159.3256 H   0  0  0  0  0  0  0  0  0  0  0  0  # atno 6909 bound_to 6896
  145.0711  140.8360  143.4095 H   0  0  0  0  0  0  0  0  0  0  0  0  # atno 7974 bound_to 7965
  155.9892  140.1197  157.0654 H   0  0  0  0  0  0  0  0  0  0  0  0  # atno 8008 bound_to 7997
  154.4206  140.1129  156.5611 H   0  0  0  0  0  0  0  0  0  0  0  0  # atno 8009 bound_to 7997
  155.6365  140.3473  155.4702 H   0  0  0  0  0  0  0  0  0  0  0  0  # atno 8010 bound_to 7997
  139.9984  143.5567  152.2313 H   0  0  0  0  0  0  0  0  0  0  0  0  # atno 10167 bound_to 10162
  157.0916  131.0419  151.2535 H   0  0  0  0  0  0  0  0  0  0  0  0  # atno 10718 bound_to 10713
  153.5932  135.7002  153.5415 H   0  0  0  0  0  0  0  0  0  0  0  0  # atno 10763 bound_to 10752
  153.3161  135.4087  155.1377 H   0  0  0  0  0  0  0  0  0  0  0  0  # atno 10764 bound_to 10752
  154.8597  135.3684  154.5464 H   0  0  0  0  0  0  0  0  0  0  0  0  # atno 10765 bound_to 10752
  140.3829  134.1902  155.7663 H   0  0  0  0  0  0  0  0  0  0  0  0  # atno 11005 bound_to 11000
  145.1291  139.2643  143.5548 LP  0  0  0  0  0  0  0  0  0  0  0  0  # atno 17320 bound_to 7965
  146.3528  140.0937  142.8611 LP  0  0  0  0  0  0  0  0  0  0  0  0  # atno 17321 bound_to 7965
  139.6289  144.7641  151.2578 LP  0  0  0  0  0  0  0  0  0  0  0  0  # atno 17342 bound_to 10162
  140.7428  143.6514  150.8245 LP  0  0  0  0  0  0  0  0  0  0  0  0  # atno 17343 bound_to 10162
  157.4716  130.7712  149.7329 LP  0  0  0  0  0  0  0  0  0  0  0  0  # atno 17370 bound_to 10713
  155.9896  130.3950  150.3063 LP  0  0  0  0  0  0  0  0  0  0  0  0  # atno 17371 bound_to 10713
  141.1917  133.8188  157.0867 LP  0  0  0  0  0  0  0  0  0  0  0  0  # atno 17394 bound_to 11000
  140.0465  134.9828  157.1058 LP  0  0  0  0  0  0  0  0  0  0  0  0  # atno 17395 bound_to 11000

$$$$
