AV-unprocessed.smi:793|AV-procd|sdf|3754|dock6
  -GOLD-   22720 1183D 1   1.00000     0.00000
 Structure written by MMmdl.
 38 39  0  0  0  0  0  0  0  0  2 V2000
  151.7760  140.7994  156.1036 C   0  0  0  0  0  0  0  0  0  0  0  0
  152.5677  140.2128  157.2790 C   0  0  0  0  0  0  0  0  0  0  0  0
  152.3368  140.9814  158.5940 C   0  0  2  0  0  0  0  0  0  0  0  0
  152.5411  142.3706  158.3288 O   0  0  0  0  0  0  0  0  0  0  0  0
  151.7400  143.2979  159.0597 C   0  0  0  0  0  0  0  0  0  0  0  0
  152.0765  144.7638  158.7700 C   0  0  0  0  0  0  0  0  0  0  0  0
  151.6191  145.5281  160.0171 C   0  0  0  0  0  0  0  0  0  0  0  0
  151.5717  144.5009  161.1596 C   0  0  0  0  0  0  0  0  0  0  0  0
  152.0226  143.1669  160.5550 C   0  0  0  0  0  0  0  0  0  0  0  0
  153.2849  140.5012  159.7061 C   0  0  0  0  0  0  0  0  0  0  0  0
  154.0309  141.3044  160.2667 O   0  0  0  0  0  0  0  0  0  0  0  0
  153.2009  139.1934  160.0096 N   0  0  0  0  0  0  0  0  0  0  0  0
  153.8978  138.4639  161.0109 C   0  0  0  0  0  0  0  0  0  0  0  0
  154.4503  139.0607  162.1715 C   0  0  0  0  0  0  0  0  0  0  0  0
  155.1299  138.3715  163.1135 N   0  0  0  0  0  0  0  0  0  0  0  0
  155.2925  137.0443  162.9304 C   0  0  0  0  0  0  0  0  0  0  0  0
  154.7999  136.3515  161.8076 C   0  0  0  0  0  0  0  0  0  0  0  0
  154.0939  137.0748  160.8271 C   0  0  0  0  0  0  0  0  0  0  0  0
  153.6094  136.4243  159.7254 O   0  5  0  0  0  0  0  0  0  0  0  0
  151.9563  140.2299  155.1918 H   0  0  0  0  0  0  0  0  0  0  0  0
  152.0618  141.8339  155.9119 H   0  0  0  0  0  0  0  0  0  0  0  0
  150.7041  140.7793  156.3020 H   0  0  0  0  0  0  0  0  0  0  0  0
  152.2782  139.1686  157.4062 H   0  0  0  0  0  0  0  0  0  0  0  0
  153.6298  140.2087  157.0307 H   0  0  0  0  0  0  0  0  0  0  0  0
  151.3058  140.8096  158.9071 H   0  0  0  0  0  0  0  0  0  0  0  0
  150.6754  143.1239  158.8978 H   0  0  0  0  0  0  0  0  0  0  0  0
  153.1551  144.8754  158.6507 H   0  0  0  0  0  0  0  0  0  0  0  0
  151.6010  145.1331  157.8609 H   0  0  0  0  0  0  0  0  0  0  0  0
  152.2897  146.3581  160.2417 H   0  0  0  0  0  0  0  0  0  0  0  0
  150.6246  145.9466  159.8566 H   0  0  0  0  0  0  0  0  0  0  0  0
  152.2046  144.7925  161.9983 H   0  0  0  0  0  0  0  0  0  0  0  0
  150.5512  144.4159  161.5349 H   0  0  0  0  0  0  0  0  0  0  0  0
  151.5188  142.3100  161.0030 H   0  0  0  0  0  0  0  0  0  0  0  0
  153.0942  143.0411  160.7159 H   0  0  0  0  0  0  0  0  0  0  0  0
  152.4779  138.6731  159.5333 H   0  0  0  0  0  0  0  0  0  0  0  0
  154.3752  140.1210  162.3559 H   0  0  0  0  0  0  0  0  0  0  0  0
  155.8376  136.5184  163.7001 H   0  0  0  0  0  0  0  0  0  0  0  0
  154.9627  135.2886  161.7036 H   0  0  0  0  0  0  0  0  0  0  0  0
  1  2  1  0  0  0  0
  1 20  1  0  0  0  0
  1 21  1  0  0  0  0
  1 22  1  0  0  0  0
  2  3  1  0  0  0  0
  2 23  1  0  0  0  0
  2 24  1  0  0  0  0
  3  4  1  0  0  0  0
  3 10  1  0  0  0  0
  3 25  1  0  0  0  0
  4  5  1  0  0  0  0
  5  9  1  0  0  0  0
  5  6  1  0  0  0  0
  5 26  1  0  0  0  0
  6  7  1  0  0  0  0
  6 27  1  0  0  0  0
  6 28  1  0  0  0  0
  7  8  1  0  0  0  0
  7 29  1  0  0  0  0
  7 30  1  0  0  0  0
  8  9  1  0  0  0  0
  8 31  1  0  0  0  0
  8 32  1  0  0  0  0
  9 33  1  0  0  0  0
  9 34  1  0  0  0  0
 10 11  2  0  0  0  0
 10 12  1  0  0  0  0
 12 35  1  0  0  0  0
 12 13  1  0  0  0  0
 13 18  1  0  0  0  0
 13 14  2  0  0  0  0
 14 36  1  0  0  0  0
 14 15  1  0  0  0  0
 15 16  2  0  0  0  0
 16 37  1  0  0  0  0
 16 17  1  0  0  0  0
 17 18  2  0  0  0  0
 17 38  1  0  0  0  0
 18 19  1  0  0  0  0
M  CHG  1  19  -1
M  END
> <s_m_source_file>
AV-unprocessed.smi

> <i_m_source_file_index>
793

> <i_lp_mmshare_version>
43012

> <i_f3d_flags>
0

> <s_epik_input>
W0NIMl0xW0NIMl1bQ0gyXVtDSDJdW0NIXTFPW0NAQEhdKFtDSDJdW0NIM10pQyg9TylbTkhdYzJbY0hdbltjSF1bY0hdYzJbT0hd

> <s_epik_cmdline>
J2VwaWtfcHl0aG9uJywgJy1waCcsICc3LjAnLCAnLXRuJywgJzgnLCAnLW1hJywgJzIwMCcsICctbWV0YWxfYmluZGluZycsICctaW1hZScsICc8aW5maWxlLm1hZT4nLCAnLW9tYWUnLCAnPG91dGZpbGUubWFlPic=

> <r_lp_tautomer_probability>
1

> <r_epik_Ionization_Penalty>
5.91611

> <r_epik_Ionization_Penalty_Charging>
1.01889

> <r_epik_Ionization_Penalty_Neutral>
4.89722

> <r_epik_State_Penalty>
4.89706

> <r_epik_Charging_Adjusted_Penalty>
5.91595

> <i_epik_Tot_Q>
-1

> <i_epik_Tot_abs_Q>
1

> <r_epik_Metal_State_Penalty>
1.05012

> <b_epik_Metal_Only>
1

> <s_lp_Force_Field>
OPLS_2005

> <r_lp_Energy>
28.2146

> <b_lp_Chiralities_Consistent>
1

> <s_lp_Variant>
AV-unprocessed.smi:793-3

> <Gold.Version>
5.8.1

> <Gold.Id.Protein>
6NUR|6NUR_protein|mol2

> <Gold.PLP.Fitness>
41.1246

> <Gold.PLP.PLP>
-36.2886

> <Gold.PLP.part.hbond>
-1.0000

> <Gold.PLP.part.metal>
0.0000

> <Gold.PLP.part.buried>
-2.0884

> <Gold.PLP.part.nonpolar>
-32.5799

> <Gold.PLP.part.repulsive>
0.0788

> <Gold.PLP.ligand.clash>
0.0000

> <Gold.PLP.ligand.torsion>
0.6076

> <Gold.PLP.Chemscore.Hbond>
2.0000

> <Gold.PLP.Chemscore.CHOScore>
0.0000

> <Gold.PLP.Chemscore.Metal>
0.0000

> <Gold.Chemscore.Hbonds>
donor molecule, donor type, donor heavy atom, donor atom, acceptor molecule, acceptor atom, score
      P1  H  6896  6909       L1    19  1.85

> <Gold.PLP.Chemscore.Internal.Correction>
0.0513

> <Gold.Rescore>
     Score         DG    S(hbond)    S(metal)    S(lipo)     H(rot)  DE(clash)    DE(int)     intcor
     16.54     -17.61       1.00        0.00     107.82       1.49       0.13       0.94       ----

> <Gold.Chemscore.Fitness>
16.5400

> <Gold.Chemscore.DG>
-17.6095

> <Gold.Chemscore.ZeroCoef>
-5.4800

> <Gold.Chemscore.Hbond>
0.9992

> <Gold.Chemscore.Metal>
0.0000

> <Gold.Chemscore.Lipo>
107.8180

> <Gold.Chemscore.Internal_Hbond>
0.0000

> <Gold.Chemscore.DEClash>
0.1250

> <Gold.Chemscore.DEInternal>
0.9445

> <Gold.Chemscore.Rot>
1.4932

> <Gold.Chemscore.Internal.Correction>
   9.000000E+99

> <Gold.Chemscore.Hbonds>
donor molecule, donor type, donor heavy atom, donor atom, acceptor molecule, acceptor atom, score
      P1  H  6896  6909       L1    19  0.84

> <Gold.Chemscore.Hbond.Weighted>
-3.3374

> <Gold.Chemscore.Metal.Weighted>
-0.0000

> <Gold.Chemscore.Lipo.Weighted>
-12.6147

> <Gold.Chemscore.Internal_Hbond.Weighted>
0.0000

> <Gold.Chemscore.DEClash.Weighted>
0.1250

> <Gold.Chemscore.DEInternal.Weighted>
0.9445

> <Gold.Chemscore.Rot.Weighted>
3.8226

> <Gold.Chemscore.Internal.Correction.Weighted>
   9.000000E+99

> <Gold.Protein.RotatedTorsions>
[ 6907 6896 6895 6894 ] final  161.01 input  -60.11 | X-H torsion
[ 7974 7965 7964 7962 ] final -147.04 input  175.53 | X-H torsion
[ 8008 7997 7996 7995 ] final -121.02 input   59.86 | X-H torsion
[ 10167 10162 10161 10158 ] final  -39.41 input  -65.29 | X-H torsion
[ 10718 10713 10712 10709 ] final  -53.39 input   66.30 | X-H torsion
[ 10763 10752 10751 10750 ] final  166.61 input  -60.55 | X-H torsion
[ 11005 11000 10999 10996 ] final  -31.37 input  -57.11 | X-H torsion

> <Gold.Protein.ActiveResidues>
 VAL166  LYS551  ARG553  GLY616  TRP617  ASP618  TYR619  PRO620  LYS621  CYS622 
 ASP623  PHE694  ASN695  SER759  ASP760  ASP761  ALA762  ILE779  LEU786  VAL792 
 PHE793  MET794  SER795  GLU796  ALA797  LYS798  CYS799  TRP800  GLU811  SER814 

> <Gold.Protein.RotatedAtoms>
  151.9620  133.3698  159.4038 H   0  0  0  0  0  0  0  0  0  0  0  0  # atno 6907 bound_to 6896
  150.6962  134.4230  159.5223 H   0  0  0  0  0  0  0  0  0  0  0  0  # atno 6908 bound_to 6896
  152.1920  134.8663  160.0567 H   0  0  0  0  0  0  0  0  0  0  0  0  # atno 6909 bound_to 6896
  144.8119  140.5378  143.5636 H   0  0  0  0  0  0  0  0  0  0  0  0  # atno 7974 bound_to 7965
  155.1412  140.0402  157.2799 H   0  0  0  0  0  0  0  0  0  0  0  0  # atno 8008 bound_to 7997
  154.6471  140.2560  155.7229 H   0  0  0  0  0  0  0  0  0  0  0  0  # atno 8009 bound_to 7997
  156.2560  140.2844  156.0889 H   0  0  0  0  0  0  0  0  0  0  0  0  # atno 8010 bound_to 7997
  140.7065  143.3216  151.2779 H   0  0  0  0  0  0  0  0  0  0  0  0  # atno 10167 bound_to 10162
  156.1539  130.4151  149.9900 H   0  0  0  0  0  0  0  0  0  0  0  0  # atno 10718 bound_to 10713
  154.3415  135.2754  155.2420 H   0  0  0  0  0  0  0  0  0  0  0  0  # atno 10763 bound_to 10752
  154.4688  135.5888  153.6310 H   0  0  0  0  0  0  0  0  0  0  0  0  # atno 10764 bound_to 10752
  152.9857  135.6083  154.3617 H   0  0  0  0  0  0  0  0  0  0  0  0  # atno 10765 bound_to 10752
  140.9462  133.7248  156.1150 H   0  0  0  0  0  0  0  0  0  0  0  0  # atno 11005 bound_to 11000
  145.5303  139.1475  143.3503 LP  0  0  0  0  0  0  0  0  0  0  0  0  # atno 17320 bound_to 7965
  146.2419  140.5444  142.8930 LP  0  0  0  0  0  0  0  0  0  0  0  0  # atno 17321 bound_to 7965
  139.6671  144.0085  152.2730 LP  0  0  0  0  0  0  0  0  0  0  0  0  # atno 17342 bound_to 10162
  139.9672  144.6518  150.8024 LP  0  0  0  0  0  0  0  0  0  0  0  0  # atno 17343 bound_to 10162
  156.7750  130.9200  151.3645 LP  0  0  0  0  0  0  0  0  0  0  0  0  # atno 17370 bound_to 10713
  157.6679  130.9024  149.9974 LP  0  0  0  0  0  0  0  0  0  0  0  0  # atno 17371 bound_to 10713
  140.7666  134.3880  157.5516 LP  0  0  0  0  0  0  0  0  0  0  0  0  # atno 17394 bound_to 11000
  139.8834  134.8995  156.2768 LP  0  0  0  0  0  0  0  0  0  0  0  0  # atno 17395 bound_to 11000

$$$$
