#       Name:                AV-unprocessed.smi:1518
#       Creating user name   scv26
#       Creation time:       Fri Mar 27 06:26:35 2020


#       File generated by GOLD software.
#

@<TRIPOS>MOLECULE
AV-unprocessed.smi:1518
    54    56     1
SMALL
NO_CHARGES


@<TRIPOS>ATOM
      1 ****        -5.5457  -2.5038  -0.6120 C.3            1 S1                 0.0000
      2 ****        -6.1016  -1.0806  -0.6079 C.2            1 S1                 0.0000
      3 ****        -7.3217  -0.9249  -0.5685 O.2            1 S1                 0.0000
      4 ****        -5.1296   0.0497  -0.6521 C.ar           1 S1                 0.0000
      5 ****        -5.6147   1.3770  -0.6474 C.ar           1 S1                 0.0000
      6 ****        -4.7216   2.4625  -0.6907 C.ar           1 S1                 0.0000
      7 ****        -3.3352   2.2326  -0.7371 C.ar           1 S1                 0.0000
      8 ****        -2.8242   0.9200  -0.7401 C.ar           1 S1                 0.0000
      9 ****        -1.4528   0.7880  -0.7835 O.3            1 S1                 0.0000
     10 ****        -0.8964  -0.5200  -0.7575 C.3            1 S1                 0.0000
     11 ****         0.6346  -0.4056  -0.7666 C.3            1 S1                 0.0000
     12 ****         1.1821  -1.6948  -0.9576 O.3            1 S1                 0.0000
     13 ****         1.1842   0.2190   0.5318 C.3            1 S1                 0.0000
     14 ****         2.6448   0.3960   0.5057 N.pl3          1 S1                 0.0000
     15 ****         3.3922   1.4099  -0.0183 C.2            1 S1                 0.0000
     16 ****         2.8854   2.6306  -0.7132 C.3            1 S1                 0.0000
     17 ****         2.5519   3.6613   0.1896 O.3            1 S1                 0.0000
     18 ****         4.7005   1.1123   0.2197 N.pl3          1 S1                 1.0000
     19 ****         4.7927  -0.1030   0.8990 C.ar           1 S1                 0.0000
     20 ****         5.9022  -0.8104   1.3518 C.ar           1 S1                 0.0000
     21 ****         5.6487  -2.0292   2.0141 C.ar           1 S1                 0.0000
     22 ****         4.3337  -2.5013   2.2040 C.ar           1 S1                 0.0000
     23 ****         3.2167  -1.7752   1.7408 C.ar           1 S1                 0.0000
     24 ****         3.4754  -0.5701   1.0873 C.ar           1 S1                 0.0000
     25 ****        -3.7313  -0.1697  -0.6992 C.ar           1 S1                 0.0000
     26 ****        -4.8978  -2.6646   0.2499 H              1 S1                 0.0000
     27 ****        -4.9736  -2.6880  -1.5215 H              1 S1                 0.0000
     28 ****        -6.3573  -3.2303  -0.5680 H              1 S1                 0.0000
     29 ****        -6.6761   1.5772  -0.6113 H              1 S1                 0.0000
     30 ****        -5.1009   3.4737  -0.6881 H              1 S1                 0.0000
     31 ****        -2.6568   3.0726  -0.7696 H              1 S1                 0.0000
     32 ****        -1.2245  -1.0652   0.1293 H              1 S1                 0.0000
     33 ****        -1.2299  -1.0710  -1.6388 H              1 S1                 0.0000
     34 ****         0.9364   0.2022  -1.6202 H              1 S1                 0.0000
     35 ****         0.8830  -2.2554  -0.2585 H              1 S1                 0.0000
     36 ****         0.7473   1.2067   0.6833 H              1 S1                 0.0000
     37 ****         0.9040  -0.3691   1.4057 H              1 S1                 0.0000
     38 ****         3.6441   2.9959  -1.4057 H              1 S1                 0.0000
     39 ****         2.0067   2.3777  -1.3063 H              1 S1                 0.0000
     40 ****         2.2226   4.3978  -0.3031 H              1 S1                 0.0000
     41 ****         6.9105  -0.4511   1.2067 H              1 S1                 0.0000
     42 ****         6.4792  -2.6138   2.3827 H              1 S1                 0.0000
     43 ****         4.1780  -3.4405   2.7150 H              1 S1                 0.0000
     44 ****         2.2155  -2.1501   1.8902 H              1 S1                 0.0000
     45 ****        -3.3552  -1.1801  -0.7048 H              1 S1                 0.0000
     46 ****         5.4727   1.7032  -0.0603 H              1 S1                 0.0000
     47 ****        -7.9266  -1.7206  -0.5400 LP             1 S1                 0.0000
     48 ****        -7.7082  -0.0026  -0.5649 LP             1 S1                 0.0000
     49 ****        -1.0835   1.2817   0.0039 LP             1 S1                 0.0000
     50 ****        -1.1406   1.2250  -1.6271 LP             1 S1                 0.0000
     51 ****         2.1807  -1.6423  -0.9437 LP             1 S1                 0.0000
     52 ****         0.8799  -2.0624  -1.8371 LP             1 S1                 0.0000
     53 ****         3.3649   3.9357   0.7032 LP             1 S1                 0.0000
     54 ****         1.8496   3.3393   0.8244 LP             1 S1                 0.0000
@<TRIPOS>BOND
    1    1    2 1     
    2    1   26 1     
    3    1   27 1     
    4    1   28 1     
    5    2    3 2     
    6    2    4 1     
    7    4   25 ar    
    8    4    5 ar    
    9    5    6 ar    
   10    5   29 1     
   11    6    7 ar    
   12    6   30 1     
   13    7    8 ar    
   14    7   31 1     
   15    8    9 1     
   16    8   25 ar    
   17    9   10 1     
   18   10   11 1     
   19   10   32 1     
   20   10   33 1     
   21   11   12 1     
   22   11   13 1     
   23   11   34 1     
   24   12   35 1     
   25   13   14 1     
   26   13   36 1     
   27   13   37 1     
   28   14   24 1     
   29   14   15 1     
   30   15   16 1     
   31   15   18 2     
   32   16   17 1     
   33   16   38 1     
   34   16   39 1     
   35   17   40 1     
   36   18   19 1     
   37   18   46 1     
   38   19   24 ar    
   39   19   20 ar    
   40   20   21 ar    
   41   20   41 1     
   42   21   22 ar    
   43   21   42 1     
   44   22   23 ar    
   45   22   43 1     
   46   23   24 ar    
   47   23   44 1     
   48   25   45 1     
   49    3   47 1     
   50    3   48 1     
   51    9   49 1     
   52    9   50 1     
   53   12   51 1     
   54   12   52 1     
   55   17   53 1     
   56   17   54 1     
@<TRIPOS>SUBSTRUCTURE
      1 S1             1
@<TRIPOS>SET
LONE_PAIRS      STATIC     ATOMS    <user>   **** ""
8 47 48 49 50 51 52 53 54
DONOR_HYDROGENS      STATIC     ATOMS    <user>   **** ""
3 35 40 46
ATOM$BLUE        STATIC     ATOMS    COLORGROUP SYSTEM
8 47 48 49 50 51 52 53 54
ATOM$RED        STATIC     ATOMS    COLORGROUP SYSTEM
3 35 40 46
