#       Name:                AV-unprocessed.smi:3113
#       Creating user name   scv26
#       Creation time:       Fri Mar 27 17:23:38 2020


#       File generated by GOLD software.
#

@<TRIPOS>MOLECULE
AV-unprocessed.smi:3113
    38    39     1
SMALL
NO_CHARGES


@<TRIPOS>ATOM
      1 ****        -5.7602   2.1000   0.8596 C.2            1 S1                 0.0000
      2 ****        -5.5680   1.9709  -0.5446 C.2            1 S1                 0.0000
      3 ****        -4.2903   1.8837  -0.8786 N.2            1 S1                 0.0000
      4 ****        -3.6279   1.9572   0.2957 N.pl3          1 S1                 0.0000
      5 ****        -2.1798   1.8905   0.3074 C.3            1 S1                 0.0000
      6 ****        -1.6786   0.4451   0.1814 C.3            1 S1                 0.0000
      7 ****        -0.2042   0.3945   0.1865 N.4            1 S1                 1.0000
      8 ****         0.3513  -0.9699   0.0911 C.3            1 S1                 0.0000
      9 ****         1.8862  -0.9433   0.1092 C.3            1 S1                 0.0000
     10 ****         2.4867  -2.3598   0.1954 C.3            1 S1                 0.0000
     11 ****         4.0170  -2.3004   0.1263 C.3            1 S1                 0.0000
     12 ****         4.4498  -1.5106  -1.1134 C.3            1 S1                 0.0000
     13 ****         3.7440  -0.1456  -1.1528 C.3            1 S1                 0.0000
     14 ****         2.3317  -0.3252  -1.0965 O.3            1 S1                 0.0000
     15 ****        -4.4910   2.0881   1.3634 C.2            1 S1                 0.0000
     16 ****        -6.6852   2.1878   1.4101 H              1 S1                 0.0000
     17 ****        -6.3138   1.9368  -1.3253 H              1 S1                 0.0000
     18 ****        -1.7961   2.5023  -0.5106 H              1 S1                 0.0000
     19 ****        -1.8203   2.3394   1.2342 H              1 S1                 0.0000
     20 ****        -2.0620  -0.1552   1.0078 H              1 S1                 0.0000
     21 ****        -2.0473  -0.0025  -0.7427 H              1 S1                 0.0000
     22 ****         0.1386   0.9324  -0.5972 H              1 S1                 0.0000
     23 ****        -0.0173  -1.5548   0.9349 H              1 S1                 0.0000
     24 ****        -0.0094  -1.4533  -0.8181 H              1 S1                 0.0000
     25 ****         2.2223  -0.3560   0.9661 H              1 S1                 0.0000
     26 ****         2.1757  -2.8482   1.1195 H              1 S1                 0.0000
     27 ****         2.1081  -2.9720  -0.6244 H              1 S1                 0.0000
     28 ****         4.4065  -1.8185   1.0239 H              1 S1                 0.0000
     29 ****         4.4373  -3.3061   0.1030 H              1 S1                 0.0000
     30 ****         5.5319  -1.3766  -1.1167 H              1 S1                 0.0000
     31 ****         4.2015  -2.0749  -2.0133 H              1 S1                 0.0000
     32 ****         4.0733   0.4877  -0.3276 H              1 S1                 0.0000
     33 ****         3.9955   0.3788  -2.0748 H              1 S1                 0.0000
     34 ****        -4.1357   2.1596   2.3809 H              1 S1                 0.0000
     35 ****         0.1297   0.8186   1.0401 H              1 S1                 0.0000
     36 ****        -3.9025   1.7854  -1.7951 LP             1 S1                 0.0000
     37 ****         1.8950   0.5711  -1.1732 LP             1 S1                 0.0000
     38 ****         2.0542  -0.8982  -1.8676 LP             1 S1                 0.0000
@<TRIPOS>BOND
    1    1   15 2     
    2    1    2 1     
    3    1   16 1     
    4    2    3 2     
    5    2   17 1     
    6    3    4 1     
    7    4    5 1     
    8    4   15 1     
    9    5    6 1     
   10    5   18 1     
   11    5   19 1     
   12    6    7 1     
   13    6   20 1     
   14    6   21 1     
   15    7    8 1     
   16    7   22 1     
   17    7   35 1     
   18    8    9 1     
   19    8   23 1     
   20    8   24 1     
   21    9   14 1     
   22    9   10 1     
   23    9   25 1     
   24   10   11 1     
   25   10   26 1     
   26   10   27 1     
   27   11   12 1     
   28   11   28 1     
   29   11   29 1     
   30   12   13 1     
   31   12   30 1     
   32   12   31 1     
   33   13   14 1     
   34   13   32 1     
   35   13   33 1     
   36   15   34 1     
   37    3   36 1     
   38   14   37 1     
   39   14   38 1     
@<TRIPOS>SUBSTRUCTURE
      1 S1             1
@<TRIPOS>SET
LONE_PAIRS      STATIC     ATOMS    <user>   **** ""
3 36 37 38
DONOR_HYDROGENS      STATIC     ATOMS    <user>   **** ""
2 22 35
ATOM$BLUE        STATIC     ATOMS    COLORGROUP SYSTEM
3 36 37 38
ATOM$RED        STATIC     ATOMS    COLORGROUP SYSTEM
2 22 35
