AV-unprocessed.smi:901|AV-procd|sdf|4093|dock4
  -GOLD-   22720 1583D 1   1.00000     0.00000
 Structure written by MMmdl.
 43 44  0  0  0  0  0  0  0  0  1 V2000
  151.5670  145.5079  160.1068 C   0  0  0  0  0  0  0  0  0  0  0  0
  151.8900  144.1610  159.4909 C   0  0  0  0  0  0  0  0  0  0  0  0
  152.7945  143.2785  160.3328 C   0  0  0  0  0  0  0  0  0  0  0  0
  151.4026  143.7977  158.2891 C   0  0  0  0  0  0  0  0  0  0  0  0
  151.6474  142.5125  157.5826 C   0  0  1  0  0  0  0  0  0  0  0  0
  151.4541  141.1880  158.2986 C   0  0  2  0  0  0  0  0  0  0  0  0
  152.4323  140.0814  158.0480 C   0  0  0  0  0  0  0  0  0  0  0  0
  152.6187  139.5909  156.9334 O   0  0  0  0  0  0  0  0  0  0  0  0
  153.0834  139.6937  159.1599 N   0  0  0  0  0  0  0  0  0  0  0  0
  154.0715  138.6836  159.2822 C   0  0  0  0  0  0  0  0  0  0  0  0
  154.0887  137.8208  160.4124 C   0  0  0  0  0  0  0  0  0  0  0  0
  155.1613  137.0096  160.1721 C   0  0  0  0  0  0  0  0  0  0  0  0
  155.7177  137.4004  158.9697 N   0  0  0  0  0  0  0  0  0  0  0  0
  156.8754  136.8450  158.2877 C   0  0  0  0  0  0  0  0  0  0  0  0
  156.8210  137.0757  156.7729 C   0  0  0  0  0  0  0  0  0  0  0  0
  157.6990  137.9442  156.2648 N   0  0  0  0  0  0  0  0  0  0  0  0
  156.0073  136.4823  156.0667 O   0  0  0  0  0  0  0  0  0  0  0  0
  155.0425  138.4310  158.4151 N   0  0  0  0  0  0  0  0  0  0  0  0
  150.4998  141.5997  157.1827 C   0  0  0  0  0  0  0  0  0  0  0  0
  149.0631  141.9158  157.5717 C   0  0  0  0  0  0  0  0  0  0  0  0
  150.5183  140.9685  155.7953 C   0  0  0  0  0  0  0  0  0  0  0  0
  151.0565  145.3742  161.0611 H   0  0  0  0  0  0  0  0  0  0  0  0
  150.9229  146.1027  159.4583 H   0  0  0  0  0  0  0  0  0  0  0  0
  152.4832  146.0719  160.2842 H   0  0  0  0  0  0  0  0  0  0  0  0
  153.7574  143.7666  160.4836 H   0  0  0  0  0  0  0  0  0  0  0  0
  152.9789  142.3084  159.8723 H   0  0  0  0  0  0  0  0  0  0  0  0
  152.3443  143.1038  161.3102 H   0  0  0  0  0  0  0  0  0  0  0  0
  150.7612  144.4910  157.7645 H   0  0  0  0  0  0  0  0  0  0  0  0
  152.4871  142.5912  156.8942 H   0  0  0  0  0  0  0  0  0  0  0  0
  151.0472  141.2286  159.3083 H   0  0  0  0  0  0  0  0  0  0  0  0
  152.8428  140.1763  160.0132 H   0  0  0  0  0  0  0  0  0  0  0  0
  153.4242  137.7997  161.2633 H   0  0  0  0  0  0  0  0  0  0  0  0
  155.5738  136.1970  160.7520 H   0  0  0  0  0  0  0  0  0  0  0  0
  157.7718  137.3025  158.7085 H   0  0  0  0  0  0  0  0  0  0  0  0
  156.9370  135.7736  158.4862 H   0  0  0  0  0  0  0  0  0  0  0  0
  157.7046  138.1373  155.2738 H   0  0  0  0  0  0  0  0  0  0  0  0
  158.3533  138.4091  156.8776 H   0  0  0  0  0  0  0  0  0  0  0  0
  148.4564  141.0101  157.5467 H   0  0  0  0  0  0  0  0  0  0  0  0
  148.6332  142.6424  156.8819 H   0  0  0  0  0  0  0  0  0  0  0  0
  149.0100  142.3306  158.5787 H   0  0  0  0  0  0  0  0  0  0  0  0
  150.1103  139.9581  155.8339 H   0  0  0  0  0  0  0  0  0  0  0  0
  151.5279  140.9206  155.3886 H   0  0  0  0  0  0  0  0  0  0  0  0
  149.9175  141.5578  155.1020 H   0  0  0  0  0  0  0  0  0  0  0  0
  1  2  1  0  0  0  0
  1 22  1  0  0  0  0
  1 23  1  0  0  0  0
  1 24  1  0  0  0  0
  2  3  1  0  0  0  0
  2  4  2  0  0  0  0
  3 25  1  0  0  0  0
  3 26  1  0  0  0  0
  3 27  1  0  0  0  0
  4  5  1  0  0  0  0
  4 28  1  0  0  0  0
  5 19  1  0  0  0  0
  5  6  1  0  0  0  0
  5 29  1  0  0  0  0
  6  7  1  0  0  0  0
  6 19  1  0  0  0  0
  6 30  1  0  0  0  0
  7  8  2  0  0  0  0
  7  9  1  0  0  0  0
  9 10  1  0  0  0  0
  9 31  1  0  0  0  0
 10 18  2  0  0  0  0
 10 11  1  0  0  0  0
 11 12  2  0  0  0  0
 11 32  1  0  0  0  0
 12 13  1  0  0  0  0
 12 33  1  0  0  0  0
 13 14  1  0  0  0  0
 13 18  1  0  0  0  0
 14 15  1  0  0  0  0
 14 34  1  0  0  0  0
 14 35  1  0  0  0  0
 15 16  1  0  0  0  0
 15 17  2  0  0  0  0
 16 36  1  0  0  0  0
 16 37  1  0  0  0  0
 19 20  1  0  0  0  0
 19 21  1  0  0  0  0
 20 38  1  0  0  0  0
 20 39  1  0  0  0  0
 20 40  1  0  0  0  0
 21 41  1  0  0  0  0
 21 42  1  0  0  0  0
 21 43  1  0  0  0  0
M  END
> <s_m_source_file>
AV-unprocessed.smi

> <i_m_source_file_index>
901

> <i_lp_mmshare_version>
43012

> <i_f3d_flags>
0

> <s_epik_input>
W0NIM11DKFtDSDNdKT1bQ0hdW0NAQEhdKEMxKFtDSDNdKVtDSDNdKVtDQEhdMUMoPU8pW05IXWMyW2NIXVtjSF1uKG4yKVtDSDJdQyg9TylbTkgyXQ==

> <s_epik_cmdline>
J2VwaWtfcHl0aG9uJywgJy1waCcsICc3LjAnLCAnLXRuJywgJzgnLCAnLW1hJywgJzIwMCcsICctbWV0YWxfYmluZGluZycsICctaW1hZScsICc8aW5maWxlLm1hZT4nLCAnLW9tYWUnLCAnPG91dGZpbGUubWFlPic=

> <r_lp_tautomer_probability>
1

> <r_epik_Ionization_Penalty>
1.01454e-05

> <r_epik_Ionization_Penalty_Charging>
0

> <r_epik_Ionization_Penalty_Neutral>
1.01454e-05

> <r_epik_State_Penalty>
-0

> <r_epik_Charging_Adjusted_Penalty>
0

> <i_epik_Tot_Q>
0

> <i_epik_Tot_abs_Q>
0

> <r_epik_Metal_State_Penalty>
-0

> <b_epik_Metal_Only>
0

> <s_lp_Force_Field>
OPLS_2005

> <r_lp_Energy>
18.0241

> <b_lp_Chiralities_Consistent>
1

> <s_lp_Variant>
AV-unprocessed.smi:901-4

> <Gold.Version>
5.8.1

> <Gold.Id.Protein>
6NUR|6NUR_protein|mol2

> <Gold.PLP.Fitness>
42.4163

> <Gold.PLP.PLP>
-36.0503

> <Gold.PLP.part.hbond>
-4.0000

> <Gold.PLP.part.metal>
0.0000

> <Gold.PLP.part.buried>
-5.6932

> <Gold.PLP.part.nonpolar>
-26.9521

> <Gold.PLP.part.repulsive>
0.1837

> <Gold.PLP.ligand.clash>
0.0000

> <Gold.PLP.ligand.torsion>
0.8756

> <Gold.PLP.Chemscore.Hbond>
2.6480

> <Gold.PLP.Chemscore.CHOScore>
0.0000

> <Gold.PLP.Chemscore.Metal>
0.0000

> <Gold.Chemscore.Hbonds>
donor molecule, donor type, donor heavy atom, donor atom, acceptor molecule, acceptor atom, score
      P1  H  7997  8008       L1     8  0.96
      P1  H  7997  8010       L1    18  0.61
      P1  H 10752 10765       L1    17  0.98

> <Gold.PLP.Chemscore.Internal.Correction>
0.1731

> <Gold.Rescore>
     Score         DG    S(hbond)    S(metal)    S(lipo)     H(rot)  DE(clash)    DE(int)     intcor
     15.33     -18.86       2.35        0.00      93.95       2.13       0.27       3.26       ----

> <Gold.Chemscore.Fitness>
15.3343

> <Gold.Chemscore.DG>
-18.8636

> <Gold.Chemscore.ZeroCoef>
-5.4800

> <Gold.Chemscore.Hbond>
2.3493

> <Gold.Chemscore.Metal>
0.0000

> <Gold.Chemscore.Lipo>
93.9489

> <Gold.Chemscore.Internal_Hbond>
0.0000

> <Gold.Chemscore.DEClash>
0.2707

> <Gold.Chemscore.DEInternal>
3.2586

> <Gold.Chemscore.Rot>
2.1309

> <Gold.Chemscore.Internal.Correction>
   9.000000E+99

> <Gold.Chemscore.Hbonds>
donor molecule, donor type, donor heavy atom, donor atom, acceptor molecule, acceptor atom, score
      P1  H  7997  8008       L1     8  0.68
      P1  H  7997  8010       L1    18  0.54
      P1  H 10752 10765       L1    17  0.86

> <Gold.Chemscore.Hbond.Weighted>
-7.8467

> <Gold.Chemscore.Metal.Weighted>
-0.0000

> <Gold.Chemscore.Lipo.Weighted>
-10.9920

> <Gold.Chemscore.Internal_Hbond.Weighted>
0.0000

> <Gold.Chemscore.DEClash.Weighted>
0.2707

> <Gold.Chemscore.DEInternal.Weighted>
3.2586

> <Gold.Chemscore.Rot.Weighted>
5.4552

> <Gold.Chemscore.Internal.Correction.Weighted>
   9.000000E+99

> <Gold.Protein.RotatedTorsions>
[ 6907 6896 6895 6894 ] final  -83.94 input  -60.11 | X-H torsion
[ 7974 7965 7964 7962 ] final  -35.10 input  175.53 | X-H torsion
[ 8008 7997 7996 7995 ] final  -35.78 input   59.86 | X-H torsion
[ 10167 10162 10161 10158 ] final   18.88 input  -65.29 | X-H torsion
[ 10718 10713 10712 10709 ] final  132.18 input   66.30 | X-H torsion
[ 10763 10752 10751 10750 ] final  -34.44 input  -60.55 | X-H torsion
[ 11005 11000 10999 10996 ] final   86.61 input  -57.11 | X-H torsion

> <Gold.Protein.ActiveResidues>
 VAL166  LYS551  ARG553  GLY616  TRP617  ASP618  TYR619  PRO620  LYS621  CYS622 
 ASP623  PHE694  ASN695  SER759  ASP760  ASP761  ALA762  ILE779  LEU786  VAL792 
 PHE793  MET794  SER795  GLU796  ALA797  LYS798  CYS799  TRP800  GLU811  SER814 

> <Gold.Protein.RotatedAtoms>
  150.6880  134.3434  159.4877 H   0  0  0  0  0  0  0  0  0  0  0  0  # atno 6907 bound_to 6896
  152.1284  134.9150  160.0569 H   0  0  0  0  0  0  0  0  0  0  0  0  # atno 6908 bound_to 6896
  152.0329  133.3910  159.4342 H   0  0  0  0  0  0  0  0  0  0  0  0  # atno 6909 bound_to 6896
  146.0774  140.6119  142.8924 H   0  0  0  0  0  0  0  0  0  0  0  0  # atno 7974 bound_to 7965
  154.4087  140.1648  156.2267 H   0  0  0  0  0  0  0  0  0  0  0  0  # atno 8008 bound_to 7997
  155.9317  140.3414  155.6232 H   0  0  0  0  0  0  0  0  0  0  0  0  # atno 8009 bound_to 7997
  155.7098  140.0755  157.2366 H   0  0  0  0  0  0  0  0  0  0  0  0  # atno 8010 bound_to 7997
  140.5621  143.9318  150.6650 H   0  0  0  0  0  0  0  0  0  0  0  0  # atno 10167 bound_to 10162
  157.4896  131.1090  150.9574 H   0  0  0  0  0  0  0  0  0  0  0  0  # atno 10718 bound_to 10713
  153.8467  135.6852  153.4797 H   0  0  0  0  0  0  0  0  0  0  0  0  # atno 10763 bound_to 10752
  153.1421  135.4653  154.9509 H   0  0  0  0  0  0  0  0  0  0  0  0  # atno 10764 bound_to 10752
  154.7820  135.3272  154.7915 H   0  0  0  0  0  0  0  0  0  0  0  0  # atno 10765 bound_to 10752
  139.8940  134.8367  156.2744 H   0  0  0  0  0  0  0  0  0  0  0  0  # atno 11005 bound_to 11000
  144.7271  140.4557  143.6965 LP  0  0  0  0  0  0  0  0  0  0  0  0  # atno 17320 bound_to 7965
  145.6280  139.1532  143.2985 LP  0  0  0  0  0  0  0  0  0  0  0  0  # atno 17321 bound_to 7965
  140.2772  143.3415  152.1184 LP  0  0  0  0  0  0  0  0  0  0  0  0  # atno 17342 bound_to 10162
  139.5075  144.6833  151.5953 LP  0  0  0  0  0  0  0  0  0  0  0  0  # atno 17343 bound_to 10162
  157.0280  130.5700  149.5339 LP  0  0  0  0  0  0  0  0  0  0  0  0  # atno 17370 bound_to 10713
  156.0166  130.5260  150.8153 LP  0  0  0  0  0  0  0  0  0  0  0  0  # atno 17371 bound_to 10713
  141.0079  133.7112  156.1065 LP  0  0  0  0  0  0  0  0  0  0  0  0  # atno 17394 bound_to 11000
  140.7408  134.4153  157.5555 LP  0  0  0  0  0  0  0  0  0  0  0  0  # atno 17395 bound_to 11000

$$$$
