AV-unprocessed.smi:685|AV-procd|sdf|3333|dock1
  -GOLD-   22720 0303D 1   1.00000     0.00000
 Structure written by MMmdl.
 50 51  0  0  0  0  0  0  0  0  1 V2000
  155.0731  136.0046  159.4498 C   0  0  0  0  0  0  0  0  0  0  0  0
  155.0125  135.4422  160.8417 C   0  0  0  0  0  0  0  0  0  0  0  0
  155.4072  134.1977  161.0522 N   0  0  0  0  0  0  0  0  0  0  0  0
  155.2432  134.0041  162.3760 N   0  0  0  0  0  0  0  0  0  0  0  0
  155.5884  132.7199  162.9544 C   0  0  0  0  0  0  0  0  0  0  0  0
  154.7424  135.1283  163.0036 C   0  0  0  0  0  0  0  0  0  0  0  0
  154.4812  135.1645  164.4752 C   0  0  0  0  0  0  0  0  0  0  0  0
  154.5806  136.0866  162.0383 C   0  0  0  0  0  0  0  0  0  0  0  0
  154.0751  137.5001  162.1792 C   0  0  0  0  0  0  0  0  0  0  0  0
  154.8557  138.4974  161.2958 C   0  0  2  0  0  0  0  0  0  0  0  0
  156.2139  138.8905  161.8993 C   0  0  0  0  0  0  0  0  0  0  0  0
  154.0677  139.7074  161.0780 N   0  0  0  0  0  0  0  0  0  0  0  0
  153.6881  140.1855  159.8823 C   0  0  0  0  0  0  0  0  0  0  0  0
  153.9697  139.6392  158.8153 O   0  0  0  0  0  0  0  0  0  0  0  0
  152.8699  141.4795  159.8965 C   0  0  0  0  0  0  0  0  0  0  0  0
  153.7199  142.7198  159.5642 C   0  0  0  0  0  0  0  0  0  0  0  0
  152.8885  144.0095  159.4419 C   0  0  0  0  0  0  0  0  0  0  0  0
  151.9553  144.2807  160.6256 C   0  0  0  0  0  0  0  0  0  0  0  0
  150.9229  145.2773  160.0900 C   0  0  0  0  0  0  0  0  0  0  0  0
  150.8664  145.0593  158.5704 C   0  0  0  0  0  0  0  0  0  0  0  0
  151.9333  144.0067  158.2449 C   0  0  0  0  0  0  0  0  0  0  0  0
  154.2973  136.7536  159.2912 H   0  0  0  0  0  0  0  0  0  0  0  0
  154.9373  135.2270  158.6976 H   0  0  0  0  0  0  0  0  0  0  0  0
  156.0356  136.4820  159.2655 H   0  0  0  0  0  0  0  0  0  0  0  0
  156.2399  132.8676  163.8160 H   0  0  0  0  0  0  0  0  0  0  0  0
  156.1078  132.0956  162.2258 H   0  0  0  0  0  0  0  0  0  0  0  0
  154.6809  132.2088  163.2763 H   0  0  0  0  0  0  0  0  0  0  0  0
  153.9698  136.0806  164.7684 H   0  0  0  0  0  0  0  0  0  0  0  0
  155.4165  135.1130  165.0327 H   0  0  0  0  0  0  0  0  0  0  0  0
  153.8576  134.3242  164.7808 H   0  0  0  0  0  0  0  0  0  0  0  0
  153.0173  137.5364  161.9173 H   0  0  0  0  0  0  0  0  0  0  0  0
  154.1180  137.8296  163.2173 H   0  0  0  0  0  0  0  0  0  0  0  0
  155.0463  138.0340  160.3260 H   0  0  0  0  0  0  0  0  0  0  0  0
  156.8679  138.0254  162.0103 H   0  0  0  0  0  0  0  0  0  0  0  0
  156.0940  139.3453  162.8832 H   0  0  0  0  0  0  0  0  0  0  0  0
  156.7332  139.6070  161.2620 H   0  0  0  0  0  0  0  0  0  0  0  0
  153.7926  140.2237  161.9010 H   0  0  0  0  0  0  0  0  0  0  0  0
  152.0449  141.3931  159.1879 H   0  0  0  0  0  0  0  0  0  0  0  0
  152.4215  141.5894  160.8844 H   0  0  0  0  0  0  0  0  0  0  0  0
  154.4691  142.8639  160.3442 H   0  0  0  0  0  0  0  0  0  0  0  0
  154.2739  142.5510  158.6394 H   0  0  0  0  0  0  0  0  0  0  0  0
  153.5634  144.8602  159.3325 H   0  0  0  0  0  0  0  0  0  0  0  0
  151.4519  143.3593  160.9221 H   0  0  0  0  0  0  0  0  0  0  0  0
  152.4835  144.6644  161.4991 H   0  0  0  0  0  0  0  0  0  0  0  0
  149.9495  145.1416  160.5623 H   0  0  0  0  0  0  0  0  0  0  0  0
  151.2484  146.2969  160.3007 H   0  0  0  0  0  0  0  0  0  0  0  0
  149.8793  144.7287  158.2457 H   0  0  0  0  0  0  0  0  0  0  0  0
  151.0827  145.9945  158.0528 H   0  0  0  0  0  0  0  0  0  0  0  0
  152.4446  144.2118  157.3039 H   0  0  0  0  0  0  0  0  0  0  0  0
  151.4574  143.0292  158.1525 H   0  0  0  0  0  0  0  0  0  0  0  0
  1  2  1  0  0  0  0
  1 22  1  0  0  0  0
  1 23  1  0  0  0  0
  1 24  1  0  0  0  0
  2  8  1  0  0  0  0
  2  3  2  0  0  0  0
  3  4  1  0  0  0  0
  4  5  1  0  0  0  0
  4  6  1  0  0  0  0
  5 25  1  0  0  0  0
  5 26  1  0  0  0  0
  5 27  1  0  0  0  0
  6  7  1  0  0  0  0
  6  8  2  0  0  0  0
  7 28  1  0  0  0  0
  7 29  1  0  0  0  0
  7 30  1  0  0  0  0
  8  9  1  0  0  0  0
  9 10  1  0  0  0  0
  9 31  1  0  0  0  0
  9 32  1  0  0  0  0
 10 11  1  0  0  0  0
 10 12  1  0  0  0  0
 10 33  1  0  0  0  0
 11 34  1  0  0  0  0
 11 35  1  0  0  0  0
 11 36  1  0  0  0  0
 12 13  1  0  0  0  0
 12 37  1  0  0  0  0
 13 14  2  0  0  0  0
 13 15  1  0  0  0  0
 15 16  1  0  0  0  0
 15 38  1  0  0  0  0
 15 39  1  0  0  0  0
 16 17  1  0  0  0  0
 16 40  1  0  0  0  0
 16 41  1  0  0  0  0
 17 21  1  0  0  0  0
 17 18  1  0  0  0  0
 17 42  1  0  0  0  0
 18 19  1  0  0  0  0
 18 43  1  0  0  0  0
 18 44  1  0  0  0  0
 19 20  1  0  0  0  0
 19 45  1  0  0  0  0
 19 46  1  0  0  0  0
 20 21  1  0  0  0  0
 20 47  1  0  0  0  0
 20 48  1  0  0  0  0
 21 49  1  0  0  0  0
 21 50  1  0  0  0  0
M  END
> <s_m_source_file>
AV-unprocessed.smi

> <i_m_source_file_index>
685

> <i_lp_mmshare_version>
43012

> <i_f3d_flags>
0

> <s_epik_input>
W0NIM11jMW5uKFtDSDNdKWMoW0NIM10pYzFbQ0gyXVtDQEhdKFtDSDNdKVtOSF1DKD1PKVtDSDJdW0NIMl1bQ0hdMltDSDJdW0NIMl1bQ0gyXVtDSDJdMg==

> <s_epik_cmdline>
J2VwaWtfcHl0aG9uJywgJy1waCcsICc3LjAnLCAnLXRuJywgJzgnLCAnLW1hJywgJzIwMCcsICctbWV0YWxfYmluZGluZycsICctaW1hZScsICc8aW5maWxlLm1hZT4nLCAnLW9tYWUnLCAnPG91dGZpbGUubWFlPic=

> <r_lp_tautomer_probability>
1

> <r_epik_Ionization_Penalty>
0.0131144

> <r_epik_Ionization_Penalty_Charging>
0

> <r_epik_Ionization_Penalty_Neutral>
0.0131144

> <r_epik_State_Penalty>
0.0101889

> <r_epik_Charging_Adjusted_Penalty>
0.0101889

> <i_epik_Tot_Q>
0

> <i_epik_Tot_abs_Q>
0

> <r_epik_Metal_State_Penalty>
0.00996794

> <b_epik_Metal_Only>
0

> <s_lp_Force_Field>
OPLS_2005

> <r_lp_Energy>
16.135

> <b_lp_Chiralities_Consistent>
1

> <s_lp_Variant>
AV-unprocessed.smi:685-1

> <Gold.Version>
5.8.1

> <Gold.Id.Protein>
6NUR|6NUR_protein|mol2

> <Gold.PLP.Fitness>
43.7958

> <Gold.PLP.PLP>
-42.3622

> <Gold.PLP.part.hbond>
-1.0000

> <Gold.PLP.part.metal>
0.0000

> <Gold.PLP.part.buried>
-5.1437

> <Gold.PLP.part.nonpolar>
-36.8149

> <Gold.PLP.part.repulsive>
0.0246

> <Gold.PLP.ligand.clash>
0.0000

> <Gold.PLP.ligand.torsion>
0.7993

> <Gold.PLP.Chemscore.Hbond>
1.0000

> <Gold.PLP.Chemscore.CHOScore>
0.0000

> <Gold.PLP.Chemscore.Metal>
0.0000

> <Gold.Chemscore.Hbonds>
donor molecule, donor type, donor heavy atom, donor atom, acceptor molecule, acceptor atom, score
      P1  H  7997  8010       L1    14  1.00

> <Gold.PLP.Chemscore.Internal.Correction>
0.0322

> <Gold.Rescore>
     Score         DG    S(hbond)    S(metal)    S(lipo)     H(rot)  DE(clash)    DE(int)     intcor
     20.26     -20.94       1.00        0.00     137.02       1.53       0.16       0.53       ----

> <Gold.Chemscore.Fitness>
20.2552

> <Gold.Chemscore.DG>
-20.9423

> <Gold.Chemscore.ZeroCoef>
-5.4800

> <Gold.Chemscore.Hbond>
0.9997

> <Gold.Chemscore.Metal>
0.0000

> <Gold.Chemscore.Lipo>
137.0243

> <Gold.Chemscore.Internal_Hbond>
0.0000

> <Gold.Chemscore.DEClash>
0.1572

> <Gold.Chemscore.DEInternal>
0.5298

> <Gold.Chemscore.Rot>
1.5268

> <Gold.Chemscore.Internal.Correction>
   9.000000E+99

> <Gold.Chemscore.Hbonds>
donor molecule, donor type, donor heavy atom, donor atom, acceptor molecule, acceptor atom, score
      P1  H  7997  8010       L1    14  1.00

> <Gold.Chemscore.Hbond.Weighted>
-3.3390

> <Gold.Chemscore.Metal.Weighted>
-0.0000

> <Gold.Chemscore.Lipo.Weighted>
-16.0318

> <Gold.Chemscore.Internal_Hbond.Weighted>
0.0000

> <Gold.Chemscore.DEClash.Weighted>
0.1572

> <Gold.Chemscore.DEInternal.Weighted>
0.5298

> <Gold.Chemscore.Rot.Weighted>
3.9086

> <Gold.Chemscore.Internal.Correction.Weighted>
   9.000000E+99

> <Gold.Protein.RotatedTorsions>
[ 6907 6896 6895 6894 ] final  -54.29 input  -60.11 | X-H torsion
[ 7974 7965 7964 7962 ] final   71.91 input  175.53 | X-H torsion
[ 8008 7997 7996 7995 ] final   13.75 input   59.86 | X-H torsion
[ 10167 10162 10161 10158 ] final  152.05 input  -65.29 | X-H torsion
[ 10718 10713 10712 10709 ] final  156.74 input   66.30 | X-H torsion
[ 10763 10752 10751 10750 ] final -175.00 input  -60.55 | X-H torsion
[ 11005 11000 10999 10996 ] final   21.41 input  -57.11 | X-H torsion

> <Gold.Protein.ActiveResidues>
 VAL166  LYS551  ARG553  GLY616  TRP617  ASP618  TYR619  PRO620  LYS621  CYS622 
 ASP623  PHE694  ASN695  SER759  ASP760  ASP761  ALA762  ILE779  LEU786  VAL792 
 PHE793  MET794  SER795  GLU796  ALA797  LYS798  CYS799  TRP800  GLU811  SER814 

> <Gold.Protein.RotatedAtoms>
  150.8351  134.7621  159.6886 H   0  0  0  0  0  0  0  0  0  0  0  0  # atno 6907 bound_to 6896
  152.4449  134.5511  159.9877 H   0  0  0  0  0  0  0  0  0  0  0  0  # atno 6908 bound_to 6896
  151.5663  133.3358  159.3016 H   0  0  0  0  0  0  0  0  0  0  0  0  # atno 6909 bound_to 6896
  145.7600  139.2796  143.1382 H   0  0  0  0  0  0  0  0  0  0  0  0  # atno 7974 bound_to 7965
  154.8388  140.2911  155.5673 H   0  0  0  0  0  0  0  0  0  0  0  0  # atno 8008 bound_to 7997
  156.3010  140.2518  156.3258 H   0  0  0  0  0  0  0  0  0  0  0  0  # atno 8009 bound_to 7997
  154.9148  140.0387  157.1955 H   0  0  0  0  0  0  0  0  0  0  0  0  # atno 8010 bound_to 7997
  139.4836  144.5390  151.7596 H   0  0  0  0  0  0  0  0  0  0  0  0  # atno 10167 bound_to 10162
  157.2009  131.0676  151.2025 H   0  0  0  0  0  0  0  0  0  0  0  0  # atno 10718 bound_to 10713
  154.5896  135.2844  155.0649 H   0  0  0  0  0  0  0  0  0  0  0  0  # atno 10763 bound_to 10752
  154.1954  135.6433  153.5075 H   0  0  0  0  0  0  0  0  0  0  0  0  # atno 10764 bound_to 10752
  153.0117  135.5456  154.6578 H   0  0  0  0  0  0  0  0  0  0  0  0  # atno 10765 bound_to 10752
  140.3919  134.1810  155.7662 H   0  0  0  0  0  0  0  0  0  0  0  0  # atno 11005 bound_to 11000
  146.0273  140.8291  142.9893 LP  0  0  0  0  0  0  0  0  0  0  0  0  # atno 17320 bound_to 7965
  144.6832  140.2717  143.7305 LP  0  0  0  0  0  0  0  0  0  0  0  0  # atno 17321 bound_to 7965
  140.4927  144.1287  150.5953 LP  0  0  0  0  0  0  0  0  0  0  0  0  # atno 17342 bound_to 10162
  140.4153  143.2637  151.9783 LP  0  0  0  0  0  0  0  0  0  0  0  0  # atno 17343 bound_to 10162
  157.3767  130.7210  149.6602 LP  0  0  0  0  0  0  0  0  0  0  0  0  # atno 17370 bound_to 10713
  155.9700  130.4183  150.4324 LP  0  0  0  0  0  0  0  0  0  0  0  0  # atno 17371 bound_to 10713
  141.1888  133.8253  157.0982 LP  0  0  0  0  0  0  0  0  0  0  0  0  # atno 17394 bound_to 11000
  140.0400  134.9859  157.0944 LP  0  0  0  0  0  0  0  0  0  0  0  0  # atno 17395 bound_to 11000

$$$$
