AV-unprocessed.smi:700|AV-procd|sdf|3407|dock8
  -GOLD-   22720 0383D 1   1.00000     0.00000
 Structure written by MMmdl.
 43 44  0  0  0  0  0  0  0  0  1 V2000
  147.2739  133.8330  162.4027 C   0  0  0  0  0  0  0  0  0  0  0  0
  147.5680  135.0074  161.5336 C   0  0  0  0  0  0  0  0  0  0  0  0
  148.2337  135.1447  160.3491 C   0  0  0  0  0  0  0  0  0  0  0  0
  148.1348  136.5355  160.0661 C   0  0  0  0  0  0  0  0  0  0  0  0
  148.6826  137.2895  158.8817 C   0  0  0  0  0  0  0  0  0  0  0  0
  150.2046  137.4660  158.9622 C   0  0  0  0  0  0  0  0  0  0  0  0
  150.8717  136.8753  159.8134 O   0  0  0  0  0  0  0  0  0  0  0  0
  150.7436  138.3048  158.0638 N   0  0  0  0  0  0  0  0  0  0  0  0
  152.1616  138.6316  157.9637 C   0  0  0  0  0  0  0  0  0  0  0  0
  152.6419  139.4518  159.1728 C   0  0  0  0  0  0  0  0  0  0  0  0
  152.5193  140.9652  158.9459 C   0  0  0  0  0  0  0  0  0  0  0  0
  152.7140  141.7690  160.2413 C   0  0  0  0  0  0  0  0  0  0  0  0
  152.8044  143.2878  160.0106 C   0  0  0  0  0  0  0  0  0  0  0  0
  151.8403  144.0925  160.8842 C   0  0  0  0  0  0  0  0  0  0  0  0
  151.7505  145.4601  160.2030 C   0  0  0  0  0  0  0  0  0  0  0  0
  152.0266  145.2089  158.7134 C   0  0  0  0  0  0  0  0  0  0  0  0
  152.4423  143.7368  158.5899 C   0  0  0  0  0  0  0  0  0  0  0  0
  147.4733  137.1817  161.0136 N   0  0  0  0  0  0  0  0  0  0  0  0
  147.1039  136.2125  161.9530 O   0  0  0  0  0  0  0  0  0  0  0  0
  147.9523  133.0082  162.1839 H   0  0  0  0  0  0  0  0  0  0  0  0
  146.2539  133.4827  162.2449 H   0  0  0  0  0  0  0  0  0  0  0  0
  147.3854  134.0907  163.4561 H   0  0  0  0  0  0  0  0  0  0  0  0
  148.7123  134.3696  159.7696 H   0  0  0  0  0  0  0  0  0  0  0  0
  148.4279  136.7752  157.9539 H   0  0  0  0  0  0  0  0  0  0  0  0
  148.2243  138.2771  158.8241 H   0  0  0  0  0  0  0  0  0  0  0  0
  150.1260  138.7504  157.4007 H   0  0  0  0  0  0  0  0  0  0  0  0
  152.7495  137.7176  157.8619 H   0  0  0  0  0  0  0  0  0  0  0  0
  152.3110  139.2005  157.0458 H   0  0  0  0  0  0  0  0  0  0  0  0
  152.0650  139.1713  160.0548 H   0  0  0  0  0  0  0  0  0  0  0  0
  153.6813  139.2055  159.3931 H   0  0  0  0  0  0  0  0  0  0  0  0
  153.2578  141.2833  158.2089 H   0  0  0  0  0  0  0  0  0  0  0  0
  151.5407  141.1849  158.5182 H   0  0  0  0  0  0  0  0  0  0  0  0
  151.9027  141.5501  160.9369 H   0  0  0  0  0  0  0  0  0  0  0  0
  153.6297  141.4315  160.7287 H   0  0  0  0  0  0  0  0  0  0  0  0
  153.8186  143.6243  160.2330 H   0  0  0  0  0  0  0  0  0  0  0  0
  150.8561  143.6213  160.8856 H   0  0  0  0  0  0  0  0  0  0  0  0
  152.1742  144.1646  161.9198 H   0  0  0  0  0  0  0  0  0  0  0  0
  150.7832  145.9350  160.3710 H   0  0  0  0  0  0  0  0  0  0  0  0
  152.5149  146.1239  160.6086 H   0  0  0  0  0  0  0  0  0  0  0  0
  151.1461  145.4146  158.1037 H   0  0  0  0  0  0  0  0  0  0  0  0
  152.8243  145.8657  158.3643 H   0  0  0  0  0  0  0  0  0  0  0  0
  153.2655  143.5988  157.8882 H   0  0  0  0  0  0  0  0  0  0  0  0
  151.5968  143.1548  158.2201 H   0  0  0  0  0  0  0  0  0  0  0  0
  1  2  1  0  0  0  0
  1 20  1  0  0  0  0
  1 21  1  0  0  0  0
  1 22  1  0  0  0  0
  2 19  1  0  0  0  0
  2  3  2  0  0  0  0
  3  4  1  0  0  0  0
  3 23  1  0  0  0  0
  4  5  1  0  0  0  0
  4 18  2  0  0  0  0
  5  6  1  0  0  0  0
  5 24  1  0  0  0  0
  5 25  1  0  0  0  0
  6  7  2  0  0  0  0
  6  8  1  0  0  0  0
  8  9  1  0  0  0  0
  8 26  1  0  0  0  0
  9 10  1  0  0  0  0
  9 27  1  0  0  0  0
  9 28  1  0  0  0  0
 10 11  1  0  0  0  0
 10 29  1  0  0  0  0
 10 30  1  0  0  0  0
 11 12  1  0  0  0  0
 11 31  1  0  0  0  0
 11 32  1  0  0  0  0
 12 13  1  0  0  0  0
 12 33  1  0  0  0  0
 12 34  1  0  0  0  0
 13 17  1  0  0  0  0
 13 14  1  0  0  0  0
 13 35  1  0  0  0  0
 14 15  1  0  0  0  0
 14 36  1  0  0  0  0
 14 37  1  0  0  0  0
 15 16  1  0  0  0  0
 15 38  1  0  0  0  0
 15 39  1  0  0  0  0
 16 17  1  0  0  0  0
 16 40  1  0  0  0  0
 16 41  1  0  0  0  0
 17 42  1  0  0  0  0
 17 43  1  0  0  0  0
 18 19  1  0  0  0  0
M  END
> <s_m_source_file>
AV-unprocessed.smi

> <i_m_source_file_index>
700

> <i_lp_mmshare_version>
43012

> <i_f3d_flags>
0

> <s_epik_input>
W0NIM11jMVtjSF1jKG5vMSlbQ0gyXUMoPU8pW05IXVtDSDJdW0NIMl1bQ0gyXVtDSDJdW0NIXTJbQ0gyXVtDSDJdW0NIMl1bQ0gyXTI=

> <s_epik_cmdline>
J2VwaWtfcHl0aG9uJywgJy1waCcsICc3LjAnLCAnLXRuJywgJzgnLCAnLW1hJywgJzIwMCcsICctbWV0YWxfYmluZGluZycsICctaW1hZScsICc8aW5maWxlLm1hZT4nLCAnLW9tYWUnLCAnPG91dGZpbGUubWFlPic=

> <r_lp_tautomer_probability>
1

> <r_epik_Ionization_Penalty>
7.08657e-08

> <r_epik_Ionization_Penalty_Charging>
0

> <r_epik_Ionization_Penalty_Neutral>
7.08657e-08

> <r_epik_State_Penalty>
-0

> <r_epik_Charging_Adjusted_Penalty>
0

> <i_epik_Tot_Q>
0

> <i_epik_Tot_abs_Q>
0

> <r_epik_Metal_State_Penalty>
-0

> <b_epik_Metal_Only>
0

> <s_lp_Force_Field>
OPLS_2005

> <r_lp_Energy>
19.5762

> <b_lp_Chiralities_Consistent>
1

> <s_lp_Variant>
AV-unprocessed.smi:700-1

> <Gold.Version>
5.8.1

> <Gold.Id.Protein>
6NUR|6NUR_protein|mol2

> <Gold.PLP.Fitness>
52.3227

> <Gold.PLP.PLP>
-46.2581

> <Gold.PLP.part.hbond>
-3.0000

> <Gold.PLP.part.metal>
0.0000

> <Gold.PLP.part.buried>
-6.3837

> <Gold.PLP.part.nonpolar>
-37.6625

> <Gold.PLP.part.repulsive>
0.0665

> <Gold.PLP.ligand.clash>
0.0000

> <Gold.PLP.ligand.torsion>
1.2571

> <Gold.PLP.Chemscore.Hbond>
2.8400

> <Gold.PLP.Chemscore.CHOScore>
0.0000

> <Gold.PLP.Chemscore.Metal>
0.0000

> <Gold.Chemscore.Hbonds>
donor molecule, donor type, donor heavy atom, donor atom, acceptor molecule, acceptor atom, score
      P1  H  6896  6908       L1     7  0.98
      P1  H  6931  6943       L1    18  0.74
      P1  H  6934  6947       L1    18  1.00

> <Gold.PLP.Chemscore.Internal.Correction>
0.0588

> <Gold.Rescore>
     Score         DG    S(hbond)    S(metal)    S(lipo)     H(rot)  DE(clash)    DE(int)     intcor
     21.65     -23.26       2.52        0.00     120.19       1.84       0.03       1.58       ----

> <Gold.Chemscore.Fitness>
21.6518

> <Gold.Chemscore.DG>
-23.2620

> <Gold.Chemscore.ZeroCoef>
-5.4800

> <Gold.Chemscore.Hbond>
2.5241

> <Gold.Chemscore.Metal>
0.0000

> <Gold.Chemscore.Lipo>
120.1863

> <Gold.Chemscore.Internal_Hbond>
0.0000

> <Gold.Chemscore.DEClash>
0.0314

> <Gold.Chemscore.DEInternal>
1.5789

> <Gold.Chemscore.Rot>
1.8399

> <Gold.Chemscore.Internal.Correction>
   9.000000E+99

> <Gold.Chemscore.Hbonds>
donor molecule, donor type, donor heavy atom, donor atom, acceptor molecule, acceptor atom, score
      P1  H  6896  6908       L1     7  0.91
      P1  H  6931  6943       L1    18  0.12
      P1  H  6934  6947       L1    18  0.94

> <Gold.Chemscore.Hbond.Weighted>
-8.4305

> <Gold.Chemscore.Metal.Weighted>
-0.0000

> <Gold.Chemscore.Lipo.Weighted>
-14.0618

> <Gold.Chemscore.Internal_Hbond.Weighted>
0.0000

> <Gold.Chemscore.DEClash.Weighted>
0.0314

> <Gold.Chemscore.DEInternal.Weighted>
1.5789

> <Gold.Chemscore.Rot.Weighted>
4.7103

> <Gold.Chemscore.Internal.Correction.Weighted>
   9.000000E+99

> <Gold.Protein.RotatedTorsions>
[ 6907 6896 6895 6894 ] final -159.04 input  -60.11 | X-H torsion
[ 7974 7965 7964 7962 ] final -144.85 input  175.53 | X-H torsion
[ 8008 7997 7996 7995 ] final  141.40 input   59.86 | X-H torsion
[ 10167 10162 10161 10158 ] final  -11.58 input  -65.29 | X-H torsion
[ 10718 10713 10712 10709 ] final   -3.60 input   66.30 | X-H torsion
[ 10763 10752 10751 10750 ] final  -29.43 input  -60.55 | X-H torsion
[ 11005 11000 10999 10996 ] final   60.44 input  -57.11 | X-H torsion

> <Gold.Protein.ActiveResidues>
 VAL166  LYS551  ARG553  GLY616  TRP617  ASP618  TYR619  PRO620  LYS621  CYS622 
 ASP623  PHE694  ASN695  SER759  ASP760  ASP761  ALA762  ILE779  LEU786  VAL792 
 PHE793  MET794  SER795  GLU796  ALA797  LYS798  CYS799  TRP800  GLU811  SER814 

> <Gold.Protein.RotatedAtoms>
  151.3274  133.4014  159.2659 H   0  0  0  0  0  0  0  0  0  0  0  0  # atno 6907 bound_to 6896
  150.9984  134.9302  159.7950 H   0  0  0  0  0  0  0  0  0  0  0  0  # atno 6908 bound_to 6896
  152.5268  134.3239  159.9211 H   0  0  0  0  0  0  0  0  0  0  0  0  # atno 6909 bound_to 6896
  144.8268  140.5658  143.5541 H   0  0  0  0  0  0  0  0  0  0  0  0  # atno 7974 bound_to 7965
  156.2966  140.2316  156.4559 H   0  0  0  0  0  0  0  0  0  0  0  0  # atno 8008 bound_to 7997
  154.8061  140.0445  157.1329 H   0  0  0  0  0  0  0  0  0  0  0  0  # atno 8009 bound_to 7997
  154.9477  140.3038  155.5093 H   0  0  0  0  0  0  0  0  0  0  0  0  # atno 8010 bound_to 7997
  140.7141  143.5625  150.9180 H   0  0  0  0  0  0  0  0  0  0  0  0  # atno 10167 bound_to 10162
  156.7736  130.5308  149.5763 H   0  0  0  0  0  0  0  0  0  0  0  0  # atno 10718 bound_to 10713
  153.7645  135.6917  153.4919 H   0  0  0  0  0  0  0  0  0  0  0  0  # atno 10763 bound_to 10752
  153.1916  135.4469  155.0155 H   0  0  0  0  0  0  0  0  0  0  0  0  # atno 10764 bound_to 10752
  154.8141  135.3390  154.7158 H   0  0  0  0  0  0  0  0  0  0  0  0  # atno 10765 bound_to 10752
  140.0232  134.6122  155.9610 H   0  0  0  0  0  0  0  0  0  0  0  0  # atno 11005 bound_to 11000
  145.4982  139.1485  143.3672 LP  0  0  0  0  0  0  0  0  0  0  0  0  # atno 17320 bound_to 7965
  146.2573  140.5121  142.8868 LP  0  0  0  0  0  0  0  0  0  0  0  0  # atno 17321 bound_to 7965
  139.9350  143.6448  152.3067 LP  0  0  0  0  0  0  0  0  0  0  0  0  # atno 17342 bound_to 10162
  139.6913  144.7646  151.1434 LP  0  0  0  0  0  0  0  0  0  0  0  0  # atno 17343 bound_to 10162
  156.1262  130.6145  151.0267 LP  0  0  0  0  0  0  0  0  0  0  0  0  # atno 17370 bound_to 10713
  157.6679  131.0867  150.7683 LP  0  0  0  0  0  0  0  0  0  0  0  0  # atno 17371 bound_to 10713
  141.1787  133.6543  156.4930 LP  0  0  0  0  0  0  0  0  0  0  0  0  # atno 17394 bound_to 11000
  140.4351  134.7066  157.4963 LP  0  0  0  0  0  0  0  0  0  0  0  0  # atno 17395 bound_to 11000

$$$$
