AV-unprocessed.smi:2397|AV-procd|sdf|9493|dock5
  -GOLD-   2272013123D 1   1.00000     0.00000
 Structure written by MMmdl.
 36 37  0  0  0  0  0  0  0  0  1 V2000
  151.6101  139.3963  155.7760 C   0  0  0  0  0  0  0  0  0  0  0  0
  150.5053  140.3566  156.2437 C   0  0  0  0  0  0  0  0  0  0  0  0
  149.6330  140.8764  155.0908 C   0  0  0  0  0  0  0  0  0  0  0  0
  151.0596  141.4915  157.0948 C   0  0  0  0  0  0  0  0  0  0  0  0
  150.8739  142.7340  156.6393 N   0  0  0  0  0  0  0  0  0  0  0  0
  151.3632  143.7396  157.3944 C   0  0  0  0  0  0  0  0  0  0  0  0
  152.0406  143.4988  158.6060 C   0  0  0  0  0  0  0  0  0  0  0  0
  152.1905  142.1445  158.9917 C   0  0  0  0  0  0  0  0  0  0  0  0
  152.8373  141.7500  160.1805 N   0  0  0  0  0  0  0  0  0  0  0  0
  153.1865  142.9020  161.0094 C   0  0  0  0  0  0  0  0  0  0  0  0
  153.6794  142.4485  162.3909 C   0  0  0  0  0  0  0  0  0  0  0  0
  154.7661  141.5480  162.2261 O   0  0  0  0  0  0  0  0  0  0  0  0
  154.3668  140.3709  161.5344 C   0  0  0  0  0  0  0  0  0  0  0  0
  153.8819  140.7172  160.1067 C   0  0  1  0  0  0  0  0  0  0  0  0
  153.4522  139.4087  159.4177 C   0  0  0  0  0  0  0  0  0  0  0  0
  152.4771  138.7084  160.0023 N   0  0  0  0  0  0  0  0  0  0  0  0
  153.9812  139.0420  158.3696 O   0  0  0  0  0  0  0  0  0  0  0  0
  151.6854  141.1504  158.2262 N   0  0  0  0  0  0  0  0  0  0  0  0
  152.1605  138.9901  156.6249 H   0  0  0  0  0  0  0  0  0  0  0  0
  152.3254  139.8990  155.1244 H   0  0  0  0  0  0  0  0  0  0  0  0
  151.1910  138.5566  155.2214 H   0  0  0  0  0  0  0  0  0  0  0  0
  149.8438  139.7691  156.8831 H   0  0  0  0  0  0  0  0  0  0  0  0
  148.8185  141.4967  155.4656 H   0  0  0  0  0  0  0  0  0  0  0  0
  149.1902  140.0519  154.5317 H   0  0  0  0  0  0  0  0  0  0  0  0
  150.2143  141.4770  154.3907 H   0  0  0  0  0  0  0  0  0  0  0  0
  151.2106  144.7451  157.0315 H   0  0  0  0  0  0  0  0  0  0  0  0
  152.4165  144.3198  159.1974 H   0  0  0  0  0  0  0  0  0  0  0  0
  153.9640  143.4816  160.5095 H   0  0  0  0  0  0  0  0  0  0  0  0
  152.3294  143.5646  161.1377 H   0  0  0  0  0  0  0  0  0  0  0  0
  154.0152  143.3080  162.9712 H   0  0  0  0  0  0  0  0  0  0  0  0
  152.8761  141.9747  162.9577 H   0  0  0  0  0  0  0  0  0  0  0  0
  155.2218  139.6947  161.4929 H   0  0  0  0  0  0  0  0  0  0  0  0
  153.5889  139.8586  162.1045 H   0  0  0  0  0  0  0  0  0  0  0  0
  154.7297  141.1374  159.5629 H   0  0  0  0  0  0  0  0  0  0  0  0
  152.1594  137.8433  159.5901 H   0  0  0  0  0  0  0  0  0  0  0  0
  152.0609  139.0486  160.8569 H   0  0  0  0  0  0  0  0  0  0  0  0
  1  2  1  0  0  0  0
  1 19  1  0  0  0  0
  1 20  1  0  0  0  0
  1 21  1  0  0  0  0
  2  3  1  0  0  0  0
  2  4  1  0  0  0  0
  2 22  1  0  0  0  0
  3 23  1  0  0  0  0
  3 24  1  0  0  0  0
  3 25  1  0  0  0  0
  4 18  1  0  0  0  0
  4  5  2  0  0  0  0
  5  6  1  0  0  0  0
  6  7  2  0  0  0  0
  6 26  1  0  0  0  0
  7  8  1  0  0  0  0
  7 27  1  0  0  0  0
  8  9  1  0  0  0  0
  8 18  2  0  0  0  0
  9 14  1  0  0  0  0
  9 10  1  0  0  0  0
 10 11  1  0  0  0  0
 10 28  1  0  0  0  0
 10 29  1  0  0  0  0
 11 12  1  0  0  0  0
 11 30  1  0  0  0  0
 11 31  1  0  0  0  0
 12 13  1  0  0  0  0
 13 14  1  0  0  0  0
 13 32  1  0  0  0  0
 13 33  1  0  0  0  0
 14 15  1  0  0  0  0
 14 34  1  0  0  0  0
 15 16  1  0  0  0  0
 15 17  2  0  0  0  0
 16 35  1  0  0  0  0
 16 36  1  0  0  0  0
M  END
> <s_m_source_file>
AV-unprocessed.smi

> <i_m_source_file_index>
2397

> <i_lp_mmshare_version>
43012

> <i_f3d_flags>
0

> <s_epik_input>
W0NIM11bQ0hdKFtDSDNdKWMxbltjSF1bY0hdYyhuMSlOMltDSDJdW0NIMl1PW0NIMl1bQ0BIXTJDKD1PKVtOSDJd

> <s_epik_cmdline>
J2VwaWtfcHl0aG9uJywgJy1waCcsICc3LjAnLCAnLXRuJywgJzgnLCAnLW1hJywgJzIwMCcsICctbWV0YWxfYmluZGluZycsICctaW1hZScsICc8aW5maWxlLm1hZT4nLCAnLW9tYWUnLCAnPG91dGZpbGUubWFlPic=

> <r_lp_tautomer_probability>
1

> <r_epik_Ionization_Penalty>
0.0323151

> <r_epik_Ionization_Penalty_Charging>
0

> <r_epik_Ionization_Penalty_Neutral>
0.0323151

> <r_epik_State_Penalty>
0.0267324

> <r_epik_Charging_Adjusted_Penalty>
0.0267324

> <i_epik_Tot_Q>
0

> <i_epik_Tot_abs_Q>
0

> <r_epik_Metal_State_Penalty>
0.0253461

> <b_epik_Metal_Only>
0

> <s_lp_Force_Field>
OPLS_2005

> <r_lp_Energy>
6.33426

> <b_lp_Chiralities_Consistent>
1

> <s_lp_Variant>
AV-unprocessed.smi:2397-1

> <Gold.Version>
5.8.1

> <Gold.Id.Protein>
6NUR|6NUR_protein|mol2

> <Gold.PLP.Fitness>
39.4462

> <Gold.PLP.PLP>
-35.6394

> <Gold.PLP.part.hbond>
-1.7576

> <Gold.PLP.part.metal>
0.0000

> <Gold.PLP.part.buried>
-2.4055

> <Gold.PLP.part.nonpolar>
-32.1057

> <Gold.PLP.part.repulsive>
0.9757

> <Gold.PLP.ligand.clash>
0.7736

> <Gold.PLP.ligand.torsion>
0.2153

> <Gold.PLP.Chemscore.Hbond>
0.9920

> <Gold.PLP.Chemscore.CHOScore>
0.5684

> <Gold.PLP.Chemscore.Metal>
0.0000

> <Gold.Chemscore.Hbonds>
donor molecule, donor type, donor heavy atom, donor atom, acceptor molecule, acceptor atom, score
      P1  H  7997  8009       L1    17  0.88
      L1  C     6    26       P1  8028  0.38

> <Gold.PLP.Chemscore.Internal.Correction>
0.3297

> <Gold.Rescore>
     Score         DG    S(hbond)    S(metal)    S(lipo)     H(rot)  DE(clash)    DE(int)     intcor
     11.67     -14.29       0.99        0.00      85.07       1.74       0.99       1.62       ----

> <Gold.Chemscore.Fitness>
11.6735

> <Gold.Chemscore.DG>
-14.2882

> <Gold.Chemscore.ZeroCoef>
-5.4800

> <Gold.Chemscore.Hbond>
0.9928

> <Gold.Chemscore.Metal>
0.0000

> <Gold.Chemscore.Lipo>
85.0696

> <Gold.Chemscore.Internal_Hbond>
0.0000

> <Gold.Chemscore.DEClash>
0.9935

> <Gold.Chemscore.DEInternal>
1.6212

> <Gold.Chemscore.Rot>
1.7426

> <Gold.Chemscore.Internal.Correction>
   9.000000E+99

> <Gold.Chemscore.Hbonds>
donor molecule, donor type, donor heavy atom, donor atom, acceptor molecule, acceptor atom, score
      P1  H  7997  8009       L1    17  0.86

> <Gold.Chemscore.Hbond.Weighted>
-3.3161

> <Gold.Chemscore.Metal.Weighted>
-0.0000

> <Gold.Chemscore.Lipo.Weighted>
-9.9531

> <Gold.Chemscore.Internal_Hbond.Weighted>
0.0000

> <Gold.Chemscore.DEClash.Weighted>
0.9935

> <Gold.Chemscore.DEInternal.Weighted>
1.6212

> <Gold.Chemscore.Rot.Weighted>
4.4610

> <Gold.Chemscore.Internal.Correction.Weighted>
   9.000000E+99

> <Gold.Protein.RotatedTorsions>
[ 6907 6896 6895 6894 ] final   25.90 input  -60.11 | X-H torsion
[ 7974 7965 7964 7962 ] final  138.13 input  175.53 | X-H torsion
[ 8008 7997 7996 7995 ] final  114.74 input   59.86 | X-H torsion
[ 10167 10162 10161 10158 ] final   99.98 input  -65.29 | X-H torsion
[ 10718 10713 10712 10709 ] final  147.86 input   66.30 | X-H torsion
[ 10763 10752 10751 10750 ] final  -58.75 input  -60.55 | X-H torsion
[ 11005 11000 10999 10996 ] final  157.93 input  -57.11 | X-H torsion

> <Gold.Protein.ActiveResidues>
 VAL166  LYS551  ARG553  GLY616  TRP617  ASP618  TYR619  PRO620  LYS621  CYS622 
 ASP623  PHE694  ASN695  SER759  ASP760  ASP761  ALA762  ILE779  LEU786  VAL792 
 PHE793  MET794  SER795  GLU796  ALA797  LYS798  CYS799  TRP800  GLU811  SER814 

> <Gold.Protein.RotatedAtoms>
  151.9794  135.0036  160.0556 H   0  0  0  0  0  0  0  0  0  0  0  0  # atno 6907 bound_to 6896
  152.1710  133.4639  159.4917 H   0  0  0  0  0  0  0  0  0  0  0  0  # atno 6908 bound_to 6896
  150.6901  134.1871  159.4314 H   0  0  0  0  0  0  0  0  0  0  0  0  # atno 6909 bound_to 6896
  144.9401  139.4941  143.5576 H   0  0  0  0  0  0  0  0  0  0  0  0  # atno 7974 bound_to 7965
  156.2339  140.2953  156.0261 H   0  0  0  0  0  0  0  0  0  0  0  0  # atno 8008 bound_to 7997
  155.2146  140.0413  157.2956 H   0  0  0  0  0  0  0  0  0  0  0  0  # atno 8009 bound_to 7997
  154.6044  140.2435  155.7757 H   0  0  0  0  0  0  0  0  0  0  0  0  # atno 8010 bound_to 7997
  139.7568  144.6967  151.0350 H   0  0  0  0  0  0  0  0  0  0  0  0  # atno 10167 bound_to 10162
  157.3157  131.0895  151.1281 H   0  0  0  0  0  0  0  0  0  0  0  0  # atno 10718 bound_to 10713
  154.2430  135.6340  153.5213 H   0  0  0  0  0  0  0  0  0  0  0  0  # atno 10763 bound_to 10752
  152.9926  135.5546  154.5890 H   0  0  0  0  0  0  0  0  0  0  0  0  # atno 10764 bound_to 10752
  154.5400  135.2894  155.1079 H   0  0  0  0  0  0  0  0  0  0  0  0  # atno 10765 bound_to 10752
  140.1816  134.8471  157.2810 H   0  0  0  0  0  0  0  0  0  0  0  0  # atno 11005 bound_to 11000
  146.3282  139.8415  142.8889 LP  0  0  0  0  0  0  0  0  0  0  0  0  # atno 17320 bound_to 7965
  145.3004  141.0192  143.3612 LP  0  0  0  0  0  0  0  0  0  0  0  0  # atno 17321 bound_to 7965
  140.7803  143.4743  151.0104 LP  0  0  0  0  0  0  0  0  0  0  0  0  # atno 17342 bound_to 10162
  139.8430  143.7539  152.3180 LP  0  0  0  0  0  0  0  0  0  0  0  0  # atno 17343 bound_to 10162
  157.2585  130.6648  149.5964 LP  0  0  0  0  0  0  0  0  0  0  0  0  # atno 17370 bound_to 10713
  155.9681  130.4516  150.5741 LP  0  0  0  0  0  0  0  0  0  0  0  0  # atno 17371 bound_to 10713
  140.2260  134.3966  155.7543 LP  0  0  0  0  0  0  0  0  0  0  0  0  # atno 17394 bound_to 11000
  141.2223  133.7190  156.8566 LP  0  0  0  0  0  0  0  0  0  0  0  0  # atno 17395 bound_to 11000

$$$$
