#       Name:                AV-unprocessed.smi:3007
#       Creating user name   scv26
#       Creation time:       Fri Mar 27 16:37:56 2020


#       File generated by GOLD software.
#

@<TRIPOS>MOLECULE
AV-unprocessed.smi:3007
    44    45     1
SMALL
NO_CHARGES


@<TRIPOS>ATOM
      1 ****        -2.9887   4.2992  -0.6833 C.3            1 S1                 0.0000
      2 ****        -3.0775   2.9177  -1.3356 C.2            1 S1                 0.0000
      3 ****        -3.2948   2.8624  -2.5462 O.2            1 S1                 0.0000
      4 ****        -2.9129   1.8121  -0.5703 N.am           1 S1                 0.0000
      5 ****        -2.9025   0.4552  -1.1283 C.3            1 S1                 0.0000
      6 ****        -1.4635  -0.0887  -1.0780 C.3            1 S1                 0.0000
      7 ****        -0.8935  -0.0432   0.3563 C.3            1 S1                 0.0000
      8 ****         0.5249  -0.3824   0.3249 N.am           1 S1                 0.0000
      9 ****         1.2249  -0.9029   1.3458 C.2            1 S1                 0.0000
     10 ****         0.7298  -1.1295   2.4506 O.2            1 S1                 0.0000
     11 ****         2.7098  -1.1975   1.0695 C.3            1 S1                 0.0000
     12 ****         3.4985  -1.5738   2.3408 C.3            1 S1                 0.0000
     13 ****         2.8488  -2.2052   0.0234 N.pl3          1 S1                 0.0000
     14 ****         3.1494  -2.0089  -1.3095 C.2            1 S1                 0.0000
     15 ****         3.1365  -3.2308  -1.9184 C.2            1 S1                 0.0000
     16 ****         2.8036  -4.1286  -0.8667 C.2            1 S1                 0.0000
     17 ****         2.6238  -3.5130   0.2902 N.2            1 S1                 0.0000
     18 ****        -1.1084   1.3425   1.0089 C.3            1 S1                 0.0000
     19 ****        -2.5664   1.8107   0.8560 C.3            1 S1                 0.0000
     20 ****        -2.0179   4.4422  -0.2080 H              1 S1                 0.0000
     21 ****        -3.7725   4.4242   0.0643 H              1 S1                 0.0000
     22 ****        -3.1122   5.0850  -1.4293 H              1 S1                 0.0000
     23 ****        -3.5660  -0.1832  -0.5431 H              1 S1                 0.0000
     24 ****        -3.2798   0.4155  -2.1509 H              1 S1                 0.0000
     25 ****        -1.4379  -1.1102  -1.4593 H              1 S1                 0.0000
     26 ****        -0.8365   0.5056  -1.7449 H              1 S1                 0.0000
     27 ****        -1.4282  -0.7897   0.9469 H              1 S1                 0.0000
     28 ****         1.0094  -0.2253  -0.5467 H              1 S1                 0.0000
     29 ****         3.1447  -0.2740   0.6837 H              1 S1                 0.0000
     30 ****         3.4516  -0.7770   3.0839 H              1 S1                 0.0000
     31 ****         4.5507  -1.7412   2.1094 H              1 S1                 0.0000
     32 ****         3.1145  -2.4826   2.8060 H              1 S1                 0.0000
     33 ****         3.3442  -1.0250  -1.7104 H              1 S1                 0.0000
     34 ****         3.3312  -3.4497  -2.9579 H              1 S1                 0.0000
     35 ****         2.6833  -5.2010  -0.9098 H              1 S1                 0.0000
     36 ****        -0.8400   1.3076   2.0653 H              1 S1                 0.0000
     37 ****        -0.4474   2.0772   0.5467 H              1 S1                 0.0000
     38 ****        -2.6994   2.7773   1.3395 H              1 S1                 0.0000
     39 ****        -3.2323   1.1284   1.3864 H              1 S1                 0.0000
     40 ****        -3.4075   3.7049  -3.0730 LP             1 S1                 0.0000
     41 ****        -3.3586   1.9750  -3.0028 LP             1 S1                 0.0000
     42 ****        -0.2347  -0.9247   2.6178 LP             1 S1                 0.0000
     43 ****         1.2922  -1.5182   3.1803 LP             1 S1                 0.0000
     44 ****         2.3763  -3.9232   1.1679 LP             1 S1                 0.0000
@<TRIPOS>BOND
    1    1    2 1     
    2    1   20 1     
    3    1   21 1     
    4    1   22 1     
    5    2    3 2     
    6    2    4 am    
    7    4   19 1     
    8    4    5 1     
    9    5    6 1     
   10    5   23 1     
   11    5   24 1     
   12    6    7 1     
   13    6   25 1     
   14    6   26 1     
   15    7    8 1     
   16    7   18 1     
   17    7   27 1     
   18    8    9 am    
   19    8   28 1     
   20    9   10 2     
   21    9   11 1     
   22   11   12 1     
   23   11   13 1     
   24   11   29 1     
   25   12   30 1     
   26   12   31 1     
   27   12   32 1     
   28   13   17 1     
   29   13   14 1     
   30   14   15 2     
   31   14   33 1     
   32   15   16 1     
   33   15   34 1     
   34   16   17 2     
   35   16   35 1     
   36   18   19 1     
   37   18   36 1     
   38   18   37 1     
   39   19   38 1     
   40   19   39 1     
   41    3   40 1     
   42    3   41 1     
   43   10   42 1     
   44   10   43 1     
   45   17   44 1     
@<TRIPOS>SUBSTRUCTURE
      1 S1             1
@<TRIPOS>SET
LONE_PAIRS      STATIC     ATOMS    <user>   **** ""
5 40 41 42 43 44
DONOR_HYDROGENS      STATIC     ATOMS    <user>   **** ""
1 28
ATOM$BLUE        STATIC     ATOMS    COLORGROUP SYSTEM
5 40 41 42 43 44
ATOM$RED        STATIC     ATOMS    COLORGROUP SYSTEM
1 28
