AV-unprocessed.smi:495|AV-procd|sdf|2715|dock1
  -GOLD-   2262023163D 1   1.00000     0.00000
 Structure written by MMmdl.
 34 36  0  0  0  0  0  0  0  0  1 V2000
  148.3507  138.6710  152.6351 N   0  0  0  0  0  0  0  0  0  0  0  0
  148.9483  139.3827  153.6738 C   0  0  0  0  0  0  0  0  0  0  0  0
  148.4510  140.6497  154.0396 C   0  0  0  0  0  0  0  0  0  0  0  0
  149.0549  141.3685  155.0898 C   0  0  0  0  0  0  0  0  0  0  0  0
  150.1554  140.8204  155.7809 C   0  0  0  0  0  0  0  0  0  0  0  0
  150.7767  141.5666  156.8659 C   0  0  0  0  0  0  0  0  0  0  0  0
  150.8952  142.8947  156.8056 N   0  0  0  0  0  0  0  0  0  0  0  0
  151.5151  143.2109  157.9979 C   0  0  0  0  0  0  0  0  0  0  0  0
  151.9151  144.4605  158.5237 C   0  0  0  0  0  0  0  0  0  0  0  0
  152.5359  144.5367  159.7878 C   0  0  0  0  0  0  0  0  0  0  0  0
  152.7631  143.3678  160.5429 C   0  0  0  0  0  0  0  0  0  0  0  0
  152.3718  142.1134  160.0367 C   0  0  0  0  0  0  0  0  0  0  0  0
  151.7563  142.0432  158.7726 C   0  0  0  0  0  0  0  0  0  0  0  0
  151.2613  140.9983  157.9996 N   0  0  0  0  0  0  0  0  0  0  0  0
  151.2537  139.5892  158.3610 C   0  0  0  0  0  0  0  0  0  0  0  0
  152.6717  139.0732  158.6402 C   0  0  0  0  0  0  0  0  0  0  0  0
  153.4143  139.0486  157.4412 O   0  0  0  0  0  0  0  0  0  0  0  0
  150.6560  139.5550  155.4095 C   0  0  0  0  0  0  0  0  0  0  0  0
  150.0522  138.8367  154.3592 C   0  0  0  0  0  0  0  0  0  0  0  0
  148.6914  137.7621  152.3559 H   0  0  0  0  0  0  0  0  0  0  0  0
  147.4866  138.9823  152.2147 H   0  0  0  0  0  0  0  0  0  0  0  0
  147.6063  141.0754  153.5177 H   0  0  0  0  0  0  0  0  0  0  0  0
  148.6697  142.3389  155.3667 H   0  0  0  0  0  0  0  0  0  0  0  0
  151.7434  145.3615  157.9538 H   0  0  0  0  0  0  0  0  0  0  0  0
  152.8378  145.4965  160.1805 H   0  0  0  0  0  0  0  0  0  0  0  0
  153.2376  143.4348  161.5110 H   0  0  0  0  0  0  0  0  0  0  0  0
  152.5432  141.2168  160.6137 H   0  0  0  0  0  0  0  0  0  0  0  0
  150.6133  139.4437  159.2308 H   0  0  0  0  0  0  0  0  0  0  0  0
  150.7984  139.0224  157.5484 H   0  0  0  0  0  0  0  0  0  0  0  0
  153.1804  139.7145  159.3607 H   0  0  0  0  0  0  0  0  0  0  0  0
  152.6431  138.0670  159.0597 H   0  0  0  0  0  0  0  0  0  0  0  0
  153.7646  138.1788  157.3225 H   0  0  0  0  0  0  0  0  0  0  0  0
  151.5027  139.1326  155.9305 H   0  0  0  0  0  0  0  0  0  0  0  0
  150.4410  137.8673  154.0830 H   0  0  0  0  0  0  0  0  0  0  0  0
  1  2  1  0  0  0  0
  1 20  1  0  0  0  0
  1 21  1  0  0  0  0
  2 19  1  0  0  0  0
  2  3  2  0  0  0  0
  3  4  1  0  0  0  0
  3 22  1  0  0  0  0
  4  5  2  0  0  0  0
  4 23  1  0  0  0  0
  5  6  1  0  0  0  0
  5 18  1  0  0  0  0
  6 14  1  0  0  0  0
  6  7  2  0  0  0  0
  7  8  1  0  0  0  0
  8 13  2  0  0  0  0
  8  9  1  0  0  0  0
  9 10  2  0  0  0  0
  9 24  1  0  0  0  0
 10 11  1  0  0  0  0
 10 25  1  0  0  0  0
 11 12  2  0  0  0  0
 11 26  1  0  0  0  0
 12 13  1  0  0  0  0
 12 27  1  0  0  0  0
 13 14  1  0  0  0  0
 14 15  1  0  0  0  0
 15 16  1  0  0  0  0
 15 28  1  0  0  0  0
 15 29  1  0  0  0  0
 16 17  1  0  0  0  0
 16 30  1  0  0  0  0
 16 31  1  0  0  0  0
 17 32  1  0  0  0  0
 18 19  2  0  0  0  0
 18 33  1  0  0  0  0
 19 34  1  0  0  0  0
M  END
> <s_m_source_file>
AV-unprocessed.smi

> <i_m_source_file_index>
495

> <i_lp_mmshare_version>
43012

> <i_f3d_flags>
0

> <s_epik_input>
W05IMl1jMVtjSF1bY0hdYyhbY0hdW2NIXTEpLWMobjIpbihbQ0gyXVtDSDJdW09IXSljKGMyMylbY0hdW2NIXVtjSF1bY0hdMw==

> <s_epik_cmdline>
J2VwaWtfcHl0aG9uJywgJy1waCcsICc3LjAnLCAnLXRuJywgJzgnLCAnLW1hJywgJzIwMCcsICctbWV0YWxfYmluZGluZycsICctaW1hZScsICc8aW5maWxlLm1hZT4nLCAnLW9tYWUnLCAnPG91dGZpbGUubWFlPic=

> <r_epik_Ionization_Penalty>
0.535683

> <r_epik_Ionization_Penalty_Charging>
0

> <r_epik_Ionization_Penalty_Neutral>
0.535683

> <r_epik_State_Penalty>
0.781633

> <r_epik_Charging_Adjusted_Penalty>
0.781633

> <i_epik_Tot_Q>
0

> <i_epik_Tot_abs_Q>
0

> <r_epik_Metal_State_Penalty>
0.00162026

> <b_epik_Metal_Only>
0

> <s_lp_Force_Field>
OPLS_2005

> <r_lp_Energy>
18.7339

> <b_lp_Chiralities_Consistent>
1

> <s_lp_Variant>
AV-unprocessed.smi:495-2

> <Gold.Version>
5.8.1

> <Gold.Id.Protein>
6NUR|6NUR_protein|mol2

> <Gold.PLP.Fitness>
47.8542

> <Gold.PLP.PLP>
-41.9213

> <Gold.PLP.part.hbond>
-2.4053

> <Gold.PLP.part.metal>
0.0000

> <Gold.PLP.part.buried>
-2.1288

> <Gold.PLP.part.nonpolar>
-38.5313

> <Gold.PLP.part.repulsive>
1.5653

> <Gold.PLP.ligand.clash>
0.0000

> <Gold.PLP.ligand.torsion>
0.5726

> <Gold.PLP.Chemscore.Hbond>
2.0000

> <Gold.PLP.Chemscore.CHOScore>
0.0000

> <Gold.PLP.Chemscore.Metal>
0.0000

> <Gold.Chemscore.Hbonds>
donor molecule, donor type, donor heavy atom, donor atom, acceptor molecule, acceptor atom, score
      L1  H     1    20       P1  7948  1.00
      P1  H  7997  8008       L1    17  1.00

> <Gold.PLP.Chemscore.Internal.Correction>
1.0781

> <Gold.Rescore>
     Score         DG    S(hbond)    S(metal)    S(lipo)     H(rot)  DE(clash)    DE(int)     intcor
     18.93     -20.91       1.94        0.00     115.07       1.76       1.13       0.85       ----

> <Gold.Chemscore.Fitness>
18.9271

> <Gold.Chemscore.DG>
-20.9069

> <Gold.Chemscore.ZeroCoef>
-5.4800

> <Gold.Chemscore.Hbond>
1.9358

> <Gold.Chemscore.Metal>
0.0000

> <Gold.Chemscore.Lipo>
115.0670

> <Gold.Chemscore.Internal_Hbond>
0.0000

> <Gold.Chemscore.DEClash>
1.1270

> <Gold.Chemscore.DEInternal>
0.8529

> <Gold.Chemscore.Rot>
1.7584

> <Gold.Chemscore.Internal.Correction>
   9.000000E+99

> <Gold.Chemscore.Hbonds>
donor molecule, donor type, donor heavy atom, donor atom, acceptor molecule, acceptor atom, score
      L1  H     1    20       P1  7948  0.99
      P1  H  7997  8008       L1    17  0.53

> <Gold.Chemscore.Hbond.Weighted>
-6.4656

> <Gold.Chemscore.Metal.Weighted>
-0.0000

> <Gold.Chemscore.Lipo.Weighted>
-13.4628

> <Gold.Chemscore.Internal_Hbond.Weighted>
0.0000

> <Gold.Chemscore.DEClash.Weighted>
1.1270

> <Gold.Chemscore.DEInternal.Weighted>
0.8529

> <Gold.Chemscore.Rot.Weighted>
4.5015

> <Gold.Chemscore.Internal.Correction.Weighted>
   9.000000E+99

> <Gold.Protein.RotatedTorsions>
[ 6907 6896 6895 6894 ] final  -75.49 input  -60.11 | X-H torsion
[ 7974 7965 7964 7962 ] final  -15.15 input  175.53 | X-H torsion
[ 8008 7997 7996 7995 ] final  -78.36 input   59.86 | X-H torsion
[ 10167 10162 10161 10158 ] final   28.26 input  -65.29 | X-H torsion
[ 10718 10713 10712 10709 ] final   37.75 input   66.30 | X-H torsion
[ 10763 10752 10751 10750 ] final  -24.82 input  -60.55 | X-H torsion
[ 11005 11000 10999 10996 ] final   60.87 input  -57.11 | X-H torsion

> <Gold.Protein.ActiveResidues>
 VAL166  LYS551  ARG553  GLY616  TRP617  ASP618  TYR619  PRO620  LYS621  CYS622 
 ASP623  PHE694  ASN695  SER759  ASP760  ASP761  ALA762  ILE779  LEU786  VAL792 
 PHE793  MET794  SER795  GLU796  ALA797  LYS798  CYS799  TRP800  GLU811  SER814 

> <Gold.Protein.RotatedAtoms>
  150.7057  134.4713  159.5426 H   0  0  0  0  0  0  0  0  0  0  0  0  # atno 6907 bound_to 6896
  152.2369  134.8264  160.0475 H   0  0  0  0  0  0  0  0  0  0  0  0  # atno 6908 bound_to 6896
  151.9060  133.3514  159.3884 H   0  0  0  0  0  0  0  0  0  0  0  0  # atno 6909 bound_to 6896
  146.2044  140.3451  142.8412 H   0  0  0  0  0  0  0  0  0  0  0  0  # atno 7974 bound_to 7965
  154.5682  140.0695  156.8924 H   0  0  0  0  0  0  0  0  0  0  0  0  # atno 8008 bound_to 7997
  155.2683  140.3363  155.4249 H   0  0  0  0  0  0  0  0  0  0  0  0  # atno 8009 bound_to 7997
  156.2097  140.1754  156.7707 H   0  0  0  0  0  0  0  0  0  0  0  0  # atno 8010 bound_to 7997
  140.4867  144.0530  150.6283 H   0  0  0  0  0  0  0  0  0  0  0  0  # atno 10167 bound_to 10162
  157.3506  130.7596  149.6976 H   0  0  0  0  0  0  0  0  0  0  0  0  # atno 10718 bound_to 10713
  153.6898  135.6962  153.5093 H   0  0  0  0  0  0  0  0  0  0  0  0  # atno 10763 bound_to 10752
  153.2421  135.4302  155.0708 H   0  0  0  0  0  0  0  0  0  0  0  0  # atno 10764 bound_to 10752
  154.8376  135.3510  154.6440 H   0  0  0  0  0  0  0  0  0  0  0  0  # atno 10765 bound_to 10752
  140.0201  134.6166  155.9652 H   0  0  0  0  0  0  0  0  0  0  0  0  # atno 11005 bound_to 11000
  144.8758  140.7334  143.6018 LP  0  0  0  0  0  0  0  0  0  0  0  0  # atno 17320 bound_to 7965
  145.3371  139.1743  143.4506 LP  0  0  0  0  0  0  0  0  0  0  0  0  # atno 17321 bound_to 7965
  140.3788  143.2814  152.0194 LP  0  0  0  0  0  0  0  0  0  0  0  0  # atno 17342 bound_to 10162
  139.4843  144.6171  151.7325 LP  0  0  0  0  0  0  0  0  0  0  0  0  # atno 17343 bound_to 10162
  155.9721  130.4141  150.4118 LP  0  0  0  0  0  0  0  0  0  0  0  0  # atno 17370 bound_to 10713
  157.2180  131.0476  151.2562 LP  0  0  0  0  0  0  0  0  0  0  0  0  # atno 17371 bound_to 10713
  141.1768  133.6541  156.4860 LP  0  0  0  0  0  0  0  0  0  0  0  0  # atno 17394 bound_to 11000
  140.4402  134.7022  157.4988 LP  0  0  0  0  0  0  0  0  0  0  0  0  # atno 17395 bound_to 11000

$$$$
