AV-unprocessed.smi:919|AV-procd|sdf|4167|dock5
  -GOLD-   22720 2 73D 1   1.00000     0.00000
 Structure written by MMmdl.
 43 45  0  0  0  0  0  0  0  0  1 V2000
  144.3824  146.7276  156.3932 C   0  0  0  0  0  0  0  0  0  0  0  0
  145.0490  147.8229  157.1751 C   0  0  0  0  0  0  0  0  0  0  0  0
  145.5149  148.8879  156.5441 N   0  0  0  0  0  0  0  0  0  0  0  0
  146.0690  149.7064  157.5333 O   0  0  0  0  0  0  0  0  0  0  0  0
  145.9120  149.0952  158.7352 C   0  0  0  0  0  0  0  0  0  0  0  0
  146.4474  149.8177  159.9247 C   0  0  0  0  0  0  0  0  0  0  0  0
  145.2689  147.8982  158.5799 C   0  0  0  0  0  0  0  0  0  0  0  0
  144.8838  146.8890  159.6266 C   0  0  0  0  0  0  0  0  0  0  0  0
  146.0997  146.4552  160.4603 C   0  0  0  0  0  0  0  0  0  0  0  0
  147.1453  145.8838  159.6210 N   0  0  0  0  0  0  0  0  0  0  0  0
  148.1745  145.1442  160.0681 C   0  0  0  0  0  0  0  0  0  0  0  0
  148.3371  144.8546  161.2521 O   0  0  0  0  0  0  0  0  0  0  0  0
  149.0302  144.7382  159.1136 N   0  0  0  0  0  0  0  0  0  0  0  0
  150.2387  143.9268  159.2760 C   0  0  1  0  0  0  0  0  0  0  0  0
  151.0642  143.8020  157.9733 C   0  0  0  0  0  0  0  0  0  0  0  0
  152.4373  144.3666  158.3814 C   0  0  2  0  0  0  0  0  0  0  0  0
  153.1220  143.3977  159.3650 C   0  0  0  0  0  0  0  0  0  0  0  0
  152.3031  143.5865  160.6574 C   0  0  0  0  0  0  0  0  0  0  0  0
  151.2376  144.6141  160.2322 C   0  0  1  0  0  0  0  0  0  0  0  0
  152.0385  145.5157  159.2970 C   0  0  0  0  0  0  0  0  0  0  0  0
  144.6264  145.7478  156.8049 H   0  0  0  0  0  0  0  0  0  0  0  0
  144.6943  146.7319  155.3482 H   0  0  0  0  0  0  0  0  0  0  0  0
  143.2982  146.8369  156.4182 H   0  0  0  0  0  0  0  0  0  0  0  0
  146.5039  149.1585  160.7910 H   0  0  0  0  0  0  0  0  0  0  0  0
  145.8081  150.6621  160.1826 H   0  0  0  0  0  0  0  0  0  0  0  0
  147.4494  150.1990  159.7273 H   0  0  0  0  0  0  0  0  0  0  0  0
  144.1182  147.2951  160.2888 H   0  0  0  0  0  0  0  0  0  0  0  0
  144.4306  146.0142  159.1587 H   0  0  0  0  0  0  0  0  0  0  0  0
  146.4961  147.2988  161.0283 H   0  0  0  0  0  0  0  0  0  0  0  0
  145.8010  145.7028  161.1909 H   0  0  0  0  0  0  0  0  0  0  0  0
  147.0903  146.0709  158.6304 H   0  0  0  0  0  0  0  0  0  0  0  0
  148.8120  145.0136  158.1668 H   0  0  0  0  0  0  0  0  0  0  0  0
  149.9615  142.9462  159.6675 H   0  0  0  0  0  0  0  0  0  0  0  0
  151.1294  142.7711  157.6227 H   0  0  0  0  0  0  0  0  0  0  0  0
  150.6352  144.3981  157.1664 H   0  0  0  0  0  0  0  0  0  0  0  0
  153.0639  144.6481  157.5345 H   0  0  0  0  0  0  0  0  0  0  0  0
  153.1049  142.3674  159.0076 H   0  0  0  0  0  0  0  0  0  0  0  0
  154.1634  143.6786  159.5275 H   0  0  0  0  0  0  0  0  0  0  0  0
  151.8669  142.6537  161.0162 H   0  0  0  0  0  0  0  0  0  0  0  0
  152.9319  143.9882  161.4531 H   0  0  0  0  0  0  0  0  0  0  0  0
  150.7694  145.1227  161.0759 H   0  0  0  0  0  0  0  0  0  0  0  0
  152.8885  145.9986  159.7825 H   0  0  0  0  0  0  0  0  0  0  0  0
  151.4320  146.2750  158.8000 H   0  0  0  0  0  0  0  0  0  0  0  0
  1  2  1  0  0  0  0
  1 21  1  0  0  0  0
  1 22  1  0  0  0  0
  1 23  1  0  0  0  0
  2  7  1  0  0  0  0
  2  3  2  0  0  0  0
  3  4  1  0  0  0  0
  4  5  1  0  0  0  0
  5  6  1  0  0  0  0
  5  7  2  0  0  0  0
  6 24  1  0  0  0  0
  6 25  1  0  0  0  0
  6 26  1  0  0  0  0
  7  8  1  0  0  0  0
  8  9  1  0  0  0  0
  8 27  1  0  0  0  0
  8 28  1  0  0  0  0
  9 10  1  0  0  0  0
  9 29  1  0  0  0  0
  9 30  1  0  0  0  0
 10 11  1  0  0  0  0
 10 31  1  0  0  0  0
 11 12  2  0  0  0  0
 11 13  1  0  0  0  0
 13 14  1  0  0  0  0
 13 32  1  0  0  0  0
 14 19  1  0  0  0  0
 14 15  1  0  0  0  0
 14 33  1  0  0  0  0
 15 16  1  0  0  0  0
 15 34  1  0  0  0  0
 15 35  1  0  0  0  0
 16 20  1  0  0  0  0
 16 17  1  0  0  0  0
 16 36  1  0  0  0  0
 17 18  1  0  0  0  0
 17 37  1  0  0  0  0
 17 38  1  0  0  0  0
 18 19  1  0  0  0  0
 18 39  1  0  0  0  0
 18 40  1  0  0  0  0
 19 20  1  0  0  0  0
 19 41  1  0  0  0  0
 20 42  1  0  0  0  0
 20 43  1  0  0  0  0
M  END
> <s_m_source_file>
AV-unprocessed.smi

> <i_m_source_file_index>
919

> <i_lp_mmshare_version>
43012

> <i_f3d_flags>
0

> <s_epik_input>
W0NIM11jMW5vYyhbQ0gzXSljMVtDSDJdW0NIMl1bTkhdQyg9TylbTkhdW0NASF0oW0NIMl1bQ0BASF0yMylbQ0BASF0oW0NIMl0zKVtDSDJdW0NIMl0y

> <s_epik_cmdline>
J2VwaWtfcHl0aG9uJywgJy1waCcsICc3LjAnLCAnLXRuJywgJzgnLCAnLW1hJywgJzIwMCcsICctbWV0YWxfYmluZGluZycsICctaW1hZScsICc8aW5maWxlLm1hZT4nLCAnLW9tYWUnLCAnPG91dGZpbGUubWFlPic=

> <r_lp_tautomer_probability>
1

> <r_epik_Ionization_Penalty>
6.40771e-05

> <r_epik_Ionization_Penalty_Charging>
0

> <r_epik_Ionization_Penalty_Neutral>
6.40771e-05

> <r_epik_State_Penalty>
-0

> <r_epik_Charging_Adjusted_Penalty>
0

> <i_epik_Tot_Q>
0

> <i_epik_Tot_abs_Q>
0

> <r_epik_Metal_State_Penalty>
-0

> <b_epik_Metal_Only>
0

> <s_lp_Force_Field>
OPLS_2005

> <r_lp_Energy>
47.296

> <b_lp_Chiralities_Consistent>
1

> <s_lp_Variant>
AV-unprocessed.smi:919-4

> <Gold.Version>
5.8.1

> <Gold.Id.Protein>
6NUR|6NUR_protein|mol2

> <Gold.PLP.Fitness>
52.0090

> <Gold.PLP.PLP>
-44.1447

> <Gold.PLP.part.hbond>
-4.0743

> <Gold.PLP.part.metal>
0.0000

> <Gold.PLP.part.buried>
-5.8177

> <Gold.PLP.part.nonpolar>
-36.6492

> <Gold.PLP.part.repulsive>
0.7723

> <Gold.PLP.ligand.clash>
0.0000

> <Gold.PLP.ligand.torsion>
0.1553

> <Gold.PLP.Chemscore.Hbond>
2.7173

> <Gold.PLP.Chemscore.CHOScore>
0.0000

> <Gold.PLP.Chemscore.Metal>
0.0000

> <Gold.Chemscore.Hbonds>
donor molecule, donor type, donor heavy atom, donor atom, acceptor molecule, acceptor atom, score
      L1  H    10    31       P1  8029  0.90
      L1  H    13    32       P1  8029  0.90

> <Gold.PLP.Chemscore.Internal.Correction>
0.0232

> <Gold.Rescore>
     Score         DG    S(hbond)    S(metal)    S(lipo)     H(rot)  DE(clash)    DE(int)     intcor
     23.94     -25.41       2.62        0.00     128.75       1.52       1.31       0.16       ----

> <Gold.Chemscore.Fitness>
23.9400

> <Gold.Chemscore.DG>
-25.4095

> <Gold.Chemscore.ZeroCoef>
-5.4800

> <Gold.Chemscore.Hbond>
2.6188

> <Gold.Chemscore.Metal>
0.0000

> <Gold.Chemscore.Lipo>
128.7503

> <Gold.Chemscore.Internal_Hbond>
0.0000

> <Gold.Chemscore.DEClash>
1.3133

> <Gold.Chemscore.DEInternal>
0.1562

> <Gold.Chemscore.Rot>
1.5161

> <Gold.Chemscore.Internal.Correction>
   9.000000E+99

> <Gold.Chemscore.Hbonds>
donor molecule, donor type, donor heavy atom, donor atom, acceptor molecule, acceptor atom, score
      L1  H    10    31       P1  8029  0.83
      L1  H    13    32       P1  8029  0.56
      P1  H  6933  6944       L1    12  0.01

> <Gold.Chemscore.Hbond.Weighted>
-8.7469

> <Gold.Chemscore.Metal.Weighted>
-0.0000

> <Gold.Chemscore.Lipo.Weighted>
-15.0638

> <Gold.Chemscore.Internal_Hbond.Weighted>
0.0000

> <Gold.Chemscore.DEClash.Weighted>
1.3133

> <Gold.Chemscore.DEInternal.Weighted>
0.1562

> <Gold.Chemscore.Rot.Weighted>
3.8813

> <Gold.Chemscore.Internal.Correction.Weighted>
   9.000000E+99

> <Gold.Protein.RotatedTorsions>
[ 6907 6896 6895 6894 ] final  -31.20 input  -60.11 | X-H torsion
[ 7974 7965 7964 7962 ] final  124.25 input  175.53 | X-H torsion
[ 8008 7997 7996 7995 ] final  103.63 input   59.86 | X-H torsion
[ 10167 10162 10161 10158 ] final  169.50 input  -65.29 | X-H torsion
[ 10718 10713 10712 10709 ] final -171.65 input   66.30 | X-H torsion
[ 10763 10752 10751 10750 ] final -132.34 input  -60.55 | X-H torsion
[ 11005 11000 10999 10996 ] final  151.64 input  -57.11 | X-H torsion

> <Gold.Protein.ActiveResidues>
 VAL166  LYS551  ARG553  GLY616  TRP617  ASP618  TYR619  PRO620  LYS621  CYS622 
 ASP623  PHE694  ASN695  SER759  ASP760  ASP761  ALA762  ILE779  LEU786  VAL792 
 PHE793  MET794  SER795  GLU796  ALA797  LYS798  CYS799  TRP800  GLU811  SER814 

> <Gold.Protein.RotatedAtoms>
  151.0953  134.9940  159.8422 H   0  0  0  0  0  0  0  0  0  0  0  0  # atno 6907 bound_to 6896
  152.5432  134.2015  159.8724 H   0  0  0  0  0  0  0  0  0  0  0  0  # atno 6908 bound_to 6896
  151.2054  133.4542  159.2630 H   0  0  0  0  0  0  0  0  0  0  0  0  # atno 6909 bound_to 6896
  145.0865  139.3618  143.4882 H   0  0  0  0  0  0  0  0  0  0  0  0  # atno 7974 bound_to 7965
  156.1502  140.3161  155.8635 H   0  0  0  0  0  0  0  0  0  0  0  0  # atno 8008 bound_to 7997
  155.3987  140.0498  157.3055 H   0  0  0  0  0  0  0  0  0  0  0  0  # atno 8009 bound_to 7997
  154.5051  140.2144  155.9279 H   0  0  0  0  0  0  0  0  0  0  0  0  # atno 8010 bound_to 7997
  139.4994  144.3699  151.9735 H   0  0  0  0  0  0  0  0  0  0  0  0  # atno 10167 bound_to 10162
  156.7440  130.9353  151.3111 H   0  0  0  0  0  0  0  0  0  0  0  0  # atno 10718 bound_to 10713
  154.8744  135.3801  154.4393 H   0  0  0  0  0  0  0  0  0  0  0  0  # atno 10763 bound_to 10752
  153.5079  135.7030  153.5801 H   0  0  0  0  0  0  0  0  0  0  0  0  # atno 10764 bound_to 10752
  153.4104  135.3926  155.2012 H   0  0  0  0  0  0  0  0  0  0  0  0  # atno 10765 bound_to 10752
  140.1237  134.8847  157.2108 H   0  0  0  0  0  0  0  0  0  0  0  0  # atno 11005 bound_to 11000
  146.3531  140.0680  142.8625 LP  0  0  0  0  0  0  0  0  0  0  0  0  # atno 17320 bound_to 7965
  145.1116  140.9408  143.4653 LP  0  0  0  0  0  0  0  0  0  0  0  0  # atno 17321 bound_to 7965
  140.3135  144.3510  150.6027 LP  0  0  0  0  0  0  0  0  0  0  0  0  # atno 17342 bound_to 10162
  140.5780  143.2175  151.7481 LP  0  0  0  0  0  0  0  0  0  0  0  0  # atno 17343 bound_to 10162
  157.6806  130.9136  150.0258 LP  0  0  0  0  0  0  0  0  0  0  0  0  # atno 17370 bound_to 10713
  156.1446  130.3642  149.9530 LP  0  0  0  0  0  0  0  0  0  0  0  0  # atno 17371 bound_to 10713
  140.2931  134.3217  155.7309 LP  0  0  0  0  0  0  0  0  0  0  0  0  # atno 17394 bound_to 11000
  141.2157  133.7547  156.9533 LP  0  0  0  0  0  0  0  0  0  0  0  0  # atno 17395 bound_to 11000

$$$$
