AV-unprocessed.smi:3156|AV-procd|sdf|12029|dock7
  -GOLD-   2272017443D 1   1.00000     0.00000
 Structure written by MMmdl.
 41 42  0  0  0  0  0  0  0  0  2 V2000
  147.0603  142.0104  155.2580 C   0  0  0  0  0  0  0  0  0  0  0  0
  148.3071  141.1417  155.5162 C   0  0  2  0  0  0  0  0  0  0  0  0
  149.3963  141.9691  156.0888 N   0  3  0  0  0  0  0  0  0  0  0  0
  149.8918  141.5457  157.4153 C   0  0  0  0  0  0  0  0  0  0  0  0
  151.2105  142.2528  157.7567 C   0  0  2  0  0  0  0  0  0  0  0  0
  151.7649  141.8043  159.1229 C   0  0  0  0  0  0  0  0  0  0  0  0
  153.0348  142.5883  159.4729 C   0  0  0  0  0  0  0  0  0  0  0  0
  152.7575  144.0918  159.3719 C   0  0  0  0  0  0  0  0  0  0  0  0
  152.1439  144.4312  158.0043 C   0  0  0  0  0  0  0  0  0  0  0  0
  150.9657  143.6575  157.7951 O   0  0  0  0  0  0  0  0  0  0  0  0
  148.8056  140.4279  154.2283 C   0  0  2  0  0  0  0  0  0  0  0  0
  147.7096  139.6018  153.5294 C   0  0  0  0  0  0  0  0  0  0  0  0
  149.9615  139.5746  154.4860 N   0  0  0  0  0  0  0  0  0  0  0  0
  150.0516  138.2037  154.3570 C   0  0  0  0  0  0  0  0  0  0  0  0
  151.3150  137.8398  154.7249 C   0  0  0  0  0  0  0  0  0  0  0  0
  151.9308  139.0710  155.0830 C   0  0  0  0  0  0  0  0  0  0  0  0
  151.1178  140.1056  154.9452 N   0  0  0  0  0  0  0  0  0  0  0  0
  146.2221  141.4153  154.8972 H   0  0  0  0  0  0  0  0  0  0  0  0
  147.2625  142.7848  154.5175 H   0  0  0  0  0  0  0  0  0  0  0  0
  146.7155  142.5032  156.1663 H   0  0  0  0  0  0  0  0  0  0  0  0
  148.0460  140.3761  156.2485 H   0  0  0  0  0  0  0  0  0  0  0  0
  150.1775  141.9087  155.4508 H   0  0  0  0  0  0  0  0  0  0  0  0
  149.1460  141.7515  158.1829 H   0  0  0  0  0  0  0  0  0  0  0  0
  150.0537  140.4671  157.4024 H   0  0  0  0  0  0  0  0  0  0  0  0
  151.9437  142.0324  156.9782 H   0  0  0  0  0  0  0  0  0  0  0  0
  151.0130  141.9656  159.8967 H   0  0  0  0  0  0  0  0  0  0  0  0
  151.9789  140.7351  159.1135 H   0  0  0  0  0  0  0  0  0  0  0  0
  153.3779  142.3310  160.4754 H   0  0  0  0  0  0  0  0  0  0  0  0
  153.8368  142.3150  158.7861 H   0  0  0  0  0  0  0  0  0  0  0  0
  152.0701  144.3916  160.1637 H   0  0  0  0  0  0  0  0  0  0  0  0
  153.6774  144.6568  159.5248 H   0  0  0  0  0  0  0  0  0  0  0  0
  151.8829  145.4887  157.9630 H   0  0  0  0  0  0  0  0  0  0  0  0
  152.8594  144.2490  157.2009 H   0  0  0  0  0  0  0  0  0  0  0  0
  149.1360  141.1955  153.5266 H   0  0  0  0  0  0  0  0  0  0  0  0
  146.8981  140.2295  153.1633 H   0  0  0  0  0  0  0  0  0  0  0  0
  147.2809  138.8580  154.2019 H   0  0  0  0  0  0  0  0  0  0  0  0
  148.1125  139.0717  152.6657 H   0  0  0  0  0  0  0  0  0  0  0  0
  149.2186  137.6063  154.0161 H   0  0  0  0  0  0  0  0  0  0  0  0
  151.7339  136.8444  154.7420 H   0  0  0  0  0  0  0  0  0  0  0  0
  152.9363  139.2422  155.4384 H   0  0  0  0  0  0  0  0  0  0  0  0
  149.0964  142.9325  156.1348 H   0  0  0  0  0  0  0  0  0  0  0  0
  1  2  1  0  0  0  0
  1 18  1  0  0  0  0
  1 19  1  0  0  0  0
  1 20  1  0  0  0  0
  2  3  1  0  0  0  0
  2 11  1  0  0  0  0
  2 21  1  0  0  0  0
  3  4  1  0  0  0  0
  3 22  1  0  0  0  0
  3 41  1  0  0  0  0
  4  5  1  0  0  0  0
  4 23  1  0  0  0  0
  4 24  1  0  0  0  0
  5 10  1  0  0  0  0
  5  6  1  0  0  0  0
  5 25  1  0  0  0  0
  6  7  1  0  0  0  0
  6 26  1  0  0  0  0
  6 27  1  0  0  0  0
  7  8  1  0  0  0  0
  7 28  1  0  0  0  0
  7 29  1  0  0  0  0
  8  9  1  0  0  0  0
  8 30  1  0  0  0  0
  8 31  1  0  0  0  0
  9 10  1  0  0  0  0
  9 32  1  0  0  0  0
  9 33  1  0  0  0  0
 11 12  1  0  0  0  0
 11 13  1  0  0  0  0
 11 34  1  0  0  0  0
 12 35  1  0  0  0  0
 12 36  1  0  0  0  0
 12 37  1  0  0  0  0
 13 17  1  0  0  0  0
 13 14  1  0  0  0  0
 14 15  2  0  0  0  0
 14 38  1  0  0  0  0
 15 16  1  0  0  0  0
 15 39  1  0  0  0  0
 16 17  2  0  0  0  0
 16 40  1  0  0  0  0
M  CHG  1   3   1
M  END
> <s_m_source_file>
AV-unprocessed.smi

> <i_m_source_file_index>
3156

> <i_lp_mmshare_version>
43012

> <i_f3d_flags>
0

> <s_epik_input>
bjFbY0hdW2NIXVtjSF1uMVtDQEBIXShbQ0gzXSlbQ0BIXShbQ0gzXSlbTkhdW0NIMl1bQ0BASF0yW0NIMl1bQ0gyXVtDSDJdW0NIMl1PMg==

> <s_epik_cmdline>
J2VwaWtfcHl0aG9uJywgJy1waCcsICc3LjAnLCAnLXRuJywgJzgnLCAnLW1hJywgJzIwMCcsICctbWV0YWxfYmluZGluZycsICctaW1hZScsICc8aW5maWxlLm1hZT4nLCAnLW9tYWUnLCAnPG91dGZpbGUubWFlPic=

> <r_lp_tautomer_probability>
1

> <r_epik_Ionization_Penalty>
0.00658015

> <r_epik_Ionization_Penalty_Charging>
0.00656881

> <r_epik_Ionization_Penalty_Neutral>
1.13431e-05

> <r_epik_State_Penalty>
0.0048654

> <r_epik_Charging_Adjusted_Penalty>
0.0114342

> <i_epik_Tot_Q>
1

> <i_epik_Tot_abs_Q>
1

> <r_epik_Metal_State_Penalty>
-0

> <b_epik_Metal_Only>
0

> <s_lp_Force_Field>
OPLS_2005

> <r_lp_Energy>
17.2589

> <b_lp_Chiralities_Consistent>
1

> <s_lp_Variant>
AV-unprocessed.smi:3156-1

> <Gold.Version>
5.8.1

> <Gold.Id.Protein>
6NUR|6NUR_protein|mol2

> <Gold.PLP.Fitness>
50.1596

> <Gold.PLP.PLP>
-39.8526

> <Gold.PLP.part.hbond>
-2.0000

> <Gold.PLP.part.metal>
0.0000

> <Gold.PLP.part.buried>
-2.3445

> <Gold.PLP.part.nonpolar>
-35.6437

> <Gold.PLP.part.repulsive>
0.3087

> <Gold.PLP.ligand.clash>
0.0000

> <Gold.PLP.ligand.torsion>
0.8886

> <Gold.PLP.Chemscore.Hbond>
3.0000

> <Gold.PLP.Chemscore.CHOScore>
0.9980

> <Gold.PLP.Chemscore.Metal>
0.0000

> <Gold.Chemscore.Hbonds>
donor molecule, donor type, donor heavy atom, donor atom, acceptor molecule, acceptor atom, score
      L1  H     3    41       P1  8028  2.00
      P1  H  7989  7998       L1    17  0.95
      L1  C    14    38       P1  7948  0.93

> <Gold.PLP.Chemscore.Internal.Correction>
0.0902

> <Gold.Rescore>
     Score         DG    S(hbond)    S(metal)    S(lipo)     H(rot)  DE(clash)    DE(int)     intcor
     18.62     -20.35       1.93        0.00     106.79       1.59       0.13       1.61       ----

> <Gold.Chemscore.Fitness>
18.6177

> <Gold.Chemscore.DG>
-20.3545

> <Gold.Chemscore.ZeroCoef>
-5.4800

> <Gold.Chemscore.Hbond>
1.9342

> <Gold.Chemscore.Metal>
0.0000

> <Gold.Chemscore.Lipo>
106.7913

> <Gold.Chemscore.Internal_Hbond>
0.0000

> <Gold.Chemscore.DEClash>
0.1277

> <Gold.Chemscore.DEInternal>
1.6092

> <Gold.Chemscore.Rot>
1.5938

> <Gold.Chemscore.Internal.Correction>
   9.000000E+99

> <Gold.Chemscore.Hbonds>
donor molecule, donor type, donor heavy atom, donor atom, acceptor molecule, acceptor atom, score
      L1  H     3    41       P1  8028  1.00
      P1  H  7989  7998       L1    17  0.10

> <Gold.Chemscore.Hbond.Weighted>
-6.4602

> <Gold.Chemscore.Metal.Weighted>
-0.0000

> <Gold.Chemscore.Lipo.Weighted>
-12.4946

> <Gold.Chemscore.Internal_Hbond.Weighted>
0.0000

> <Gold.Chemscore.DEClash.Weighted>
0.1277

> <Gold.Chemscore.DEInternal.Weighted>
1.6092

> <Gold.Chemscore.Rot.Weighted>
4.0802

> <Gold.Chemscore.Internal.Correction.Weighted>
   9.000000E+99

> <Gold.Protein.RotatedTorsions>
[ 6907 6896 6895 6894 ] final -125.39 input  -60.11 | X-H torsion
[ 7974 7965 7964 7962 ] final   23.09 input  175.53 | X-H torsion
[ 8008 7997 7996 7995 ] final  -78.99 input   59.86 | X-H torsion
[ 10167 10162 10161 10158 ] final -174.12 input  -65.29 | X-H torsion
[ 10718 10713 10712 10709 ] final  169.03 input   66.30 | X-H torsion
[ 10763 10752 10751 10750 ] final  -98.88 input  -60.55 | X-H torsion
[ 11005 11000 10999 10996 ] final  -85.76 input  -57.11 | X-H torsion

> <Gold.Protein.ActiveResidues>
 VAL166  LYS551  ARG553  GLY616  TRP617  ASP618  TYR619  PRO620  LYS621  CYS622 
 ASP623  PHE694  ASN695  SER759  ASP760  ASP761  ALA762  ILE779  LEU786  VAL792 
 PHE793  MET794  SER795  GLU796  ALA797  LYS798  CYS799  TRP800  GLU811  SER814 

> <Gold.Protein.RotatedAtoms>
  150.8862  133.7304  159.2917 H   0  0  0  0  0  0  0  0  0  0  0  0  # atno 6907 bound_to 6896
  151.4869  135.1054  159.9802 H   0  0  0  0  0  0  0  0  0  0  0  0  # atno 6908 bound_to 6896
  152.4791  133.8165  159.7086 H   0  0  0  0  0  0  0  0  0  0  0  0  # atno 6909 bound_to 6896
  146.2000  139.7793  142.8769 H   0  0  0  0  0  0  0  0  0  0  0  0  # atno 7974 bound_to 7965
  154.5742  140.0685  156.9009 H   0  0  0  0  0  0  0  0  0  0  0  0  # atno 8008 bound_to 7997
  155.2579  140.3356  155.4257 H   0  0  0  0  0  0  0  0  0  0  0  0  # atno 8009 bound_to 7997
  156.2141  140.1771  156.7613 H   0  0  0  0  0  0  0  0  0  0  0  0  # atno 8010 bound_to 7997
  139.5651  144.1775  152.1300 H   0  0  0  0  0  0  0  0  0  0  0  0  # atno 10167 bound_to 10162
  157.0285  131.0252  151.2752 H   0  0  0  0  0  0  0  0  0  0  0  0  # atno 10718 bound_to 10713
  154.7451  135.4993  153.9190 H   0  0  0  0  0  0  0  0  0  0  0  0  # atno 10763 bound_to 10752
  153.1083  135.6703  153.9554 H   0  0  0  0  0  0  0  0  0  0  0  0  # atno 10764 bound_to 10752
  153.9320  135.3077  155.3424 H   0  0  0  0  0  0  0  0  0  0  0  0  # atno 10765 bound_to 10752
  141.1638  133.7417  156.9062 H   0  0  0  0  0  0  0  0  0  0  0  0  # atno 11005 bound_to 11000
  145.3517  141.0308  143.3335 LP  0  0  0  0  0  0  0  0  0  0  0  0  # atno 17320 bound_to 7965
  144.8662  139.5105  143.6789 LP  0  0  0  0  0  0  0  0  0  0  0  0  # atno 17321 bound_to 7965
  140.1297  144.5300  150.6810 LP  0  0  0  0  0  0  0  0  0  0  0  0  # atno 17342 bound_to 10162
  140.6934  143.2389  151.5069 LP  0  0  0  0  0  0  0  0  0  0  0  0  # atno 17343 bound_to 10162
  157.5196  130.7989  149.7794 LP  0  0  0  0  0  0  0  0  0  0  0  0  # atno 17370 bound_to 10713
  156.0078  130.3847  150.2371 LP  0  0  0  0  0  0  0  0  0  0  0  0  # atno 17371 bound_to 10713
  140.1548  134.9206  157.2639 LP  0  0  0  0  0  0  0  0  0  0  0  0  # atno 17394 bound_to 11000
  140.2680  134.3493  155.7383 LP  0  0  0  0  0  0  0  0  0  0  0  0  # atno 17395 bound_to 11000

$$$$
