#       Name:                AV-unprocessed.smi:3337
#       Creating user name   scv26
#       Creation time:       Fri Mar 27 19:26:39 2020


#       File generated by GOLD software.
#

@<TRIPOS>MOLECULE
AV-unprocessed.smi:3337
    50    51     1
SMALL
NO_CHARGES


@<TRIPOS>ATOM
      1 ****        -0.8294   4.2881   2.4356 C.3            1 S1                 0.0000
      2 ****        -1.2094   3.4438   1.2109 C.3            1 S1                 0.0000
      3 ****        -2.7273   3.4607   0.9670 C.3            1 S1                 0.0000
      4 ****        -3.0891   2.5963  -0.2520 C.3            1 S1                 0.0000
      5 ****        -4.6046   2.5817  -0.4979 C.3            1 S1                 0.0000
      6 ****        -2.5332   1.1700  -0.0773 C.3            1 S1                 0.0000
      7 ****        -1.0652   1.1801   0.1545 N.4            1 S1                 1.0000
      8 ****        -0.5012  -0.1935   0.1847 C.3            1 S1                 0.0000
      9 ****         1.0190  -0.2214  -0.0673 C.3            1 S1                 0.0000
     10 ****         1.5236  -1.5888  -0.1073 N.am           1 S1                 0.0000
     11 ****         1.4590  -2.4010  -1.1752 C.2            1 S1                 0.0000
     12 ****         0.9513  -2.0567  -2.2432 O.2            1 S1                 0.0000
     13 ****         2.0416  -3.8143  -0.9975 C.3            1 S1                 0.0000
     14 ****         1.6746  -4.7682  -2.1525 C.3            1 S1                 0.0000
     15 ****         3.4823  -3.7555  -0.7812 N.pl3          1 S1                 0.0000
     16 ****         4.1872  -3.8802   0.3454 C.2            1 S1                 0.0000
     17 ****         5.4946  -3.7354   0.1815 N.2            1 S1                 0.0000
     18 ****         5.5314  -3.5025  -1.1642 C.2            1 S1                 0.0000
     19 ****         4.3532  -3.4933  -1.7875 N.2            1 S1                 0.0000
     20 ****        -0.7066   1.9932   1.3473 C.3            1 S1                 0.0000
     21 ****        -1.2863   3.8964   3.3450 H              1 S1                 0.0000
     22 ****        -1.1577   5.3212   2.3175 H              1 S1                 0.0000
     23 ****         0.2505   4.3019   2.5848 H              1 S1                 0.0000
     24 ****        -0.7222   3.8897   0.3423 H              1 S1                 0.0000
     25 ****        -3.2486   3.0908   1.8515 H              1 S1                 0.0000
     26 ****        -3.0681   4.4851   0.8109 H              1 S1                 0.0000
     27 ****        -2.6178   3.0370  -1.1320 H              1 S1                 0.0000
     28 ****        -5.1405   2.1535   0.3498 H              1 S1                 0.0000
     29 ****        -4.8546   1.9933  -1.3809 H              1 S1                 0.0000
     30 ****        -4.9864   3.5906  -0.6567 H              1 S1                 0.0000
     31 ****        -3.0281   0.6685   0.7563 H              1 S1                 0.0000
     32 ****        -2.7554   0.5889  -0.9735 H              1 S1                 0.0000
     33 ****        -0.7450  -0.6723   1.1345 H              1 S1                 0.0000
     34 ****        -0.9860  -0.7876  -0.5912 H              1 S1                 0.0000
     35 ****         1.2644   0.2966  -0.9962 H              1 S1                 0.0000
     36 ****         1.5562   0.2945   0.7276 H              1 S1                 0.0000
     37 ****         1.9600  -1.9418   0.7323 H              1 S1                 0.0000
     38 ****         1.5985  -4.2246  -0.0887 H              1 S1                 0.0000
     39 ****         0.5933  -4.8567  -2.2636 H              1 S1                 0.0000
     40 ****         2.0648  -5.7693  -1.9675 H              1 S1                 0.0000
     41 ****         2.0787  -4.4289  -3.1071 H              1 S1                 0.0000
     42 ****         3.7346  -4.0778   1.3061 H              1 S1                 0.0000
     43 ****         6.4537  -3.3290  -1.6990 H              1 S1                 0.0000
     44 ****         0.3745   2.0105   1.4781 H              1 S1                 0.0000
     45 ****        -1.1245   1.5296   2.2426 H              1 S1                 0.0000
     46 ****        -0.6579   1.6379  -0.6484 H              1 S1                 0.0000
     47 ****         0.5655  -1.1393  -2.3406 LP             1 S1                 0.0000
     48 ****         0.9248  -2.6946  -3.0128 LP             1 S1                 0.0000
     49 ****         6.2378  -3.7829   0.8489 LP             1 S1                 0.0000
     50 ****         4.1596  -3.3331  -2.7554 LP             1 S1                 0.0000
@<TRIPOS>BOND
    1    1    2 1     
    2    1   21 1     
    3    1   22 1     
    4    1   23 1     
    5    2   20 1     
    6    2    3 1     
    7    2   24 1     
    8    3    4 1     
    9    3   25 1     
   10    3   26 1     
   11    4    5 1     
   12    4    6 1     
   13    4   27 1     
   14    5   28 1     
   15    5   29 1     
   16    5   30 1     
   17    6    7 1     
   18    6   31 1     
   19    6   32 1     
   20    7    8 1     
   21    7   20 1     
   22    7   46 1     
   23    8    9 1     
   24    8   33 1     
   25    8   34 1     
   26    9   10 1     
   27    9   35 1     
   28    9   36 1     
   29   10   11 am    
   30   10   37 1     
   31   11   12 2     
   32   11   13 1     
   33   13   14 1     
   34   13   15 1     
   35   13   38 1     
   36   14   39 1     
   37   14   40 1     
   38   14   41 1     
   39   15   19 1     
   40   15   16 1     
   41   16   17 2     
   42   16   42 1     
   43   17   18 1     
   44   18   19 2     
   45   18   43 1     
   46   20   44 1     
   47   20   45 1     
   48   12   47 1     
   49   12   48 1     
   50   17   49 1     
   51   19   50 1     
@<TRIPOS>SUBSTRUCTURE
      1 S1             1
@<TRIPOS>SET
LONE_PAIRS      STATIC     ATOMS    <user>   **** ""
4 47 48 49 50
DONOR_HYDROGENS      STATIC     ATOMS    <user>   **** ""
2 46 37
ATOM$BLUE        STATIC     ATOMS    COLORGROUP SYSTEM
4 47 48 49 50
ATOM$RED        STATIC     ATOMS    COLORGROUP SYSTEM
2 46 37
