AV-unprocessed.smi:418|AV-procd|sdf|2528|dock7
  -GOLD-   2262022483D 1   1.00000     0.00000
 Structure written by MMmdl.
 40 42  0  0  0  0  0  0  0  0  1 V2000
  153.9366  140.1315  160.0378 C   0  0  0  0  0  0  0  0  0  0  0  0
  152.9997  141.0305  159.3747 N   0  0  0  0  0  0  0  0  0  0  0  0
  152.4985  140.9089  158.1232 C   0  0  0  0  0  0  0  0  0  0  0  0
  152.7546  140.0088  157.3237 O   0  0  0  0  0  0  0  0  0  0  0  0
  151.6690  141.9562  157.9005 N   0  0  0  0  0  0  0  0  0  0  0  0
  150.9148  142.2225  156.6772 C   0  0  0  0  0  0  0  0  0  0  0  0
  150.3552  140.9256  156.0580 C   0  0  2  0  0  0  0  0  0  0  0  0
  151.3434  140.3626  155.2189 O   0  0  0  0  0  0  0  0  0  0  0  0
  149.1150  141.1876  155.1902 C   0  0  0  0  0  0  0  0  0  0  0  0
  148.0090  141.4528  156.0429 O   0  0  0  0  0  0  0  0  0  0  0  0
  146.9091  142.0913  155.5114 C   0  0  0  0  0  0  0  0  0  0  0  0
  146.7818  142.4520  154.1456 C   0  0  0  0  0  0  0  0  0  0  0  0
  145.6233  143.1084  153.6861 C   0  0  0  0  0  0  0  0  0  0  0  0
  144.5801  143.4104  154.5805 C   0  0  0  0  0  0  0  0  0  0  0  0
  144.6959  143.0535  155.9363 C   0  0  0  0  0  0  0  0  0  0  0  0
  145.8538  142.3972  156.3972 C   0  0  0  0  0  0  0  0  0  0  0  0
  145.9528  142.0599  157.7055 F   0  0  0  0  0  0  0  0  0  0  0  0
  151.6453  142.7741  159.0393 C   0  0  0  0  0  0  0  0  0  0  0  0
  150.9595  143.9718  159.3075 C   0  0  0  0  0  0  0  0  0  0  0  0
  151.1579  144.5594  160.5789 C   0  0  0  0  0  0  0  0  0  0  0  0
  152.0158  143.9543  161.5341 C   0  0  0  0  0  0  0  0  0  0  0  0
  152.6957  142.7497  161.2373 C   0  0  0  0  0  0  0  0  0  0  0  0
  152.4817  142.1892  159.9667 C   0  0  0  0  0  0  0  0  0  0  0  0
  154.2341  139.3015  159.3957 H   0  0  0  0  0  0  0  0  0  0  0  0
  153.4848  139.7158  160.9387 H   0  0  0  0  0  0  0  0  0  0  0  0
  154.8380  140.6728  160.3258 H   0  0  0  0  0  0  0  0  0  0  0  0
  150.0922  142.8900  156.9391 H   0  0  0  0  0  0  0  0  0  0  0  0
  151.5171  142.7768  155.9564 H   0  0  0  0  0  0  0  0  0  0  0  0
  150.0994  140.2005  156.8318 H   0  0  0  0  0  0  0  0  0  0  0  0
  151.9161  139.8286  155.7480 H   0  0  0  0  0  0  0  0  0  0  0  0
  149.3003  142.0281  154.5188 H   0  0  0  0  0  0  0  0  0  0  0  0
  148.8963  140.3081  154.5819 H   0  0  0  0  0  0  0  0  0  0  0  0
  147.5592  142.2358  153.4289 H   0  0  0  0  0  0  0  0  0  0  0  0
  145.5361  143.3807  152.6445 H   0  0  0  0  0  0  0  0  0  0  0  0
  143.6926  143.9144  154.2273 H   0  0  0  0  0  0  0  0  0  0  0  0
  143.8965  143.2842  156.6251 H   0  0  0  0  0  0  0  0  0  0  0  0
  150.3088  144.4298  158.5773 H   0  0  0  0  0  0  0  0  0  0  0  0
  150.6501  145.4801  160.8256 H   0  0  0  0  0  0  0  0  0  0  0  0
  152.1521  144.4196  162.4992 H   0  0  0  0  0  0  0  0  0  0  0  0
  153.3516  142.2837  161.9580 H   0  0  0  0  0  0  0  0  0  0  0  0
  1  2  1  0  0  0  0
  1 24  1  0  0  0  0
  1 25  1  0  0  0  0
  1 26  1  0  0  0  0
  2 23  1  0  0  0  0
  2  3  1  0  0  0  0
  3  4  2  0  0  0  0
  3  5  1  0  0  0  0
  5  6  1  0  0  0  0
  5 18  1  0  0  0  0
  6  7  1  0  0  0  0
  6 27  1  0  0  0  0
  6 28  1  0  0  0  0
  7  8  1  0  0  0  0
  7  9  1  0  0  0  0
  7 29  1  0  0  0  0
  8 30  1  0  0  0  0
  9 10  1  0  0  0  0
  9 31  1  0  0  0  0
  9 32  1  0  0  0  0
 10 11  1  0  0  0  0
 11 16  1  0  0  0  0
 11 12  2  0  0  0  0
 12 13  1  0  0  0  0
 12 33  1  0  0  0  0
 13 14  2  0  0  0  0
 13 34  1  0  0  0  0
 14 15  1  0  0  0  0
 14 35  1  0  0  0  0
 15 16  2  0  0  0  0
 15 36  1  0  0  0  0
 16 17  1  0  0  0  0
 18 23  2  0  0  0  0
 18 19  1  0  0  0  0
 19 20  2  0  0  0  0
 19 37  1  0  0  0  0
 20 21  1  0  0  0  0
 20 38  1  0  0  0  0
 21 22  2  0  0  0  0
 21 39  1  0  0  0  0
 22 23  1  0  0  0  0
 22 40  1  0  0  0  0
M  END
> <s_m_source_file>
AV-unprocessed.smi

> <i_m_source_file_index>
418

> <i_lp_mmshare_version>
43012

> <i_f3d_flags>
0

> <s_epik_input>
W2NIXTFbY0hdW2NIXVtjSF1jKGMxMiluKFtDSDNdKWMoPU8pbjJbQ0gyXVtDQEhdKFtPSF0pW0NIMl1PYzNbY0hdW2NIXVtjSF1bY0hdYzNG

> <s_epik_cmdline>
J2VwaWtfcHl0aG9uJywgJy1waCcsICc3LjAnLCAnLXRuJywgJzgnLCAnLW1hJywgJzIwMCcsICctbWV0YWxfYmluZGluZycsICctaW1hZScsICc8aW5maWxlLm1hZT4nLCAnLW9tYWUnLCAnPG91dGZpbGUubWFlPic=

> <r_lp_tautomer_probability>
1

> <r_epik_Ionization_Penalty>
2.40171e-06

> <r_epik_Ionization_Penalty_Charging>
2.41238e-09

> <r_epik_Ionization_Penalty_Neutral>
2.3993e-06

> <r_epik_State_Penalty>
-0

> <r_epik_Charging_Adjusted_Penalty>
2.41238e-09

> <i_epik_Tot_Q>
0

> <i_epik_Tot_abs_Q>
0

> <r_epik_Metal_State_Penalty>
-0

> <b_epik_Metal_Only>
0

> <s_lp_Force_Field>
OPLS_2005

> <r_lp_Energy>
46.4637

> <b_lp_Chiralities_Consistent>
1

> <s_lp_Variant>
AV-unprocessed.smi:418-1

> <Gold.Version>
5.8.1

> <Gold.Id.Protein>
6NUR|6NUR_protein|mol2

> <Gold.PLP.Fitness>
56.7563

> <Gold.PLP.PLP>
-52.2905

> <Gold.PLP.part.hbond>
-2.0000

> <Gold.PLP.part.metal>
0.0000

> <Gold.PLP.part.buried>
-7.0774

> <Gold.PLP.part.nonpolar>
-43.8752

> <Gold.PLP.part.repulsive>
0.1197

> <Gold.PLP.ligand.clash>
0.0000

> <Gold.PLP.ligand.torsion>
0.7845

> <Gold.PLP.Chemscore.Hbond>
2.0000

> <Gold.PLP.Chemscore.CHOScore>
0.0000

> <Gold.PLP.Chemscore.Metal>
0.0000

> <Gold.Chemscore.Hbonds>
donor molecule, donor type, donor heavy atom, donor atom, acceptor molecule, acceptor atom, score
      P1  H  7989  7998       L1     8  0.98
      P1  H  7997  8010       L1     4  1.00

> <Gold.PLP.Chemscore.Internal.Correction>
0.0348

> <Gold.Rescore>
     Score         DG    S(hbond)    S(metal)    S(lipo)     H(rot)  DE(clash)    DE(int)     intcor
     17.78     -20.01       1.79        0.00     122.94       2.27       0.37       1.86       ----

> <Gold.Chemscore.Fitness>
17.7820

> <Gold.Chemscore.DG>
-20.0131

> <Gold.Chemscore.ZeroCoef>
-5.4800

> <Gold.Chemscore.Hbond>
1.7852

> <Gold.Chemscore.Metal>
0.0000

> <Gold.Chemscore.Lipo>
122.9352

> <Gold.Chemscore.Internal_Hbond>
0.0000

> <Gold.Chemscore.DEClash>
0.3728

> <Gold.Chemscore.DEInternal>
1.8583

> <Gold.Chemscore.Rot>
2.2706

> <Gold.Chemscore.Internal.Correction>
   9.000000E+99

> <Gold.Chemscore.Hbonds>
donor molecule, donor type, donor heavy atom, donor atom, acceptor molecule, acceptor atom, score
      P1  H  7989  7998       L1     8  0.93
      P1  H  7997  8010       L1     4  0.84

> <Gold.Chemscore.Hbond.Weighted>
-5.9624

> <Gold.Chemscore.Metal.Weighted>
-0.0000

> <Gold.Chemscore.Lipo.Weighted>
-14.3834

> <Gold.Chemscore.Internal_Hbond.Weighted>
0.0000

> <Gold.Chemscore.DEClash.Weighted>
0.3728

> <Gold.Chemscore.DEInternal.Weighted>
1.8583

> <Gold.Chemscore.Rot.Weighted>
5.8128

> <Gold.Chemscore.Internal.Correction.Weighted>
   9.000000E+99

> <Gold.Protein.RotatedTorsions>
[ 6907 6896 6895 6894 ] final  -53.28 input  -60.11 | X-H torsion
[ 7974 7965 7964 7962 ] final  -84.42 input  175.53 | X-H torsion
[ 8008 7997 7996 7995 ] final   58.39 input   59.86 | X-H torsion
[ 10167 10162 10161 10158 ] final -121.76 input  -65.29 | X-H torsion
[ 10718 10713 10712 10709 ] final  -87.75 input   66.30 | X-H torsion
[ 10763 10752 10751 10750 ] final -116.19 input  -60.55 | X-H torsion
[ 11005 11000 10999 10996 ] final   92.35 input  -57.11 | X-H torsion

> <Gold.Protein.ActiveResidues>
 VAL166  LYS551  ARG553  GLY616  TRP617  ASP618  TYR619  PRO620  LYS621  CYS622 
 ASP623  PHE694  ASN695  SER759  ASP760  ASP761  ALA762  ILE779  LEU786  VAL792 
 PHE793  MET794  SER795  GLU796  ALA797  LYS798  CYS799  TRP800  GLU811  SER814 

> <Gold.Protein.RotatedAtoms>
  150.8441  134.7744  159.6955 H   0  0  0  0  0  0  0  0  0  0  0  0  # atno 6907 bound_to 6896
  152.4522  134.5366  159.9836 H   0  0  0  0  0  0  0  0  0  0  0  0  # atno 6908 bound_to 6896
  151.5500  133.3381  159.2987 H   0  0  0  0  0  0  0  0  0  0  0  0  # atno 6909 bound_to 6896
  145.5069  140.9543  143.1729 H   0  0  0  0  0  0  0  0  0  0  0  0  # atno 7974 bound_to 7965
  155.5492  140.3486  155.4464 H   0  0  0  0  0  0  0  0  0  0  0  0  # atno 8008 bound_to 7997
  156.0596  140.1337  156.9983 H   0  0  0  0  0  0  0  0  0  0  0  0  # atno 8009 bound_to 7997
  154.4473  140.0988  156.6481 H   0  0  0  0  0  0  0  0  0  0  0  0  # atno 8010 bound_to 7997
  140.0215  143.5339  152.2218 H   0  0  0  0  0  0  0  0  0  0  0  0  # atno 10167 bound_to 10162
  155.9984  130.4811  150.4915 H   0  0  0  0  0  0  0  0  0  0  0  0  # atno 10718 bound_to 10713
  154.8510  135.4354  154.1782 H   0  0  0  0  0  0  0  0  0  0  0  0  # atno 10763 bound_to 10752
  153.2879  135.6959  153.7328 H   0  0  0  0  0  0  0  0  0  0  0  0  # atno 10764 bound_to 10752
  153.6506  135.3452  155.3073 H   0  0  0  0  0  0  0  0  0  0  0  0  # atno 10765 bound_to 10752
  139.8825  134.8727  156.3560 H   0  0  0  0  0  0  0  0  0  0  0  0  # atno 11005 bound_to 11000
  144.7749  139.6652  143.7179 LP  0  0  0  0  0  0  0  0  0  0  0  0  # atno 17320 bound_to 7965
  146.2191  139.5603  142.9630 LP  0  0  0  0  0  0  0  0  0  0  0  0  # atno 17321 bound_to 7965
  139.6136  144.7614  151.2896 LP  0  0  0  0  0  0  0  0  0  0  0  0  # atno 17342 bound_to 10162
  140.7340  143.6778  150.8027 LP  0  0  0  0  0  0  0  0  0  0  0  0  # atno 17343 bound_to 10162
  157.2909  131.0626  151.2134 LP  0  0  0  0  0  0  0  0  0  0  0  0  # atno 17370 bound_to 10713
  157.3147  130.6907  149.6235 LP  0  0  0  0  0  0  0  0  0  0  0  0  # atno 17371 bound_to 10713
  140.9562  133.7418  156.0339 LP  0  0  0  0  0  0  0  0  0  0  0  0  # atno 17394 bound_to 11000
  140.8045  134.3470  157.5430 LP  0  0  0  0  0  0  0  0  0  0  0  0  # atno 17395 bound_to 11000

$$$$
