AV-unprocessed.smi:2001|AV-procd|sdf|8110|dock1
  -GOLD-   2272010333D 1   1.00000     0.00000
 Structure written by MMmdl.
 50 51  0  0  0  0  0  0  0  0  3 V2000
  147.4633  141.0227  153.5797 C   0  0  0  0  0  0  0  0  0  0  0  0
  148.7190  141.5761  153.9293 O   0  0  0  0  0  0  0  0  0  0  0  0
  149.5150  140.6846  154.6927 C   0  0  0  0  0  0  0  0  0  0  0  0
  149.8053  139.4137  153.8780 C   0  0  0  0  0  0  0  0  0  0  0  0
  150.5718  138.4308  154.6526 N   0  0  0  0  0  0  0  0  0  0  0  0
  149.9527  137.1965  154.7603 N   0  0  0  0  0  0  0  0  0  0  0  0
  150.5173  136.2339  155.4156 C   0  0  0  0  0  0  0  0  0  0  0  0
  149.8401  134.9037  155.5476 C   0  0  0  0  0  0  0  0  0  0  0  0
  150.5608  133.9831  155.9571 O   0  0  0  0  0  0  0  0  0  0  0  0
  148.5183  134.7954  155.2148 N   0  5  0  0  0  0  0  0  0  0  0  0
  147.8459  133.5620  154.8121 C   0  0  0  0  0  0  0  0  0  0  0  0
  148.4190  133.0821  153.4648 C   0  0  0  0  0  0  0  0  0  0  0  0
  147.5491  132.0668  152.8131 N   0  3  1  0  0  0  0  0  0  0  0  0
  146.9403  131.1244  153.7830 C   0  0  0  0  0  0  0  0  0  0  0  0
  146.1086  130.0431  153.0652 C   0  0  2  0  0  0  0  0  0  0  0  0
  146.9646  128.9809  152.3529 C   0  0  0  0  0  0  0  0  0  0  0  0
  145.1596  130.6485  152.1875 O   0  0  0  0  0  0  0  0  0  0  0  0
  145.7186  131.5334  151.2202 C   0  0  1  0  0  0  0  0  0  0  0  0
  144.5693  132.0897  150.3724 C   0  0  0  0  0  0  0  0  0  0  0  0
  146.4980  132.6485  151.9387 C   0  0  0  0  0  0  0  0  0  0  0  0
  151.8187  136.4329  156.0423 C   0  0  0  0  0  0  0  0  0  0  0  0
  152.4101  137.6418  155.9278 C   0  0  0  0  0  0  0  0  0  0  0  0
  151.7849  138.7449  155.1982 C   0  0  0  0  0  0  0  0  0  0  0  0
  152.3047  139.8550  155.0861 O   0  0  0  0  0  0  0  0  0  0  0  0
  146.8994  141.7423  152.9868 H   0  0  0  0  0  0  0  0  0  0  0  0
  146.8767  140.7839  154.4676 H   0  0  0  0  0  0  0  0  0  0  0  0
  147.5835  140.1170  152.9844 H   0  0  0  0  0  0  0  0  0  0  0  0
  150.4567  141.1726  154.9479 H   0  0  0  0  0  0  0  0  0  0  0  0
  149.0170  140.4318  155.6302 H   0  0  0  0  0  0  0  0  0  0  0  0
  148.8754  138.9881  153.4970 H   0  0  0  0  0  0  0  0  0  0  0  0
  150.3776  139.6870  152.9899 H   0  0  0  0  0  0  0  0  0  0  0  0
  147.9704  132.7671  155.5486 H   0  0  0  0  0  0  0  0  0  0  0  0
  146.7699  133.7066  154.7095 H   0  0  0  0  0  0  0  0  0  0  0  0
  148.5170  133.9525  152.8137 H   0  0  0  0  0  0  0  0  0  0  0  0
  149.4281  132.6844  153.5880 H   0  0  0  0  0  0  0  0  0  0  0  0
  147.7162  130.6528  154.3878 H   0  0  0  0  0  0  0  0  0  0  0  0
  146.3026  131.6858  154.4679 H   0  0  0  0  0  0  0  0  0  0  0  0
  145.5245  129.5189  153.8223 H   0  0  0  0  0  0  0  0  0  0  0  0
  147.5816  128.4388  153.0697 H   0  0  0  0  0  0  0  0  0  0  0  0
  147.6361  129.4170  151.6138 H   0  0  0  0  0  0  0  0  0  0  0  0
  146.3338  128.2515  151.8440 H   0  0  0  0  0  0  0  0  0  0  0  0
  146.3894  130.9837  150.5595 H   0  0  0  0  0  0  0  0  0  0  0  0
  144.9402  132.7697  149.6051 H   0  0  0  0  0  0  0  0  0  0  0  0
  143.8535  132.6366  150.9869 H   0  0  0  0  0  0  0  0  0  0  0  0
  144.0309  131.2853  149.8706 H   0  0  0  0  0  0  0  0  0  0  0  0
  145.8200  133.2566  152.5398 H   0  0  0  0  0  0  0  0  0  0  0  0
  146.9473  133.3123  151.1992 H   0  0  0  0  0  0  0  0  0  0  0  0
  152.3150  135.6438  156.5873 H   0  0  0  0  0  0  0  0  0  0  0  0
  153.3745  137.8000  156.3873 H   0  0  0  0  0  0  0  0  0  0  0  0
  148.1577  131.5149  152.2253 H   0  0  0  0  0  0  0  0  0  0  0  0
  1  2  1  0  0  0  0
  1 25  1  0  0  0  0
  1 26  1  0  0  0  0
  1 27  1  0  0  0  0
  2  3  1  0  0  0  0
  3  4  1  0  0  0  0
  3 28  1  0  0  0  0
  3 29  1  0  0  0  0
  4  5  1  0  0  0  0
  4 30  1  0  0  0  0
  4 31  1  0  0  0  0
  5 23  1  0  0  0  0
  5  6  1  0  0  0  0
  6  7  2  0  0  0  0
  7  8  1  0  0  0  0
  7 21  1  0  0  0  0
  8  9  2  0  0  0  0
  8 10  1  0  0  0  0
 10 11  1  0  0  0  0
 11 12  1  0  0  0  0
 11 32  1  0  0  0  0
 11 33  1  0  0  0  0
 12 13  1  0  0  0  0
 12 34  1  0  0  0  0
 12 35  1  0  0  0  0
 13 20  1  0  0  0  0
 13 14  1  0  0  0  0
 13 50  1  0  0  0  0
 14 15  1  0  0  0  0
 14 36  1  0  0  0  0
 14 37  1  0  0  0  0
 15 16  1  0  0  0  0
 15 17  1  0  0  0  0
 15 38  1  0  0  0  0
 16 39  1  0  0  0  0
 16 40  1  0  0  0  0
 16 41  1  0  0  0  0
 17 18  1  0  0  0  0
 18 19  1  0  0  0  0
 18 20  1  0  0  0  0
 18 42  1  0  0  0  0
 19 43  1  0  0  0  0
 19 44  1  0  0  0  0
 19 45  1  0  0  0  0
 20 46  1  0  0  0  0
 20 47  1  0  0  0  0
 21 22  2  0  0  0  0
 21 48  1  0  0  0  0
 22 23  1  0  0  0  0
 22 49  1  0  0  0  0
 23 24  2  0  0  0  0
M  CHG  1  10  -1
M  CHG  1  13   1
M  END
> <s_m_source_file>
AV-unprocessed.smi

> <i_m_source_file_index>
2001

> <i_lp_mmshare_version>
43012

> <i_f3d_flags>
0

> <s_epik_input>
W0NIM11PW0NIMl1bQ0gyXW4xbmMoW2NIXVtjSF1jMT1PKUMoPU8pW05IXVtDSDJdW0NIMl1OMltDSDJdW0NAQEhdKFtDSDNdKU9bQ0BASF0oW0NIM10pW0NIMl0y

> <s_epik_cmdline>
J2VwaWtfcHl0aG9uJywgJy1waCcsICc3LjAnLCAnLXRuJywgJzgnLCAnLW1hJywgJzIwMCcsICctbWV0YWxfYmluZGluZycsICctaW1hZScsICc8aW5maWxlLm1hZT4nLCAnLW9tYWUnLCAnPG91dGZpbGUubWFlPic=

> <r_lp_tautomer_probability>
1

> <r_epik_Ionization_Penalty>
6.90846

> <r_epik_Ionization_Penalty_Charging>
6.90846

> <r_epik_Ionization_Penalty_Neutral>
1.08445e-11

> <r_epik_State_Penalty>
7.54671

> <r_epik_Charging_Adjusted_Penalty>
14.4552

> <i_epik_Tot_Q>
0

> <i_epik_Tot_abs_Q>
2

> <r_epik_Metal_State_Penalty>
3.46181

> <b_epik_Metal_Only>
1

> <s_lp_Force_Field>
OPLS_2005

> <r_lp_Energy>
44.3308

> <b_lp_Chiralities_Consistent>
1

> <s_lp_Variant>
AV-unprocessed.smi:2001-9

> <Gold.Version>
5.8.1

> <Gold.Id.Protein>
6NUR|6NUR_protein|mol2

> <Gold.PLP.Fitness>
46.1734

> <Gold.PLP.PLP>
-38.7508

> <Gold.PLP.part.hbond>
-3.3751

> <Gold.PLP.part.metal>
0.0000

> <Gold.PLP.part.buried>
0.9265

> <Gold.PLP.part.nonpolar>
-35.0843

> <Gold.PLP.part.repulsive>
0.6699

> <Gold.PLP.ligand.clash>
0.0000

> <Gold.PLP.ligand.torsion>
0.5752

> <Gold.PLP.Chemscore.Hbond>
2.7298

> <Gold.PLP.Chemscore.CHOScore>
0.0000

> <Gold.PLP.Chemscore.Metal>
0.0000

> <Gold.Chemscore.Hbonds>
donor molecule, donor type, donor heavy atom, donor atom, acceptor molecule, acceptor atom, score
      L1  H    13    50       P1 10747  0.57
      P1  H  7989  7998       L1    24  0.72
      P1  H  7997  8010       L1    24  0.31
      P1  H  8011  8017       L1     2  0.53

> <Gold.PLP.Chemscore.Internal.Correction>
0.3838

> <Gold.Rescore>
     Score         DG    S(hbond)    S(metal)    S(lipo)     H(rot)  DE(clash)    DE(int)     intcor
     16.17     -18.16       2.01        0.00      95.25       2.02       1.42       0.57       ----

> <Gold.Chemscore.Fitness>
16.1670

> <Gold.Chemscore.DG>
-18.1643

> <Gold.Chemscore.ZeroCoef>
-5.4800

> <Gold.Chemscore.Hbond>
2.0076

> <Gold.Chemscore.Metal>
0.0000

> <Gold.Chemscore.Lipo>
95.2532

> <Gold.Chemscore.Internal_Hbond>
0.0000

> <Gold.Chemscore.DEClash>
1.4228

> <Gold.Chemscore.DEInternal>
0.5745

> <Gold.Chemscore.Rot>
2.0179

> <Gold.Chemscore.Internal.Correction>
   9.000000E+99

> <Gold.Chemscore.Hbonds>
donor molecule, donor type, donor heavy atom, donor atom, acceptor molecule, acceptor atom, score
      L1  H    13    50       P1 10747  0.55
      P1  H  7989  7998       L1    24  0.62
      P1  H  7997  8010       L1    24  0.30
      P1  H  8011  8017       L1     2  0.39

> <Gold.Chemscore.Hbond.Weighted>
-6.7055

> <Gold.Chemscore.Metal.Weighted>
-0.0000

> <Gold.Chemscore.Lipo.Weighted>
-11.1446

> <Gold.Chemscore.Internal_Hbond.Weighted>
0.0000

> <Gold.Chemscore.DEClash.Weighted>
1.4228

> <Gold.Chemscore.DEInternal.Weighted>
0.5745

> <Gold.Chemscore.Rot.Weighted>
5.1659

> <Gold.Chemscore.Internal.Correction.Weighted>
   9.000000E+99

> <Gold.Protein.RotatedTorsions>
[ 6907 6896 6895 6894 ] final  117.99 input  -60.11 | X-H torsion
[ 7974 7965 7964 7962 ] final -107.99 input  175.53 | X-H torsion
[ 8008 7997 7996 7995 ] final   95.76 input   59.86 | X-H torsion
[ 10167 10162 10161 10158 ] final  -70.88 input  -65.29 | X-H torsion
[ 10718 10713 10712 10709 ] final  115.86 input   66.30 | X-H torsion
[ 10763 10752 10751 10750 ] final   62.56 input  -60.55 | X-H torsion
[ 11005 11000 10999 10996 ] final   86.81 input  -57.11 | X-H torsion

> <Gold.Protein.ActiveResidues>
 VAL166  LYS551  ARG553  GLY616  TRP617  ASP618  TYR619  PRO620  LYS621  CYS622 
 ASP623  PHE694  ASN695  SER759  ASP760  ASP761  ALA762  ILE779  LEU786  VAL792 
 PHE793  MET794  SER795  GLU796  ALA797  LYS798  CYS799  TRP800  GLU811  SER814 

> <Gold.Protein.RotatedAtoms>
  152.4574  133.7751  159.6819 H   0  0  0  0  0  0  0  0  0  0  0  0  # atno 6907 bound_to 6896
  150.8505  133.7784  159.3033 H   0  0  0  0  0  0  0  0  0  0  0  0  # atno 6908 bound_to 6896
  151.5381  135.1071  159.9971 H   0  0  0  0  0  0  0  0  0  0  0  0  # atno 6909 bound_to 6896
  145.1984  140.9046  143.3383 H   0  0  0  0  0  0  0  0  0  0  0  0  # atno 7974 bound_to 7965
  156.0723  140.3282  155.7591 H   0  0  0  0  0  0  0  0  0  0  0  0  # atno 8008 bound_to 7997
  155.5285  140.0591  157.2911 H   0  0  0  0  0  0  0  0  0  0  0  0  # atno 8009 bound_to 7997
  154.4537  140.1931  156.0461 H   0  0  0  0  0  0  0  0  0  0  0  0  # atno 8010 bound_to 7997
  140.5317  143.2321  151.7249 H   0  0  0  0  0  0  0  0  0  0  0  0  # atno 10167 bound_to 10162
  157.6196  131.1018  150.7390 H   0  0  0  0  0  0  0  0  0  0  0  0  # atno 10718 bound_to 10713
  152.9987  135.5460  154.6213 H   0  0  0  0  0  0  0  0  0  0  0  0  # atno 10763 bound_to 10752
  154.5512  135.2827  155.1009 H   0  0  0  0  0  0  0  0  0  0  0  0  # atno 10764 bound_to 10752
  154.2248  135.6444  153.5209 H   0  0  0  0  0  0  0  0  0  0  0  0  # atno 10765 bound_to 10752
  139.8935  134.8381  156.2773 H   0  0  0  0  0  0  0  0  0  0  0  0  # atno 11005 bound_to 11000
  144.9972  139.3633  143.6185 LP  0  0  0  0  0  0  0  0  0  0  0  0  # atno 17320 bound_to 7965
  146.3422  139.9179  142.8771 LP  0  0  0  0  0  0  0  0  0  0  0  0  # atno 17321 bound_to 7965
  139.4957  144.4103  152.0087 LP  0  0  0  0  0  0  0  0  0  0  0  0  # atno 17342 bound_to 10162
  140.3206  144.3432  150.6010 LP  0  0  0  0  0  0  0  0  0  0  0  0  # atno 17343 bound_to 10162
  156.7750  130.4841  149.5411 LP  0  0  0  0  0  0  0  0  0  0  0  0  # atno 17370 bound_to 10713
  156.1335  130.6195  151.0367 LP  0  0  0  0  0  0  0  0  0  0  0  0  # atno 17371 bound_to 10713
  141.0062  133.7122  156.1038 LP  0  0  0  0  0  0  0  0  0  0  0  0  # atno 17394 bound_to 11000
  140.7431  134.4128  157.5552 LP  0  0  0  0  0  0  0  0  0  0  0  0  # atno 17395 bound_to 11000

$$$$
