AV-unprocessed.smi:3055|AV-procd|sdf|11644|dock4
  -GOLD-   2272017 43D 1   1.00000     0.00000
 Structure written by MMmdl.
 47 49  0  0  0  0  0  0  0  0  2 V2000
  149.4037  134.8657  156.5923 O   0  0  0  0  0  0  0  0  0  0  0  0
  149.1959  134.7702  155.3819 C   0  0  0  0  0  0  0  0  0  0  0  0
  148.5703  135.7337  154.6873 N   0  0  0  0  0  0  0  0  0  0  0  0
  148.0968  136.9884  155.2543 C   0  0  0  0  0  0  0  0  0  0  0  0
  148.4254  138.1591  154.3187 C   0  0  0  0  0  0  0  0  0  0  0  0
  149.7977  138.5954  154.4777 N   0  0  0  0  0  0  0  0  0  0  0  0
  150.9455  137.8617  154.2089 C   0  0  0  0  0  0  0  0  0  0  0  0
  152.0125  138.6766  154.5124 C   0  0  0  0  0  0  0  0  0  0  0  0
  151.5472  139.9088  154.9660 N   0  0  0  0  0  0  0  0  0  0  0  0
  150.2270  139.7858  154.9182 C   0  0  0  0  0  0  0  0  0  0  0  0
  149.5467  133.6799  154.6533 N   0  0  0  0  0  0  0  0  0  0  0  0
  150.2285  132.4802  155.1639 C   0  0  0  0  0  0  0  0  0  0  0  0
  149.1814  131.3679  155.3390 C   0  0  0  0  0  0  0  0  0  0  0  0
  148.4282  131.1032  154.0207 C   0  0  0  0  0  0  0  0  0  0  0  0
  147.8731  132.4049  153.3836 C   0  0  2  0  0  0  0  0  0  0  0  0
  147.2747  132.1551  152.0425 N   0  3  0  0  0  0  0  0  0  0  0  0
  146.1667  131.1755  152.0115 C   0  0  0  0  0  0  0  0  0  0  0  0
  145.4117  131.4723  150.7214 C   0  0  0  0  0  0  0  0  0  0  0  0
  145.4782  132.9921  150.6322 C   0  0  0  0  0  0  0  0  0  0  0  0
  146.7914  133.3673  151.3330 C   0  0  0  0  0  0  0  0  0  0  0  0
  149.0131  133.4511  153.3049 C   0  0  0  0  0  0  0  0  0  0  0  0
  148.4158  135.5875  153.7004 H   0  0  0  0  0  0  0  0  0  0  0  0
  147.0197  136.9248  155.4164 H   0  0  0  0  0  0  0  0  0  0  0  0
  148.5618  137.1479  156.2289 H   0  0  0  0  0  0  0  0  0  0  0  0
  148.2739  137.8714  153.2774 H   0  0  0  0  0  0  0  0  0  0  0  0
  147.7646  139.0049  154.5153 H   0  0  0  0  0  0  0  0  0  0  0  0
  150.9091  136.8485  153.8361 H   0  0  0  0  0  0  0  0  0  0  0  0
  153.0706  138.4727  154.4407 H   0  0  0  0  0  0  0  0  0  0  0  0
  149.5567  140.5804  155.2123 H   0  0  0  0  0  0  0  0  0  0  0  0
  150.9902  132.1663  154.4485 H   0  0  0  0  0  0  0  0  0  0  0  0
  150.7626  132.6390  156.1007 H   0  0  0  0  0  0  0  0  0  0  0  0
  149.6614  130.4516  155.6839 H   0  0  0  0  0  0  0  0  0  0  0  0
  148.4706  131.6558  156.1149 H   0  0  0  0  0  0  0  0  0  0  0  0
  149.1090  130.6197  153.3185 H   0  0  0  0  0  0  0  0  0  0  0  0
  147.6265  130.3901  154.2135 H   0  0  0  0  0  0  0  0  0  0  0  0
  147.0860  132.7943  154.0322 H   0  0  0  0  0  0  0  0  0  0  0  0
  146.5289  130.1475  152.0472 H   0  0  0  0  0  0  0  0  0  0  0  0
  145.5083  131.3366  152.8672 H   0  0  0  0  0  0  0  0  0  0  0  0
  145.9339  131.0264  149.8736 H   0  0  0  0  0  0  0  0  0  0  0  0
  144.3904  131.0904  150.7292 H   0  0  0  0  0  0  0  0  0  0  0  0
  145.4317  133.3520  149.6040 H   0  0  0  0  0  0  0  0  0  0  0  0
  144.6368  133.4267  151.1740 H   0  0  0  0  0  0  0  0  0  0  0  0
  146.6178  134.1980  152.0190 H   0  0  0  0  0  0  0  0  0  0  0  0
  147.5474  133.6834  150.6136 H   0  0  0  0  0  0  0  0  0  0  0  0
  148.6729  134.3812  152.8484 H   0  0  0  0  0  0  0  0  0  0  0  0
  149.8125  133.0894  152.6561 H   0  0  0  0  0  0  0  0  0  0  0  0
  148.0020  131.7638  151.4610 H   0  0  0  0  0  0  0  0  0  0  0  0
  1  2  2  0  0  0  0
  2  3  1  0  0  0  0
  2 11  1  0  0  0  0
  3  4  1  0  0  0  0
  3 22  1  0  0  0  0
  4  5  1  0  0  0  0
  4 23  1  0  0  0  0
  4 24  1  0  0  0  0
  5  6  1  0  0  0  0
  5 25  1  0  0  0  0
  5 26  1  0  0  0  0
  6 10  1  0  0  0  0
  6  7  1  0  0  0  0
  7  8  2  0  0  0  0
  7 27  1  0  0  0  0
  8  9  1  0  0  0  0
  8 28  1  0  0  0  0
  9 10  2  0  0  0  0
 10 29  1  0  0  0  0
 11 21  1  0  0  0  0
 11 12  1  0  0  0  0
 12 13  1  0  0  0  0
 12 30  1  0  0  0  0
 12 31  1  0  0  0  0
 13 14  1  0  0  0  0
 13 32  1  0  0  0  0
 13 33  1  0  0  0  0
 14 15  1  0  0  0  0
 14 34  1  0  0  0  0
 14 35  1  0  0  0  0
 15 16  1  0  0  0  0
 15 21  1  0  0  0  0
 15 36  1  0  0  0  0
 16 20  1  0  0  0  0
 16 17  1  0  0  0  0
 16 47  1  0  0  0  0
 17 18  1  0  0  0  0
 17 37  1  0  0  0  0
 17 38  1  0  0  0  0
 18 19  1  0  0  0  0
 18 39  1  0  0  0  0
 18 40  1  0  0  0  0
 19 20  1  0  0  0  0
 19 41  1  0  0  0  0
 19 42  1  0  0  0  0
 20 43  1  0  0  0  0
 20 44  1  0  0  0  0
 21 45  1  0  0  0  0
 21 46  1  0  0  0  0
M  CHG  1  16   1
M  END
> <s_m_source_file>
AV-unprocessed.smi

> <i_m_source_file_index>
3055

> <i_lp_mmshare_version>
43012

> <i_f3d_flags>
0

> <s_epik_input>
W2NIXTFuW2NIXVtjSF1uMVtDSDJdW0NIMl1bTkhdQyg9TylOMltDSDJdW0NIMl1bQ0gyXVtDQEhdKFtDSDJdMilOM1tDSDJdW0NIMl1bQ0gyXVtDSDJdMw==

> <s_epik_cmdline>
J2VwaWtfcHl0aG9uJywgJy1waCcsICc3LjAnLCAnLXRuJywgJzgnLCAnLW1hJywgJzIwMCcsICctbWV0YWxfYmluZGluZycsICctaW1hZScsICc8aW5maWxlLm1hZT4nLCAnLW9tYWUnLCAnPG91dGZpbGUubWFlPic=

> <r_lp_tautomer_probability>
1

> <r_epik_Ionization_Penalty>
0.618392

> <r_epik_Ionization_Penalty_Charging>
0.618355

> <r_epik_Ionization_Penalty_Neutral>
3.68592e-05

> <r_epik_State_Penalty>
0.635579

> <r_epik_Charging_Adjusted_Penalty>
1.25393

> <i_epik_Tot_Q>
1

> <i_epik_Tot_abs_Q>
1

> <r_epik_Metal_State_Penalty>
0.306847

> <b_epik_Metal_Only>
0

> <s_lp_Force_Field>
OPLS_2005

> <r_lp_Energy>
57.1272

> <b_lp_Chiralities_Consistent>
1

> <s_lp_Variant>
AV-unprocessed.smi:3055-4

> <Gold.Version>
5.8.1

> <Gold.Id.Protein>
6NUR|6NUR_protein|mol2

> <Gold.PLP.Fitness>
48.6169

> <Gold.PLP.PLP>
-39.7639

> <Gold.PLP.part.hbond>
-3.0000

> <Gold.PLP.part.metal>
0.0000

> <Gold.PLP.part.buried>
-3.5952

> <Gold.PLP.part.nonpolar>
-32.8912

> <Gold.PLP.part.repulsive>
0.0481

> <Gold.PLP.ligand.clash>
1.6192

> <Gold.PLP.ligand.torsion>
0.2877

> <Gold.PLP.Chemscore.Hbond>
2.5960

> <Gold.PLP.Chemscore.CHOScore>
1.0556

> <Gold.PLP.Chemscore.Metal>
0.0000

> <Gold.Chemscore.Hbonds>
donor molecule, donor type, donor heavy atom, donor atom, acceptor molecule, acceptor atom, score
      L1  H     3    22       P1  7948  0.86
      L1  H    16    47       P1 10747  1.00
      P1  H  7989  7998       L1     9  0.75
      L1  C     7    27       P1  7948  0.08
      L1  C     7    27       P1  7949  0.95

> <Gold.PLP.Chemscore.Internal.Correction>
0.0928

> <Gold.Rescore>
     Score         DG    S(hbond)    S(metal)    S(lipo)     H(rot)  DE(clash)    DE(int)     intcor
     16.65     -16.93       1.90        0.00      83.17       1.81       0.03       0.25       ----

> <Gold.Chemscore.Fitness>
16.6489

> <Gold.Chemscore.DG>
-16.9315

> <Gold.Chemscore.ZeroCoef>
-5.4800

> <Gold.Chemscore.Hbond>
1.9000

> <Gold.Chemscore.Metal>
0.0000

> <Gold.Chemscore.Lipo>
83.1659

> <Gold.Chemscore.Internal_Hbond>
0.0000

> <Gold.Chemscore.DEClash>
0.0332

> <Gold.Chemscore.DEInternal>
0.2494

> <Gold.Chemscore.Rot>
1.8066

> <Gold.Chemscore.Internal.Correction>
   9.000000E+99

> <Gold.Chemscore.Hbonds>
donor molecule, donor type, donor heavy atom, donor atom, acceptor molecule, acceptor atom, score
      L1  H     3    22       P1  7948  0.82
      L1  H    16    47       P1 10747  1.00
      P1  H  7989  7998       L1     9  0.03

> <Gold.Chemscore.Hbond.Weighted>
-6.3461

> <Gold.Chemscore.Metal.Weighted>
-0.0000

> <Gold.Chemscore.Lipo.Weighted>
-9.7304

> <Gold.Chemscore.Internal_Hbond.Weighted>
0.0000

> <Gold.Chemscore.DEClash.Weighted>
0.0332

> <Gold.Chemscore.DEInternal.Weighted>
0.2494

> <Gold.Chemscore.Rot.Weighted>
4.6249

> <Gold.Chemscore.Internal.Correction.Weighted>
   9.000000E+99

> <Gold.Protein.RotatedTorsions>
[ 6907 6896 6895 6894 ] final -128.59 input  -60.11 | X-H torsion
[ 7974 7965 7964 7962 ] final -125.00 input  175.53 | X-H torsion
[ 8008 7997 7996 7995 ] final   -9.80 input   59.86 | X-H torsion
[ 10167 10162 10161 10158 ] final  103.64 input  -65.29 | X-H torsion
[ 10718 10713 10712 10709 ] final   77.38 input   66.30 | X-H torsion
[ 10763 10752 10751 10750 ] final -149.24 input  -60.55 | X-H torsion
[ 11005 11000 10999 10996 ] final   80.16 input  -57.11 | X-H torsion

> <Gold.Protein.ActiveResidues>
 VAL166  LYS551  ARG553  GLY616  TRP617  ASP618  TYR619  PRO620  LYS621  CYS622 
 ASP623  PHE694  ASN695  SER759  ASP760  ASP761  ALA762  ILE779  LEU786  VAL792 
 PHE793  MET794  SER795  GLU796  ALA797  LYS798  CYS799  TRP800  GLU811  SER814 

> <Gold.Protein.RotatedAtoms>
  150.9195  133.6898  159.2835 H   0  0  0  0  0  0  0  0  0  0  0  0  # atno 6907 bound_to 6896
  151.4357  135.1013  159.9665 H   0  0  0  0  0  0  0  0  0  0  0  0  # atno 6908 bound_to 6896
  152.4972  133.8615  159.7307 H   0  0  0  0  0  0  0  0  0  0  0  0  # atno 6909 bound_to 6896
  145.0021  140.7830  143.4489 H   0  0  0  0  0  0  0  0  0  0  0  0  # atno 7974 bound_to 7965
  154.5613  140.2345  155.8331 H   0  0  0  0  0  0  0  0  0  0  0  0  # atno 8008 bound_to 7997
  156.2032  140.3047  155.9529 H   0  0  0  0  0  0  0  0  0  0  0  0  # atno 8009 bound_to 7997
  155.2883  140.0425  157.3011 H   0  0  0  0  0  0  0  0  0  0  0  0  # atno 8010 bound_to 7997
  139.7246  144.7050  151.0818 H   0  0  0  0  0  0  0  0  0  0  0  0  # atno 10167 bound_to 10162
  157.6708  130.9819  150.1632 H   0  0  0  0  0  0  0  0  0  0  0  0  # atno 10718 bound_to 10713
  154.8188  135.3314  154.7099 H   0  0  0  0  0  0  0  0  0  0  0  0  # atno 10763 bound_to 10752
  153.7735  135.6924  153.4906 H   0  0  0  0  0  0  0  0  0  0  0  0  # atno 10764 bound_to 10752
  153.2029  135.4510  155.0236 H   0  0  0  0  0  0  0  0  0  0  0  0  # atno 10765 bound_to 10752
  139.9145  134.7899  156.1873 H   0  0  0  0  0  0  0  0  0  0  0  0  # atno 11005 bound_to 11000
  145.2138  139.2192  143.5129 LP  0  0  0  0  0  0  0  0  0  0  0  0  # atno 17320 bound_to 7965
  146.3454  140.1982  142.8589 LP  0  0  0  0  0  0  0  0  0  0  0  0  # atno 17321 bound_to 7965
  140.7760  143.5122  150.9639 LP  0  0  0  0  0  0  0  0  0  0  0  0  # atno 17342 bound_to 10162
  139.8809  143.7073  152.3157 LP  0  0  0  0  0  0  0  0  0  0  0  0  # atno 17343 bound_to 10162
  156.2404  130.3690  149.8344 LP  0  0  0  0  0  0  0  0  0  0  0  0  # atno 17370 bound_to 10713
  156.6145  130.8601  151.3462 LP  0  0  0  0  0  0  0  0  0  0  0  0  # atno 17371 bound_to 10713
  141.0605  133.6844  156.1944 LP  0  0  0  0  0  0  0  0  0  0  0  0  # atno 17394 bound_to 11000
  140.6668  134.4910  157.5586 LP  0  0  0  0  0  0  0  0  0  0  0  0  # atno 17395 bound_to 11000

$$$$
