#       Name:                AV-unprocessed.smi:2214
#       Creating user name   scv26
#       Creation time:       Fri Mar 27 12:17:39 2020


#       File generated by GOLD software.
#

@<TRIPOS>MOLECULE
AV-unprocessed.smi:2214
    48    49     1
SMALL
NO_CHARGES


@<TRIPOS>ATOM
      1 ****        -6.3044  -1.3822   0.5842 C.3            1 S1                 0.0000
      2 ****        -5.4207  -0.1557   0.4860 C.ar           1 S1                 0.0000
      3 ****        -5.9845   1.1073   0.2191 C.ar           1 S1                 0.0000
      4 ****        -5.1562   2.2406   0.1287 C.ar           1 S1                 0.0000
      5 ****        -3.7644   2.1163   0.3043 C.ar           1 S1                 0.0000
      6 ****        -2.7695   3.5238   0.1867 Cl             1 S1                 0.0000
      7 ****        -3.1836   0.8567   0.5714 C.ar           1 S1                 0.0000
      8 ****        -1.8149   0.8133   0.7315 O.3            1 S1                 0.0000
      9 ****        -1.1962  -0.4450   0.9691 C.3            1 S1                 0.0000
     10 ****         0.3286  -0.2655   1.0627 C.3            1 S1                 0.0000
     11 ****         0.6228   0.2718   2.3366 O.3            1 S1                 0.0000
     12 ****         0.8988   0.6414  -0.0511 C.3            1 S1                 0.0000
     13 ****         2.3279   0.3890  -0.2989 N.am           1 S1                 0.0000
     14 ****         3.2310   1.2743   0.3115 C.2            1 S1                 0.0000
     15 ****         4.5093   1.1491   0.1637 N.2            1 S1                 0.0000
     16 ****         5.0223   0.1129  -0.6218 C.2            1 S1                 0.0000
     17 ****         6.5359   0.0608  -0.7325 C.3            1 S1                 0.0000
     18 ****         4.2009  -0.7807  -1.2376 C.2            1 S1                 0.0000
     19 ****         4.7020  -1.9278  -2.1060 C.3            1 S1                 0.0000
     20 ****         2.7437  -0.6565  -1.0707 C.2            1 S1                 0.0000
     21 ****         1.9426  -1.4393  -1.5851 O.2            1 S1                 0.0000
     22 ****        -4.0271  -0.2800   0.6598 C.ar           1 S1                 0.0000
     23 ****        -7.3585  -1.1088   0.6408 H              1 S1                 0.0000
     24 ****        -6.0563  -1.9599   1.4752 H              1 S1                 0.0000
     25 ****        -6.1622  -2.0194  -0.2889 H              1 S1                 0.0000
     26 ****        -7.0509   1.2123   0.0826 H              1 S1                 0.0000
     27 ****        -5.5906   3.2079  -0.0761 H              1 S1                 0.0000
     28 ****        -1.5833  -0.9113   1.8769 H              1 S1                 0.0000
     29 ****        -1.4176  -1.1116   0.1339 H              1 S1                 0.0000
     30 ****         0.7823  -1.2563   1.0164 H              1 S1                 0.0000
     31 ****         1.5614   0.3112   2.4376 H              1 S1                 0.0000
     32 ****         0.3527   0.4583  -0.9785 H              1 S1                 0.0000
     33 ****         0.6993   1.6919   0.1721 H              1 S1                 0.0000
     34 ****         2.7802   2.0634   0.9158 H              1 S1                 0.0000
     35 ****         6.8475   0.1793  -1.7705 H              1 S1                 0.0000
     36 ****         6.9135  -0.8920  -0.3608 H              1 S1                 0.0000
     37 ****         7.0044   0.8552  -0.1501 H              1 S1                 0.0000
     38 ****         4.4033  -2.8841  -1.6755 H              1 S1                 0.0000
     39 ****         5.7846  -1.9410  -2.2177 H              1 S1                 0.0000
     40 ****         4.2722  -1.8579  -3.1056 H              1 S1                 0.0000
     41 ****        -3.6263  -1.2616   0.8614 H              1 S1                 0.0000
     42 ****        -1.5901   1.4033   1.5070 LP             1 S1                 0.0000
     43 ****        -1.4087   1.1887  -0.1016 LP             1 S1                 0.0000
     44 ****         0.2317  -0.3129   3.0474 LP             1 S1                 0.0000
     45 ****         0.2370   1.1913   2.4117 LP             1 S1                 0.0000
     46 ****         5.1303   1.7928   0.6108 LP             1 S1                 0.0000
     47 ****         0.9607  -1.3163  -1.4411 LP             1 S1                 0.0000
     48 ****         2.2745  -2.1974  -2.1465 LP             1 S1                 0.0000
@<TRIPOS>BOND
    1    1    2 1     
    2    1   23 1     
    3    1   24 1     
    4    1   25 1     
    5    2   22 ar    
    6    2    3 ar    
    7    3    4 ar    
    8    3   26 1     
    9    4    5 ar    
   10    4   27 1     
   11    5    6 1     
   12    5    7 ar    
   13    7    8 1     
   14    7   22 ar    
   15    8    9 1     
   16    9   10 1     
   17    9   28 1     
   18    9   29 1     
   19   10   11 1     
   20   10   12 1     
   21   10   30 1     
   22   11   31 1     
   23   12   13 1     
   24   12   32 1     
   25   12   33 1     
   26   13   20 am    
   27   13   14 1     
   28   14   15 2     
   29   14   34 1     
   30   15   16 1     
   31   16   17 1     
   32   16   18 2     
   33   17   35 1     
   34   17   36 1     
   35   17   37 1     
   36   18   19 1     
   37   18   20 1     
   38   19   38 1     
   39   19   39 1     
   40   19   40 1     
   41   20   21 2     
   42   22   41 1     
   43    8   42 1     
   44    8   43 1     
   45   11   44 1     
   46   11   45 1     
   47   15   46 1     
   48   21   47 1     
   49   21   48 1     
@<TRIPOS>SUBSTRUCTURE
      1 S1             1
@<TRIPOS>SET
LONE_PAIRS      STATIC     ATOMS    <user>   **** ""
7 42 43 44 45 46 47 48
DONOR_HYDROGENS      STATIC     ATOMS    <user>   **** ""
1 31
ATOM$BLUE        STATIC     ATOMS    COLORGROUP SYSTEM
7 42 43 44 45 46 47 48
ATOM$RED        STATIC     ATOMS    COLORGROUP SYSTEM
1 31
