AV-unprocessed.smi:1045|AV-procd|sdf|4546|dock2
  -GOLD-   22720 2573D 1   1.00000     0.00000
 Structure written by MMmdl.
 43 44  0  0  0  0  0  0  0  0  2 V2000
  142.3508  137.5675  153.4325 C   0  0  0  0  0  0  0  0  0  0  0  0
  143.3614  137.3145  152.4718 O   0  0  0  0  0  0  0  0  0  0  0  0
  144.6651  137.5510  152.9776 C   0  0  0  0  0  0  0  0  0  0  0  0
  145.6652  137.6158  151.8122 C   0  0  2  0  0  0  0  0  0  0  0  0
  145.6368  136.3452  150.9499 C   0  0  0  0  0  0  0  0  0  0  0  0
  147.0148  137.8096  152.3391 N   0  0  0  0  0  0  0  0  0  0  0  0
  147.3864  138.7440  153.2264 C   0  0  0  0  0  0  0  0  0  0  0  0
  146.6139  139.5668  153.7170 O   0  0  0  0  0  0  0  0  0  0  0  0
  148.6956  138.6448  153.5161 N   0  0  0  0  0  0  0  0  0  0  0  0
  149.4778  139.4745  154.3653 C   0  0  0  0  0  0  0  0  0  0  0  0
  149.0613  140.8110  154.5476 C   0  0  0  0  0  0  0  0  0  0  0  0
  149.7954  141.6642  155.3971 C   0  0  0  0  0  0  0  0  0  0  0  0
  150.9366  141.1631  156.0657 C   0  0  0  0  0  0  0  0  0  0  0  0
  151.7334  141.9248  156.9322 N   0  0  0  0  0  0  0  0  0  0  0  0
  151.8563  141.4027  158.2832 C   0  0  0  0  0  0  0  0  0  0  0  0
  152.3961  142.5635  159.1224 C   0  0  0  0  0  0  0  0  0  0  0  0
  152.0324  143.8244  158.3295 C   0  0  0  0  0  0  0  0  0  0  0  0
  151.3190  143.3098  157.0761 C   0  0  0  0  0  0  0  0  0  0  0  0
  151.2979  139.8763  155.8722 N   0  3  0  0  0  0  0  0  0  0  0  0
  150.6247  139.0270  155.0660 C   0  0  0  0  0  0  0  0  0  0  0  0
  141.3716  137.3789  152.9924 H   0  0  0  0  0  0  0  0  0  0  0  0
  142.3741  138.6051  153.7681 H   0  0  0  0  0  0  0  0  0  0  0  0
  142.4603  136.9160  154.3005 H   0  0  0  0  0  0  0  0  0  0  0  0
  144.6718  138.4950  153.5254 H   0  0  0  0  0  0  0  0  0  0  0  0
  144.9481  136.7641  153.6790 H   0  0  0  0  0  0  0  0  0  0  0  0
  145.3862  138.4573  151.1759 H   0  0  0  0  0  0  0  0  0  0  0  0
  144.6473  136.1799  150.5228 H   0  0  0  0  0  0  0  0  0  0  0  0
  145.8978  135.4617  151.5335 H   0  0  0  0  0  0  0  0  0  0  0  0
  146.3418  136.4186  150.1212 H   0  0  0  0  0  0  0  0  0  0  0  0
  147.7225  137.1760  151.9970 H   0  0  0  0  0  0  0  0  0  0  0  0
  149.1824  137.8622  153.1041 H   0  0  0  0  0  0  0  0  0  0  0  0
  148.1865  141.1864  154.0368 H   0  0  0  0  0  0  0  0  0  0  0  0
  149.4808  142.6893  155.5290 H   0  0  0  0  0  0  0  0  0  0  0  0
  150.8854  141.0856  158.6655 H   0  0  0  0  0  0  0  0  0  0  0  0
  152.5264  140.5429  158.3121 H   0  0  0  0  0  0  0  0  0  0  0  0
  151.9704  142.5662  160.1263 H   0  0  0  0  0  0  0  0  0  0  0  0
  153.4796  142.4877  159.2214 H   0  0  0  0  0  0  0  0  0  0  0  0
  151.3991  144.5050  158.8994 H   0  0  0  0  0  0  0  0  0  0  0  0
  152.9391  144.3659  158.0562 H   0  0  0  0  0  0  0  0  0  0  0  0
  151.5866  143.8936  156.1948 H   0  0  0  0  0  0  0  0  0  0  0  0
  150.2380  143.3730  157.2064 H   0  0  0  0  0  0  0  0  0  0  0  0
  151.0258  138.0254  155.0296 H   0  0  0  0  0  0  0  0  0  0  0  0
  152.1207  139.5255  156.3633 H   0  0  0  0  0  0  0  0  0  0  0  0
  1  2  1  0  0  0  0
  1 21  1  0  0  0  0
  1 22  1  0  0  0  0
  1 23  1  0  0  0  0
  2  3  1  0  0  0  0
  3  4  1  0  0  0  0
  3 24  1  0  0  0  0
  3 25  1  0  0  0  0
  4  5  1  0  0  0  0
  4  6  1  0  0  0  0
  4 26  1  0  0  0  0
  5 27  1  0  0  0  0
  5 28  1  0  0  0  0
  5 29  1  0  0  0  0
  6  7  1  0  0  0  0
  6 30  1  0  0  0  0
  7  8  2  0  0  0  0
  7  9  1  0  0  0  0
  9 10  1  0  0  0  0
  9 31  1  0  0  0  0
 10 20  1  0  0  0  0
 10 11  2  0  0  0  0
 11 12  1  0  0  0  0
 11 32  1  0  0  0  0
 12 13  2  0  0  0  0
 12 33  1  0  0  0  0
 13 14  1  0  0  0  0
 13 19  1  0  0  0  0
 14 18  1  0  0  0  0
 14 15  1  0  0  0  0
 15 16  1  0  0  0  0
 15 34  1  0  0  0  0
 15 35  1  0  0  0  0
 16 17  1  0  0  0  0
 16 36  1  0  0  0  0
 16 37  1  0  0  0  0
 17 18  1  0  0  0  0
 17 38  1  0  0  0  0
 17 39  1  0  0  0  0
 18 40  1  0  0  0  0
 18 41  1  0  0  0  0
 19 20  2  0  0  0  0
 19 43  1  0  0  0  0
 20 42  1  0  0  0  0
M  CHG  1  19   1
M  END
> <s_m_source_file>
AV-unprocessed.smi

> <i_m_source_file_index>
1045

> <i_lp_mmshare_version>
43012

> <i_f3d_flags>
0

> <s_epik_input>
W0NIM11PW0NIMl1bQ0BIXShbQ0gzXSlbTkhdQyg9TylbTkhdYzFbY0hdW2NIXWMobltjSF0xKU4yW0NIMl1bQ0gyXVtDSDJdW0NIMl0y

> <s_epik_cmdline>
J2VwaWtfcHl0aG9uJywgJy1waCcsICc3LjAnLCAnLXRuJywgJzgnLCAnLW1hJywgJzIwMCcsICctbWV0YWxfYmluZGluZycsICctaW1hZScsICc8aW5maWxlLm1hZT4nLCAnLW9tYWUnLCAnPG91dGZpbGUubWFlPic=

> <r_lp_tautomer_probability>
0.999994

> <r_epik_Ionization_Penalty>
1.10308

> <r_epik_Ionization_Penalty_Charging>
1.10306

> <r_epik_Ionization_Penalty_Neutral>
1.99752e-05

> <r_epik_State_Penalty>
1.16038

> <r_epik_Charging_Adjusted_Penalty>
2.26344

> <i_epik_Tot_Q>
1

> <i_epik_Tot_abs_Q>
1

> <r_epik_Metal_State_Penalty>
1.24746

> <b_epik_Metal_Only>
0

> <s_lp_Force_Field>
OPLS_2005

> <r_lp_Energy>
40.1243

> <b_lp_Chiralities_Consistent>
1

> <s_lp_Variant>
AV-unprocessed.smi:1045-3

> <Gold.Version>
5.8.1

> <Gold.Id.Protein>
6NUR|6NUR_protein|mol2

> <Gold.PLP.Fitness>
38.9789

> <Gold.PLP.PLP>
-33.8274

> <Gold.PLP.part.hbond>
-2.9721

> <Gold.PLP.part.metal>
0.0000

> <Gold.PLP.part.buried>
1.8996

> <Gold.PLP.part.nonpolar>
-34.2316

> <Gold.PLP.part.repulsive>
0.6699

> <Gold.PLP.ligand.clash>
0.0000

> <Gold.PLP.ligand.torsion>
0.2882

> <Gold.PLP.Chemscore.Hbond>
1.8960

> <Gold.PLP.Chemscore.CHOScore>
0.0000

> <Gold.PLP.Chemscore.Metal>
0.0000

> <Gold.Chemscore.Hbonds>
donor molecule, donor type, donor heavy atom, donor atom, acceptor molecule, acceptor atom, score
      L1  H     6    30       P1  7948  1.00
      L1  H     9    31       P1  7948  0.89

> <Gold.PLP.Chemscore.Internal.Correction>
0.0398

> <Gold.Rescore>
     Score         DG    S(hbond)    S(metal)    S(lipo)     H(rot)  DE(clash)    DE(int)     intcor
     15.60     -17.59       1.96        0.00      83.54       1.64       0.45       1.54       ----

> <Gold.Chemscore.Fitness>
15.6031

> <Gold.Chemscore.DG>
-17.5918

> <Gold.Chemscore.ZeroCoef>
-5.4800

> <Gold.Chemscore.Hbond>
1.9550

> <Gold.Chemscore.Metal>
0.0000

> <Gold.Chemscore.Lipo>
83.5417

> <Gold.Chemscore.Internal_Hbond>
0.0000

> <Gold.Chemscore.DEClash>
0.4524

> <Gold.Chemscore.DEInternal>
1.5363

> <Gold.Chemscore.Rot>
1.6376

> <Gold.Chemscore.Internal.Correction>
   9.000000E+99

> <Gold.Chemscore.Hbonds>
donor molecule, donor type, donor heavy atom, donor atom, acceptor molecule, acceptor atom, score
      L1  H     6    30       P1  7948  0.93
      L1  H     9    31       P1  7948  0.80

> <Gold.Chemscore.Hbond.Weighted>
-6.5298

> <Gold.Chemscore.Metal.Weighted>
-0.0000

> <Gold.Chemscore.Lipo.Weighted>
-9.7744

> <Gold.Chemscore.Internal_Hbond.Weighted>
0.0000

> <Gold.Chemscore.DEClash.Weighted>
0.4524

> <Gold.Chemscore.DEInternal.Weighted>
1.5363

> <Gold.Chemscore.Rot.Weighted>
4.1924

> <Gold.Chemscore.Internal.Correction.Weighted>
   9.000000E+99

> <Gold.Protein.RotatedTorsions>
[ 6907 6896 6895 6894 ] final  119.45 input  -60.11 | X-H torsion
[ 7974 7965 7964 7962 ] final  -13.40 input  175.53 | X-H torsion
[ 8008 7997 7996 7995 ] final -134.67 input   59.86 | X-H torsion
[ 10167 10162 10161 10158 ] final  152.00 input  -65.29 | X-H torsion
[ 10718 10713 10712 10709 ] final  173.11 input   66.30 | X-H torsion
[ 10763 10752 10751 10750 ] final    8.12 input  -60.55 | X-H torsion
[ 11005 11000 10999 10996 ] final  -76.76 input  -57.11 | X-H torsion

> <Gold.Protein.ActiveResidues>
 VAL166  LYS551  ARG553  GLY616  TRP617  ASP618  TYR619  PRO620  LYS621  CYS622 
 ASP623  PHE694  ASN695  SER759  ASP760  ASP761  ALA762  ILE779  LEU786  VAL792 
 PHE793  MET794  SER795  GLU796  ALA797  LYS798  CYS799  TRP800  GLU811  SER814 

> <Gold.Protein.RotatedAtoms>
  152.4471  133.7557  159.6718 H   0  0  0  0  0  0  0  0  0  0  0  0  # atno 6907 bound_to 6896
  150.8373  133.7982  159.3080 H   0  0  0  0  0  0  0  0  0  0  0  0  # atno 6908 bound_to 6896
  151.5617  135.1068  160.0026 H   0  0  0  0  0  0  0  0  0  0  0  0  # atno 6909 bound_to 6896
  146.2115  140.3198  142.8389 H   0  0  0  0  0  0  0  0  0  0  0  0  # atno 7974 bound_to 7965
  155.3660  140.0485  157.3046 H   0  0  0  0  0  0  0  0  0  0  0  0  # atno 8008 bound_to 7997
  154.5154  140.2206  155.9039 H   0  0  0  0  0  0  0  0  0  0  0  0  # atno 8009 bound_to 7997
  156.1630  140.3112  155.8846 H   0  0  0  0  0  0  0  0  0  0  0  0  # atno 8010 bound_to 7997
  139.4836  144.5394  151.7590 H   0  0  0  0  0  0  0  0  0  0  0  0  # atno 10167 bound_to 10162
  156.9691  131.0084  151.2909 H   0  0  0  0  0  0  0  0  0  0  0  0  # atno 10718 bound_to 10713
  153.2286  135.6890  153.7916 H   0  0  0  0  0  0  0  0  0  0  0  0  # atno 10763 bound_to 10752
  153.7089  135.3285  155.3242 H   0  0  0  0  0  0  0  0  0  0  0  0  # atno 10764 bound_to 10752
  154.8303  135.4585  154.1162 H   0  0  0  0  0  0  0  0  0  0  0  0  # atno 10765 bound_to 10752
  141.1656  133.6996  156.7718 H   0  0  0  0  0  0  0  0  0  0  0  0  # atno 11005 bound_to 11000
  144.8928  140.7545  143.5916 LP  0  0  0  0  0  0  0  0  0  0  0  0  # atno 17320 bound_to 7965
  145.3121  139.1815  143.4633 LP  0  0  0  0  0  0  0  0  0  0  0  0  # atno 17321 bound_to 7965
  140.4931  144.1280  150.5954 LP  0  0  0  0  0  0  0  0  0  0  0  0  # atno 17342 bound_to 10162
  140.4148  143.2639  151.9788 LP  0  0  0  0  0  0  0  0  0  0  0  0  # atno 17343 bound_to 10162
  157.5605  130.8242  149.8260 LP  0  0  0  0  0  0  0  0  0  0  0  0  # atno 17370 bound_to 10713
  156.0290  130.3770  150.1740 LP  0  0  0  0  0  0  0  0  0  0  0  0  # atno 17371 bound_to 10713
  140.2459  134.8578  157.3619 LP  0  0  0  0  0  0  0  0  0  0  0  0  # atno 17394 bound_to 11000
  140.1750  134.4561  155.7807 LP  0  0  0  0  0  0  0  0  0  0  0  0  # atno 17395 bound_to 11000

$$$$
