#       Name:                AV-unprocessed.smi:180
#       Creating user name   scv26
#       Creation time:       Thu Mar 26 19:25:08 2020


#       File generated by GOLD software.
#

@<TRIPOS>MOLECULE
AV-unprocessed.smi:180
    66    69     1
SMALL
NO_CHARGES


@<TRIPOS>ATOM
      1 ****        -7.9294  -1.8061   0.4652 C.3            1 S1                 0.0000
      2 ****        -6.4091  -1.8834   0.3750 C.2            1 S1                 0.0000
      3 ****        -5.8076  -2.8215   0.8970 O.2            1 S1                 0.0000
      4 ****        -5.8002  -0.8873  -0.2855 N.am           1 S1                 0.0000
      5 ****        -4.3587  -0.7666  -0.4742 C.3            1 S1                 0.0000
      6 ****        -3.6706  -0.1685   0.7646 C.3            1 S1                 0.0000
      7 ****        -2.1382  -0.1448   0.6104 C.3            1 S1                 0.0000
      8 ****        -1.5328   0.5096   1.7630 N.3            1 S1                 0.0000
      9 ****        -0.1856   0.4457   1.7904 C.ar           1 S1                 0.0000
     10 ****         0.3782  -0.2252   2.8240 N.ar           1 S1                 0.0000
     11 ****         1.7083  -0.3235   2.9093 C.ar           1 S1                 0.0000
     12 ****         2.6369   0.1644   2.0835 N.ar           1 S1                 0.0000
     13 ****         2.0702   0.8385   1.0416 C.ar           1 S1                 0.0000
     14 ****         0.6775   1.0305   0.8210 C.ar           1 S1                 0.0000
     15 ****         0.4787   1.7759  -0.3350 N.2            1 S1                 0.0000
     16 ****         1.6855   2.0071  -0.7749 C.2            1 S1                 0.0000
     17 ****         2.7012   1.4677  -0.0174 N.pl3          1 S1                 0.0000
     18 ****         4.1292   1.5689  -0.2760 C.3            1 S1                 0.0000
     19 ****         4.7036   0.4361  -1.1650 C.3            1 S1                 0.0000
     20 ****         6.0852   0.7218  -1.2885 O.3            1 S1                 0.0000
     21 ****         4.5517  -0.9643  -0.5326 C.3            1 S1                 0.0000
     22 ****         5.0451  -2.0770  -1.4749 C.3            1 S1                 0.0000
     23 ****         4.3629  -1.9982  -2.7213 O.3            1 S1                 0.0000
     24 ****         4.6074  -0.7776  -3.4104 C.3            1 S1                 0.0000
     25 ****         4.0860   0.4092  -2.5800 C.3            1 S1                 0.0000
     26 ****        -2.0623   1.8458   1.9980 C.3            1 S1                 0.0000
     27 ****        -3.5945   1.7850   2.1072 C.3            1 S1                 0.0000
     28 ****        -4.1309   1.1715   0.9385 O.3            1 S1                 0.0000
     29 ****        -8.3570  -1.4513  -0.4731 H              1 S1                 0.0000
     30 ****        -8.2257  -1.1220   1.2607 H              1 S1                 0.0000
     31 ****        -8.3528  -2.7875   0.6816 H              1 S1                 0.0000
     32 ****        -6.3743  -0.1542  -0.6760 H              1 S1                 0.0000
     33 ****        -3.9355  -1.7452  -0.7076 H              1 S1                 0.0000
     34 ****        -4.1760  -0.1365  -1.3450 H              1 S1                 0.0000
     35 ****        -3.9325  -0.7590   1.6449 H              1 S1                 0.0000
     36 ****        -1.7541  -1.1621   0.5221 H              1 S1                 0.0000
     37 ****        -1.8666   0.3838  -0.3039 H              1 S1                 0.0000
     38 ****         2.0821  -0.8728   3.7606 H              1 S1                 0.0000
     39 ****         1.8697   2.5749  -1.6753 H              1 S1                 0.0000
     40 ****         4.3164   2.5390  -0.7390 H              1 S1                 0.0000
     41 ****         4.6456   1.5899   0.6852 H              1 S1                 0.0000
     42 ****         6.4847   0.0467  -1.8155 H              1 S1                 0.0000
     43 ****         5.0806  -1.0147   0.4200 H              1 S1                 0.0000
     44 ****         3.5024  -1.1589  -0.3121 H              1 S1                 0.0000
     45 ****         6.1229  -2.0137  -1.6321 H              1 S1                 0.0000
     46 ****         4.8497  -3.0531  -1.0308 H              1 S1                 0.0000
     47 ****         5.6721  -0.6738  -3.6243 H              1 S1                 0.0000
     48 ****         4.0959  -0.8111  -4.3724 H              1 S1                 0.0000
     49 ****         3.0027   0.3139  -2.5102 H              1 S1                 0.0000
     50 ****         4.2789   1.3476  -3.1013 H              1 S1                 0.0000
     51 ****        -1.6375   2.2597   2.9136 H              1 S1                 0.0000
     52 ****        -1.7758   2.5072   1.1794 H              1 S1                 0.0000
     53 ****        -3.9002   1.2299   2.9955 H              1 S1                 0.0000
     54 ****        -4.0050   2.7902   2.2017 H              1 S1                 0.0000
     55 ****        -6.3157  -3.5340   1.3809 LP             1 S1                 0.0000
     56 ****        -4.8106  -2.8714   0.8373 LP             1 S1                 0.0000
     57 ****        -1.8171  -0.0354   2.5518 LP             1 S1                 0.0000
     58 ****        -0.2005  -0.6464   3.5224 LP             1 S1                 0.0000
     59 ****         3.6220   0.0503   2.2122 LP             1 S1                 0.0000
     60 ****        -0.3891   2.0678  -0.7371 LP             1 S1                 0.0000
     61 ****         6.5088   0.7377  -0.3828 LP             1 S1                 0.0000
     62 ****         6.2078   1.6109  -1.7295 LP             1 S1                 0.0000
     63 ****         3.3805  -2.0782  -2.5529 LP             1 S1                 0.0000
     64 ****         4.6650  -2.7567  -3.2988 LP             1 S1                 0.0000
     65 ****        -5.1282   1.1612   1.0106 LP             1 S1                 0.0000
     66 ****        -3.8599   1.7098   0.1405 LP             1 S1                 0.0000
@<TRIPOS>BOND
    1    1    2 1     
    2    1   29 1     
    3    1   30 1     
    4    1   31 1     
    5    2    3 2     
    6    2    4 am    
    7    4    5 1     
    8    4   32 1     
    9    5    6 1     
   10    5   33 1     
   11    5   34 1     
   12    6   28 1     
   13    6    7 1     
   14    6   35 1     
   15    7    8 1     
   16    7   36 1     
   17    7   37 1     
   18    8    9 1     
   19    8   26 1     
   20    9   14 ar    
   21    9   10 ar    
   22   10   11 ar    
   23   11   12 ar    
   24   11   38 1     
   25   12   13 ar    
   26   13   17 1     
   27   13   14 ar    
   28   14   15 1     
   29   15   16 2     
   30   16   17 1     
   31   16   39 1     
   32   17   18 1     
   33   18   19 1     
   34   18   40 1     
   35   18   41 1     
   36   19   25 1     
   37   19   20 1     
   38   19   21 1     
   39   20   42 1     
   40   21   22 1     
   41   21   43 1     
   42   21   44 1     
   43   22   23 1     
   44   22   45 1     
   45   22   46 1     
   46   23   24 1     
   47   24   25 1     
   48   24   47 1     
   49   24   48 1     
   50   25   49 1     
   51   25   50 1     
   52   26   27 1     
   53   26   51 1     
   54   26   52 1     
   55   27   28 1     
   56   27   53 1     
   57   27   54 1     
   58    3   55 1     
   59    3   56 1     
   60    8   57 1     
   61   10   58 1     
   62   12   59 1     
   63   15   60 1     
   64   20   61 1     
   65   20   62 1     
   66   23   63 1     
   67   23   64 1     
   68   28   65 1     
   69   28   66 1     
@<TRIPOS>SUBSTRUCTURE
      1 S1             1
@<TRIPOS>SET
LONE_PAIRS      STATIC     ATOMS    <user>   **** ""
12 55 56 57 58 59 60 61 62 63 64 65 66
DONOR_HYDROGENS      STATIC     ATOMS    <user>   **** ""
2 32 42
ATOM$BLUE        STATIC     ATOMS    COLORGROUP SYSTEM
12 55 56 57 58 59 60 61 62 63 64 65 66
ATOM$RED        STATIC     ATOMS    COLORGROUP SYSTEM
2 32 42
