#       Name:                AV-unprocessed.smi:1734
#       Creating user name   scv26
#       Creation time:       Fri Mar 27 08:20:07 2020


#       File generated by GOLD software.
#

@<TRIPOS>MOLECULE
AV-unprocessed.smi:1734
    58    60     1
SMALL
NO_CHARGES


@<TRIPOS>ATOM
      1 ****        -5.0652   0.0401  -1.4692 C.3            1 S1                 0.0000
      2 ****        -4.9045   1.5064  -1.1024 C.ar           1 S1                 0.0000
      3 ****        -6.0508   2.3249  -1.0173 C.ar           1 S1                 0.0000
      4 ****        -5.9025   3.6800  -0.6769 C.ar           1 S1                 0.0000
      5 ****        -4.6053   4.1631  -0.4351 C.ar           1 S1                 0.0000
      6 ****        -3.5043   3.3885  -0.5155 N.ar           1 S1                 0.0000
      7 ****        -3.6296   2.0778  -0.8437 C.ar           1 S1                 0.0000
      8 ****        -2.5119   1.2013  -0.9440 N.am           1 S1                 0.0000
      9 ****        -1.2081   1.4883  -0.7814 C.2            1 S1                 0.0000
     10 ****        -0.7483   2.6045  -0.5402 O.2            1 S1                 0.0000
     11 ****        -0.4506   0.3893  -0.9135 N.am           1 S1                 0.0000
     12 ****         1.0034   0.3463  -0.7905 C.3            1 S1                 0.0000
     13 ****         1.5042  -0.8901   0.0039 C.3            1 S1                 0.0000
     14 ****         1.0925  -0.8886   1.5049 C.3            1 S1                 0.0000
     15 ****        -0.3902  -1.0626   1.7965 C.3            1 S1                 0.0000
     16 ****        -0.4020  -1.5317   3.2488 C.3            1 S1                 0.0000
     17 ****         0.8442  -2.1836   3.4638 O.3            1 S1                 0.0000
     18 ****         1.6523  -2.0737   2.3001 C.3            1 S1                 0.0000
     19 ****         2.9852  -1.0579  -0.1096 N.4            1 S1                 1.0000
     20 ****         3.4335  -1.6515  -1.3929 C.3            1 S1                 0.0000
     21 ****         4.9379  -1.9669  -1.3308 C.3            1 S1                 0.0000
     22 ****         5.6640  -0.7842  -1.0171 O.3            1 S1                 0.0000
     23 ****         5.2974  -0.2500   0.2497 C.3            1 S1                 0.0000
     24 ****         3.8077   0.1301   0.2350 C.3            1 S1                 0.0000
     25 ****        -6.1130  -0.2163  -1.6294 H              1 S1                 0.0000
     26 ****        -4.6823  -0.5973  -0.6717 H              1 S1                 0.0000
     27 ****        -4.5213  -0.1854  -2.3868 H              1 S1                 0.0000
     28 ****        -7.0341   1.9216  -1.2098 H              1 S1                 0.0000
     29 ****        -6.7606   4.3315  -0.6032 H              1 S1                 0.0000
     30 ****        -4.4466   5.1979  -0.1698 H              1 S1                 0.0000
     31 ****        -2.7364   0.2412  -1.1583 H              1 S1                 0.0000
     32 ****        -0.9158  -0.4836  -1.1164 H              1 S1                 0.0000
     33 ****         1.4044   0.3410  -1.8036 H              1 S1                 0.0000
     34 ****         1.3706   1.2581  -0.3178 H              1 S1                 0.0000
     35 ****         1.0546  -1.7780  -0.4440 H              1 S1                 0.0000
     36 ****         1.4231   0.0358   1.9806 H              1 S1                 0.0000
     37 ****        -0.9690  -0.1484   1.6695 H              1 S1                 0.0000
     38 ****        -0.8183  -1.8324   1.1527 H              1 S1                 0.0000
     39 ****        -0.4677  -0.6795   3.9262 H              1 S1                 0.0000
     40 ****        -1.2401  -2.1963   3.4599 H              1 S1                 0.0000
     41 ****         1.5617  -2.9991   1.7292 H              1 S1                 0.0000
     42 ****         2.7014  -1.9440   2.5672 H              1 S1                 0.0000
     43 ****         2.8781  -2.5674  -1.5970 H              1 S1                 0.0000
     44 ****         3.2354  -0.9649  -2.2164 H              1 S1                 0.0000
     45 ****         5.1432  -2.7407  -0.5889 H              1 S1                 0.0000
     46 ****         5.2823  -2.3487  -2.2922 H              1 S1                 0.0000
     47 ****         5.5079  -0.9730   1.0395 H              1 S1                 0.0000
     48 ****         5.9080   0.6301   0.4522 H              1 S1                 0.0000
     49 ****         3.6493   0.9264  -0.4933 H              1 S1                 0.0000
     50 ****         3.5237   0.5225   1.2108 H              1 S1                 0.0000
     51 ****         3.2144  -1.7533   0.5861 H              1 S1                 0.0000
     52 ****        -2.6011   3.7777  -0.3343 LP             1 S1                 0.0000
     53 ****        -1.3617   3.3892  -0.4501 LP             1 S1                 0.0000
     54 ****         0.2385   2.7266  -0.4343 LP             1 S1                 0.0000
     55 ****         0.6829  -3.1495   3.6660 LP             1 S1                 0.0000
     56 ****         1.3139  -1.7554   4.2358 LP             1 S1                 0.0000
     57 ****         5.4818  -0.0978  -1.7212 LP             1 S1                 0.0000
     58 ****         6.6405  -0.9990  -1.0058 LP             1 S1                 0.0000
@<TRIPOS>BOND
    1    1    2 1     
    2    1   25 1     
    3    1   26 1     
    4    1   27 1     
    5    2    7 ar    
    6    2    3 ar    
    7    3    4 ar    
    8    3   28 1     
    9    4    5 ar    
   10    4   29 1     
   11    5    6 ar    
   12    5   30 1     
   13    6    7 ar    
   14    7    8 1     
   15    8    9 am    
   16    8   31 1     
   17    9   10 2     
   18    9   11 am    
   19   11   12 1     
   20   11   32 1     
   21   12   13 1     
   22   12   33 1     
   23   12   34 1     
   24   13   14 1     
   25   13   19 1     
   26   13   35 1     
   27   14   18 1     
   28   14   15 1     
   29   14   36 1     
   30   15   16 1     
   31   15   37 1     
   32   15   38 1     
   33   16   17 1     
   34   16   39 1     
   35   16   40 1     
   36   17   18 1     
   37   18   41 1     
   38   18   42 1     
   39   19   24 1     
   40   19   20 1     
   41   19   51 1     
   42   20   21 1     
   43   20   43 1     
   44   20   44 1     
   45   21   22 1     
   46   21   45 1     
   47   21   46 1     
   48   22   23 1     
   49   23   24 1     
   50   23   47 1     
   51   23   48 1     
   52   24   49 1     
   53   24   50 1     
   54    6   52 1     
   55   10   53 1     
   56   10   54 1     
   57   17   55 1     
   58   17   56 1     
   59   22   57 1     
   60   22   58 1     
@<TRIPOS>SUBSTRUCTURE
      1 S1             1
@<TRIPOS>SET
LONE_PAIRS      STATIC     ATOMS    <user>   **** ""
7 52 53 54 55 56 57 58
DONOR_HYDROGENS      STATIC     ATOMS    <user>   **** ""
3 31 32 51
ATOM$BLUE        STATIC     ATOMS    COLORGROUP SYSTEM
7 52 53 54 55 56 57 58
ATOM$RED        STATIC     ATOMS    COLORGROUP SYSTEM
3 31 32 51
