AV-unprocessed.smi:299|AV-procd|sdf|2268|dock10
  -GOLD-   2262022163D 1   1.00000     0.00000
 Structure written by MMmdl.
 42 43  0  0  0  0  0  0  0  0  2 V2000
  146.2844  137.9085  152.3394 C   0  0  0  0  0  0  0  0  0  0  0  0
  145.7482  136.4651  152.4426 C   0  0  1  0  0  0  0  0  0  0  0  0
  145.4427  135.9536  151.0169 C   0  0  0  0  0  0  0  0  0  0  0  0
  144.8935  134.5256  151.0227 C   0  0  0  0  0  0  0  0  0  0  0  0
  145.8756  133.6104  151.7527 C   0  0  0  0  0  0  0  0  0  0  0  0
  146.1552  134.1358  153.1677 C   0  0  0  0  0  0  0  0  0  0  0  0
  146.6831  135.5318  153.1552 N   0  3  2  0  0  0  0  0  0  0  0  0
  147.0710  135.9872  154.5223 C   0  0  0  0  0  0  0  0  0  0  0  0
  147.7114  134.8761  155.3805 C   0  0  0  0  0  0  0  0  0  0  0  0
  149.2421  134.7879  155.2259 C   0  0  0  0  0  0  0  0  0  0  0  0
  149.8132  135.9547  154.5599 N   0  0  0  0  0  0  0  0  0  0  0  0
  150.9449  136.5779  154.9256 C   0  0  0  0  0  0  0  0  0  0  0  0
  151.6190  136.2415  155.8984 O   0  0  0  0  0  0  0  0  0  0  0  0
  151.3809  137.7678  154.0693 C   0  0  0  0  0  0  0  0  0  0  0  0
  150.3861  138.8238  154.0890 N   0  0  0  0  0  0  0  0  0  0  0  0
  149.0772  138.8008  153.8287 C   0  0  0  0  0  0  0  0  0  0  0  0
  148.5322  140.0010  153.9545 N   0  0  0  0  0  0  0  0  0  0  0  0
  149.6054  140.7969  154.3194 N   0  0  0  0  0  0  0  0  0  0  0  0
  150.7079  140.1040  154.4013 N   0  0  0  0  0  0  0  0  0  0  0  0
  145.6676  138.5052  151.6665 H   0  0  0  0  0  0  0  0  0  0  0  0
  147.3039  137.9289  151.9526 H   0  0  0  0  0  0  0  0  0  0  0  0
  146.2685  138.4289  153.2962 H   0  0  0  0  0  0  0  0  0  0  0  0
  144.8114  136.4926  153.0020 H   0  0  0  0  0  0  0  0  0  0  0  0
  144.7213  136.6104  150.5292 H   0  0  0  0  0  0  0  0  0  0  0  0
  146.3491  135.9904  150.4102 H   0  0  0  0  0  0  0  0  0  0  0  0
  143.9211  134.5011  151.5162 H   0  0  0  0  0  0  0  0  0  0  0  0
  144.7373  134.1758  150.0017 H   0  0  0  0  0  0  0  0  0  0  0  0
  145.4718  132.5987  151.8040 H   0  0  0  0  0  0  0  0  0  0  0  0
  146.8090  133.5440  151.1918 H   0  0  0  0  0  0  0  0  0  0  0  0
  145.2439  134.0975  153.7667 H   0  0  0  0  0  0  0  0  0  0  0  0
  146.8646  133.4554  153.6344 H   0  0  0  0  0  0  0  0  0  0  0  0
  147.8121  136.7801  154.4639 H   0  0  0  0  0  0  0  0  0  0  0  0
  146.2011  136.4141  155.0236 H   0  0  0  0  0  0  0  0  0  0  0  0
  147.4798  135.0166  156.4350 H   0  0  0  0  0  0  0  0  0  0  0  0
  147.2797  133.9141  155.1017 H   0  0  0  0  0  0  0  0  0  0  0  0
  149.7110  134.6594  156.2028 H   0  0  0  0  0  0  0  0  0  0  0  0
  149.5049  133.9046  154.6435 H   0  0  0  0  0  0  0  0  0  0  0  0
  149.3256  136.2973  153.7447 H   0  0  0  0  0  0  0  0  0  0  0  0
  152.3275  138.1649  154.4382 H   0  0  0  0  0  0  0  0  0  0  0  0
  151.5447  137.4508  153.0380 H   0  0  0  0  0  0  0  0  0  0  0  0
  148.5297  137.9136  153.5467 H   0  0  0  0  0  0  0  0  0  0  0  0
  147.5322  135.5165  152.6083 H   0  0  0  0  0  0  0  0  0  0  0  0
  1  2  1  0  0  0  0
  1 20  1  0  0  0  0
  1 21  1  0  0  0  0
  1 22  1  0  0  0  0
  2  7  1  0  0  0  0
  2  3  1  0  0  0  0
  2 23  1  0  0  0  0
  3  4  1  0  0  0  0
  3 24  1  0  0  0  0
  3 25  1  0  0  0  0
  4  5  1  0  0  0  0
  4 26  1  0  0  0  0
  4 27  1  0  0  0  0
  5  6  1  0  0  0  0
  5 28  1  0  0  0  0
  5 29  1  0  0  0  0
  6  7  1  0  0  0  0
  6 30  1  0  0  0  0
  6 31  1  0  0  0  0
  7  8  1  0  0  0  0
  7 42  1  0  0  0  0
  8  9  1  0  0  0  0
  8 32  1  0  0  0  0
  8 33  1  0  0  0  0
  9 10  1  0  0  0  0
  9 34  1  0  0  0  0
  9 35  1  0  0  0  0
 10 11  1  0  0  0  0
 10 36  1  0  0  0  0
 10 37  1  0  0  0  0
 11 12  1  0  0  0  0
 11 38  1  0  0  0  0
 12 13  2  0  0  0  0
 12 14  1  0  0  0  0
 14 15  1  0  0  0  0
 14 39  1  0  0  0  0
 14 40  1  0  0  0  0
 15 19  1  0  0  0  0
 15 16  1  0  0  0  0
 16 17  2  0  0  0  0
 16 41  1  0  0  0  0
 17 18  1  0  0  0  0
 18 19  2  0  0  0  0
M  CHG  1   7   1
M  END
> <s_m_source_file>
AV-unprocessed.smi

> <i_m_source_file_index>
299

> <i_lp_mmshare_version>
43012

> <i_f3d_flags>
0

> <s_epik_input>
W0NIM11bQ0BASF0xW0NIMl1bQ0gyXVtDSDJdW0NIMl1OMVtDSDJdW0NIMl1bQ0gyXVtOSF1DKD1PKVtDSDJdbjJbY0hdbm5uMg==

> <s_epik_cmdline>
J2VwaWtfcHl0aG9uJywgJy1waCcsICc3LjAnLCAnLXRuJywgJzgnLCAnLW1hJywgJzIwMCcsICctbWV0YWxfYmluZGluZycsICctaW1hZScsICc8aW5maWxlLm1hZT4nLCAnLW9tYWUnLCAnPG91dGZpbGUubWFlPic=

> <r_lp_tautomer_probability>
1

> <r_epik_Ionization_Penalty>
0.000544863

> <r_epik_Ionization_Penalty_Charging>
0.000543475

> <r_epik_Ionization_Penalty_Neutral>
1.38784e-06

> <r_epik_State_Penalty>
0.000340025

> <r_epik_Charging_Adjusted_Penalty>
0.0008835

> <i_epik_Tot_Q>
1

> <i_epik_Tot_abs_Q>
1

> <r_epik_Metal_State_Penalty>
-0

> <b_epik_Metal_Only>
0

> <s_lp_Force_Field>
OPLS_2005

> <r_lp_Energy>
25.9803

> <b_lp_Chiralities_Consistent>
1

> <s_lp_Variant>
AV-unprocessed.smi:299-4

> <Gold.Version>
5.8.1

> <Gold.Id.Protein>
6NUR|6NUR_protein|mol2

> <Gold.PLP.Fitness>
45.8624

> <Gold.PLP.PLP>
-30.1095

> <Gold.PLP.part.hbond>
-4.2866

> <Gold.PLP.part.metal>
0.0000

> <Gold.PLP.part.buried>
-2.2348

> <Gold.PLP.part.nonpolar>
-23.8542

> <Gold.PLP.part.repulsive>
0.4129

> <Gold.PLP.ligand.clash>
0.2666

> <Gold.PLP.ligand.torsion>
0.8602

> <Gold.PLP.Chemscore.Hbond>
4.8960

> <Gold.PLP.Chemscore.CHOScore>
1.0000

> <Gold.PLP.Chemscore.Metal>
0.0000

> <Gold.Chemscore.Hbonds>
donor molecule, donor type, donor heavy atom, donor atom, acceptor molecule, acceptor atom, score
      L1  H     7    42       P1  7948  2.00
      L1  H    11    38       P1  7948  0.99
      P1  H  7989  7998       L1    19  0.93
      P1  H 10752 10763       L1    13  0.90
      L1  C    16    41       P1  7948  1.00

> <Gold.PLP.Chemscore.Internal.Correction>
0.0519

> <Gold.Rescore>
     Score         DG    S(hbond)    S(metal)    S(lipo)     H(rot)  DE(clash)    DE(int)     intcor
     14.01     -15.00       3.31        0.00      51.85       2.97       0.10       0.89       ----

> <Gold.Chemscore.Fitness>
14.0144

> <Gold.Chemscore.DG>
-15.0048

> <Gold.Chemscore.ZeroCoef>
-5.4800

> <Gold.Chemscore.Hbond>
3.3101

> <Gold.Chemscore.Metal>
0.0000

> <Gold.Chemscore.Lipo>
51.8536

> <Gold.Chemscore.Internal_Hbond>
0.0000

> <Gold.Chemscore.DEClash>
0.0967

> <Gold.Chemscore.DEInternal>
0.8937

> <Gold.Chemscore.Rot>
2.9680

> <Gold.Chemscore.Internal.Correction>
   9.000000E+99

> <Gold.Chemscore.Hbonds>
donor molecule, donor type, donor heavy atom, donor atom, acceptor molecule, acceptor atom, score
      L1  H     7    42       P1  7948  0.99
      L1  H    11    38       P1  7948  0.80
      P1  H  7989  7998       L1    19  0.30
      P1  H 10752 10763       L1    13  0.18

> <Gold.Chemscore.Hbond.Weighted>
-11.0558

> <Gold.Chemscore.Metal.Weighted>
-0.0000

> <Gold.Chemscore.Lipo.Weighted>
-6.0669

> <Gold.Chemscore.Internal_Hbond.Weighted>
0.0000

> <Gold.Chemscore.DEClash.Weighted>
0.0967

> <Gold.Chemscore.DEInternal.Weighted>
0.8937

> <Gold.Chemscore.Rot.Weighted>
7.5980

> <Gold.Chemscore.Internal.Correction.Weighted>
   9.000000E+99

> <Gold.Protein.RotatedTorsions>
[ 6907 6896 6895 6894 ] final    3.69 input  -60.11 | X-H torsion
[ 7974 7965 7964 7962 ] final  128.30 input  175.53 | X-H torsion
[ 8008 7997 7996 7995 ] final  -76.21 input   59.86 | X-H torsion
[ 10167 10162 10161 10158 ] final -113.69 input  -65.29 | X-H torsion
[ 10718 10713 10712 10709 ] final   -7.13 input   66.30 | X-H torsion
[ 10763 10752 10751 10750 ] final   84.25 input  -60.55 | X-H torsion
[ 11005 11000 10999 10996 ] final   42.81 input  -57.11 | X-H torsion

> <Gold.Protein.ActiveResidues>
 VAL166  LYS551  ARG553  GLY616  TRP617  ASP618  TYR619  PRO620  LYS621  CYS622 
 ASP623  PHE694  ASN695  SER759  ASP760  ASP761  ALA762  ILE779  LEU786  VAL792 
 PHE793  MET794  SER795  GLU796  ALA797  LYS798  CYS799  TRP800  GLU811  SER814 

> <Gold.Protein.RotatedAtoms>
  151.6292  135.1024  160.0117 H   0  0  0  0  0  0  0  0  0  0  0  0  # atno 6907 bound_to 6896
  152.4116  133.6968  159.6411 H   0  0  0  0  0  0  0  0  0  0  0  0  # atno 6908 bound_to 6896
  150.8006  133.8531  159.3252 H   0  0  0  0  0  0  0  0  0  0  0  0  # atno 6909 bound_to 6896
  145.0410  139.3963  143.5102 H   0  0  0  0  0  0  0  0  0  0  0  0  # atno 7974 bound_to 7965
  154.5485  140.0731  156.8628 H   0  0  0  0  0  0  0  0  0  0  0  0  # atno 8008 bound_to 7997
  155.3040  140.3386  155.4228 H   0  0  0  0  0  0  0  0  0  0  0  0  # atno 8009 bound_to 7997
  156.1940  140.1696  156.8022 H   0  0  0  0  0  0  0  0  0  0  0  0  # atno 8010 bound_to 7997
  140.1091  143.4544  152.1764 H   0  0  0  0  0  0  0  0  0  0  0  0  # atno 10167 bound_to 10162
  156.7218  130.5153  149.5866 H   0  0  0  0  0  0  0  0  0  0  0  0  # atno 10718 bound_to 10713
  153.1365  135.4661  154.9430 H   0  0  0  0  0  0  0  0  0  0  0  0  # atno 10763 bound_to 10752
  154.7710  135.3159  154.8192 H   0  0  0  0  0  0  0  0  0  0  0  0  # atno 10764 bound_to 10752
  153.8723  135.6902  153.4827 H   0  0  0  0  0  0  0  0  0  0  0  0  # atno 10765 bound_to 10752
  140.1704  134.4230  155.8261 H   0  0  0  0  0  0  0  0  0  0  0  0  # atno 11005 bound_to 11000
  146.3509  140.0011  142.8676 LP  0  0  0  0  0  0  0  0  0  0  0  0  # atno 17320 bound_to 7965
  145.1647  140.9691  143.4356 LP  0  0  0  0  0  0  0  0  0  0  0  0  # atno 17321 bound_to 7965
  139.5629  144.7417  151.4104 LP  0  0  0  0  0  0  0  0  0  0  0  0  # atno 17342 bound_to 10162
  140.6936  143.7803  150.7292 LP  0  0  0  0  0  0  0  0  0  0  0  0  # atno 17343 bound_to 10162
  156.1589  130.6361  151.0693 LP  0  0  0  0  0  0  0  0  0  0  0  0  # atno 17370 bound_to 10713
  157.6895  131.0814  150.7148 LP  0  0  0  0  0  0  0  0  0  0  0  0  # atno 17371 bound_to 10713
  141.2217  133.6953  156.7752 LP  0  0  0  0  0  0  0  0  0  0  0  0  # atno 17394 bound_to 11000
  140.2384  134.8632  157.3549 LP  0  0  0  0  0  0  0  0  0  0  0  0  # atno 17395 bound_to 11000

$$$$
