AV-unprocessed.smi:1285|AV-procd|sdf|5374|dock9
  -GOLD-   22720 4523D 1   1.00000     0.00000
 Structure written by MMmdl.
 47 48  0  0  0  0  0  0  0  0  2 V2000
  144.4730  135.1216  150.3389 C   0  0  0  0  0  0  0  0  0  0  0  0
  145.4206  135.1602  151.5508 C   0  0  0  0  0  0  0  0  0  0  0  0
  146.1448  133.8192  151.8865 C   0  0  2  0  0  0  0  0  0  0  0  0
  146.6209  133.2073  150.5418 C   0  0  0  0  0  0  0  0  0  0  0  0
  145.1436  132.8296  152.5618 C   0  0  0  0  0  0  0  0  0  0  0  0
  145.5820  131.4369  152.4936 N   0  0  0  0  0  0  0  0  0  0  0  0
  146.0463  130.7072  153.5210 C   0  0  0  0  0  0  0  0  0  0  0  0
  146.2395  131.1731  154.6444 O   0  0  0  0  0  0  0  0  0  0  0  0
  146.2939  129.2181  153.2300 C   0  0  1  0  0  0  0  0  0  0  0  0
  146.1184  128.8542  151.7417 C   0  0  0  0  0  0  0  0  0  0  0  0
  147.6040  128.8243  153.7356 N   0  0  0  0  0  0  0  0  0  0  0  0
  148.8117  129.3307  153.4770 C   0  0  0  0  0  0  0  0  0  0  0  0
  149.8051  128.6849  154.0710 N   0  0  0  0  0  0  0  0  0  0  0  0
  149.0919  127.7205  154.7246 C   0  0  0  0  0  0  0  0  0  0  0  0
  147.7712  127.7511  154.5485 N   0  0  0  0  0  0  0  0  0  0  0  0
  147.3239  134.0838  152.7900 N   0  3  0  0  0  0  0  0  0  0  0  0
  147.0168  134.7715  154.0766 C   0  0  0  0  0  0  0  0  0  0  0  0
  148.3149  135.1728  154.7947 C   0  0  0  0  0  0  0  0  0  0  0  0
  149.1006  134.0133  155.0315 O   0  0  0  0  0  0  0  0  0  0  0  0
  149.4790  133.3779  153.8185 C   0  0  0  0  0  0  0  0  0  0  0  0
  148.2253  132.9254  153.0496 C   0  0  0  0  0  0  0  0  0  0  0  0
  144.0156  136.0991  150.1859 H   0  0  0  0  0  0  0  0  0  0  0  0
  143.6631  134.4065  150.4799 H   0  0  0  0  0  0  0  0  0  0  0  0
  144.9959  134.8622  149.4186 H   0  0  0  0  0  0  0  0  0  0  0  0
  146.1465  135.9603  151.4082 H   0  0  0  0  0  0  0  0  0  0  0  0
  144.8295  135.4824  152.4083 H   0  0  0  0  0  0  0  0  0  0  0  0
  145.8292  133.2154  149.7914 H   0  0  0  0  0  0  0  0  0  0  0  0
  146.9262  132.1663  150.6502 H   0  0  0  0  0  0  0  0  0  0  0  0
  147.4644  133.7558  150.1222 H   0  0  0  0  0  0  0  0  0  0  0  0
  145.0299  133.0646  153.6197 H   0  0  0  0  0  0  0  0  0  0  0  0
  144.1471  132.9205  152.1291 H   0  0  0  0  0  0  0  0  0  0  0  0
  145.4645  130.9713  151.6053 H   0  0  0  0  0  0  0  0  0  0  0  0
  145.5485  128.6534  153.7924 H   0  0  0  0  0  0  0  0  0  0  0  0
  145.1141  129.0965  151.3926 H   0  0  0  0  0  0  0  0  0  0  0  0
  146.2682  127.7857  151.5843 H   0  0  0  0  0  0  0  0  0  0  0  0
  146.8274  129.3838  151.1040 H   0  0  0  0  0  0  0  0  0  0  0  0
  148.9684  130.1830  152.8321 H   0  0  0  0  0  0  0  0  0  0  0  0
  149.5607  126.9680  155.3414 H   0  0  0  0  0  0  0  0  0  0  0  0
  146.4256  135.6716  153.9211 H   0  0  0  0  0  0  0  0  0  0  0  0
  146.4396  134.1166  154.7293 H   0  0  0  0  0  0  0  0  0  0  0  0
  148.8783  135.9005  154.2082 H   0  0  0  0  0  0  0  0  0  0  0  0
  148.0849  135.6435  155.7507 H   0  0  0  0  0  0  0  0  0  0  0  0
  150.0842  134.0547  153.2132 H   0  0  0  0  0  0  0  0  0  0  0  0
  150.1051  132.5171  154.0538 H   0  0  0  0  0  0  0  0  0  0  0  0
  147.7018  132.1612  153.6247 H   0  0  0  0  0  0  0  0  0  0  0  0
  148.5592  132.4598  152.1242 H   0  0  0  0  0  0  0  0  0  0  0  0
  147.8902  134.7399  152.2710 H   0  0  0  0  0  0  0  0  0  0  0  0
  1  2  1  0  0  0  0
  1 22  1  0  0  0  0
  1 23  1  0  0  0  0
  1 24  1  0  0  0  0
  2  3  1  0  0  0  0
  2 25  1  0  0  0  0
  2 26  1  0  0  0  0
  3  4  1  0  0  0  0
  3  5  1  0  0  0  0
  3 16  1  0  0  0  0
  4 27  1  0  0  0  0
  4 28  1  0  0  0  0
  4 29  1  0  0  0  0
  5  6  1  0  0  0  0
  5 30  1  0  0  0  0
  5 31  1  0  0  0  0
  6  7  1  0  0  0  0
  6 32  1  0  0  0  0
  7  8  2  0  0  0  0
  7  9  1  0  0  0  0
  9 10  1  0  0  0  0
  9 11  1  0  0  0  0
  9 33  1  0  0  0  0
 10 34  1  0  0  0  0
 10 35  1  0  0  0  0
 10 36  1  0  0  0  0
 11 15  1  0  0  0  0
 11 12  1  0  0  0  0
 12 13  2  0  0  0  0
 12 37  1  0  0  0  0
 13 14  1  0  0  0  0
 14 15  2  0  0  0  0
 14 38  1  0  0  0  0
 16 21  1  0  0  0  0
 16 17  1  0  0  0  0
 16 47  1  0  0  0  0
 17 18  1  0  0  0  0
 17 39  1  0  0  0  0
 17 40  1  0  0  0  0
 18 19  1  0  0  0  0
 18 41  1  0  0  0  0
 18 42  1  0  0  0  0
 19 20  1  0  0  0  0
 20 21  1  0  0  0  0
 20 43  1  0  0  0  0
 20 44  1  0  0  0  0
 21 45  1  0  0  0  0
 21 46  1  0  0  0  0
M  CHG  1  16   1
M  END
> <s_m_source_file>
AV-unprocessed.smi

> <i_m_source_file_index>
1285

> <i_lp_mmshare_version>
43012

> <i_f3d_flags>
0

> <s_epik_input>
W0NIMl0xW0NIMl1PW0NIMl1bQ0gyXU4xW0NAQF0oW0NIM10pKFtDSDJdW0NIM10pW0NIMl1bTkhdQyg9TylbQ0BIXShbQ0gzXSluMltjSF1uW2NIXW4y

> <s_epik_cmdline>
J2VwaWtfcHl0aG9uJywgJy1waCcsICc3LjAnLCAnLXRuJywgJzgnLCAnLW1hJywgJzIwMCcsICctbWV0YWxfYmluZGluZycsICctaW1hZScsICc8aW5maWxlLm1hZT4nLCAnLW9tYWUnLCAnPG91dGZpbGUubWFlPic=

> <r_lp_tautomer_probability>
1

> <r_epik_Ionization_Penalty>
0.569304

> <r_epik_Ionization_Penalty_Charging>
0.569295

> <r_epik_Ionization_Penalty_Neutral>
8.22697e-06

> <r_epik_State_Penalty>
0.581114

> <r_epik_Charging_Adjusted_Penalty>
1.15041

> <i_epik_Tot_Q>
1

> <i_epik_Tot_abs_Q>
1

> <r_epik_Metal_State_Penalty>
0.581117

> <b_epik_Metal_Only>
0

> <s_lp_Force_Field>
OPLS_2005

> <r_lp_Energy>
34.4039

> <b_lp_Chiralities_Consistent>
1

> <s_lp_Variant>
AV-unprocessed.smi:1285-8

> <Gold.Version>
5.8.1

> <Gold.Id.Protein>
6NUR|6NUR_protein|mol2

> <Gold.PLP.Fitness>
36.3470

> <Gold.PLP.PLP>
-29.8818

> <Gold.PLP.part.hbond>
-1.0000

> <Gold.PLP.part.metal>
0.0000

> <Gold.PLP.part.buried>
-4.6302

> <Gold.PLP.part.nonpolar>
-24.0907

> <Gold.PLP.part.repulsive>
0.3792

> <Gold.PLP.ligand.clash>
0.2577

> <Gold.PLP.ligand.torsion>
0.8965

> <Gold.PLP.Chemscore.Hbond>
2.0000

> <Gold.PLP.Chemscore.CHOScore>
0.7402

> <Gold.PLP.Chemscore.Metal>
0.0000

> <Gold.Chemscore.Hbonds>
donor molecule, donor type, donor heavy atom, donor atom, acceptor molecule, acceptor atom, score
      L1  H    16    47       P1  7948  2.00
      L1  C    12    37       P1 10747  0.72

> <Gold.PLP.Chemscore.Internal.Correction>
0.2954

> <Gold.Rescore>
     Score         DG    S(hbond)    S(metal)    S(lipo)     H(rot)  DE(clash)    DE(int)     intcor
      7.97      -8.92       0.97        0.00      62.09       2.76       0.05       0.89       ----

> <Gold.Chemscore.Fitness>
7.9721

> <Gold.Chemscore.DG>
-8.9170

> <Gold.Chemscore.ZeroCoef>
-5.4800

> <Gold.Chemscore.Hbond>
0.9685

> <Gold.Chemscore.Metal>
0.0000

> <Gold.Chemscore.Lipo>
62.0938

> <Gold.Chemscore.Internal_Hbond>
0.0000

> <Gold.Chemscore.DEClash>
0.0503

> <Gold.Chemscore.DEInternal>
0.8945

> <Gold.Chemscore.Rot>
2.7589

> <Gold.Chemscore.Internal.Correction>
   9.000000E+99

> <Gold.Chemscore.Hbonds>
donor molecule, donor type, donor heavy atom, donor atom, acceptor molecule, acceptor atom, score
      L1  H    16    47       P1  7948  0.60

> <Gold.Chemscore.Hbond.Weighted>
-3.2347

> <Gold.Chemscore.Metal.Weighted>
-0.0000

> <Gold.Chemscore.Lipo.Weighted>
-7.2650

> <Gold.Chemscore.Internal_Hbond.Weighted>
0.0000

> <Gold.Chemscore.DEClash.Weighted>
0.0503

> <Gold.Chemscore.DEInternal.Weighted>
0.8945

> <Gold.Chemscore.Rot.Weighted>
7.0627

> <Gold.Chemscore.Internal.Correction.Weighted>
   9.000000E+99

> <Gold.Protein.RotatedTorsions>
[ 6907 6896 6895 6894 ] final  112.45 input  -60.11 | X-H torsion
[ 7974 7965 7964 7962 ] final   45.59 input  175.53 | X-H torsion
[ 8008 7997 7996 7995 ] final -139.61 input   59.86 | X-H torsion
[ 10167 10162 10161 10158 ] final  174.98 input  -65.29 | X-H torsion
[ 10718 10713 10712 10709 ] final  -98.02 input   66.30 | X-H torsion
[ 10763 10752 10751 10750 ] final   51.81 input  -60.55 | X-H torsion
[ 11005 11000 10999 10996 ] final  173.09 input  -57.11 | X-H torsion

> <Gold.Protein.ActiveResidues>
 VAL166  LYS551  ARG553  GLY616  TRP617  ASP618  TYR619  PRO620  LYS621  CYS622 
 ASP623  PHE694  ASN695  SER759  ASP760  ASP761  ALA762  ILE779  LEU786  VAL792 
 PHE793  MET794  SER795  GLU796  ALA797  LYS798  CYS799  TRP800  GLU811  SER814 

> <Gold.Protein.RotatedAtoms>
  152.4915  133.8514  159.7203 H   0  0  0  0  0  0  0  0  0  0  0  0  # atno 6907 bound_to 6896
  150.9050  133.7060  159.2876 H   0  0  0  0  0  0  0  0  0  0  0  0  # atno 6908 bound_to 6896
  151.4489  135.1032  159.9744 H   0  0  0  0  0  0  0  0  0  0  0  0  # atno 6909 bound_to 6896
  146.0466  139.4947  142.9744 H   0  0  0  0  0  0  0  0  0  0  0  0  # atno 7974 bound_to 7965
  155.4478  140.0536  157.3004 H   0  0  0  0  0  0  0  0  0  0  0  0  # atno 8008 bound_to 7997
  154.4790  140.2073  155.9764 H   0  0  0  0  0  0  0  0  0  0  0  0  # atno 8009 bound_to 7997
  156.1177  140.3193  155.8167 H   0  0  0  0  0  0  0  0  0  0  0  0  # atno 8010 bound_to 7997
  139.5161  144.3084  152.0314 H   0  0  0  0  0  0  0  0  0  0  0  0  # atno 10167 bound_to 10162
  156.0097  130.5219  150.6460 H   0  0  0  0  0  0  0  0  0  0  0  0  # atno 10718 bound_to 10713
  152.9786  135.5833  154.4476 H   0  0  0  0  0  0  0  0  0  0  0  0  # atno 10763 bound_to 10752
  154.4069  135.2769  155.2063 H   0  0  0  0  0  0  0  0  0  0  0  0  # atno 10764 bound_to 10752
  154.3870  135.6134  153.5876 H   0  0  0  0  0  0  0  0  0  0  0  0  # atno 10765 bound_to 10752
  140.3367  134.7311  157.4173 H   0  0  0  0  0  0  0  0  0  0  0  0  # atno 11005 bound_to 11000
  145.6795  141.0195  143.1614 LP  0  0  0  0  0  0  0  0  0  0  0  0  # atno 17320 bound_to 7965
  144.7101  139.8405  143.7417 LP  0  0  0  0  0  0  0  0  0  0  0  0  # atno 17321 bound_to 7965
  140.2529  144.4150  150.6215 LP  0  0  0  0  0  0  0  0  0  0  0  0  # atno 17342 bound_to 10162
  140.6212  143.2176  151.6690 LP  0  0  0  0  0  0  0  0  0  0  0  0  # atno 17343 bound_to 10162
  157.4231  131.0839  151.1112 LP  0  0  0  0  0  0  0  0  0  0  0  0  # atno 17370 bound_to 10713
  157.1707  130.6266  149.5640 LP  0  0  0  0  0  0  0  0  0  0  0  0  # atno 17371 bound_to 10713
  140.0815  134.5724  155.8536 LP  0  0  0  0  0  0  0  0  0  0  0  0  # atno 17394 bound_to 11000
  141.2049  133.6643  156.6150 LP  0  0  0  0  0  0  0  0  0  0  0  0  # atno 17395 bound_to 11000

$$$$
