#       Name:                AV-unprocessed.smi:2718
#       Creating user name   scv26
#       Creation time:       Fri Mar 27 14:54:01 2020


#       File generated by GOLD software.
#

@<TRIPOS>MOLECULE
AV-unprocessed.smi:2718
    51    52     1
SMALL
NO_CHARGES


@<TRIPOS>ATOM
      1 ****        -0.1245  -3.5033  -3.4976 C.3            1 S1                 0.0000
      2 ****        -0.7852  -2.2182  -3.0397 C.2            1 S1                 0.0000
      3 ****        -0.5440  -1.0234  -3.9452 C.3            1 S1                 0.0000
      4 ****        -1.5201  -2.1635  -1.9121 C.2            1 S1                 0.0000
      5 ****        -2.2128  -0.9670  -1.3524 C.3            1 S1                 0.0000
      6 ****        -1.5075   0.2302  -0.7218 C.3            1 S1                 0.0000
      7 ****        -0.0096   0.2806  -0.6018 C.2            1 S1                 0.0000
      8 ****         0.7192  -0.7096  -0.5411 O.2            1 S1                 0.0000
      9 ****         0.4752   1.5308  -0.5722 N.am           1 S1                 0.0000
     10 ****         1.8866   1.8944  -0.4749 C.3            1 S1                 0.0000
     11 ****         2.4904   1.6463   0.9264 C.3            1 S1                 0.0000
     12 ****         3.9275   2.1775   1.0283 C.3            1 S1                 0.0000
     13 ****         1.6247   2.1750   2.0391 C.2            1 S1                 0.0000
     14 ****         1.3012   3.4684   2.1732 N.2            1 S1                 0.0000
     15 ****         0.5034   3.5403   3.2971 N.2            1 S1                 0.0000
     16 ****         0.4282   2.2847   3.7350 C.2            1 S1                 0.0000
     17 ****         1.1029   1.3861   3.0026 N.pl3          1 S1                 0.0000
     18 ****         1.2226  -0.0421   3.2184 C.3            1 S1                 0.0000
     19 ****        -2.3287  -0.7212   0.1437 C.3            1 S1                 0.0000
     20 ****        -3.6401  -0.2000   0.7061 C.3            1 S1                 0.0000
     21 ****        -1.7126  -1.6904   1.1498 C.3            1 S1                 0.0000
     22 ****        -0.4897  -3.7860  -4.4851 H              1 S1                 0.0000
     23 ****        -0.3286  -4.3263  -2.8121 H              1 S1                 0.0000
     24 ****         0.9562  -3.3713  -3.5554 H              1 S1                 0.0000
     25 ****         0.5206  -0.7916  -3.9813 H              1 S1                 0.0000
     26 ****        -1.0705  -0.1311  -3.6081 H              1 S1                 0.0000
     27 ****        -0.8799  -1.2458  -4.9581 H              1 S1                 0.0000
     28 ****        -1.6413  -3.0716  -1.3399 H              1 S1                 0.0000
     29 ****        -3.0959  -0.7345  -1.9447 H              1 S1                 0.0000
     30 ****        -1.9698   1.1964  -0.9196 H              1 S1                 0.0000
     31 ****        -0.1852   2.2933  -0.6237 H              1 S1                 0.0000
     32 ****         2.4606   1.3680  -1.2391 H              1 S1                 0.0000
     33 ****         1.9559   2.9554  -0.7171 H              1 S1                 0.0000
     34 ****         2.5638   0.5657   1.0441 H              1 S1                 0.0000
     35 ****         4.3710   1.9242   1.9916 H              1 S1                 0.0000
     36 ****         3.9590   3.2623   0.9217 H              1 S1                 0.0000
     37 ****         4.5603   1.7489   0.2507 H              1 S1                 0.0000
     38 ****        -0.1333   2.0142   4.6173 H              1 S1                 0.0000
     39 ****         0.6066  -0.3474   4.0646 H              1 S1                 0.0000
     40 ****         2.2623  -0.2961   3.4253 H              1 S1                 0.0000
     41 ****         0.8922  -0.5802   2.3303 H              1 S1                 0.0000
     42 ****        -3.4678   0.3259   1.6457 H              1 S1                 0.0000
     43 ****        -4.3313  -1.0235   0.8879 H              1 S1                 0.0000
     44 ****        -4.1137   0.4924   0.0094 H              1 S1                 0.0000
     45 ****        -1.4537  -1.1639   2.0684 H              1 S1                 0.0000
     46 ****        -0.8168  -2.1763   0.7684 H              1 S1                 0.0000
     47 ****        -2.4263  -2.4767   1.3975 H              1 S1                 0.0000
     48 ****         0.3207  -1.6263  -0.5710 LP             1 S1                 0.0000
     49 ****         1.7097  -0.5973  -0.4619 LP             1 S1                 0.0000
     50 ****         1.5800   4.2248   1.5815 LP             1 S1                 0.0000
     51 ****         0.0771   4.3532   3.6939 LP             1 S1                 0.0000
@<TRIPOS>BOND
    1    1    2 1     
    2    1   22 1     
    3    1   23 1     
    4    1   24 1     
    5    2    3 1     
    6    2    4 2     
    7    3   25 1     
    8    3   26 1     
    9    3   27 1     
   10    4    5 1     
   11    4   28 1     
   12    5   19 1     
   13    5    6 1     
   14    5   29 1     
   15    6    7 1     
   16    6   19 1     
   17    6   30 1     
   18    7    8 2     
   19    7    9 am    
   20    9   10 1     
   21    9   31 1     
   22   10   11 1     
   23   10   32 1     
   24   10   33 1     
   25   11   12 1     
   26   11   13 1     
   27   11   34 1     
   28   12   35 1     
   29   12   36 1     
   30   12   37 1     
   31   13   17 1     
   32   13   14 2     
   33   14   15 1     
   34   15   16 2     
   35   16   17 1     
   36   16   38 1     
   37   17   18 1     
   38   18   39 1     
   39   18   40 1     
   40   18   41 1     
   41   19   20 1     
   42   19   21 1     
   43   20   42 1     
   44   20   43 1     
   45   20   44 1     
   46   21   45 1     
   47   21   46 1     
   48   21   47 1     
   49    8   48 1     
   50    8   49 1     
   51   14   50 1     
   52   15   51 1     
@<TRIPOS>SUBSTRUCTURE
      1 S1             1
@<TRIPOS>SET
LONE_PAIRS      STATIC     ATOMS    <user>   **** ""
4 48 49 50 51
DONOR_HYDROGENS      STATIC     ATOMS    <user>   **** ""
1 31
ATOM$BLUE        STATIC     ATOMS    COLORGROUP SYSTEM
4 48 49 50 51
ATOM$RED        STATIC     ATOMS    COLORGROUP SYSTEM
1 31
