AV-unprocessed.smi:1611|AV-procd|sdf|6475|dock10
  -GOLD-   22720 7133D 1   1.00000     0.00000
 Structure written by MMmdl.
 48 49  0  0  0  0  0  0  0  0  1 V2000
  152.5534  144.1710  159.0694 C   0  0  0  0  0  0  0  0  0  0  0  0
  152.8380  142.6958  159.2933 C   0  0  0  0  0  0  0  0  0  0  0  0
  153.7805  142.3240  160.2736 C   0  0  0  0  0  0  0  0  0  0  0  0
  154.0660  140.9679  160.5091 C   0  0  0  0  0  0  0  0  0  0  0  0
  153.4179  139.9670  159.7599 C   0  0  0  0  0  0  0  0  0  0  0  0
  153.7336  138.5079  160.0309 C   0  0  0  0  0  0  0  0  0  0  0  0
  152.4835  140.3297  158.7627 C   0  0  0  0  0  0  0  0  0  0  0  0
  151.8637  139.3492  158.0310 O   0  0  0  0  0  0  0  0  0  0  0  0
  150.4650  139.2637  158.2646 C   0  0  0  0  0  0  0  0  0  0  0  0
  150.0291  137.7920  158.1674 C   0  0  1  0  0  0  0  0  0  0  0  0
  150.6602  137.1031  159.2293 O   0  0  0  0  0  0  0  0  0  0  0  0
  148.5007  137.6334  158.3248 C   0  0  0  0  0  0  0  0  0  0  0  0
  148.1275  136.2658  158.7085 N   0  0  0  0  0  0  0  0  0  0  0  0
  148.1948  135.3533  157.6731 N   0  0  0  0  0  0  0  0  0  0  0  0
  147.9141  134.1049  157.8565 C   0  0  0  0  0  0  0  0  0  0  0  0
  148.0211  133.2040  156.6557 C   0  0  0  0  0  0  0  0  0  0  0  0
  147.5167  133.6401  159.1814 C   0  0  0  0  0  0  0  0  0  0  0  0
  147.1989  132.1592  159.3377 C   0  0  0  0  0  0  0  0  0  0  0  0
  147.4517  134.5460  160.1889 C   0  0  0  0  0  0  0  0  0  0  0  0
  147.0718  134.1848  161.5167 C   0  0  0  0  0  0  0  0  0  0  0  0
  146.7624  133.9118  162.5983 N   0  0  0  0  0  0  0  0  0  0  0  0
  147.7673  135.9622  159.9883 C   0  0  0  0  0  0  0  0  0  0  0  0
  147.7169  136.8077  160.8828 O   0  0  0  0  0  0  0  0  0  0  0  0
  152.1753  141.6955  158.5385 C   0  0  0  0  0  0  0  0  0  0  0  0
  151.1407  142.0826  157.4901 C   0  0  0  0  0  0  0  0  0  0  0  0
  153.2501  144.7986  159.6259 H   0  0  0  0  0  0  0  0  0  0  0  0
  151.5438  144.4174  159.3987 H   0  0  0  0  0  0  0  0  0  0  0  0
  152.6475  144.4264  158.0135 H   0  0  0  0  0  0  0  0  0  0  0  0
  154.2881  143.0796  160.8552 H   0  0  0  0  0  0  0  0  0  0  0  0
  154.7864  140.6997  161.2679 H   0  0  0  0  0  0  0  0  0  0  0  0
  152.8242  137.9062  160.0231 H   0  0  0  0  0  0  0  0  0  0  0  0
  154.2077  138.3826  161.0050 H   0  0  0  0  0  0  0  0  0  0  0  0
  154.4110  138.1201  159.2702 H   0  0  0  0  0  0  0  0  0  0  0  0
  150.1796  139.6973  159.2253 H   0  0  0  0  0  0  0  0  0  0  0  0
  149.9657  139.8511  157.4933 H   0  0  0  0  0  0  0  0  0  0  0  0
  150.3525  137.3791  157.2107 H   0  0  0  0  0  0  0  0  0  0  0  0
  151.4547  137.5616  159.4565 H   0  0  0  0  0  0  0  0  0  0  0  0
  148.0972  138.3801  159.0115 H   0  0  0  0  0  0  0  0  0  0  0  0
  148.0164  137.8477  157.3703 H   0  0  0  0  0  0  0  0  0  0  0  0
  147.0583  132.7458  156.4295 H   0  0  0  0  0  0  0  0  0  0  0  0
  148.7425  132.4062  156.8328 H   0  0  0  0  0  0  0  0  0  0  0  0
  148.3439  133.7471  155.7663 H   0  0  0  0  0  0  0  0  0  0  0  0
  146.9342  131.8993  160.3622 H   0  0  0  0  0  0  0  0  0  0  0  0
  148.0598  131.5507  159.0594 H   0  0  0  0  0  0  0  0  0  0  0  0
  146.3588  131.8795  158.7012 H   0  0  0  0  0  0  0  0  0  0  0  0
  150.4932  141.2468  157.2263 H   0  0  0  0  0  0  0  0  0  0  0  0
  151.6371  142.4264  156.5827 H   0  0  0  0  0  0  0  0  0  0  0  0
  150.4926  142.8806  157.8515 H   0  0  0  0  0  0  0  0  0  0  0  0
  1  2  1  0  0  0  0
  1 26  1  0  0  0  0
  1 27  1  0  0  0  0
  1 28  1  0  0  0  0
  2 24  1  0  0  0  0
  2  3  2  0  0  0  0
  3  4  1  0  0  0  0
  3 29  1  0  0  0  0
  4  5  2  0  0  0  0
  4 30  1  0  0  0  0
  5  6  1  0  0  0  0
  5  7  1  0  0  0  0
  6 31  1  0  0  0  0
  6 32  1  0  0  0  0
  6 33  1  0  0  0  0
  7  8  1  0  0  0  0
  7 24  2  0  0  0  0
  8  9  1  0  0  0  0
  9 10  1  0  0  0  0
  9 34  1  0  0  0  0
  9 35  1  0  0  0  0
 10 11  1  0  0  0  0
 10 12  1  0  0  0  0
 10 36  1  0  0  0  0
 11 37  1  0  0  0  0
 12 13  1  0  0  0  0
 12 38  1  0  0  0  0
 12 39  1  0  0  0  0
 13 22  1  0  0  0  0
 13 14  1  0  0  0  0
 14 15  2  0  0  0  0
 15 16  1  0  0  0  0
 15 17  1  0  0  0  0
 16 40  1  0  0  0  0
 16 41  1  0  0  0  0
 16 42  1  0  0  0  0
 17 18  1  0  0  0  0
 17 19  2  0  0  0  0
 18 43  1  0  0  0  0
 18 44  1  0  0  0  0
 18 45  1  0  0  0  0
 19 20  1  0  0  0  0
 19 22  1  0  0  0  0
 20 21  3  0  0  0  0
 22 23  2  0  0  0  0
 24 25  1  0  0  0  0
 25 46  1  0  0  0  0
 25 47  1  0  0  0  0
 25 48  1  0  0  0  0
M  END
> <s_m_source_file>
AV-unprocessed.smi

> <i_m_source_file_index>
1611

> <i_lp_mmshare_version>
43012

> <i_f3d_flags>
0

> <s_epik_input>
W0NIM11jMVtjSF1bY0hdYyhbQ0gzXSljKGMxW0NIM10pT1tDSDJdW0NASF0oW09IXSlbQ0gyXW4ybmMoW0NIM10pYyhbQ0gzXSljKEMjTiljMj1P

> <s_epik_cmdline>
J2VwaWtfcHl0aG9uJywgJy1waCcsICc3LjAnLCAnLXRuJywgJzgnLCAnLW1hJywgJzIwMCcsICctbWV0YWxfYmluZGluZycsICctaW1hZScsICc8aW5maWxlLm1hZT4nLCAnLW9tYWUnLCAnPG91dGZpbGUubWFlPic=

> <r_lp_tautomer_probability>
1

> <r_epik_Ionization_Penalty>
1.17331e-07

> <r_epik_Ionization_Penalty_Charging>
1.57223e-10

> <r_epik_Ionization_Penalty_Neutral>
1.17174e-07

> <r_epik_State_Penalty>
-0

> <r_epik_Charging_Adjusted_Penalty>
1.57223e-10

> <i_epik_Tot_Q>
0

> <i_epik_Tot_abs_Q>
0

> <r_epik_Metal_State_Penalty>
-0

> <b_epik_Metal_Only>
0

> <s_lp_Force_Field>
OPLS_2005

> <r_lp_Energy>
37.4128

> <b_lp_Chiralities_Consistent>
1

> <s_lp_Variant>
AV-unprocessed.smi:1611-2

> <Gold.Version>
5.8.1

> <Gold.Id.Protein>
6NUR|6NUR_protein|mol2

> <Gold.PLP.Fitness>
55.2781

> <Gold.PLP.PLP>
-49.3788

> <Gold.PLP.part.hbond>
-3.7111

> <Gold.PLP.part.metal>
0.0000

> <Gold.PLP.part.buried>
-7.2167

> <Gold.PLP.part.nonpolar>
-38.8350

> <Gold.PLP.part.repulsive>
0.0147

> <Gold.PLP.ligand.clash>
0.0000

> <Gold.PLP.ligand.torsion>
0.6544

> <Gold.PLP.Chemscore.Hbond>
2.3678

> <Gold.PLP.Chemscore.CHOScore>
0.0000

> <Gold.PLP.Chemscore.Metal>
0.0000

> <Gold.Chemscore.Hbonds>
donor molecule, donor type, donor heavy atom, donor atom, acceptor molecule, acceptor atom, score
      P1  H  6896  6909       L1    11  0.60
      P1  H  6931  6943       L1    23  0.57
      P1  H  6934  6947       L1    23  0.37

> <Gold.PLP.Chemscore.Internal.Correction>
0.1049

> <Gold.Rescore>
     Score         DG    S(hbond)    S(metal)    S(lipo)     H(rot)  DE(clash)    DE(int)     intcor
     18.00     -18.69       1.64        0.00     115.88       2.27       0.14       0.55       ----

> <Gold.Chemscore.Fitness>
18.0003

> <Gold.Chemscore.DG>
-18.6935

> <Gold.Chemscore.ZeroCoef>
-5.4800

> <Gold.Chemscore.Hbond>
1.6372

> <Gold.Chemscore.Metal>
0.0000

> <Gold.Chemscore.Lipo>
115.8798

> <Gold.Chemscore.Internal_Hbond>
0.0000

> <Gold.Chemscore.DEClash>
0.1417

> <Gold.Chemscore.DEInternal>
0.5515

> <Gold.Chemscore.Rot>
2.2706

> <Gold.Chemscore.Internal.Correction>
   9.000000E+99

> <Gold.Chemscore.Hbonds>
donor molecule, donor type, donor heavy atom, donor atom, acceptor molecule, acceptor atom, score
      P1  H  6896  6909       L1    11  0.12
      P1  H  6931  6943       L1    23  0.54
      P1  H  6934  6947       L1    23  0.36

> <Gold.Chemscore.Hbond.Weighted>
-5.4682

> <Gold.Chemscore.Metal.Weighted>
-0.0000

> <Gold.Chemscore.Lipo.Weighted>
-13.5579

> <Gold.Chemscore.Internal_Hbond.Weighted>
0.0000

> <Gold.Chemscore.DEClash.Weighted>
0.1417

> <Gold.Chemscore.DEInternal.Weighted>
0.5515

> <Gold.Chemscore.Rot.Weighted>
5.8127

> <Gold.Chemscore.Internal.Correction.Weighted>
   9.000000E+99

> <Gold.Protein.RotatedTorsions>
[ 6907 6896 6895 6894 ] final  100.28 input  -60.11 | X-H torsion
[ 7974 7965 7964 7962 ] final  110.74 input  175.53 | X-H torsion
[ 8008 7997 7996 7995 ] final -164.52 input   59.86 | X-H torsion
[ 10167 10162 10161 10158 ] final  -55.92 input  -65.29 | X-H torsion
[ 10718 10713 10712 10709 ] final -108.85 input   66.30 | X-H torsion
[ 10763 10752 10751 10750 ] final   31.63 input  -60.55 | X-H torsion
[ 11005 11000 10999 10996 ] final   21.57 input  -57.11 | X-H torsion

> <Gold.Protein.ActiveResidues>
 VAL166  LYS551  ARG553  GLY616  TRP617  ASP618  TYR619  PRO620  LYS621  CYS622 
 ASP623  PHE694  ASN695  SER759  ASP760  ASP761  ALA762  ILE779  LEU786  VAL792 
 PHE793  MET794  SER795  GLU796  ALA797  LYS798  CYS799  TRP800  GLU811  SER814 

> <Gold.Protein.RotatedAtoms>
  152.5375  134.0301  159.8020 H   0  0  0  0  0  0  0  0  0  0  0  0  # atno 6907 bound_to 6896
  151.0473  133.5646  159.2652 H   0  0  0  0  0  0  0  0  0  0  0  0  # atno 6908 bound_to 6896
  151.2594  135.0656  159.9146 H   0  0  0  0  0  0  0  0  0  0  0  0  # atno 6909 bound_to 6896
  145.2511  139.2739  143.4067 H   0  0  0  0  0  0  0  0  0  0  0  0  # atno 7974 bound_to 7965
  155.8368  140.0942  157.1759 H   0  0  0  0  0  0  0  0  0  0  0  0  # atno 8008 bound_to 7997
  154.3981  140.1408  156.3741 H   0  0  0  0  0  0  0  0  0  0  0  0  # atno 8009 bound_to 7997
  155.8107  140.3450  155.5458 H   0  0  0  0  0  0  0  0  0  0  0  0  # atno 8010 bound_to 7997
  140.6347  143.2476  151.5150 H   0  0  0  0  0  0  0  0  0  0  0  0  # atno 10167 bound_to 10162
  156.0506  130.5734  150.8018 H   0  0  0  0  0  0  0  0  0  0  0  0  # atno 10718 bound_to 10713
  153.0305  135.6434  154.1230 H   0  0  0  0  0  0  0  0  0  0  0  0  # atno 10763 bound_to 10752
  154.0952  135.2863  155.3265 H   0  0  0  0  0  0  0  0  0  0  0  0  # atno 10764 bound_to 10752
  154.6437  135.5451  153.7882 H   0  0  0  0  0  0  0  0  0  0  0  0  # atno 10765 bound_to 10752
  140.3901  134.1828  155.7662 H   0  0  0  0  0  0  0  0  0  0  0  0  # atno 11005 bound_to 11000
  146.3302  140.2902  142.8615 LP  0  0  0  0  0  0  0  0  0  0  0  0  # atno 17320 bound_to 7965
  144.9502  140.8170  143.5576 LP  0  0  0  0  0  0  0  0  0  0  0  0  # atno 17321 bound_to 7965
  139.5558  144.2279  152.1609 LP  0  0  0  0  0  0  0  0  0  0  0  0  # atno 17342 bound_to 10162
  140.1532  144.5095  150.6675 LP  0  0  0  0  0  0  0  0  0  0  0  0  # atno 17343 bound_to 10162
  157.5429  131.0941  150.9803 LP  0  0  0  0  0  0  0  0  0  0  0  0  # atno 17370 bound_to 10713
  157.0081  130.5626  149.5318 LP  0  0  0  0  0  0  0  0  0  0  0  0  # atno 17371 bound_to 10713
  141.1894  133.8240  157.0959 LP  0  0  0  0  0  0  0  0  0  0  0  0  # atno 17394 bound_to 11000
  140.0413  134.9853  157.0967 LP  0  0  0  0  0  0  0  0  0  0  0  0  # atno 17395 bound_to 11000

$$$$
