AV-unprocessed.smi:421|AV-procd|sdf|2534|dock5
  -GOLD-   2262022493D 1   1.00000     0.00000
 Structure written by MMmdl.
 43 45  0  0  0  0  0  0  0  0  1 V2000
  153.6936  140.9127  160.4678 C   0  0  0  0  0  0  0  0  0  0  0  0
  152.8778  141.5355  159.4327 N   0  0  0  0  0  0  0  0  0  0  0  0
  152.5069  140.9917  158.2500 C   0  0  0  0  0  0  0  0  0  0  0  0
  152.7996  139.8667  157.8454 O   0  0  0  0  0  0  0  0  0  0  0  0
  151.7612  141.9052  157.5835 N   0  0  0  0  0  0  0  0  0  0  0  0
  151.1556  141.7363  156.2631 C   0  0  0  0  0  0  0  0  0  0  0  0
  150.4708  140.3617  156.1192 C   0  0  2  0  0  0  0  0  0  0  0  0
  151.4666  139.4176  155.7779 O   0  0  0  0  0  0  0  0  0  0  0  0
  149.4280  140.3550  154.9890 C   0  0  0  0  0  0  0  0  0  0  0  0
  148.8607  141.6500  154.8819 O   0  0  0  0  0  0  0  0  0  0  0  0
  147.8061  141.7176  153.9354 C   0  0  0  0  0  0  0  0  0  0  0  0
  146.5674  142.3785  154.5109 C   0  0  0  0  0  0  0  0  0  0  0  0
  145.9562  141.8599  155.6726 C   0  0  0  0  0  0  0  0  0  0  0  0
  144.7977  142.4668  156.1956 C   0  0  0  0  0  0  0  0  0  0  0  0
  144.2403  143.5902  155.5549 C   0  0  0  0  0  0  0  0  0  0  0  0
  144.8402  144.1042  154.3890 C   0  0  0  0  0  0  0  0  0  0  0  0
  145.9995  143.4981  153.8664 C   0  0  0  0  0  0  0  0  0  0  0  0
  151.6616  143.0701  158.3588 C   0  0  0  0  0  0  0  0  0  0  0  0
  151.0155  144.2950  158.1153 C   0  0  0  0  0  0  0  0  0  0  0  0
  151.1113  145.2875  159.1189 C   0  0  0  0  0  0  0  0  0  0  0  0
  151.8339  145.0442  160.3161 C   0  0  0  0  0  0  0  0  0  0  0  0
  152.4772  143.8034  160.5346 C   0  0  0  0  0  0  0  0  0  0  0  0
  152.3649  142.8357  159.5217 C   0  0  0  0  0  0  0  0  0  0  0  0
  153.8446  139.8481  160.2842 H   0  0  0  0  0  0  0  0  0  0  0  0
  153.2159  141.0183  161.4421 H   0  0  0  0  0  0  0  0  0  0  0  0
  154.6720  141.3915  160.5133 H   0  0  0  0  0  0  0  0  0  0  0  0
  150.4164  142.5295  156.1403 H   0  0  0  0  0  0  0  0  0  0  0  0
  151.8882  141.8976  155.4712 H   0  0  0  0  0  0  0  0  0  0  0  0
  149.9910  140.0773  157.0568 H   0  0  0  0  0  0  0  0  0  0  0  0
  151.0412  138.6172  155.5112 H   0  0  0  0  0  0  0  0  0  0  0  0
  149.9113  140.1188  154.0398 H   0  0  0  0  0  0  0  0  0  0  0  0
  148.6623  139.5956  155.1592 H   0  0  0  0  0  0  0  0  0  0  0  0
  148.1386  142.2731  153.0570 H   0  0  0  0  0  0  0  0  0  0  0  0
  147.5359  140.7138  153.6040 H   0  0  0  0  0  0  0  0  0  0  0  0
  146.3732  140.9947  156.1674 H   0  0  0  0  0  0  0  0  0  0  0  0
  144.3360  142.0690  157.0871 H   0  0  0  0  0  0  0  0  0  0  0  0
  143.3513  144.0547  155.9556 H   0  0  0  0  0  0  0  0  0  0  0  0
  144.4102  144.9625  153.8941 H   0  0  0  0  0  0  0  0  0  0  0  0
  146.4515  143.8968  152.9699 H   0  0  0  0  0  0  0  0  0  0  0  0
  150.4688  144.4772  157.2018 H   0  0  0  0  0  0  0  0  0  0  0  0
  150.6285  146.2425  158.9719 H   0  0  0  0  0  0  0  0  0  0  0  0
  151.8944  145.8159  161.0694 H   0  0  0  0  0  0  0  0  0  0  0  0
  153.0303  143.6104  161.4419 H   0  0  0  0  0  0  0  0  0  0  0  0
  1  2  1  0  0  0  0
  1 24  1  0  0  0  0
  1 25  1  0  0  0  0
  1 26  1  0  0  0  0
  2 23  1  0  0  0  0
  2  3  1  0  0  0  0
  3  4  2  0  0  0  0
  3  5  1  0  0  0  0
  5  6  1  0  0  0  0
  5 18  1  0  0  0  0
  6  7  1  0  0  0  0
  6 27  1  0  0  0  0
  6 28  1  0  0  0  0
  7  8  1  0  0  0  0
  7  9  1  0  0  0  0
  7 29  1  0  0  0  0
  8 30  1  0  0  0  0
  9 10  1  0  0  0  0
  9 31  1  0  0  0  0
  9 32  1  0  0  0  0
 10 11  1  0  0  0  0
 11 12  1  0  0  0  0
 11 33  1  0  0  0  0
 11 34  1  0  0  0  0
 12 17  1  0  0  0  0
 12 13  2  0  0  0  0
 13 14  1  0  0  0  0
 13 35  1  0  0  0  0
 14 15  2  0  0  0  0
 14 36  1  0  0  0  0
 15 16  1  0  0  0  0
 15 37  1  0  0  0  0
 16 17  2  0  0  0  0
 16 38  1  0  0  0  0
 17 39  1  0  0  0  0
 18 23  2  0  0  0  0
 18 19  1  0  0  0  0
 19 20  2  0  0  0  0
 19 40  1  0  0  0  0
 20 21  1  0  0  0  0
 20 41  1  0  0  0  0
 21 22  2  0  0  0  0
 21 42  1  0  0  0  0
 22 23  1  0  0  0  0
 22 43  1  0  0  0  0
M  END
> <s_m_source_file>
AV-unprocessed.smi

> <i_m_source_file_index>
421

> <i_lp_mmshare_version>
43012

> <i_f3d_flags>
0

> <s_epik_input>
W2NIXTFbY0hdW2NIXVtjSF1jKGMxMiluKFtDSDNdKWMoPU8pbjJbQ0gyXVtDQEhdKFtPSF0pW0NIMl1PW0NIMl1jM1tjSF1bY0hdW2NIXVtjSF1bY0hdMw==

> <s_epik_cmdline>
J2VwaWtfcHl0aG9uJywgJy1waCcsICc3LjAnLCAnLXRuJywgJzgnLCAnLW1hJywgJzIwMCcsICctbWV0YWxfYmluZGluZycsICctaW1hZScsICc8aW5maWxlLm1hZT4nLCAnLW9tYWUnLCAnPG91dGZpbGUubWFlPic=

> <r_lp_tautomer_probability>
1

> <r_epik_Ionization_Penalty>
1.0795e-06

> <r_epik_Ionization_Penalty_Charging>
2.82452e-09

> <r_epik_Ionization_Penalty_Neutral>
1.07667e-06

> <r_epik_State_Penalty>
-0

> <r_epik_Charging_Adjusted_Penalty>
2.82452e-09

> <i_epik_Tot_Q>
0

> <i_epik_Tot_abs_Q>
0

> <r_epik_Metal_State_Penalty>
-0

> <b_epik_Metal_Only>
0

> <s_lp_Force_Field>
OPLS_2005

> <r_lp_Energy>
47.1421

> <b_lp_Chiralities_Consistent>
1

> <s_lp_Variant>
AV-unprocessed.smi:421-1

> <Gold.Version>
5.8.1

> <Gold.Id.Protein>
6NUR|6NUR_protein|mol2

> <Gold.PLP.Fitness>
54.3098

> <Gold.PLP.PLP>
-53.4212

> <Gold.PLP.part.hbond>
-1.0000

> <Gold.PLP.part.metal>
0.0000

> <Gold.PLP.part.buried>
-8.1299

> <Gold.PLP.part.nonpolar>
-43.5996

> <Gold.PLP.part.repulsive>
0.1441

> <Gold.PLP.ligand.clash>
0.0000

> <Gold.PLP.ligand.torsion>
1.1513

> <Gold.PLP.Chemscore.Hbond>
1.0000

> <Gold.PLP.Chemscore.CHOScore>
0.0000

> <Gold.PLP.Chemscore.Metal>
0.0000

> <Gold.Chemscore.Hbonds>
donor molecule, donor type, donor heavy atom, donor atom, acceptor molecule, acceptor atom, score
      P1  H  7997  8008       L1     4  1.00

> <Gold.PLP.Chemscore.Internal.Correction>
0.1912

> <Gold.Rescore>
     Score         DG    S(hbond)    S(metal)    S(lipo)     H(rot)  DE(clash)    DE(int)     intcor
     15.89     -18.07       0.82        0.00     132.55       2.21       0.05       2.13       ----

> <Gold.Chemscore.Fitness>
15.8920

> <Gold.Chemscore.DG>
-18.0744

> <Gold.Chemscore.ZeroCoef>
-5.4800

> <Gold.Chemscore.Hbond>
0.8230

> <Gold.Chemscore.Metal>
0.0000

> <Gold.Chemscore.Lipo>
132.5464

> <Gold.Chemscore.Internal_Hbond>
0.0000

> <Gold.Chemscore.DEClash>
0.0497

> <Gold.Chemscore.DEInternal>
2.1328

> <Gold.Chemscore.Rot>
2.2119

> <Gold.Chemscore.Internal.Correction>
   9.000000E+99

> <Gold.Chemscore.Hbonds>
donor molecule, donor type, donor heavy atom, donor atom, acceptor molecule, acceptor atom, score
      P1  H  7997  8008       L1     4  0.47

> <Gold.Chemscore.Hbond.Weighted>
-2.7489

> <Gold.Chemscore.Metal.Weighted>
-0.0000

> <Gold.Chemscore.Lipo.Weighted>
-15.5079

> <Gold.Chemscore.Internal_Hbond.Weighted>
0.0000

> <Gold.Chemscore.DEClash.Weighted>
0.0497

> <Gold.Chemscore.DEInternal.Weighted>
2.1328

> <Gold.Chemscore.Rot.Weighted>
5.6623

> <Gold.Chemscore.Internal.Correction.Weighted>
   9.000000E+99

> <Gold.Protein.RotatedTorsions>
[ 6907 6896 6895 6894 ] final -155.57 input  -60.11 | X-H torsion
[ 7974 7965 7964 7962 ] final    5.06 input  175.53 | X-H torsion
[ 8008 7997 7996 7995 ] final  -87.37 input   59.86 | X-H torsion
[ 10167 10162 10161 10158 ] final   76.94 input  -65.29 | X-H torsion
[ 10718 10713 10712 10709 ] final  -47.11 input   66.30 | X-H torsion
[ 10763 10752 10751 10750 ] final -148.56 input  -60.55 | X-H torsion
[ 11005 11000 10999 10996 ] final  -64.76 input  -57.11 | X-H torsion

> <Gold.Protein.ActiveResidues>
 VAL166  LYS551  ARG553  GLY616  TRP617  ASP618  TYR619  PRO620  LYS621  CYS622 
 ASP623  PHE694  ASN695  SER759  ASP760  ASP761  ALA762  ILE779  LEU786  VAL792 
 PHE793  MET794  SER795  GLU796  ALA797  LYS798  CYS799  TRP800  GLU811  SER814 

> <Gold.Protein.RotatedAtoms>
  151.2745  133.4239  159.2622 H   0  0  0  0  0  0  0  0  0  0  0  0  # atno 6907 bound_to 6896
  151.0415  134.9611  159.8174 H   0  0  0  0  0  0  0  0  0  0  0  0  # atno 6908 bound_to 6896
  152.5366  134.2703  159.9021 H   0  0  0  0  0  0  0  0  0  0  0  0  # atno 6909 bound_to 6896
  146.2442  140.0440  142.8380 H   0  0  0  0  0  0  0  0  0  0  0  0  # atno 7974 bound_to 7965
  154.6625  140.0566  157.0078 H   0  0  0  0  0  0  0  0  0  0  0  0  # atno 8008 bound_to 7997
  155.1207  140.3247  155.4479 H   0  0  0  0  0  0  0  0  0  0  0  0  # atno 8009 bound_to 7997
  156.2624  140.1998  156.6329 H   0  0  0  0  0  0  0  0  0  0  0  0  # atno 8010 bound_to 7997
  139.9868  144.5786  150.7852 H   0  0  0  0  0  0  0  0  0  0  0  0  # atno 10167 bound_to 10162
  156.2116  130.4161  149.9107 H   0  0  0  0  0  0  0  0  0  0  0  0  # atno 10718 bound_to 10713
  154.8226  135.3331  154.6993 H   0  0  0  0  0  0  0  0  0  0  0  0  # atno 10763 bound_to 10752
  153.7624  135.6931  153.4927 H   0  0  0  0  0  0  0  0  0  0  0  0  # atno 10764 bound_to 10752
  153.2101  135.4485  155.0319 H   0  0  0  0  0  0  0  0  0  0  0  0  # atno 10765 bound_to 10752
  141.1434  133.6671  156.5883 H   0  0  0  0  0  0  0  0  0  0  0  0  # atno 11005 bound_to 11000
  145.1043  140.9366  143.4694 LP  0  0  0  0  0  0  0  0  0  0  0  0  # atno 17320 bound_to 7965
  145.0640  139.3083  143.5866 LP  0  0  0  0  0  0  0  0  0  0  0  0  # atno 17321 bound_to 7965
  140.7469  143.2898  151.3362 LP  0  0  0  0  0  0  0  0  0  0  0  0  # atno 17342 bound_to 10162
  139.6369  144.0613  152.2523 LP  0  0  0  0  0  0  0  0  0  0  0  0  # atno 17343 bound_to 10162
  156.6783  130.8848  151.3572 LP  0  0  0  0  0  0  0  0  0  0  0  0  # atno 17370 bound_to 10713
  157.7041  130.9366  150.0877 LP  0  0  0  0  0  0  0  0  0  0  0  0  # atno 17371 bound_to 10713
  140.3783  134.7545  157.4644 LP  0  0  0  0  0  0  0  0  0  0  0  0  # atno 17394 bound_to 11000
  140.0657  134.5933  155.8698 LP  0  0  0  0  0  0  0  0  0  0  0  0  # atno 17395 bound_to 11000

$$$$
