#       Name:                AV-unprocessed.smi:3277
#       Creating user name   scv26
#       Creation time:       Fri Mar 27 18:45:20 2020


#       File generated by GOLD software.
#

@<TRIPOS>MOLECULE
AV-unprocessed.smi:3277
    38    40     1
SMALL
NO_CHARGES


@<TRIPOS>ATOM
      1 ****        -4.0566  -3.9292   0.0232 C.3            1 S1                 0.0000
      2 ****        -2.6987  -3.7673  -0.4723 N.am           1 S1                 0.0000
      3 ****        -1.6583  -3.3885   0.2848 C.2            1 S1                 0.0000
      4 ****        -1.7512  -3.1435   1.4874 O.2            1 S1                 0.0000
      5 ****        -0.3043  -3.2730  -0.4177 C.3            1 S1                 0.0000
      6 ****        -0.2105  -1.9101  -1.0251 C.2            1 S1                 0.0000
      7 ****         0.3605  -0.8678  -0.4155 N.2            1 S1                 0.0000
      8 ****         0.3280   0.3003  -1.1860 C.2            1 S1                 0.0000
      9 ****         0.9171   1.5870  -0.6697 C.3            1 S1                 0.0000
     10 ****         2.4259   1.5323  -0.3461 C.3            1 S1                 0.0000
     11 ****         2.4878   2.1542   1.0628 C.3            1 S1                 0.0000
     12 ****         2.1131   3.6484   0.9964 C.3            1 S1                 0.0000
     13 ****         0.5883   3.6108   0.7660 C.3            1 S1                 0.0000
     14 ****         0.3033   2.1004   0.6542 C.3            1 S1                 0.0000
     15 ****         1.2518   1.5514   1.7182 C.3            1 S1                 0.0000
     16 ****        -0.2782   0.1188  -2.4045 C.2            1 S1                 0.0000
     17 ****        -0.8266  -1.5194  -2.6269 S.3            1 S1                 0.0000
     18 ****        -4.7241  -4.1879  -0.7986 H              1 S1                 0.0000
     19 ****        -4.4183  -3.0066   0.4785 H              1 S1                 0.0000
     20 ****        -4.1043  -4.7268   0.7651 H              1 S1                 0.0000
     21 ****        -2.5392  -3.9507  -1.4523 H              1 S1                 0.0000
     22 ****         0.5078  -3.4190   0.2958 H              1 S1                 0.0000
     23 ****        -0.2043  -4.0317  -1.1947 H              1 S1                 0.0000
     24 ****         0.7621   2.3470  -1.4373 H              1 S1                 0.0000
     25 ****         2.7906   0.5047  -0.3121 H              1 S1                 0.0000
     26 ****         3.0300   2.0728  -1.0754 H              1 S1                 0.0000
     27 ****         3.4255   1.9599   1.5840 H              1 S1                 0.0000
     28 ****         2.3461   4.1526   1.9350 H              1 S1                 0.0000
     29 ****         2.6418   4.1677   0.1963 H              1 S1                 0.0000
     30 ****         0.0623   4.0389   1.6203 H              1 S1                 0.0000
     31 ****         0.2842   4.1670  -0.1214 H              1 S1                 0.0000
     32 ****        -0.7504   1.8523   0.7861 H              1 S1                 0.0000
     33 ****         1.2769   0.4624   1.7683 H              1 S1                 0.0000
     34 ****         1.0564   1.9451   2.7173 H              1 S1                 0.0000
     35 ****        -0.4341   0.8492  -3.1846 H              1 S1                 0.0000
     36 ****        -2.6357  -3.2234   1.9471 LP             1 S1                 0.0000
     37 ****        -0.9422  -2.8646   2.0048 LP             1 S1                 0.0000
     38 ****         0.7686  -0.9169   0.4961 LP             1 S1                 0.0000
@<TRIPOS>BOND
    1    1    2 1     
    2    1   18 1     
    3    1   19 1     
    4    1   20 1     
    5    2    3 am    
    6    2   21 1     
    7    3    4 2     
    8    3    5 1     
    9    5    6 1     
   10    5   22 1     
   11    5   23 1     
   12    6   17 1     
   13    6    7 2     
   14    7    8 1     
   15    8    9 1     
   16    8   16 2     
   17    9   14 1     
   18    9   10 1     
   19    9   24 1     
   20   10   11 1     
   21   10   25 1     
   22   10   26 1     
   23   11   15 1     
   24   11   12 1     
   25   11   27 1     
   26   12   13 1     
   27   12   28 1     
   28   12   29 1     
   29   13   14 1     
   30   13   30 1     
   31   13   31 1     
   32   14   15 1     
   33   14   32 1     
   34   15   33 1     
   35   15   34 1     
   36   16   17 1     
   37   16   35 1     
   38    4   36 1     
   39    4   37 1     
   40    7   38 1     
@<TRIPOS>SUBSTRUCTURE
      1 S1             1
@<TRIPOS>SET
LONE_PAIRS      STATIC     ATOMS    <user>   **** ""
3 36 37 38
DONOR_HYDROGENS      STATIC     ATOMS    <user>   **** ""
1 21
ATOM$BLUE        STATIC     ATOMS    COLORGROUP SYSTEM
3 36 37 38
ATOM$RED        STATIC     ATOMS    COLORGROUP SYSTEM
1 21
