AV-unprocessed.smi:224|AV-procd|sdf|1718|dock5
  -GOLD-   2262020193D 1   1.00000     0.00000
 Structure written by MMmdl.
 56 59  0  0  0  0  0  0  0  0  2 V2000
  149.4768  139.4061  154.4564 C   0  0  0  0  0  0  0  0  0  0  0  0
  150.3800  140.3022  155.3168 C   0  0  1  0  0  0  0  0  0  0  0  0
  151.7179  140.0917  154.9180 O   0  0  0  0  0  0  0  0  0  0  0  0
  150.0593  141.8041  155.1666 C   0  0  0  0  0  0  0  0  0  0  0  0
  148.6438  142.1329  155.5033 N   0  3  1  0  0  0  0  0  0  0  0  0
  147.7417  141.8835  154.3421 C   0  0  0  0  0  0  0  0  0  0  0  0
  146.2790  142.2419  154.6502 C   0  0  0  0  0  0  0  0  0  0  0  0
  145.8223  141.5801  155.8662 N   0  0  0  0  0  0  0  0  0  0  0  0
  145.2707  140.3391  155.7905 C   0  0  0  0  0  0  0  0  0  0  0  0
  144.2242  140.0138  156.5957 N   0  0  0  0  0  0  0  0  0  0  0  0
  143.6684  138.8008  156.5299 C   0  0  0  0  0  0  0  0  0  0  0  0
  144.0010  137.7736  155.7475 N   0  0  0  0  0  0  0  0  0  0  0  0
  145.0593  138.0844  154.9462 C   0  0  0  0  0  0  0  0  0  0  0  0
  145.7444  139.3320  154.9009 C   0  0  0  0  0  0  0  0  0  0  0  0
  146.7732  139.2695  153.9681 N   0  0  0  0  0  0  0  0  0  0  0  0
  146.6964  138.0589  153.4864 C   0  0  0  0  0  0  0  0  0  0  0  0
  145.7010  137.2757  154.0246 N   0  0  0  0  0  0  0  0  0  0  0  0
  145.4037  135.8928  153.6835 C   0  0  0  0  0  0  0  0  0  0  0  0
  144.6773  135.7408  152.3265 C   0  0  1  0  0  0  0  0  0  0  0  0
  143.7722  136.8202  152.1677 O   0  0  0  0  0  0  0  0  0  0  0  0
  145.6079  135.7081  151.1180 C   0  0  0  0  0  0  0  0  0  0  0  0
  144.8526  134.8249  150.1352 C   0  0  0  0  0  0  0  0  0  0  0  0
  144.3103  133.8196  150.9747 O   0  0  0  0  0  0  0  0  0  0  0  0
  143.8902  134.4215  152.1957 C   0  0  0  0  0  0  0  0  0  0  0  0
  146.6635  141.8552  157.0236 C   0  0  0  0  0  0  0  0  0  0  0  0
  148.1429  141.4898  156.7622 C   0  0  2  0  0  0  0  0  0  0  0  0
  148.9592  141.8882  158.0094 C   0  0  0  0  0  0  0  0  0  0  0  0
  148.4315  139.4979  154.7524 H   0  0  0  0  0  0  0  0  0  0  0  0
  149.7527  138.3561  154.5600 H   0  0  0  0  0  0  0  0  0  0  0  0
  149.5468  139.6659  153.3995 H   0  0  0  0  0  0  0  0  0  0  0  0
  150.3138  139.9898  156.3580 H   0  0  0  0  0  0  0  0  0  0  0  0
  152.0329  139.2927  155.3127 H   0  0  0  0  0  0  0  0  0  0  0  0
  150.7226  142.4016  155.7945 H   0  0  0  0  0  0  0  0  0  0  0  0
  150.3017  142.0782  154.1431 H   0  0  0  0  0  0  0  0  0  0  0  0
  148.0583  142.4637  153.4771 H   0  0  0  0  0  0  0  0  0  0  0  0
  147.8141  140.8343  154.0531 H   0  0  0  0  0  0  0  0  0  0  0  0
  146.1895  143.3189  154.7966 H   0  0  0  0  0  0  0  0  0  0  0  0
  145.6333  141.9980  153.8052 H   0  0  0  0  0  0  0  0  0  0  0  0
  142.8392  138.6280  157.2001 H   0  0  0  0  0  0  0  0  0  0  0  0
  147.3752  137.6971  152.7274 H   0  0  0  0  0  0  0  0  0  0  0  0
  146.3403  135.3340  153.6734 H   0  0  0  0  0  0  0  0  0  0  0  0
  144.8011  135.4631  154.4848 H   0  0  0  0  0  0  0  0  0  0  0  0
  144.1230  137.4115  151.5194 H   0  0  0  0  0  0  0  0  0  0  0  0
  145.8497  136.6938  150.7183 H   0  0  0  0  0  0  0  0  0  0  0  0
  146.5457  135.2154  151.3767 H   0  0  0  0  0  0  0  0  0  0  0  0
  144.0458  135.3762  149.6499 H   0  0  0  0  0  0  0  0  0  0  0  0
  145.4970  134.4021  149.3642 H   0  0  0  0  0  0  0  0  0  0  0  0
  144.0976  133.7331  153.0156 H   0  0  0  0  0  0  0  0  0  0  0  0
  142.8113  134.5854  152.1740 H   0  0  0  0  0  0  0  0  0  0  0  0
  146.5799  142.9184  157.2531 H   0  0  0  0  0  0  0  0  0  0  0  0
  146.3091  141.3301  157.9094 H   0  0  0  0  0  0  0  0  0  0  0  0
  148.2090  140.4077  156.6360 H   0  0  0  0  0  0  0  0  0  0  0  0
  148.4638  141.5494  158.9201 H   0  0  0  0  0  0  0  0  0  0  0  0
  149.0706  142.9707  158.0826 H   0  0  0  0  0  0  0  0  0  0  0  0
  149.9516  141.4409  158.0282 H   0  0  0  0  0  0  0  0  0  0  0  0
  148.6171  143.1269  155.6796 H   0  0  0  0  0  0  0  0  0  0  0  0
  1  2  1  0  0  0  0
  1 28  1  0  0  0  0
  1 29  1  0  0  0  0
  1 30  1  0  0  0  0
  2  3  1  0  0  0  0
  2  4  1  0  0  0  0
  2 31  1  0  0  0  0
  3 32  1  0  0  0  0
  4  5  1  0  0  0  0
  4 33  1  0  0  0  0
  4 34  1  0  0  0  0
  5 26  1  0  0  0  0
  5  6  1  0  0  0  0
  5 56  1  0  0  0  0
  6  7  1  0  0  0  0
  6 35  1  0  0  0  0
  6 36  1  0  0  0  0
  7  8  1  0  0  0  0
  7 37  1  0  0  0  0
  7 38  1  0  0  0  0
  8  9  1  0  0  0  0
  8 25  1  0  0  0  0
  9 14  1  0  0  0  0
  9 10  2  0  0  0  0
 10 11  1  0  0  0  0
 11 12  2  0  0  0  0
 11 39  1  0  0  0  0
 12 13  1  0  0  0  0
 13 17  1  0  0  0  0
 13 14  2  0  0  0  0
 14 15  1  0  0  0  0
 15 16  2  0  0  0  0
 16 17  1  0  0  0  0
 16 40  1  0  0  0  0
 17 18  1  0  0  0  0
 18 19  1  0  0  0  0
 18 41  1  0  0  0  0
 18 42  1  0  0  0  0
 19 24  1  0  0  0  0
 19 20  1  0  0  0  0
 19 21  1  0  0  0  0
 20 43  1  0  0  0  0
 21 22  1  0  0  0  0
 21 44  1  0  0  0  0
 21 45  1  0  0  0  0
 22 23  1  0  0  0  0
 22 46  1  0  0  0  0
 22 47  1  0  0  0  0
 23 24  1  0  0  0  0
 24 48  1  0  0  0  0
 24 49  1  0  0  0  0
 25 26  1  0  0  0  0
 25 50  1  0  0  0  0
 25 51  1  0  0  0  0
 26 27  1  0  0  0  0
 26 52  1  0  0  0  0
 27 53  1  0  0  0  0
 27 54  1  0  0  0  0
 27 55  1  0  0  0  0
M  CHG  1   5   1
M  END
> <s_m_source_file>
AV-unprocessed.smi

> <i_m_source_file_index>
224

> <i_lp_mmshare_version>
43012

> <i_f3d_flags>
0

> <s_epik_input>
W0NIM11bQ0BIXShbT0hdKVtDSDJdTjFbQ0gyXVtDSDJdTihbQ0gyXVtDQEhdMVtDSDNdKWMobltjSF1uMiljKGMyMyluW2NIXW4zW0NIMl1bQ0BAXTQoW09IXSlbQ0gyXVtDSDJdT1tDSDJdNA==

> <s_epik_cmdline>
J2VwaWtfcHl0aG9uJywgJy1waCcsICc3LjAnLCAnLXRuJywgJzgnLCAnLW1hJywgJzIwMCcsICctbWV0YWxfYmluZGluZycsICctaW1hZScsICc8aW5maWxlLm1hZT4nLCAnLW9tYWUnLCAnPG91dGZpbGUubWFlPic=

> <r_lp_tautomer_probability>
1

> <r_epik_Ionization_Penalty>
0.00516958

> <r_epik_Ionization_Penalty_Charging>
0.00509693

> <r_epik_Ionization_Penalty_Neutral>
7.26542e-05

> <r_epik_State_Penalty>
-0

> <r_epik_Charging_Adjusted_Penalty>
0.00509693

> <i_epik_Tot_Q>
1

> <i_epik_Tot_abs_Q>
1

> <r_epik_Metal_State_Penalty>
-0

> <b_epik_Metal_Only>
0

> <s_lp_Force_Field>
OPLS_2005

> <r_lp_Energy>
49.0033

> <b_lp_Chiralities_Consistent>
1

> <s_lp_Variant>
AV-unprocessed.smi:224-12

> <Gold.Version>
5.8.1

> <Gold.Id.Protein>
6NUR|6NUR_protein|mol2

> <Gold.PLP.Fitness>
44.6500

> <Gold.PLP.PLP>
-31.6827

> <Gold.PLP.part.hbond>
-3.0000

> <Gold.PLP.part.metal>
0.0000

> <Gold.PLP.part.buried>
-5.5830

> <Gold.PLP.part.nonpolar>
-24.1196

> <Gold.PLP.part.repulsive>
0.6181

> <Gold.PLP.ligand.clash>
0.0000

> <Gold.PLP.ligand.torsion>
1.2442

> <Gold.PLP.Chemscore.Hbond>
4.0000

> <Gold.PLP.Chemscore.CHOScore>
0.9828

> <Gold.PLP.Chemscore.Metal>
0.0000

> <Gold.Chemscore.Hbonds>
donor molecule, donor type, donor heavy atom, donor atom, acceptor molecule, acceptor atom, score
      L1  H     5    56       P1  8028  2.00
      L1  H    20    43       P1 10171  0.85
      P1  H  7989  7998       L1     3  0.88
      L1  C    16    40       P1  7948  1.00

> <Gold.PLP.Chemscore.Internal.Correction>
0.5071

> <Gold.Rescore>
     Score         DG    S(hbond)    S(metal)    S(lipo)     H(rot)  DE(clash)    DE(int)     intcor
      6.86     -11.49       2.05        0.00      66.49       3.36       0.89       3.74       ----

> <Gold.Chemscore.Fitness>
6.8610

> <Gold.Chemscore.DG>
-11.4900

> <Gold.Chemscore.ZeroCoef>
-5.4800

> <Gold.Chemscore.Hbond>
2.0463

> <Gold.Chemscore.Metal>
0.0000

> <Gold.Chemscore.Lipo>
66.4935

> <Gold.Chemscore.Internal_Hbond>
0.0000

> <Gold.Chemscore.DEClash>
0.8936

> <Gold.Chemscore.DEInternal>
3.7355

> <Gold.Chemscore.Rot>
3.3611

> <Gold.Chemscore.Internal.Correction>
   9.000000E+99

> <Gold.Chemscore.Hbonds>
donor molecule, donor type, donor heavy atom, donor atom, acceptor molecule, acceptor atom, score
      L1  H     5    56       P1  8028  0.98
      L1  H    20    43       P1 10171  0.79
      P1  H  7989  7998       L1     3  0.17

> <Gold.Chemscore.Hbond.Weighted>
-6.8347

> <Gold.Chemscore.Metal.Weighted>
-0.0000

> <Gold.Chemscore.Lipo.Weighted>
-7.7797

> <Gold.Chemscore.Internal_Hbond.Weighted>
0.0000

> <Gold.Chemscore.DEClash.Weighted>
0.8936

> <Gold.Chemscore.DEInternal.Weighted>
3.7355

> <Gold.Chemscore.Rot.Weighted>
8.6045

> <Gold.Chemscore.Internal.Correction.Weighted>
   9.000000E+99

> <Gold.Protein.RotatedTorsions>
[ 6907 6896 6895 6894 ] final  -80.15 input  -60.11 | X-H torsion
[ 7974 7965 7964 7962 ] final  175.49 input  175.53 | X-H torsion
[ 8008 7997 7996 7995 ] final   -8.91 input   59.86 | X-H torsion
[ 10167 10162 10161 10158 ] final  123.45 input  -65.29 | X-H torsion
[ 10718 10713 10712 10709 ] final -114.17 input   66.30 | X-H torsion
[ 10763 10752 10751 10750 ] final   15.29 input  -60.55 | X-H torsion
[ 11005 11000 10999 10996 ] final  122.53 input  -57.11 | X-H torsion

> <Gold.Protein.ActiveResidues>
 VAL166  LYS551  ARG553  GLY616  TRP617  ASP618  TYR619  PRO620  LYS621  CYS622 
 ASP623  PHE694  ASN695  SER759  ASP760  ASP761  ALA762  ILE779  LEU786  VAL792 
 PHE793  MET794  SER795  GLU796  ALA797  LYS798  CYS799  TRP800  GLU811  SER814 

> <Gold.Protein.RotatedAtoms>
  150.6935  134.4013  159.5120 H   0  0  0  0  0  0  0  0  0  0  0  0  # atno 6907 bound_to 6896
  152.1787  134.8770  160.0537 H   0  0  0  0  0  0  0  0  0  0  0  0  # atno 6908 bound_to 6896
  151.9769  133.3710  159.4129 H   0  0  0  0  0  0  0  0  0  0  0  0  # atno 6909 bound_to 6896
  144.7201  139.9954  143.6440 H   0  0  0  0  0  0  0  0  0  0  0  0  # atno 7974 bound_to 7965
  154.5697  140.2369  155.8211 H   0  0  0  0  0  0  0  0  0  0  0  0  # atno 8008 bound_to 7997
  156.2096  140.3030  155.9662 H   0  0  0  0  0  0  0  0  0  0  0  0  # atno 8009 bound_to 7997
  155.2736  140.0419  157.3000 H   0  0  0  0  0  0  0  0  0  0  0  0  # atno 8010 bound_to 7997
  139.5798  144.6981  151.3557 H   0  0  0  0  0  0  0  0  0  0  0  0  # atno 10167 bound_to 10162
  156.0813  130.6012  150.8739 H   0  0  0  0  0  0  0  0  0  0  0  0  # atno 10718 bound_to 10713
  153.1540  135.6783  153.8840 H   0  0  0  0  0  0  0  0  0  0  0  0  # atno 10763 bound_to 10752
  153.8258  135.3124  155.3415 H   0  0  0  0  0  0  0  0  0  0  0  0  # atno 10764 bound_to 10752
  154.7883  135.4849  154.0083 H   0  0  0  0  0  0  0  0  0  0  0  0  # atno 10765 bound_to 10752
  139.9272  134.9641  156.8122 H   0  0  0  0  0  0  0  0  0  0  0  0  # atno 11005 bound_to 11000
  146.0378  139.3394  143.0716 LP  0  0  0  0  0  0  0  0  0  0  0  0  # atno 17320 bound_to 7965
  145.8372  140.9599  143.0818 LP  0  0  0  0  0  0  0  0  0  0  0  0  # atno 17321 bound_to 7965
  140.7078  143.7469  150.7512 LP  0  0  0  0  0  0  0  0  0  0  0  0  # atno 17342 bound_to 10162
  140.0999  143.4798  152.2431 LP  0  0  0  0  0  0  0  0  0  0  0  0  # atno 17343 bound_to 10162
  157.5930  131.0944  150.9087 LP  0  0  0  0  0  0  0  0  0  0  0  0  # atno 17370 bound_to 10713
  156.9259  130.5332  149.5279 LP  0  0  0  0  0  0  0  0  0  0  0  0  # atno 17371 bound_to 10713
  140.6303  133.9912  155.7658 LP  0  0  0  0  0  0  0  0  0  0  0  0  # atno 17394 bound_to 11000
  141.0838  134.0022  157.3346 LP  0  0  0  0  0  0  0  0  0  0  0  0  # atno 17395 bound_to 11000

$$$$
