#       Name:                AV-unprocessed.smi:2579
#       Creating user name   scv26
#       Creation time:       Fri Mar 27 14:14:23 2020


#       File generated by GOLD software.
#

@<TRIPOS>MOLECULE
AV-unprocessed.smi:2579
    43    45     1
SMALL
NO_CHARGES


@<TRIPOS>ATOM
      1 ****        -3.5901   3.0313  -1.7555 O.3            1 S1                 0.0000
      2 ****        -2.9417   2.8581  -0.5135 C.3            1 S1                 0.0000
      3 ****        -1.7230   1.9410  -0.6779 C.3            1 S1                 0.0000
      4 ****        -2.1026   0.5412  -0.6904 N.pl3          1 S1                 0.0000
      5 ****        -1.3519  -0.6269  -0.7210 C.2            1 S1                 0.0000
      6 ****        -1.8785  -1.8501  -0.7262 N.2            1 S1                 0.0000
      7 ****        -0.7529  -2.6526  -0.7506 C.ar           1 S1                 0.0000
      8 ****        -0.6302  -4.0606  -0.7633 C.ar           1 S1                 0.0000
      9 ****         0.6434  -4.6663  -0.7855 C.ar           1 S1                 0.0000
     10 ****         1.8105  -3.8753  -0.7941 C.ar           1 S1                 0.0000
     11 ****         1.7119  -2.4707  -0.7822 C.ar           1 S1                 0.0000
     12 ****         0.4387  -1.8702  -0.7622 C.ar           1 S1                 0.0000
     13 ****        -0.0007  -0.5498  -0.7455 N.pl3          1 S1                 0.0000
     14 ****         0.8339   0.6427  -0.7425 C.3            1 S1                 0.0000
     15 ****         1.1149   1.1375   0.6850 C.3            1 S1                 0.0000
     16 ****         2.0414   2.3519   0.7479 C.3            1 S1                 0.0000
     17 ****         2.6842   2.1810   2.1053 C.3            1 S1                 0.0000
     18 ****         2.8664   0.6688   2.1648 C.3            1 S1                 0.0000
     19 ****         1.7553   0.1243   1.4602 O.3            1 S1                 0.0000
     20 ****        -4.3137   3.6274  -1.6367 H              1 S1                 0.0000
     21 ****        -2.6161   3.8410  -0.1724 H              1 S1                 0.0000
     22 ****        -3.6390   2.4739   0.2320 H              1 S1                 0.0000
     23 ****        -1.1613   2.1867  -1.5798 H              1 S1                 0.0000
     24 ****        -1.0462   2.0870   0.1645 H              1 S1                 0.0000
     25 ****        -3.1017   0.3973  -0.7042 H              1 S1                 0.0000
     26 ****        -1.5179  -4.6755  -0.7547 H              1 S1                 0.0000
     27 ****         0.7251  -5.7433  -0.7941 H              1 S1                 0.0000
     28 ****         2.7820  -4.3475  -0.8084 H              1 S1                 0.0000
     29 ****         2.6041  -1.8622  -0.7851 H              1 S1                 0.0000
     30 ****         1.7691   0.4100  -1.2526 H              1 S1                 0.0000
     31 ****         0.3504   1.4230  -1.3313 H              1 S1                 0.0000
     32 ****         0.1766   1.3823   1.1853 H              1 S1                 0.0000
     33 ****         2.8038   2.2981  -0.0306 H              1 S1                 0.0000
     34 ****         1.5105   3.2981   0.6406 H              1 S1                 0.0000
     35 ****         3.6211   2.7287   2.2108 H              1 S1                 0.0000
     36 ****         2.0016   2.5099   2.8901 H              1 S1                 0.0000
     37 ****         3.7812   0.3760   1.6480 H              1 S1                 0.0000
     38 ****         2.9168   0.2912   3.1862 H              1 S1                 0.0000
     39 ****        -3.9298   2.1500  -2.0841 LP             1 S1                 0.0000
     40 ****        -2.9473   3.4100  -2.4214 LP             1 S1                 0.0000
     41 ****        -2.8415  -2.1193  -0.7152 LP             1 S1                 0.0000
     42 ****         2.0743  -0.6033   0.8530 LP             1 S1                 0.0000
     43 ****         1.1010  -0.2520   2.1162 LP             1 S1                 0.0000
@<TRIPOS>BOND
    1    1    2 1     
    2    1   20 1     
    3    2    3 1     
    4    2   21 1     
    5    2   22 1     
    6    3    4 1     
    7    3   23 1     
    8    3   24 1     
    9    4    5 1     
   10    4   25 1     
   11    5   13 1     
   12    5    6 2     
   13    6    7 1     
   14    7   12 ar    
   15    7    8 ar    
   16    8    9 ar    
   17    8   26 1     
   18    9   10 ar    
   19    9   27 1     
   20   10   11 ar    
   21   10   28 1     
   22   11   12 ar    
   23   11   29 1     
   24   12   13 1     
   25   13   14 1     
   26   14   15 1     
   27   14   30 1     
   28   14   31 1     
   29   15   19 1     
   30   15   16 1     
   31   15   32 1     
   32   16   17 1     
   33   16   33 1     
   34   16   34 1     
   35   17   18 1     
   36   17   35 1     
   37   17   36 1     
   38   18   19 1     
   39   18   37 1     
   40   18   38 1     
   41    1   39 1     
   42    1   40 1     
   43    6   41 1     
   44   19   42 1     
   45   19   43 1     
@<TRIPOS>SUBSTRUCTURE
      1 S1             1
@<TRIPOS>SET
LONE_PAIRS      STATIC     ATOMS    <user>   **** ""
5 39 40 41 42 43
DONOR_HYDROGENS      STATIC     ATOMS    <user>   **** ""
2 20 25
ATOM$BLUE        STATIC     ATOMS    COLORGROUP SYSTEM
5 39 40 41 42 43
ATOM$RED        STATIC     ATOMS    COLORGROUP SYSTEM
2 20 25
