#       Name:                AV-unprocessed.smi:1334
#       Creating user name   scv26
#       Creation time:       Fri Mar 27 05:07:09 2020


#       File generated by GOLD software.
#

@<TRIPOS>MOLECULE
AV-unprocessed.smi:1334
    42    43     1
SMALL
NO_CHARGES


@<TRIPOS>ATOM
      1 ****        -1.6761  -3.0201   2.0308 C.3            1 S1                 0.0000
      2 ****        -1.5321  -1.5074   1.7652 C.3            1 S1                 0.0000
      3 ****        -0.0730  -1.0322   1.8263 C.2            1 S1                 0.0000
      4 ****         0.8468  -1.7960   1.5318 O.2            1 S1                 0.0000
      5 ****         0.1174   0.2434   2.2004 N.am           1 S1                 0.0000
      6 ****         1.4022   0.9354   2.2530 C.3            1 S1                 0.0000
      7 ****         1.4957   2.0342   1.1785 C.3            1 S1                 0.0000
      8 ****         1.3281   1.5212  -0.2445 C.2            1 S1                 0.0000
      9 ****         0.2733   1.8680  -1.0080 C.2            1 S1                 0.0000
     10 ****         0.0492   1.3719  -2.4248 C.3            1 S1                 0.0000
     11 ****         0.9195   0.1489  -2.7543 C.3            1 S1                 0.0000
     12 ****         2.3610   0.3594  -2.2755 C.3            1 S1                 0.0000
     13 ****         2.4213   0.5880  -0.7543 C.3            1 S1                 0.0000
     14 ****        -2.1344  -1.1077   0.4991 N.pl3          1 S1                 0.0000
     15 ****        -2.8750  -0.0375   0.2036 C.2            1 S1                 0.0000
     16 ****        -3.2306   0.0372  -1.0712 N.2            1 S1                 0.0000
     17 ****        -2.6207  -1.0900  -1.5439 C.2            1 S1                 0.0000
     18 ****        -1.9391  -1.8041  -0.6487 N.2            1 S1                 0.0000
     19 ****        -1.2679  -3.2871   3.0061 H              1 S1                 0.0000
     20 ****        -1.1592  -3.6212   1.2814 H              1 S1                 0.0000
     21 ****        -2.7253  -3.3166   2.0241 H              1 S1                 0.0000
     22 ****        -2.0783  -0.9897   2.5556 H              1 S1                 0.0000
     23 ****        -0.6985   0.7914   2.4308 H              1 S1                 0.0000
     24 ****         1.5002   1.3862   3.2407 H              1 S1                 0.0000
     25 ****         2.2381   0.2408   2.1570 H              1 S1                 0.0000
     26 ****         0.7402   2.7954   1.3784 H              1 S1                 0.0000
     27 ****         2.4588   2.5400   1.2531 H              1 S1                 0.0000
     28 ****        -0.4739   2.5446  -0.6197 H              1 S1                 0.0000
     29 ****        -1.0035   1.1275  -2.5613 H              1 S1                 0.0000
     30 ****         0.2736   2.1909  -3.1085 H              1 S1                 0.0000
     31 ****         0.5056  -0.7359  -2.2686 H              1 S1                 0.0000
     32 ****         0.8982  -0.0469  -3.8268 H              1 S1                 0.0000
     33 ****         2.9806  -0.4955  -2.5474 H              1 S1                 0.0000
     34 ****         2.7847   1.2231  -2.7894 H              1 S1                 0.0000
     35 ****         3.3985   0.9896  -0.4854 H              1 S1                 0.0000
     36 ****         2.3226  -0.3671  -0.2396 H              1 S1                 0.0000
     37 ****        -3.1593   0.7034   0.9363 H              1 S1                 0.0000
     38 ****        -2.6705  -1.3864  -2.5811 H              1 S1                 0.0000
     39 ****         0.6467  -2.7343   1.2500 LP             1 S1                 0.0000
     40 ****         1.7940  -1.4779   1.5745 LP             1 S1                 0.0000
     41 ****        -3.7841   0.7200  -1.5480 LP             1 S1                 0.0000
     42 ****        -1.4144  -2.6439  -0.7882 LP             1 S1                 0.0000
@<TRIPOS>BOND
    1    1    2 1     
    2    1   19 1     
    3    1   20 1     
    4    1   21 1     
    5    2    3 1     
    6    2   14 1     
    7    2   22 1     
    8    3    4 2     
    9    3    5 am    
   10    5    6 1     
   11    5   23 1     
   12    6    7 1     
   13    6   24 1     
   14    6   25 1     
   15    7    8 1     
   16    7   26 1     
   17    7   27 1     
   18    8   13 1     
   19    8    9 2     
   20    9   10 1     
   21    9   28 1     
   22   10   11 1     
   23   10   29 1     
   24   10   30 1     
   25   11   12 1     
   26   11   31 1     
   27   11   32 1     
   28   12   13 1     
   29   12   33 1     
   30   12   34 1     
   31   13   35 1     
   32   13   36 1     
   33   14   18 1     
   34   14   15 1     
   35   15   16 2     
   36   15   37 1     
   37   16   17 1     
   38   17   18 2     
   39   17   38 1     
   40    4   39 1     
   41    4   40 1     
   42   16   41 1     
   43   18   42 1     
@<TRIPOS>SUBSTRUCTURE
      1 S1             1
@<TRIPOS>SET
LONE_PAIRS      STATIC     ATOMS    <user>   **** ""
4 39 40 41 42
DONOR_HYDROGENS      STATIC     ATOMS    <user>   **** ""
1 23
ATOM$BLUE        STATIC     ATOMS    COLORGROUP SYSTEM
4 39 40 41 42
ATOM$RED        STATIC     ATOMS    COLORGROUP SYSTEM
1 23
