#       Name:                AV-unprocessed.smi:2889
#       Creating user name   scv26
#       Creation time:       Fri Mar 27 15:58:24 2020


#       File generated by GOLD software.
#

@<TRIPOS>MOLECULE
AV-unprocessed.smi:2889
    39    40     1
SMALL
NO_CHARGES


@<TRIPOS>ATOM
      1 ****         0.2929  -0.6718   3.4439 C.3            1 S1                 0.0000
      2 ****        -1.2255   0.1982   2.9646 S.3            1 S1                 0.0000
      3 ****        -1.5168  -0.4889   1.3004 C.3            1 S1                 0.0000
      4 ****        -3.0171  -0.8662   1.1634 C.3            1 S1                 0.0000
      5 ****        -3.3785  -1.4439  -0.2198 C.3            1 S1                 0.0000
      6 ****        -2.9326  -0.4579  -1.3165 C.3            1 S1                 0.0000
      7 ****        -1.4331  -0.0928  -1.2033 C.3            1 S1                 0.0000
      8 ****        -1.0352   0.4816   0.1810 C.3            1 S1                 0.0000
      9 ****         0.4103   0.6493   0.2377 N.pl3          1 S1                -1.0000
     10 ****         1.0791   2.0626  -0.1929 S.o2           1 S1                 0.0000
     11 ****         0.8767   2.3799  -1.6164 O.2            1 S1                 0.0000
     12 ****         0.7920   3.1285   0.7807 O.2            1 S1                 0.0000
     13 ****         2.8724   1.6695   0.0090 C.3            1 S1                 0.0000
     14 ****         3.3736   0.8598  -1.1564 C.2            1 S1                 0.0000
     15 ****         3.1232  -0.5087  -1.4563 C.2            1 S1                 0.0000
     16 ****         3.8187  -0.7156  -2.6119 C.2            1 S1                 0.0000
     17 ****         4.4554   0.4202  -2.9930 O.3            1 S1                 0.0000
     18 ****         4.1686   1.4195  -2.0560 N.2            1 S1                 0.0000
     19 ****         0.5883  -0.3792   4.4511 H              1 S1                 0.0000
     20 ****         1.1099  -0.4314   2.7640 H              1 S1                 0.0000
     21 ****         0.1343  -1.7500   3.4309 H              1 S1                 0.0000
     22 ****        -0.9489  -1.4175   1.2239 H              1 S1                 0.0000
     23 ****        -3.2775  -1.5965   1.9302 H              1 S1                 0.0000
     24 ****        -3.6439   0.0059   1.3618 H              1 S1                 0.0000
     25 ****        -2.8801  -2.4038  -0.3608 H              1 S1                 0.0000
     26 ****        -4.4505  -1.6307  -0.2873 H              1 S1                 0.0000
     27 ****        -3.1261  -0.8946  -2.2965 H              1 S1                 0.0000
     28 ****        -3.5445   0.4451  -1.2668 H              1 S1                 0.0000
     29 ****        -0.8426  -0.9872  -1.4089 H              1 S1                 0.0000
     30 ****        -1.1806   0.6211  -1.9879 H              1 S1                 0.0000
     31 ****        -1.5563   1.4305   0.3168 H              1 S1                 0.0000
     32 ****         3.4088   2.6158   0.0807 H              1 S1                 0.0000
     33 ****         3.0110   1.1442   0.9535 H              1 S1                 0.0000
     34 ****         2.5201  -1.2205  -0.9122 H              1 S1                 0.0000
     35 ****         3.9543  -1.5744  -3.2522 H              1 S1                 0.0000
     36 ****         0.9901  -0.1065   0.5420 LP             1 S1                 0.0000
     37 ****         4.1332   0.7015  -3.8969 LP             1 S1                 0.0000
     38 ****         5.4420   0.2602  -3.0256 LP             1 S1                 0.0000
     39 ****         4.4971   2.3640  -2.0640 LP             1 S1                 0.0000
@<TRIPOS>BOND
    1    1    2 1     
    2    1   19 1     
    3    1   20 1     
    4    1   21 1     
    5    2    3 1     
    6    3    8 1     
    7    3    4 1     
    8    3   22 1     
    9    4    5 1     
   10    4   23 1     
   11    4   24 1     
   12    5    6 1     
   13    5   25 1     
   14    5   26 1     
   15    6    7 1     
   16    6   27 1     
   17    6   28 1     
   18    7    8 1     
   19    7   29 1     
   20    7   30 1     
   21    8    9 1     
   22    8   31 1     
   23    9   10 1     
   24   10   11 2     
   25   10   12 2     
   26   10   13 1     
   27   13   14 1     
   28   13   32 1     
   29   13   33 1     
   30   14   18 2     
   31   14   15 1     
   32   15   16 2     
   33   15   34 1     
   34   16   17 1     
   35   16   35 1     
   36   17   18 1     
   37    9   36 1     
   38   17   37 1     
   39   17   38 1     
   40   18   39 1     
@<TRIPOS>SUBSTRUCTURE
      1 S1             1
@<TRIPOS>SET
LONE_PAIRS      STATIC     ATOMS    <user>   **** ""
6 36 11 12 37 38 39
ATOM$BLUE        STATIC     ATOMS    COLORGROUP SYSTEM
6 36 11 12 37 38 39
