AV-unprocessed.smi:2178|AV-procd|sdf|8853|dock4
  -GOLD-   2272012 43D 1   1.00000     0.00000
 Structure written by MMmdl.
 46 48  0  0  0  0  0  0  0  0  1 V2000
  149.6799  137.1996  155.0922 C   0  0  0  0  0  0  0  0  0  0  0  0
  149.6949  138.7168  155.0943 C   0  0  0  0  0  0  0  0  0  0  0  0
  150.8043  139.4037  155.6292 C   0  0  0  0  0  0  0  0  0  0  0  0
  150.8251  140.8106  155.6463 C   0  0  0  0  0  0  0  0  0  0  0  0
  149.7336  141.5365  155.1351 C   0  0  0  0  0  0  0  0  0  0  0  0
  148.6178  140.8605  154.5995 C   0  0  0  0  0  0  0  0  0  0  0  0
  147.4447  141.6640  154.0698 C   0  0  0  0  0  0  0  0  0  0  0  0
  148.6038  139.4456  154.5653 C   0  0  0  0  0  0  0  0  0  0  0  0
  147.5262  138.7749  154.0473 O   0  0  0  0  0  0  0  0  0  0  0  0
  147.4673  138.7986  152.6284 C   0  0  0  0  0  0  0  0  0  0  0  0
  146.2930  137.9253  152.1662 C   0  0  1  0  0  0  0  0  0  0  0  0
  146.4049  137.7192  150.7723 O   0  0  0  0  0  0  0  0  0  0  0  0
  146.2491  136.5688  152.8980 C   0  0  0  0  0  0  0  0  0  0  0  0
  145.1785  135.7079  152.4132 N   0  0  0  0  0  0  0  0  0  0  0  0
  143.8388  135.8488  152.5790 C   0  0  0  0  0  0  0  0  0  0  0  0
  143.2601  137.0065  153.3424 C   0  0  0  0  0  0  0  0  0  0  0  0
  142.7270  138.0277  152.5230 O   0  0  0  0  0  0  0  0  0  0  0  0
  143.0863  134.9001  152.0154 N   0  0  0  0  0  0  0  0  0  0  0  0
  144.0236  134.0691  151.4346 C   0  0  0  0  0  0  0  0  0  0  0  0
  143.8611  132.8795  150.6890 C   0  0  0  0  0  0  0  0  0  0  0  0
  144.9860  132.1922  150.1875 C   0  0  0  0  0  0  0  0  0  0  0  0
  146.2865  132.6844  150.4220 C   0  0  0  0  0  0  0  0  0  0  0  0
  146.4701  133.8682  151.1623 C   0  0  0  0  0  0  0  0  0  0  0  0
  145.3438  134.5486  151.6626 C   0  0  0  0  0  0  0  0  0  0  0  0
  150.4895  136.7937  155.6993 H   0  0  0  0  0  0  0  0  0  0  0  0
  149.7936  136.8197  154.0769 H   0  0  0  0  0  0  0  0  0  0  0  0
  148.7386  136.8261  155.4962 H   0  0  0  0  0  0  0  0  0  0  0  0
  151.6435  138.8547  156.0306 H   0  0  0  0  0  0  0  0  0  0  0  0
  151.6765  141.3330  156.0569 H   0  0  0  0  0  0  0  0  0  0  0  0
  149.7547  142.6164  155.1588 H   0  0  0  0  0  0  0  0  0  0  0  0
  146.4997  141.1606  154.2755 H   0  0  0  0  0  0  0  0  0  0  0  0
  147.5365  141.8013  152.9924 H   0  0  0  0  0  0  0  0  0  0  0  0
  147.4043  142.6487  154.5362 H   0  0  0  0  0  0  0  0  0  0  0  0
  147.3223  139.8271  152.2952 H   0  0  0  0  0  0  0  0  0  0  0  0
  148.4009  138.4458  152.1863 H   0  0  0  0  0  0  0  0  0  0  0  0
  145.3621  138.4660  152.3412 H   0  0  0  0  0  0  0  0  0  0  0  0
  145.5356  137.6813  150.4035 H   0  0  0  0  0  0  0  0  0  0  0  0
  147.2063  136.0548  152.8126 H   0  0  0  0  0  0  0  0  0  0  0  0
  146.0885  136.7275  153.9647 H   0  0  0  0  0  0  0  0  0  0  0  0
  142.4670  136.6476  153.9980 H   0  0  0  0  0  0  0  0  0  0  0  0
  144.0372  137.4381  153.9739 H   0  0  0  0  0  0  0  0  0  0  0  0
  143.3077  138.7720  152.5548 H   0  0  0  0  0  0  0  0  0  0  0  0
  142.8692  132.4951  150.5033 H   0  0  0  0  0  0  0  0  0  0  0  0
  144.8502  131.2832  149.6200 H   0  0  0  0  0  0  0  0  0  0  0  0
  147.1427  132.1524  150.0338 H   0  0  0  0  0  0  0  0  0  0  0  0
  147.4645  134.2479  151.3446 H   0  0  0  0  0  0  0  0  0  0  0  0
  1  2  1  0  0  0  0
  1 25  1  0  0  0  0
  1 26  1  0  0  0  0
  1 27  1  0  0  0  0
  2  8  1  0  0  0  0
  2  3  2  0  0  0  0
  3  4  1  0  0  0  0
  3 28  1  0  0  0  0
  4  5  2  0  0  0  0
  4 29  1  0  0  0  0
  5  6  1  0  0  0  0
  5 30  1  0  0  0  0
  6  7  1  0  0  0  0
  6  8  2  0  0  0  0
  7 31  1  0  0  0  0
  7 32  1  0  0  0  0
  7 33  1  0  0  0  0
  8  9  1  0  0  0  0
  9 10  1  0  0  0  0
 10 11  1  0  0  0  0
 10 34  1  0  0  0  0
 10 35  1  0  0  0  0
 11 12  1  0  0  0  0
 11 13  1  0  0  0  0
 11 36  1  0  0  0  0
 12 37  1  0  0  0  0
 13 14  1  0  0  0  0
 13 38  1  0  0  0  0
 13 39  1  0  0  0  0
 14 24  1  0  0  0  0
 14 15  1  0  0  0  0
 15 16  1  0  0  0  0
 15 18  2  0  0  0  0
 16 17  1  0  0  0  0
 16 40  1  0  0  0  0
 16 41  1  0  0  0  0
 17 42  1  0  0  0  0
 18 19  1  0  0  0  0
 19 24  2  0  0  0  0
 19 20  1  0  0  0  0
 20 21  2  0  0  0  0
 20 43  1  0  0  0  0
 21 22  1  0  0  0  0
 21 44  1  0  0  0  0
 22 23  2  0  0  0  0
 22 45  1  0  0  0  0
 23 24  1  0  0  0  0
 23 46  1  0  0  0  0
M  END
> <s_m_source_file>
AV-unprocessed.smi

> <i_m_source_file_index>
2178

> <i_lp_mmshare_version>
43012

> <i_f3d_flags>
0

> <s_epik_input>
W0NIM11jMVtjSF1bY0hdW2NIXWMoW0NIM10pYzFPW0NIMl1bQ0BIXShbT0hdKVtDSDJdbihjKG4yKVtDSDJdW09IXSljKGMyMylbY0hdW2NIXVtjSF1bY0hdMw==

> <s_epik_cmdline>
J2VwaWtfcHl0aG9uJywgJy1waCcsICc3LjAnLCAnLXRuJywgJzgnLCAnLW1hJywgJzIwMCcsICctbWV0YWxfYmluZGluZycsICctaW1hZScsICc8aW5maWxlLm1hZT4nLCAnLW9tYWUnLCAnPG91dGZpbGUubWFlPic=

> <r_lp_tautomer_probability>
1

> <r_epik_Ionization_Penalty>
0.0555874

> <r_epik_Ionization_Penalty_Charging>
0

> <r_epik_Ionization_Penalty_Neutral>
0.0555874

> <r_epik_State_Penalty>
0.0478234

> <r_epik_Charging_Adjusted_Penalty>
0.0478234

> <i_epik_Tot_Q>
0

> <i_epik_Tot_abs_Q>
0

> <r_epik_Metal_State_Penalty>
4.98044e-05

> <b_epik_Metal_Only>
0

> <s_lp_Force_Field>
OPLS_2005

> <r_lp_Energy>
18.9383

> <b_lp_Chiralities_Consistent>
1

> <s_lp_Variant>
AV-unprocessed.smi:2178-2

> <Gold.Version>
5.8.1

> <Gold.Id.Protein>
6NUR|6NUR_protein|mol2

> <Gold.PLP.Fitness>
51.6724

> <Gold.PLP.PLP>
-43.7553

> <Gold.PLP.part.hbond>
-4.2971

> <Gold.PLP.part.metal>
0.0000

> <Gold.PLP.part.buried>
-0.9038

> <Gold.PLP.part.nonpolar>
-40.2831

> <Gold.PLP.part.repulsive>
0.3851

> <Gold.PLP.ligand.clash>
0.0000

> <Gold.PLP.ligand.torsion>
0.6290

> <Gold.PLP.Chemscore.Hbond>
3.0000

> <Gold.PLP.Chemscore.CHOScore>
0.0000

> <Gold.PLP.Chemscore.Metal>
0.0000

> <Gold.Chemscore.Hbonds>
donor molecule, donor type, donor heavy atom, donor atom, acceptor molecule, acceptor atom, score
      L1  H    12    37       P1 10171  1.00
      L1  H    17    42       P1 10175  1.00
      P1  H  7954  7966       L1    12  1.00

> <Gold.PLP.Chemscore.Internal.Correction>
0.1750

> <Gold.Rescore>
     Score         DG    S(hbond)    S(metal)    S(lipo)     H(rot)  DE(clash)    DE(int)     intcor
     18.64     -20.69       2.92        0.00     111.46       2.96       1.72       0.33       ----

> <Gold.Chemscore.Fitness>
18.6385

> <Gold.Chemscore.DG>
-20.6916

> <Gold.Chemscore.ZeroCoef>
-5.4800

> <Gold.Chemscore.Hbond>
2.9159

> <Gold.Chemscore.Metal>
0.0000

> <Gold.Chemscore.Lipo>
111.4556

> <Gold.Chemscore.Internal_Hbond>
0.0000

> <Gold.Chemscore.DEClash>
1.7244

> <Gold.Chemscore.DEInternal>
0.3287

> <Gold.Chemscore.Rot>
2.9561

> <Gold.Chemscore.Internal.Correction>
   9.000000E+99

> <Gold.Chemscore.Hbonds>
donor molecule, donor type, donor heavy atom, donor atom, acceptor molecule, acceptor atom, score
      L1  H    12    37       P1 10171  0.92
      L1  H    17    42       P1 10175  0.96
      P1  H  7954  7966       L1    12  0.94

> <Gold.Chemscore.Hbond.Weighted>
-9.7390

> <Gold.Chemscore.Metal.Weighted>
-0.0000

> <Gold.Chemscore.Lipo.Weighted>
-13.0403

> <Gold.Chemscore.Internal_Hbond.Weighted>
0.0000

> <Gold.Chemscore.DEClash.Weighted>
1.7244

> <Gold.Chemscore.DEInternal.Weighted>
0.3287

> <Gold.Chemscore.Rot.Weighted>
7.5677

> <Gold.Chemscore.Internal.Correction.Weighted>
   9.000000E+99

> <Gold.Protein.RotatedTorsions>
[ 6907 6896 6895 6894 ] final -118.08 input  -60.11 | X-H torsion
[ 7974 7965 7964 7962 ] final   11.60 input  175.53 | X-H torsion
[ 8008 7997 7996 7995 ] final -165.30 input   59.86 | X-H torsion
[ 10167 10162 10161 10158 ] final   53.56 input  -65.29 | X-H torsion
[ 10718 10713 10712 10709 ] final  -81.50 input   66.30 | X-H torsion
[ 10763 10752 10751 10750 ] final   43.25 input  -60.55 | X-H torsion
[ 11005 11000 10999 10996 ] final   27.01 input  -57.11 | X-H torsion

> <Gold.Protein.ActiveResidues>
 VAL166  LYS551  ARG553  GLY616  TRP617  ASP618  TYR619  PRO620  LYS621  CYS622 
 ASP623  PHE694  ASN695  SER759  ASP760  ASP761  ALA762  ILE779  LEU786  VAL792 
 PHE793  MET794  SER795  GLU796  ALA797  LYS798  CYS799  TRP800  GLU811  SER814 

> <Gold.Protein.RotatedAtoms>
  150.8189  133.8287  159.3147 H   0  0  0  0  0  0  0  0  0  0  0  0  # atno 6907 bound_to 6896
  151.6051  135.1043  160.0078 H   0  0  0  0  0  0  0  0  0  0  0  0  # atno 6908 bound_to 6896
  152.4279  133.7187  159.6577 H   0  0  0  0  0  0  0  0  0  0  0  0  # atno 6909 bound_to 6896
  146.2368  139.9460  142.8477 H   0  0  0  0  0  0  0  0  0  0  0  0  # atno 7974 bound_to 7965
  155.8479  140.0958  157.1693 H   0  0  0  0  0  0  0  0  0  0  0  0  # atno 8008 bound_to 7997
  154.3984  140.1389  156.3870 H   0  0  0  0  0  0  0  0  0  0  0  0  # atno 8009 bound_to 7997
  155.7994  140.3453  155.5396 H   0  0  0  0  0  0  0  0  0  0  0  0  # atno 8010 bound_to 7997
  140.2395  144.3599  150.6385 H   0  0  0  0  0  0  0  0  0  0  0  0  # atno 10167 bound_to 10162
  156.0049  130.4606  150.3962 H   0  0  0  0  0  0  0  0  0  0  0  0  # atno 10718 bound_to 10713
  152.9865  135.6107  154.3080 H   0  0  0  0  0  0  0  0  0  0  0  0  # atno 10763 bound_to 10752
  154.2797  135.2777  155.2704 H   0  0  0  0  0  0  0  0  0  0  0  0  # atno 10764 bound_to 10752
  154.5048  135.5857  153.6616 H   0  0  0  0  0  0  0  0  0  0  0  0  # atno 10765 bound_to 10752
  140.3309  134.2439  155.7702 H   0  0  0  0  0  0  0  0  0  0  0  0  # atno 11005 bound_to 11000
  145.1906  140.9810  143.4213 LP  0  0  0  0  0  0  0  0  0  0  0  0  # atno 17320 bound_to 7965
  144.9860  139.3736  143.6238 LP  0  0  0  0  0  0  0  0  0  0  0  0  # atno 17321 bound_to 7965
  140.6124  143.2170  151.6859 LP  0  0  0  0  0  0  0  0  0  0  0  0  # atno 17342 bound_to 10162
  139.5082  144.3619  152.0554 LP  0  0  0  0  0  0  0  0  0  0  0  0  # atno 17343 bound_to 10162
  157.2034  131.0443  151.2638 LP  0  0  0  0  0  0  0  0  0  0  0  0  # atno 17370 bound_to 10713
  157.3955  130.7305  149.6728 LP  0  0  0  0  0  0  0  0  0  0  0  0  # atno 17371 bound_to 10713
  141.2063  133.7835  157.0182 LP  0  0  0  0  0  0  0  0  0  0  0  0  # atno 17394 bound_to 11000
  140.0861  134.9620  157.1703 LP  0  0  0  0  0  0  0  0  0  0  0  0  # atno 17395 bound_to 11000

$$$$
