AV-unprocessed.smi:271|AV-procd|sdf|2051|dock9
  -GOLD-   2262021283D 1   1.00000     0.00000
 Structure written by MMmdl.
 58 60  0  0  0  0  0  0  0  0  1 V2000
  152.5525  143.0810  159.9650 C   0  0  0  0  0  0  0  0  0  0  0  0
  152.1449  144.1009  158.8909 C   0  0  0  0  0  0  0  0  0  0  0  0
  151.7740  145.4432  159.5445 C   0  0  0  0  0  0  0  0  0  0  0  0
  151.0024  143.5464  158.0184 C   0  0  0  0  0  0  0  0  0  0  0  0
  151.3932  142.2904  157.2081 C   0  0  0  0  0  0  0  0  0  0  0  0
  150.3725  141.2406  157.2154 N   0  0  0  0  0  0  0  0  0  0  0  0
  150.8940  139.8762  157.2394 C   0  0  0  0  0  0  0  0  0  0  0  0
  151.8123  139.5544  156.0498 C   0  0  0  0  0  0  0  0  0  0  0  0
  151.7601  138.1346  155.6719 C   0  0  0  0  0  0  0  0  0  0  0  0
  151.7187  137.0173  155.3743 N   0  0  0  0  0  0  0  0  0  0  0  0
  149.4061  141.4155  156.2853 C   0  0  0  0  0  0  0  0  0  0  0  0
  149.7279  141.1407  154.9973 N   0  0  0  0  0  0  0  0  0  0  0  0
  148.7985  141.2388  154.0420 C   0  0  0  0  0  0  0  0  0  0  0  0
  147.5118  141.5738  154.1598 N   0  0  0  0  0  0  0  0  0  0  0  0
  147.1894  141.8571  155.4545 C   0  0  0  0  0  0  0  0  0  0  0  0
  148.0719  141.8223  156.5695 C   0  0  0  0  0  0  0  0  0  0  0  0
  147.3927  142.1900  157.7248 N   0  0  0  0  0  0  0  0  0  0  0  0
  146.1711  142.4056  157.3204 C   0  0  0  0  0  0  0  0  0  0  0  0
  145.9535  142.1934  155.9774 N   0  0  0  0  0  0  0  0  0  0  0  0
  144.6912  142.3180  155.2727 C   0  0  0  0  0  0  0  0  0  0  0  0
  144.1776  143.7765  155.1322 C   0  0  2  0  0  0  0  0  0  0  0  0
  142.6900  143.7526  154.7104 C   0  0  0  0  0  0  0  0  0  0  0  0
  142.4388  142.7634  153.7324 O   0  0  0  0  0  0  0  0  0  0  0  0
  145.0487  144.6877  154.2150 C   0  0  1  0  0  0  0  0  0  0  0  0
  145.5406  144.0213  152.9390 C   0  0  0  0  0  0  0  0  0  0  0  0
  145.9272  145.2155  152.0795 C   0  0  0  0  0  0  0  0  0  0  0  0
  144.9213  146.1787  152.3487 O   0  0  0  0  0  0  0  0  0  0  0  0
  144.3442  145.9238  153.6261 C   0  0  0  0  0  0  0  0  0  0  0  0
  151.7253  142.8677  160.6429 H   0  0  0  0  0  0  0  0  0  0  0  0
  153.3856  143.4512  160.5633 H   0  0  0  0  0  0  0  0  0  0  0  0
  152.8664  142.1386  159.5154 H   0  0  0  0  0  0  0  0  0  0  0  0
  153.0138  144.2631  158.2518 H   0  0  0  0  0  0  0  0  0  0  0  0
  150.8877  145.3466  160.1726 H   0  0  0  0  0  0  0  0  0  0  0  0
  151.5721  146.2133  158.8008 H   0  0  0  0  0  0  0  0  0  0  0  0
  152.5858  145.8100  160.1731 H   0  0  0  0  0  0  0  0  0  0  0  0
  150.1544  143.2896  158.6548 H   0  0  0  0  0  0  0  0  0  0  0  0
  150.6543  144.3429  157.3594 H   0  0  0  0  0  0  0  0  0  0  0  0
  151.6288  142.5546  156.1782 H   0  0  0  0  0  0  0  0  0  0  0  0
  152.3102  141.8755  157.6279 H   0  0  0  0  0  0  0  0  0  0  0  0
  151.4246  139.7030  158.1766 H   0  0  0  0  0  0  0  0  0  0  0  0
  150.0506  139.1848  157.2310 H   0  0  0  0  0  0  0  0  0  0  0  0
  151.5249  140.1414  155.1769 H   0  0  0  0  0  0  0  0  0  0  0  0
  152.8514  139.7925  156.2767 H   0  0  0  0  0  0  0  0  0  0  0  0
  149.1305  141.0034  153.0416 H   0  0  0  0  0  0  0  0  0  0  0  0
  145.3848  142.6992  158.0006 H   0  0  0  0  0  0  0  0  0  0  0  0
  144.8034  141.8627  154.2881 H   0  0  0  0  0  0  0  0  0  0  0  0
  143.9582  141.7136  155.8083 H   0  0  0  0  0  0  0  0  0  0  0  0
  144.1908  144.2220  156.1274 H   0  0  0  0  0  0  0  0  0  0  0  0
  142.0541  143.5565  155.5742 H   0  0  0  0  0  0  0  0  0  0  0  0
  142.3758  144.7204  154.3200 H   0  0  0  0  0  0  0  0  0  0  0  0
  142.9380  142.9725  152.9577 H   0  0  0  0  0  0  0  0  0  0  0  0
  145.9244  145.0237  154.7731 H   0  0  0  0  0  0  0  0  0  0  0  0
  146.3771  143.3412  153.1027 H   0  0  0  0  0  0  0  0  0  0  0  0
  144.7332  143.4649  152.4602 H   0  0  0  0  0  0  0  0  0  0  0  0
  146.8942  145.6143  152.3891 H   0  0  0  0  0  0  0  0  0  0  0  0
  145.9791  144.9748  151.0176 H   0  0  0  0  0  0  0  0  0  0  0  0
  143.2785  145.7448  153.4806 H   0  0  0  0  0  0  0  0  0  0  0  0
  144.4560  146.8015  154.2610 H   0  0  0  0  0  0  0  0  0  0  0  0
  1  2  1  0  0  0  0
  1 29  1  0  0  0  0
  1 30  1  0  0  0  0
  1 31  1  0  0  0  0
  2  3  1  0  0  0  0
  2  4  1  0  0  0  0
  2 32  1  0  0  0  0
  3 33  1  0  0  0  0
  3 34  1  0  0  0  0
  3 35  1  0  0  0  0
  4  5  1  0  0  0  0
  4 36  1  0  0  0  0
  4 37  1  0  0  0  0
  5  6  1  0  0  0  0
  5 38  1  0  0  0  0
  5 39  1  0  0  0  0
  6  7  1  0  0  0  0
  6 11  1  0  0  0  0
  7  8  1  0  0  0  0
  7 40  1  0  0  0  0
  7 41  1  0  0  0  0
  8  9  1  0  0  0  0
  8 42  1  0  0  0  0
  8 43  1  0  0  0  0
  9 10  3  0  0  0  0
 11 16  1  0  0  0  0
 11 12  2  0  0  0  0
 12 13  1  0  0  0  0
 13 14  2  0  0  0  0
 13 44  1  0  0  0  0
 14 15  1  0  0  0  0
 15 19  1  0  0  0  0
 15 16  2  0  0  0  0
 16 17  1  0  0  0  0
 17 18  2  0  0  0  0
 18 19  1  0  0  0  0
 18 45  1  0  0  0  0
 19 20  1  0  0  0  0
 20 21  1  0  0  0  0
 20 46  1  0  0  0  0
 20 47  1  0  0  0  0
 21 22  1  0  0  0  0
 21 24  1  0  0  0  0
 21 48  1  0  0  0  0
 22 23  1  0  0  0  0
 22 49  1  0  0  0  0
 22 50  1  0  0  0  0
 23 51  1  0  0  0  0
 24 28  1  0  0  0  0
 24 25  1  0  0  0  0
 24 52  1  0  0  0  0
 25 26  1  0  0  0  0
 25 53  1  0  0  0  0
 25 54  1  0  0  0  0
 26 27  1  0  0  0  0
 26 55  1  0  0  0  0
 26 56  1  0  0  0  0
 27 28  1  0  0  0  0
 28 57  1  0  0  0  0
 28 58  1  0  0  0  0
M  END
> <s_m_source_file>
AV-unprocessed.smi

> <i_m_source_file_index>
271

> <i_lp_mmshare_version>
43012

> <i_f3d_flags>
0

> <s_epik_input>
W0NIM11bQ0hdKFtDSDNdKVtDSDJdW0NIMl1OKFtDSDJdW0NIMl1DI04pYyhuW2NIXW4xKWMoYzEyKW5bY0hdbjJbQ0gyXVtDQEhdKFtDSDJdW09IXSlbQ0BASF0zW0NIMl1bQ0gyXU9bQ0gyXTM=

> <s_epik_cmdline>
J2VwaWtfcHl0aG9uJywgJy1waCcsICc3LjAnLCAnLXRuJywgJzgnLCAnLW1hJywgJzIwMCcsICctbWV0YWxfYmluZGluZycsICctaW1hZScsICc8aW5maWxlLm1hZT4nLCAnLW9tYWUnLCAnPG91dGZpbGUubWFlPic=

> <r_lp_tautomer_probability>
1

> <r_epik_Ionization_Penalty>
0.000825874

> <r_epik_Ionization_Penalty_Charging>
0

> <r_epik_Ionization_Penalty_Neutral>
0.000825874

> <r_epik_State_Penalty>
0.000396768

> <r_epik_Charging_Adjusted_Penalty>
0.000396768

> <i_epik_Tot_Q>
0

> <i_epik_Tot_abs_Q>
0

> <r_epik_Metal_State_Penalty>
-0

> <b_epik_Metal_Only>
0

> <s_lp_Force_Field>
OPLS_2005

> <r_lp_Energy>
35.9661

> <b_lp_Chiralities_Consistent>
1

> <s_lp_Variant>
AV-unprocessed.smi:271-3

> <Gold.Version>
5.8.1

> <Gold.Id.Protein>
6NUR|6NUR_protein|mol2

> <Gold.PLP.Fitness>
56.2924

> <Gold.PLP.PLP>
-50.8855

> <Gold.PLP.part.hbond>
-4.7152

> <Gold.PLP.part.metal>
0.0000

> <Gold.PLP.part.buried>
-7.7576

> <Gold.PLP.part.nonpolar>
-40.5163

> <Gold.PLP.part.repulsive>
0.6027

> <Gold.PLP.ligand.clash>
0.0000

> <Gold.PLP.ligand.torsion>
2.0023

> <Gold.PLP.Chemscore.Hbond>
1.8564

> <Gold.PLP.Chemscore.CHOScore>
1.0000

> <Gold.PLP.Chemscore.Metal>
0.0000

> <Gold.Chemscore.Hbonds>
donor molecule, donor type, donor heavy atom, donor atom, acceptor molecule, acceptor atom, score
      P1  H  7989  7998       L1    12  0.01
      P1  H 10752 10764       L1    10  0.77
      L1  C    13    44       P1  7957  1.00

> <Gold.PLP.Chemscore.Internal.Correction>
0.8422

> <Gold.Rescore>
     Score         DG    S(hbond)    S(metal)    S(lipo)     H(rot)  DE(clash)    DE(int)     intcor
      8.66     -13.12       1.66        0.00     100.47       3.77       1.70       2.76       ----

> <Gold.Chemscore.Fitness>
8.6628

> <Gold.Chemscore.DG>
-13.1214

> <Gold.Chemscore.ZeroCoef>
-5.4800

> <Gold.Chemscore.Hbond>
1.6567

> <Gold.Chemscore.Metal>
0.0000

> <Gold.Chemscore.Lipo>
100.4672

> <Gold.Chemscore.Internal_Hbond>
0.0000

> <Gold.Chemscore.DEClash>
1.6995

> <Gold.Chemscore.DEInternal>
2.7591

> <Gold.Chemscore.Rot>
3.7683

> <Gold.Chemscore.Internal.Correction>
   9.000000E+99

> <Gold.Chemscore.Hbonds>
donor molecule, donor type, donor heavy atom, donor atom, acceptor molecule, acceptor atom, score
      P1  H  7989  7998       L1    12  0.01
      P1  H 10752 10764       L1    10  0.74

> <Gold.Chemscore.Hbond.Weighted>
-5.5335

> <Gold.Chemscore.Metal.Weighted>
-0.0000

> <Gold.Chemscore.Lipo.Weighted>
-11.7547

> <Gold.Chemscore.Internal_Hbond.Weighted>
0.0000

> <Gold.Chemscore.DEClash.Weighted>
1.6995

> <Gold.Chemscore.DEInternal.Weighted>
2.7591

> <Gold.Chemscore.Rot.Weighted>
9.6468

> <Gold.Chemscore.Internal.Correction.Weighted>
   9.000000E+99

> <Gold.Protein.RotatedTorsions>
[ 6907 6896 6895 6894 ] final  -71.18 input  -60.11 | X-H torsion
[ 7974 7965 7964 7962 ] final  154.10 input  175.53 | X-H torsion
[ 8008 7997 7996 7995 ] final   54.53 input   59.86 | X-H torsion
[ 10167 10162 10161 10158 ] final  -84.82 input  -65.29 | X-H torsion
[ 10718 10713 10712 10709 ] final  138.59 input   66.30 | X-H torsion
[ 10763 10752 10751 10750 ] final  -73.30 input  -60.55 | X-H torsion
[ 11005 11000 10999 10996 ] final -151.95 input  -57.11 | X-H torsion

> <Gold.Protein.ActiveResidues>
 VAL166  LYS551  ARG553  GLY616  TRP617  ASP618  TYR619  PRO620  LYS621  CYS622 
 ASP623  PHE694  ASN695  SER759  ASP760  ASP761  ALA762  ILE779  LEU786  VAL792 
 PHE793  MET794  SER795  GLU796  ALA797  LYS798  CYS799  TRP800  GLU811  SER814 

> <Gold.Protein.RotatedAtoms>
  150.7224  134.5346  159.5716 H   0  0  0  0  0  0  0  0  0  0  0  0  # atno 6907 bound_to 6896
  152.2871  134.7761  160.0394 H   0  0  0  0  0  0  0  0  0  0  0  0  # atno 6908 bound_to 6896
  151.8387  133.3384  159.3673 H   0  0  0  0  0  0  0  0  0  0  0  0  # atno 6909 bound_to 6896
  144.8110  139.6889  143.6141 H   0  0  0  0  0  0  0  0  0  0  0  0  # atno 7974 bound_to 7965
  155.4863  140.3470  155.4347 H   0  0  0  0  0  0  0  0  0  0  0  0  # atno 8008 bound_to 7997
  156.1006  140.1434  156.9500 H   0  0  0  0  0  0  0  0  0  0  0  0  # atno 8009 bound_to 7997
  154.4691  140.0907  156.7077 H   0  0  0  0  0  0  0  0  0  0  0  0  # atno 8010 bound_to 7997
  140.4096  143.2628  151.9035 H   0  0  0  0  0  0  0  0  0  0  0  0  # atno 10167 bound_to 10162
  157.4237  131.1041  151.0326 H   0  0  0  0  0  0  0  0  0  0  0  0  # atno 10718 bound_to 10713
  154.4576  135.5902  153.6234 H   0  0  0  0  0  0  0  0  0  0  0  0  # atno 10763 bound_to 10752
  152.9820  135.6036  154.3527 H   0  0  0  0  0  0  0  0  0  0  0  0  # atno 10764 bound_to 10752
  154.3395  135.2842  155.2409 H   0  0  0  0  0  0  0  0  0  0  0  0  # atno 10765 bound_to 10752
  140.7240  134.3695  157.5178 H   0  0  0  0  0  0  0  0  0  0  0  0  # atno 11005 bound_to 11000
  146.2409  139.5999  142.9492 LP  0  0  0  0  0  0  0  0  0  0  0  0  # atno 17320 bound_to 7965
  145.5323  141.0426  143.2376 LP  0  0  0  0  0  0  0  0  0  0  0  0  # atno 17321 bound_to 7965
  139.4783  144.5550  151.8327 LP  0  0  0  0  0  0  0  0  0  0  0  0  # atno 17342 bound_to 10162
  140.4652  144.1665  150.5911 LP  0  0  0  0  0  0  0  0  0  0  0  0  # atno 17343 bound_to 10162
  157.1247  130.6077  149.5514 LP  0  0  0  0  0  0  0  0  0  0  0  0  # atno 17370 bound_to 10713
  155.9889  130.4934  150.7191 LP  0  0  0  0  0  0  0  0  0  0  0  0  # atno 17371 bound_to 10713
  139.8841  134.8974  156.2723 LP  0  0  0  0  0  0  0  0  0  0  0  0  # atno 17394 bound_to 11000
  140.9978  133.7169  156.0913 LP  0  0  0  0  0  0  0  0  0  0  0  0  # atno 17395 bound_to 11000

$$$$
