AV-unprocessed.smi:1846|AV-procd|sdf|7514|dock6
  -GOLD-   22720 9223D 1   1.00000     0.00000
 Structure written by MMmdl.
 37 38  0  0  0  0  0  0  0  0  1 V2000
  147.1217  135.2104  161.2923 C   0  0  0  0  0  0  0  0  0  0  0  0
  146.8688  135.0980  159.7817 C   0  0  0  0  0  0  0  0  0  0  0  0
  147.9091  134.3045  159.1112 N   0  0  0  0  0  0  0  0  0  0  0  0
  148.0957  132.9552  159.6627 C   0  0  0  0  0  0  0  0  0  0  0  0
  146.7626  132.1999  159.7794 C   0  0  0  0  0  0  0  0  0  0  0  0
  148.6117  134.8092  158.0650 C   0  0  0  0  0  0  0  0  0  0  0  0
  149.4719  134.1455  157.4814 O   0  0  0  0  0  0  0  0  0  0  0  0
  148.3472  136.2600  157.6111 C   0  0  0  0  0  0  0  0  0  0  0  0
  149.5553  137.1377  157.7861 C   0  0  0  0  0  0  0  0  0  0  0  0
  150.8416  136.7306  158.0442 C   0  0  0  0  0  0  0  0  0  0  0  0
  151.9415  138.0765  158.1623 S   0  0  0  0  0  0  0  0  0  0  0  0
  150.5855  139.1672  157.8610 C   0  0  0  0  0  0  0  0  0  0  0  0
  150.6429  140.5907  157.7910 N   0  0  0  0  0  0  0  0  0  0  0  0
  151.5259  141.3658  158.6567 C   0  0  0  0  0  0  0  0  0  0  0  0
  151.2705  142.8108  158.2402 C   0  0  0  0  0  0  0  0  0  0  0  0
  150.2757  142.6573  157.2049 N   0  0  0  0  0  0  0  0  0  0  0  0
  149.9337  141.3888  156.9685 C   0  0  0  0  0  0  0  0  0  0  0  0
  149.1025  141.0465  156.1298 O   0  0  0  0  0  0  0  0  0  0  0  0
  149.4233  138.5273  157.6949 N   0  0  0  0  0  0  0  0  0  0  0  0
  146.3486  135.8130  161.7690 H   0  0  0  0  0  0  0  0  0  0  0  0
  148.0829  135.6831  161.4953 H   0  0  0  0  0  0  0  0  0  0  0  0
  147.1205  134.2323  161.7738 H   0  0  0  0  0  0  0  0  0  0  0  0
  145.8852  134.6604  159.6026 H   0  0  0  0  0  0  0  0  0  0  0  0
  146.8167  136.0978  159.3486 H   0  0  0  0  0  0  0  0  0  0  0  0
  148.7749  132.3874  159.0248 H   0  0  0  0  0  0  0  0  0  0  0  0
  148.5948  132.9897  160.6312 H   0  0  0  0  0  0  0  0  0  0  0  0
  146.9199  131.2028  160.1914 H   0  0  0  0  0  0  0  0  0  0  0  0
  146.2919  132.0825  158.8031 H   0  0  0  0  0  0  0  0  0  0  0  0
  146.0544  132.7160  160.4266 H   0  0  0  0  0  0  0  0  0  0  0  0
  148.0388  136.2805  156.5670 H   0  0  0  0  0  0  0  0  0  0  0  0
  147.5117  136.6548  158.1898 H   0  0  0  0  0  0  0  0  0  0  0  0
  151.2089  135.7222  158.1636 H   0  0  0  0  0  0  0  0  0  0  0  0
  151.2765  141.2037  159.7064 H   0  0  0  0  0  0  0  0  0  0  0  0
  152.5675  141.0831  158.4983 H   0  0  0  0  0  0  0  0  0  0  0  0
  150.8806  143.4119  159.0623 H   0  0  0  0  0  0  0  0  0  0  0  0
  152.1673  143.2881  157.8434 H   0  0  0  0  0  0  0  0  0  0  0  0
  149.8799  143.4459  156.7137 H   0  0  0  0  0  0  0  0  0  0  0  0
  1  2  1  0  0  0  0
  1 20  1  0  0  0  0
  1 21  1  0  0  0  0
  1 22  1  0  0  0  0
  2  3  1  0  0  0  0
  2 23  1  0  0  0  0
  2 24  1  0  0  0  0
  3  4  1  0  0  0  0
  3  6  1  0  0  0  0
  4  5  1  0  0  0  0
  4 25  1  0  0  0  0
  4 26  1  0  0  0  0
  5 27  1  0  0  0  0
  5 28  1  0  0  0  0
  5 29  1  0  0  0  0
  6  7  2  0  0  0  0
  6  8  1  0  0  0  0
  8  9  1  0  0  0  0
  8 30  1  0  0  0  0
  8 31  1  0  0  0  0
  9 19  1  0  0  0  0
  9 10  2  0  0  0  0
 10 11  1  0  0  0  0
 10 32  1  0  0  0  0
 11 12  1  0  0  0  0
 12 13  1  0  0  0  0
 12 19  2  0  0  0  0
 13 17  1  0  0  0  0
 13 14  1  0  0  0  0
 14 15  1  0  0  0  0
 14 33  1  0  0  0  0
 14 34  1  0  0  0  0
 15 16  1  0  0  0  0
 15 35  1  0  0  0  0
 15 36  1  0  0  0  0
 16 17  1  0  0  0  0
 16 37  1  0  0  0  0
 17 18  2  0  0  0  0
M  END
> <s_m_source_file>
AV-unprocessed.smi

> <i_m_source_file_index>
1846

> <i_lp_mmshare_version>
43012

> <i_f3d_flags>
0

> <s_epik_input>
W0NIM11bQ0gyXU4oW0NIMl1bQ0gzXSlDKD1PKVtDSDJdYzFbY0hdc2MobjEpTjJbQ0gyXVtDSDJdW05IXUMyPU8=

> <s_epik_cmdline>
J2VwaWtfcHl0aG9uJywgJy1waCcsICc3LjAnLCAnLXRuJywgJzgnLCAnLW1hJywgJzIwMCcsICctbWV0YWxfYmluZGluZycsICctaW1hZScsICc8aW5maWxlLm1hZT4nLCAnLW9tYWUnLCAnPG91dGZpbGUubWFlPic=

> <r_lp_tautomer_probability>
1

> <r_epik_Ionization_Penalty>
0.000125664

> <r_epik_Ionization_Penalty_Charging>
0

> <r_epik_Ionization_Penalty_Neutral>
0.000125664

> <r_epik_State_Penalty>
-0

> <r_epik_Charging_Adjusted_Penalty>
0

> <i_epik_Tot_Q>
0

> <i_epik_Tot_abs_Q>
0

> <r_epik_Metal_State_Penalty>
-0

> <b_epik_Metal_Only>
0

> <s_lp_Force_Field>
OPLS_2005

> <r_lp_Energy>
40.7708

> <b_lp_Chiralities_Consistent>
1

> <s_lp_Variant>
AV-unprocessed.smi:1846-1

> <Gold.Version>
5.8.1

> <Gold.Id.Protein>
6NUR|6NUR_protein|mol2

> <Gold.PLP.Fitness>
37.3910

> <Gold.PLP.PLP>
-32.9647

> <Gold.PLP.part.hbond>
-2.1051

> <Gold.PLP.part.metal>
0.0000

> <Gold.PLP.part.buried>
-4.7420

> <Gold.PLP.part.nonpolar>
-25.7029

> <Gold.PLP.part.repulsive>
0.1324

> <Gold.PLP.ligand.clash>
0.0000

> <Gold.PLP.ligand.torsion>
0.7986

> <Gold.PLP.Chemscore.Hbond>
2.0000

> <Gold.PLP.Chemscore.CHOScore>
0.0000

> <Gold.PLP.Chemscore.Metal>
0.0000

> <Gold.Chemscore.Hbonds>
donor molecule, donor type, donor heavy atom, donor atom, acceptor molecule, acceptor atom, score
      L1  H    16    37       P1  8028  1.00

> <Gold.PLP.Chemscore.Internal.Correction>
0.0236

> <Gold.Rescore>
     Score         DG    S(hbond)    S(metal)    S(lipo)     H(rot)  DE(clash)    DE(int)     intcor
     13.06     -16.14       1.99        0.00      70.66       1.66       0.12       2.96       ----

> <Gold.Chemscore.Fitness>
13.0609

> <Gold.Chemscore.DG>
-16.1408

> <Gold.Chemscore.ZeroCoef>
-5.4800

> <Gold.Chemscore.Hbond>
1.9874

> <Gold.Chemscore.Metal>
0.0000

> <Gold.Chemscore.Lipo>
70.6643

> <Gold.Chemscore.Internal_Hbond>
0.0000

> <Gold.Chemscore.DEClash>
0.1242

> <Gold.Chemscore.DEInternal>
2.9557

> <Gold.Chemscore.Rot>
1.6581

> <Gold.Chemscore.Internal.Correction>
   9.000000E+99

> <Gold.Chemscore.Hbonds>
donor molecule, donor type, donor heavy atom, donor atom, acceptor molecule, acceptor atom, score
      L1  H    16    37       P1  8028  1.00

> <Gold.Chemscore.Hbond.Weighted>
-6.6378

> <Gold.Chemscore.Metal.Weighted>
-0.0000

> <Gold.Chemscore.Lipo.Weighted>
-8.2677

> <Gold.Chemscore.Internal_Hbond.Weighted>
0.0000

> <Gold.Chemscore.DEClash.Weighted>
0.1242

> <Gold.Chemscore.DEInternal.Weighted>
2.9557

> <Gold.Chemscore.Rot.Weighted>
4.2447

> <Gold.Chemscore.Internal.Correction.Weighted>
   9.000000E+99

> <Gold.Protein.RotatedTorsions>
[ 6907 6896 6895 6894 ] final  170.38 input  -60.11 | X-H torsion
[ 7974 7965 7964 7962 ] final   97.84 input  175.53 | X-H torsion
[ 8008 7997 7996 7995 ] final   -9.09 input   59.86 | X-H torsion
[ 10167 10162 10161 10158 ] final  -93.18 input  -65.29 | X-H torsion
[ 10718 10713 10712 10709 ] final   57.55 input   66.30 | X-H torsion
[ 10763 10752 10751 10750 ] final  -96.11 input  -60.55 | X-H torsion
[ 11005 11000 10999 10996 ] final  151.59 input  -57.11 | X-H torsion

> <Gold.Protein.ActiveResidues>
 VAL166  LYS551  ARG553  GLY616  TRP617  ASP618  TYR619  PRO620  LYS621  CYS622 
 ASP623  PHE694  ASN695  SER759  ASP760  ASP761  ALA762  ILE779  LEU786  VAL792 
 PHE793  MET794  SER795  GLU796  ALA797  LYS798  CYS799  TRP800  GLU811  SER814 

> <Gold.Protein.RotatedAtoms>
  151.8169  133.3389  159.3572 H   0  0  0  0  0  0  0  0  0  0  0  0  # atno 6907 bound_to 6896
  150.7307  134.5610  159.5852 H   0  0  0  0  0  0  0  0  0  0  0  0  # atno 6908 bound_to 6896
  152.3034  134.7585  160.0404 H   0  0  0  0  0  0  0  0  0  0  0  0  # atno 6909 bound_to 6896
  145.4201  139.2322  143.3201 H   0  0  0  0  0  0  0  0  0  0  0  0  # atno 7974 bound_to 7965
  154.5679  140.2364  155.8235 H   0  0  0  0  0  0  0  0  0  0  0  0  # atno 8008 bound_to 7997
  156.2083  140.3033  155.9635 H   0  0  0  0  0  0  0  0  0  0  0  0  # atno 8009 bound_to 7997
  155.2766  140.0420  157.3002 H   0  0  0  0  0  0  0  0  0  0  0  0  # atno 8010 bound_to 7997
  140.3272  143.3015  151.9981 H   0  0  0  0  0  0  0  0  0  0  0  0  # atno 10167 bound_to 10162
  157.5523  130.8775  149.8983 H   0  0  0  0  0  0  0  0  0  0  0  0  # atno 10718 bound_to 10713
  154.7209  135.5096  153.8811 H   0  0  0  0  0  0  0  0  0  0  0  0  # atno 10763 bound_to 10752
  153.0862  135.6646  153.9954 H   0  0  0  0  0  0  0  0  0  0  0  0  # atno 10764 bound_to 10752
  153.9777  135.3032  155.3402 H   0  0  0  0  0  0  0  0  0  0  0  0  # atno 10765 bound_to 10752
  140.1233  134.8850  157.2102 H   0  0  0  0  0  0  0  0  0  0  0  0  # atno 11005 bound_to 11000
  146.2661  140.4924  142.8833 LP  0  0  0  0  0  0  0  0  0  0  0  0  # atno 17320 bound_to 7965
  144.8251  140.6615  143.6327 LP  0  0  0  0  0  0  0  0  0  0  0  0  # atno 17321 bound_to 7965
  139.4863  144.6264  151.7156 LP  0  0  0  0  0  0  0  0  0  0  0  0  # atno 17342 bound_to 10162
  140.5430  144.0549  150.6096 LP  0  0  0  0  0  0  0  0  0  0  0  0  # atno 17343 bound_to 10162
  156.0588  130.3703  150.1030 LP  0  0  0  0  0  0  0  0  0  0  0  0  # atno 17370 bound_to 10713
  156.9201  130.9680  151.3550 LP  0  0  0  0  0  0  0  0  0  0  0  0  # atno 17371 bound_to 10713
  140.2937  134.3211  155.7308 LP  0  0  0  0  0  0  0  0  0  0  0  0  # atno 17394 bound_to 11000
  141.2156  133.7550  156.9541 LP  0  0  0  0  0  0  0  0  0  0  0  0  # atno 17395 bound_to 11000

$$$$
