#       Name:                AV-unprocessed.smi:2693
#       Creating user name   scv26
#       Creation time:       Fri Mar 27 14:43:39 2020


#       File generated by GOLD software.
#

@<TRIPOS>MOLECULE
AV-unprocessed.smi:2693
    51    53     1
SMALL
NO_CHARGES


@<TRIPOS>ATOM
      1 ****        -6.8935   0.1262   0.6760 C.3            1 S1                 0.0000
      2 ****        -6.0989   1.2498   0.1880 N.pl3          1 S1                 0.0000
      3 ****        -6.8031   2.4885  -0.1305 C.3            1 S1                 0.0000
      4 ****        -4.7129   1.1456   0.0385 C.ar           1 S1                 0.0000
      5 ****        -4.1467  -0.0307   0.3387 N.ar           1 S1                 0.0000
      6 ****        -2.8083  -0.1395   0.1996 C.ar           1 S1                 0.0000
      7 ****        -2.0178   0.9447  -0.2511 C.ar           1 S1                 0.0000
      8 ****        -0.6049   0.9237  -0.3983 N.am           1 S1                 0.0000
      9 ****         0.2138  -0.1407  -0.4433 C.2            1 S1                 0.0000
     10 ****        -0.1468  -1.3173  -0.4469 O.2            1 S1                 0.0000
     11 ****         1.4978   0.2371  -0.4962 N.am           1 S1                 0.0000
     12 ****         2.6256  -0.6881  -0.5375 C.3            1 S1                 0.0000
     13 ****         3.9762   0.0330  -0.6692 C.3            1 S1                 0.0000
     14 ****         4.8036  -0.1470  -1.9129 C.3            1 S1                 0.0000
     15 ****         5.7675  -1.2711  -1.5222 C.3            1 S1                 0.0000
     16 ****         5.1214  -1.9412  -0.4421 O.3            1 S1                 0.0000
     17 ****         4.5011  -0.9467   0.3695 C.3            1 S1                 0.0000
     18 ****         3.0622  -1.2386   0.8447 C.3            1 S1                 0.0000
     19 ****         2.6391  -0.4471   2.0909 C.3            1 S1                 0.0000
     20 ****         2.7316  -2.7060   1.1218 C.3            1 S1                 0.0000
     21 ****        -2.7159   2.1365  -0.5296 C.ar           1 S1                 0.0000
     22 ****        -4.0547   2.2317  -0.3880 N.ar           1 S1                 0.0000
     23 ****        -6.5339  -0.2005   1.6523 H              1 S1                 0.0000
     24 ****        -6.8250  -0.7144  -0.0149 H              1 S1                 0.0000
     25 ****        -7.9466   0.3867   0.7821 H              1 S1                 0.0000
     26 ****        -6.4617   3.2963   0.5172 H              1 S1                 0.0000
     27 ****        -7.8809   2.3899  -0.0014 H              1 S1                 0.0000
     28 ****        -6.6189   2.7771  -1.1657 H              1 S1                 0.0000
     29 ****        -2.3905  -1.0947   0.4762 H              1 S1                 0.0000
     30 ****        -0.1655   1.8280  -0.4901 H              1 S1                 0.0000
     31 ****         1.7110   1.2237  -0.4969 H              1 S1                 0.0000
     32 ****         2.5168  -1.4801  -1.2821 H              1 S1                 0.0000
     33 ****         3.9508   1.0527  -0.2806 H              1 S1                 0.0000
     34 ****         4.1795  -0.4456  -2.7559 H              1 S1                 0.0000
     35 ****         5.3389   0.7598  -2.1960 H              1 S1                 0.0000
     36 ****         5.9788  -1.9511  -2.3476 H              1 S1                 0.0000
     37 ****         6.7135  -0.8586  -1.1683 H              1 S1                 0.0000
     38 ****         5.1722  -0.5011   1.1054 H              1 S1                 0.0000
     39 ****         3.1818  -0.7799   2.9760 H              1 S1                 0.0000
     40 ****         1.5748  -0.5610   2.2998 H              1 S1                 0.0000
     41 ****         2.8355   0.6195   1.9796 H              1 S1                 0.0000
     42 ****         3.2894  -3.0876   1.9774 H              1 S1                 0.0000
     43 ****         2.9743  -3.3409   0.2694 H              1 S1                 0.0000
     44 ****         1.6700  -2.8436   1.3297 H              1 S1                 0.0000
     45 ****        -2.1990   3.0227  -0.8677 H              1 S1                 0.0000
     46 ****        -4.6974  -0.8030   0.6555 LP             1 S1                 0.0000
     47 ****        -1.1208  -1.5419  -0.4145 LP             1 S1                 0.0000
     48 ****         0.5341  -2.0488  -0.4821 LP             1 S1                 0.0000
     49 ****         5.7940  -2.4498   0.0955 LP             1 S1                 0.0000
     50 ****         4.4312  -2.5725  -0.7958 LP             1 S1                 0.0000
     51 ****        -4.5381   3.0825  -0.5940 LP             1 S1                 0.0000
@<TRIPOS>BOND
    1    1    2 1     
    2    1   23 1     
    3    1   24 1     
    4    1   25 1     
    5    2    3 1     
    6    2    4 1     
    7    3   26 1     
    8    3   27 1     
    9    3   28 1     
   10    4   22 ar    
   11    4    5 ar    
   12    5    6 ar    
   13    6    7 ar    
   14    6   29 1     
   15    7    8 1     
   16    7   21 ar    
   17    8    9 am    
   18    8   30 1     
   19    9   10 2     
   20    9   11 am    
   21   11   12 1     
   22   11   31 1     
   23   12   18 1     
   24   12   13 1     
   25   12   32 1     
   26   13   17 1     
   27   13   14 1     
   28   13   33 1     
   29   14   15 1     
   30   14   34 1     
   31   14   35 1     
   32   15   16 1     
   33   15   36 1     
   34   15   37 1     
   35   16   17 1     
   36   17   18 1     
   37   17   38 1     
   38   18   19 1     
   39   18   20 1     
   40   19   39 1     
   41   19   40 1     
   42   19   41 1     
   43   20   42 1     
   44   20   43 1     
   45   20   44 1     
   46   21   22 ar    
   47   21   45 1     
   48    5   46 1     
   49   10   47 1     
   50   10   48 1     
   51   16   49 1     
   52   16   50 1     
   53   22   51 1     
@<TRIPOS>SUBSTRUCTURE
      1 S1             1
@<TRIPOS>SET
LONE_PAIRS      STATIC     ATOMS    <user>   **** ""
6 46 47 48 49 50 51
DONOR_HYDROGENS      STATIC     ATOMS    <user>   **** ""
2 30 31
ATOM$BLUE        STATIC     ATOMS    COLORGROUP SYSTEM
6 46 47 48 49 50 51
ATOM$RED        STATIC     ATOMS    COLORGROUP SYSTEM
2 30 31
