AV-unprocessed.smi:2003|AV-procd|sdf|8117|dock6
  -GOLD-   2272010353D 1   1.00000     0.00000
 Structure written by MMmdl.
 43 44  0  0  0  0  0  0  0  0  1 V2000
  147.3769  129.2829  153.4012 C   0  0  0  0  0  0  0  0  0  0  0  0
  147.5593  130.7611  153.2219 C   0  0  0  0  0  0  0  0  0  0  0  0
  148.4654  131.6231  153.9057 C   0  0  0  0  0  0  0  0  0  0  0  0
  148.1992  132.8434  153.3471 C   0  0  0  0  0  0  0  0  0  0  0  0
  148.7661  134.0493  153.6162 N   0  0  0  0  0  0  0  0  0  0  0  0
  149.4865  134.4190  154.6892 C   0  0  0  0  0  0  0  0  0  0  0  0
  149.7662  133.6985  155.6474 O   0  0  0  0  0  0  0  0  0  0  0  0
  149.8779  135.6955  154.5903 N   0  0  0  0  0  0  0  0  0  0  0  0
  150.6900  136.3911  155.5822 C   0  0  0  0  0  0  0  0  0  0  0  0
  150.8284  137.8980  155.2516 C   0  0  2  0  0  0  0  0  0  0  0  0
  151.8821  138.0479  154.1306 C   0  0  0  0  0  0  0  0  0  0  0  0
  151.0981  138.7495  156.4309 N   0  0  0  0  0  0  0  0  0  0  0  0
  151.4436  140.1263  156.0642 C   0  0  0  0  0  0  0  0  0  0  0  0
  151.7375  141.0078  157.2901 C   0  0  0  0  0  0  0  0  0  0  0  0
  152.7838  140.4267  158.0571 O   0  0  0  0  0  0  0  0  0  0  0  0
  152.4648  139.1114  158.4920 C   0  0  0  0  0  0  0  0  0  0  0  0
  152.1735  138.2186  157.2735 C   0  0  0  0  0  0  0  0  0  0  0  0
  147.2060  132.6944  152.4049 N   0  0  0  0  0  0  0  0  0  0  0  0
  146.5879  133.6916  151.5529 C   0  0  0  0  0  0  0  0  0  0  0  0
  146.8133  131.4043  152.3308 N   0  0  0  0  0  0  0  0  0  0  0  0
  148.0605  128.8904  154.1542 H   0  0  0  0  0  0  0  0  0  0  0  0
  147.5667  128.7478  152.4705 H   0  0  0  0  0  0  0  0  0  0  0  0
  146.3614  129.0487  153.7213 H   0  0  0  0  0  0  0  0  0  0  0  0
  149.1803  131.3678  154.6732 H   0  0  0  0  0  0  0  0  0  0  0  0
  148.6278  134.7563  152.9091 H   0  0  0  0  0  0  0  0  0  0  0  0
  149.6126  136.2208  153.7699 H   0  0  0  0  0  0  0  0  0  0  0  0
  150.2311  136.2668  156.5645 H   0  0  0  0  0  0  0  0  0  0  0  0
  151.6669  135.9132  155.6607 H   0  0  0  0  0  0  0  0  0  0  0  0
  149.8737  138.2088  154.8243 H   0  0  0  0  0  0  0  0  0  0  0  0
  151.7108  137.3301  153.3279 H   0  0  0  0  0  0  0  0  0  0  0  0
  152.8927  137.8855  154.5066 H   0  0  0  0  0  0  0  0  0  0  0  0
  151.8495  139.0327  153.6660 H   0  0  0  0  0  0  0  0  0  0  0  0
  152.3110  140.1264  155.4022 H   0  0  0  0  0  0  0  0  0  0  0  0
  150.6274  140.5931  155.5150 H   0  0  0  0  0  0  0  0  0  0  0  0
  152.0397  142.0068  156.9753 H   0  0  0  0  0  0  0  0  0  0  0  0
  150.8441  141.1229  157.9060 H   0  0  0  0  0  0  0  0  0  0  0  0
  153.3037  138.7118  159.0618 H   0  0  0  0  0  0  0  0  0  0  0  0
  151.6059  139.1403  159.1643 H   0  0  0  0  0  0  0  0  0  0  0  0
  151.9138  137.2295  157.6478 H   0  0  0  0  0  0  0  0  0  0  0  0
  153.0838  138.1040  156.6828 H   0  0  0  0  0  0  0  0  0  0  0  0
  146.0792  134.4336  152.1688 H   0  0  0  0  0  0  0  0  0  0  0  0
  145.8620  133.2287  150.8831 H   0  0  0  0  0  0  0  0  0  0  0  0
  147.3533  134.1875  150.9552 H   0  0  0  0  0  0  0  0  0  0  0  0
  1  2  1  0  0  0  0
  1 21  1  0  0  0  0
  1 22  1  0  0  0  0
  1 23  1  0  0  0  0
  2 20  2  0  0  0  0
  2  3  1  0  0  0  0
  3  4  2  0  0  0  0
  3 24  1  0  0  0  0
  4  5  1  0  0  0  0
  4 18  1  0  0  0  0
  5  6  1  0  0  0  0
  5 25  1  0  0  0  0
  6  7  2  0  0  0  0
  6  8  1  0  0  0  0
  8  9  1  0  0  0  0
  8 26  1  0  0  0  0
  9 10  1  0  0  0  0
  9 27  1  0  0  0  0
  9 28  1  0  0  0  0
 10 11  1  0  0  0  0
 10 12  1  0  0  0  0
 10 29  1  0  0  0  0
 11 30  1  0  0  0  0
 11 31  1  0  0  0  0
 11 32  1  0  0  0  0
 12 17  1  0  0  0  0
 12 13  1  0  0  0  0
 13 14  1  0  0  0  0
 13 33  1  0  0  0  0
 13 34  1  0  0  0  0
 14 15  1  0  0  0  0
 14 35  1  0  0  0  0
 14 36  1  0  0  0  0
 15 16  1  0  0  0  0
 16 17  1  0  0  0  0
 16 37  1  0  0  0  0
 16 38  1  0  0  0  0
 17 39  1  0  0  0  0
 17 40  1  0  0  0  0
 18 19  1  0  0  0  0
 18 20  1  0  0  0  0
 19 41  1  0  0  0  0
 19 42  1  0  0  0  0
 19 43  1  0  0  0  0
M  END
> <s_m_source_file>
AV-unprocessed.smi

> <i_m_source_file_index>
2003

> <i_lp_mmshare_version>
43012

> <i_f3d_flags>
0

> <s_epik_input>
W0NIM11jMVtjSF1jKG4objEpW0NIM10pW05IXUMoPU8pW05IXVtDSDJdW0NASF0oW0NIM10pTjJbQ0gyXVtDSDJdT1tDSDJdW0NIMl0y

> <s_epik_cmdline>
J2VwaWtfcHl0aG9uJywgJy1waCcsICc3LjAnLCAnLXRuJywgJzgnLCAnLW1hJywgJzIwMCcsICctbWV0YWxfYmluZGluZycsICctaW1hZScsICc8aW5maWxlLm1hZT4nLCAnLW9tYWUnLCAnPG91dGZpbGUubWFlPic=

> <r_lp_tautomer_probability>
1

> <r_epik_Ionization_Penalty>
0.233974

> <r_epik_Ionization_Penalty_Charging>
0

> <r_epik_Ionization_Penalty_Neutral>
0.233974

> <r_epik_State_Penalty>
0.224627

> <r_epik_Charging_Adjusted_Penalty>
0.224627

> <i_epik_Tot_Q>
0

> <i_epik_Tot_abs_Q>
0

> <r_epik_Metal_State_Penalty>
0.224624

> <b_epik_Metal_Only>
0

> <s_lp_Force_Field>
OPLS_2005

> <r_lp_Energy>
33.8314

> <b_lp_Chiralities_Consistent>
1

> <s_lp_Variant>
AV-unprocessed.smi:2003-1

> <Gold.Version>
5.8.1

> <Gold.Id.Protein>
6NUR|6NUR_protein|mol2

> <Gold.PLP.Fitness>
37.5946

> <Gold.PLP.PLP>
-30.0082

> <Gold.PLP.part.hbond>
-3.0000

> <Gold.PLP.part.metal>
0.0000

> <Gold.PLP.part.buried>
-3.0746

> <Gold.PLP.part.nonpolar>
-23.4610

> <Gold.PLP.part.repulsive>
0.8334

> <Gold.PLP.ligand.clash>
0.0000

> <Gold.PLP.ligand.torsion>
0.4810

> <Gold.PLP.Chemscore.Hbond>
2.8323

> <Gold.PLP.Chemscore.CHOScore>
0.0000

> <Gold.PLP.Chemscore.Metal>
0.0000

> <Gold.Chemscore.Hbonds>
donor molecule, donor type, donor heavy atom, donor atom, acceptor molecule, acceptor atom, score
      L1  H     5    25       P1  7948  1.00
      L1  H     8    26       P1  7948  0.98
      P1  H  7997  8008       L1    15  0.73

> <Gold.PLP.Chemscore.Internal.Correction>
0.0514

> <Gold.Rescore>
     Score         DG    S(hbond)    S(metal)    S(lipo)     H(rot)  DE(clash)    DE(int)     intcor
     14.37     -15.87       2.11        0.00      61.14       1.49       0.00       1.50       ----

> <Gold.Chemscore.Fitness>
14.3701

> <Gold.Chemscore.DG>
-15.8703

> <Gold.Chemscore.ZeroCoef>
-5.4800

> <Gold.Chemscore.Hbond>
2.1140

> <Gold.Chemscore.Metal>
0.0000

> <Gold.Chemscore.Lipo>
61.1443

> <Gold.Chemscore.Internal_Hbond>
0.0000

> <Gold.Chemscore.DEClash>
0.0018

> <Gold.Chemscore.DEInternal>
1.4984

> <Gold.Chemscore.Rot>
1.4938

> <Gold.Chemscore.Internal.Correction>
   9.000000E+99

> <Gold.Chemscore.Hbonds>
donor molecule, donor type, donor heavy atom, donor atom, acceptor molecule, acceptor atom, score
      L1  H     5    25       P1  7948  0.25
      L1  H     8    26       P1  7948  0.45
      P1  H  7997  8008       L1    15  0.19

> <Gold.Chemscore.Hbond.Weighted>
-7.0606

> <Gold.Chemscore.Metal.Weighted>
-0.0000

> <Gold.Chemscore.Lipo.Weighted>
-7.1539

> <Gold.Chemscore.Internal_Hbond.Weighted>
0.0000

> <Gold.Chemscore.DEClash.Weighted>
0.0018

> <Gold.Chemscore.DEInternal.Weighted>
1.4984

> <Gold.Chemscore.Rot.Weighted>
3.8242

> <Gold.Chemscore.Internal.Correction.Weighted>
   9.000000E+99

> <Gold.Protein.RotatedTorsions>
[ 6907 6896 6895 6894 ] final  173.51 input  -60.11 | X-H torsion
[ 7974 7965 7964 7962 ] final -158.43 input  175.53 | X-H torsion
[ 8008 7997 7996 7995 ] final  -73.46 input   59.86 | X-H torsion
[ 10167 10162 10161 10158 ] final -141.58 input  -65.29 | X-H torsion
[ 10718 10713 10712 10709 ] final  169.51 input   66.30 | X-H torsion
[ 10763 10752 10751 10750 ] final  131.12 input  -60.55 | X-H torsion
[ 11005 11000 10999 10996 ] final  -97.13 input  -57.11 | X-H torsion

> <Gold.Protein.ActiveResidues>
 VAL166  LYS551  ARG553  GLY616  TRP617  ASP618  TYR619  PRO620  LYS621  CYS622 
 ASP623  PHE694  ASN695  SER759  ASP760  ASP761  ALA762  ILE779  LEU786  VAL792 
 PHE793  MET794  SER795  GLU796  ALA797  LYS798  CYS799  TRP800  GLU811  SER814 

> <Gold.Protein.RotatedAtoms>
  151.7671  133.3338  159.3433 H   0  0  0  0  0  0  0  0  0  0  0  0  # atno 6907 bound_to 6896
  150.7475  134.6052  159.6067 H   0  0  0  0  0  0  0  0  0  0  0  0  # atno 6908 bound_to 6896
  152.3366  134.7192  160.0327 H   0  0  0  0  0  0  0  0  0  0  0  0  # atno 6909 bound_to 6896
  144.7506  140.3829  143.6051 H   0  0  0  0  0  0  0  0  0  0  0  0  # atno 7974 bound_to 7965
  154.5249  140.0779  156.8240 H   0  0  0  0  0  0  0  0  0  0  0  0  # atno 8008 bound_to 7997
  155.3497  140.3412  155.4221 H   0  0  0  0  0  0  0  0  0  0  0  0  # atno 8009 bound_to 7997
  156.1721  140.1623  156.8416 H   0  0  0  0  0  0  0  0  0  0  0  0  # atno 8010 bound_to 7997
  139.8171  143.7624  152.2665 H   0  0  0  0  0  0  0  0  0  0  0  0  # atno 10167 bound_to 10162
  157.0216  131.0233  151.2773 H   0  0  0  0  0  0  0  0  0  0  0  0  # atno 10718 bound_to 10713
  153.7691  135.3184  155.3349 H   0  0  0  0  0  0  0  0  0  0  0  0  # atno 10763 bound_to 10752
  154.8203  135.4608  154.0762 H   0  0  0  0  0  0  0  0  0  0  0  0  # atno 10764 bound_to 10752
  153.2016  135.6923  153.8308 H   0  0  0  0  0  0  0  0  0  0  0  0  # atno 10765 bound_to 10752
  141.1389  133.8148  157.0665 H   0  0  0  0  0  0  0  0  0  0  0  0  # atno 11005 bound_to 11000
  145.6958  139.1649  143.2621 LP  0  0  0  0  0  0  0  0  0  0  0  0  # atno 17320 bound_to 7965
  146.1450  140.7004  142.9349 LP  0  0  0  0  0  0  0  0  0  0  0  0  # atno 17321 bound_to 7965
  139.7790  144.7451  151.0115 LP  0  0  0  0  0  0  0  0  0  0  0  0  # atno 17342 bound_to 10162
  140.7815  143.4562  151.0342 LP  0  0  0  0  0  0  0  0  0  0  0  0  # atno 17343 bound_to 10162
  157.5245  130.8019  149.7847 LP  0  0  0  0  0  0  0  0  0  0  0  0  # atno 17370 bound_to 10713
  156.0100  130.3837  150.2296 LP  0  0  0  0  0  0  0  0  0  0  0  0  # atno 17371 bound_to 10713
  140.0538  134.9791  157.1184 LP  0  0  0  0  0  0  0  0  0  0  0  0  # atno 17394 bound_to 11000
  140.3949  134.2144  155.7165 LP  0  0  0  0  0  0  0  0  0  0  0  0  # atno 17395 bound_to 11000

$$$$
