AV-unprocessed.smi:55|AV-procd|sdf|565|dock9
  -GOLD-   2262016473D 1   1.00000     0.00000
 Structure written by MMmdl.
 31 32  0  0  0  0  0  0  0  0  1 V2000
  146.7725  141.9799  153.7583 C   0  0  0  0  0  0  0  0  0  0  0  0
  147.9085  140.9933  153.9712 C   0  0  0  0  0  0  0  0  0  0  0  0
  148.9632  141.2621  154.7825 C   0  0  0  0  0  0  0  0  0  0  0  0
  150.0148  140.3826  154.9983 N   0  0  0  0  0  0  0  0  0  0  0  0
  151.1616  140.7468  155.9141 C   0  0  2  0  0  0  0  0  0  0  0  0
  151.2038  139.8200  157.1335 C   0  0  0  0  0  0  0  0  0  0  0  0
  151.5652  140.7775  158.2517 C   0  0  1  0  0  0  0  0  0  0  0  0
  152.9704  140.9078  158.3618 O   0  0  0  0  0  0  0  0  0  0  0  0
  150.8913  142.0784  157.7923 C   0  0  1  0  0  0  0  0  0  0  0  0
  151.4541  143.3930  158.3600 C   0  0  0  0  0  0  0  0  0  0  0  0
  150.6283  144.4783  157.9945 O   0  0  0  0  0  0  0  0  0  0  0  0
  150.9811  142.0566  156.3695 O   0  0  0  0  0  0  0  0  0  0  0  0
  150.0008  139.1216  154.3661 C   0  0  0  0  0  0  0  0  0  0  0  0
  150.8808  138.2774  154.5295 O   0  0  0  0  0  0  0  0  0  0  0  0
  148.9203  138.8461  153.5298 N   0  0  0  0  0  0  0  0  0  0  0  0
  147.8495  139.7060  153.2735 C   0  0  0  0  0  0  0  0  0  0  0  0
  146.9525  139.3491  152.5115 O   0  0  0  0  0  0  0  0  0  0  0  0
  152.0827  140.7313  155.3298 H   0  0  0  0  0  0  0  0  0  0  0  0
  151.1767  140.4408  159.2134 H   0  0  0  0  0  0  0  0  0  0  0  0
  149.8306  142.0165  158.0396 H   0  0  0  0  0  0  0  0  0  0  0  0
  148.9081  137.9459  153.0725 H   0  0  0  0  0  0  0  0  0  0  0  0
  146.9244  142.8996  154.3240 H   0  0  0  0  0  0  0  0  0  0  0  0
  145.8250  141.5440  154.0768 H   0  0  0  0  0  0  0  0  0  0  0  0
  146.6907  142.2457  152.7037 H   0  0  0  0  0  0  0  0  0  0  0  0
  148.9788  142.2142  155.2909 H   0  0  0  0  0  0  0  0  0  0  0  0
  150.2125  139.4002  157.3110 H   0  0  0  0  0  0  0  0  0  0  0  0
  151.9107  139.0018  156.9899 H   0  0  0  0  0  0  0  0  0  0  0  0
  153.1851  141.8284  158.3766 H   0  0  0  0  0  0  0  0  0  0  0  0
  151.5530  143.3529  159.4449 H   0  0  0  0  0  0  0  0  0  0  0  0
  152.4514  143.5728  157.9579 H   0  0  0  0  0  0  0  0  0  0  0  0
  150.1559  144.2451  157.2097 H   0  0  0  0  0  0  0  0  0  0  0  0
  1  2  1  0  0  0  0
  1 22  1  0  0  0  0
  1 23  1  0  0  0  0
  1 24  1  0  0  0  0
  2 16  1  0  0  0  0
  2  3  2  0  0  0  0
  3  4  1  0  0  0  0
  3 25  1  0  0  0  0
  4  5  1  0  0  0  0
  4 13  1  0  0  0  0
  5 18  1  0  0  0  0
  5 12  1  0  0  0  0
  5  6  1  0  0  0  0
  6  7  1  0  0  0  0
  6 26  1  0  0  0  0
  6 27  1  0  0  0  0
  7 19  1  0  0  0  0
  7  8  1  0  0  0  0
  7  9  1  0  0  0  0
  8 28  1  0  0  0  0
  9 20  1  0  0  0  0
  9 10  1  0  0  0  0
  9 12  1  0  0  0  0
 10 11  1  0  0  0  0
 10 29  1  0  0  0  0
 10 30  1  0  0  0  0
 11 31  1  0  0  0  0
 13 14  2  0  0  0  0
 13 15  1  0  0  0  0
 15 21  1  0  0  0  0
 15 16  1  0  0  0  0
 16 17  2  0  0  0  0
M  END
> <s_m_source_file>
AV-unprocessed.smi

> <i_m_source_file_index>
55

> <i_lp_mmshare_version>
43012

> <i_f3d_flags>
0

> <s_epik_input>
Tz1jMVtuSF1jKD1PKW4oW2NIXWMxW0NIM10pW0NAQEhdMltDSDJdW0NAQEhdKFtPSF0pW0NAQEhdKE8yKVtDSDJdW09IXQ==

> <s_epik_cmdline>
J2VwaWtfcHl0aG9uJywgJy1waCcsICc3LjAnLCAnLXRuJywgJzgnLCAnLW1hJywgJzIwMCcsICctbWV0YWxfYmluZGluZycsICctaW1hZScsICc8aW5maWxlLm1hZT4nLCAnLW9tYWUnLCAnPG91dGZpbGUubWFlPic=

> <r_lp_tautomer_probability>
0.999537

> <r_epik_Ionization_Penalty>
0.00121888

> <r_epik_Ionization_Penalty_Charging>
0.00121876

> <r_epik_Ionization_Penalty_Neutral>
1.19946e-07

> <r_epik_State_Penalty>
0.000805124

> <r_epik_Charging_Adjusted_Penalty>
0.00202389

> <i_epik_Tot_Q>
0

> <i_epik_Tot_abs_Q>
0

> <r_epik_Metal_State_Penalty>
0.662472

> <b_epik_Metal_Only>
0

> <s_epik_Chemistry_Notes>
This compound contains an acetal/aminal-like group ( X-CH(R)-Y where X, Y are N, S, or O) that may be acid/base labile, releasing an aldehyde.

> <s_lp_Force_Field>
OPLS_2005

> <r_lp_Energy>
27.6975

> <b_lp_Chiralities_Consistent>
1

> <s_lp_Variant>
AV-unprocessed.smi:55-5

> <Gold.Version>
5.8.1

> <Gold.Id.Protein>
6NUR|6NUR_protein|mol2

> <Gold.PLP.Fitness>
38.8584

> <Gold.PLP.PLP>
-30.3409

> <Gold.PLP.part.hbond>
-4.4320

> <Gold.PLP.part.metal>
0.0000

> <Gold.PLP.part.buried>
-0.7031

> <Gold.PLP.part.nonpolar>
-25.4920

> <Gold.PLP.part.repulsive>
0.9671

> <Gold.PLP.ligand.clash>
0.0000

> <Gold.PLP.ligand.torsion>
0.0559

> <Gold.PLP.Chemscore.Hbond>
1.8858

> <Gold.PLP.Chemscore.CHOScore>
0.9900

> <Gold.PLP.Chemscore.Metal>
0.0000

> <Gold.Chemscore.Hbonds>
donor molecule, donor type, donor heavy atom, donor atom, acceptor molecule, acceptor atom, score
      L1  H    11    31       P1  8028  0.98
      L1  H    15    21       P1  7948  0.89
      L1  C     3    25       P1  8028  1.00

> <Gold.PLP.Chemscore.Internal.Correction>
0.0021

> <Gold.Rescore>
     Score         DG    S(hbond)    S(metal)    S(lipo)     H(rot)  DE(clash)    DE(int)     intcor
      8.38      -9.10       1.61        0.00      44.55       2.73       0.05       0.67       ----

> <Gold.Chemscore.Fitness>
8.3753

> <Gold.Chemscore.DG>
-9.0981

> <Gold.Chemscore.ZeroCoef>
-5.4800

> <Gold.Chemscore.Hbond>
1.6115

> <Gold.Chemscore.Metal>
0.0000

> <Gold.Chemscore.Lipo>
44.5532

> <Gold.Chemscore.Internal_Hbond>
0.0000

> <Gold.Chemscore.DEClash>
0.0530

> <Gold.Chemscore.DEInternal>
0.6698

> <Gold.Chemscore.Rot>
2.7253

> <Gold.Chemscore.Internal.Correction>
   9.000000E+99

> <Gold.Chemscore.Hbonds>
donor molecule, donor type, donor heavy atom, donor atom, acceptor molecule, acceptor atom, score
      L1  H    11    31       P1  8028  0.65
      L1  H    15    21       P1  7948  0.86

> <Gold.Chemscore.Hbond.Weighted>
-5.3823

> <Gold.Chemscore.Metal.Weighted>
-0.0000

> <Gold.Chemscore.Lipo.Weighted>
-5.2127

> <Gold.Chemscore.Internal_Hbond.Weighted>
0.0000

> <Gold.Chemscore.DEClash.Weighted>
0.0530

> <Gold.Chemscore.DEInternal.Weighted>
0.6698

> <Gold.Chemscore.Rot.Weighted>
6.9769

> <Gold.Chemscore.Internal.Correction.Weighted>
   9.000000E+99

> <Gold.Protein.RotatedTorsions>
[ 6907 6896 6895 6894 ] final    0.21 input  -60.11 | X-H torsion
[ 7974 7965 7964 7962 ] final -105.94 input  175.53 | X-H torsion
[ 8008 7997 7996 7995 ] final  -17.60 input   59.86 | X-H torsion
[ 10167 10162 10161 10158 ] final  -57.96 input  -65.29 | X-H torsion
[ 10718 10713 10712 10709 ] final -106.59 input   66.30 | X-H torsion
[ 10763 10752 10751 10750 ] final -104.52 input  -60.55 | X-H torsion
[ 11005 11000 10999 10996 ] final  166.37 input  -57.11 | X-H torsion

> <Gold.Protein.ActiveResidues>
 VAL166  LYS551  ARG553  GLY616  TRP617  ASP618  TYR619  PRO620  LYS621  CYS622 
 ASP623  PHE694  ASN695  SER759  ASP760  ASP761  ALA762  ILE779  LEU786  VAL792 
 PHE793  MET794  SER795  GLU796  ALA797  LYS798  CYS799  TRP800  GLU811  SER814 

> <Gold.Protein.RotatedAtoms>
  151.5727  135.1062  159.9998 H   0  0  0  0  0  0  0  0  0  0  0  0  # atno 6907 bound_to 6896
  152.4393  133.7414  159.6654 H   0  0  0  0  0  0  0  0  0  0  0  0  # atno 6908 bound_to 6896
  150.8296  133.8045  159.3127 H   0  0  0  0  0  0  0  0  0  0  0  0  # atno 6909 bound_to 6896
  145.2241  140.9145  143.3242 H   0  0  0  0  0  0  0  0  0  0  0  0  # atno 7974 bound_to 7965
  154.4966  140.2138  155.9434 H   0  0  0  0  0  0  0  0  0  0  0  0  # atno 8008 bound_to 7997
  156.1378  140.3185  155.8416 H   0  0  0  0  0  0  0  0  0  0  0  0  # atno 8009 bound_to 7997
  155.4176  140.0495  157.3018 H   0  0  0  0  0  0  0  0  0  0  0  0  # atno 8010 bound_to 7997
  140.6226  143.2425  151.5443 H   0  0  0  0  0  0  0  0  0  0  0  0  # atno 10167 bound_to 10162
  156.0397  130.5620  150.7702 H   0  0  0  0  0  0  0  0  0  0  0  0  # atno 10718 bound_to 10713
  154.7884  135.4783  153.9997 H   0  0  0  0  0  0  0  0  0  0  0  0  # atno 10763 bound_to 10752
  153.1594  135.6806  153.8772 H   0  0  0  0  0  0  0  0  0  0  0  0  # atno 10764 bound_to 10752
  153.8391  135.3181  155.3403 H   0  0  0  0  0  0  0  0  0  0  0  0  # atno 10765 bound_to 10752
  140.2657  134.7867  157.3630 H   0  0  0  0  0  0  0  0  0  0  0  0  # atno 11005 bound_to 11000
  144.9738  139.3853  143.6296 LP  0  0  0  0  0  0  0  0  0  0  0  0  # atno 17320 bound_to 7965
  146.3369  139.8847  142.8818 LP  0  0  0  0  0  0  0  0  0  0  0  0  # atno 17321 bound_to 7965
  139.5452  144.2541  152.1428 LP  0  0  0  0  0  0  0  0  0  0  0  0  # atno 17342 bound_to 10162
  140.1764  144.4886  150.6551 LP  0  0  0  0  0  0  0  0  0  0  0  0  # atno 17343 bound_to 10162
  157.5198  131.0931  151.0093 LP  0  0  0  0  0  0  0  0  0  0  0  0  # atno 17370 bound_to 10713
  157.0427  130.5755  149.5358 LP  0  0  0  0  0  0  0  0  0  0  0  0  # atno 17371 bound_to 10713
  140.1422  134.4958  155.8023 LP  0  0  0  0  0  0  0  0  0  0  0  0  # atno 17394 bound_to 11000
  141.2184  133.6829  156.7230 LP  0  0  0  0  0  0  0  0  0  0  0  0  # atno 17395 bound_to 11000

$$$$
