AV-unprocessed.smi:67|AV-procd|sdf|632|dock5
  -GOLD-   2262016523D 1   1.00000     0.00000
 Structure written by MMmdl.
 49 51  0  0  0  0  0  0  0  0  3 V2000
  147.0391  136.4898  153.4779 O   0  0  0  0  0  0  0  0  0  0  0  0
  146.0108  137.3448  153.0106 C   0  0  2  0  0  0  0  0  0  0  0  0
  145.7116  138.4180  154.0821 C   0  0  0  0  0  0  0  0  0  0  0  0
  146.7083  139.5228  154.0702 N   0  3  2  0  0  0  0  0  0  0  0  0
  148.0477  139.1024  154.5556 C   0  0  0  0  0  0  0  0  0  0  0  0
  149.0808  140.2304  154.3869 C   0  0  0  0  0  0  0  0  0  0  0  0
  148.6348  141.5239  155.0867 C   0  0  2  0  0  0  0  0  0  0  0  0
  148.6456  141.2795  156.4920 O   0  0  0  0  0  0  0  0  0  0  0  0
  149.8028  141.4734  157.2188 C   0  0  0  0  0  0  0  0  0  0  0  0
  150.5698  140.3250  157.5012 C   0  0  0  0  0  0  0  0  0  0  0  0
  151.7678  140.4202  158.2333 C   0  0  0  0  0  0  0  0  0  0  0  0
  152.2142  141.6719  158.6946 C   0  0  0  0  0  0  0  0  0  0  0  0
  151.4617  142.8346  158.4242 C   0  0  0  0  0  0  0  0  0  0  0  0
  151.9228  144.2008  158.9096 C   0  0  0  0  0  0  0  0  0  0  0  0
  152.8454  144.6846  158.0778 F   0  0  0  0  0  0  0  0  0  0  0  0
  150.9165  145.0732  158.9751 F   0  0  0  0  0  0  0  0  0  0  0  0
  152.4606  144.0792  160.1229 F   0  0  0  0  0  0  0  0  0  0  0  0
  150.2637  142.7306  157.6852 C   0  0  0  0  0  0  0  0  0  0  0  0
  147.2241  141.9074  154.5945 C   0  0  0  0  0  0  0  0  0  0  0  0
  146.2310  140.7457  154.7670 C   0  0  0  0  0  0  0  0  0  0  0  0
  144.7932  136.5117  152.5966 C   0  0  0  0  0  0  0  0  0  0  0  0
  145.1536  135.9930  151.2029 C   0  0  0  0  0  0  0  0  0  0  0  0
  146.0636  136.9939  150.6138 N   0  3  0  0  0  0  0  0  0  0  0  0
  146.4721  137.9426  151.6701 C   0  0  0  0  0  0  0  0  0  0  0  0
  147.5481  136.1894  152.7396 H   0  0  0  0  0  0  0  0  0  0  0  0
  144.7012  138.8125  153.9611 H   0  0  0  0  0  0  0  0  0  0  0  0
  145.7151  137.9346  155.0603 H   0  0  0  0  0  0  0  0  0  0  0  0
  147.9802  138.8022  155.6025 H   0  0  0  0  0  0  0  0  0  0  0  0
  148.3819  138.2286  153.9947 H   0  0  0  0  0  0  0  0  0  0  0  0
  150.0488  139.9112  154.7752 H   0  0  0  0  0  0  0  0  0  0  0  0
  149.2281  140.4268  153.3240 H   0  0  0  0  0  0  0  0  0  0  0  0
  149.3588  142.2976  154.8300 H   0  0  0  0  0  0  0  0  0  0  0  0
  150.2365  139.3587  157.1515 H   0  0  0  0  0  0  0  0  0  0  0  0
  152.3457  139.5317  158.4407 H   0  0  0  0  0  0  0  0  0  0  0  0
  153.1361  141.7292  159.2537 H   0  0  0  0  0  0  0  0  0  0  0  0
  149.7145  143.6388  157.4924 H   0  0  0  0  0  0  0  0  0  0  0  0
  146.8515  142.7878  155.1171 H   0  0  0  0  0  0  0  0  0  0  0  0
  147.2740  142.1829  153.5403 H   0  0  0  0  0  0  0  0  0  0  0  0
  145.2597  141.0440  154.3730 H   0  0  0  0  0  0  0  0  0  0  0  0
  146.0870  140.5309  155.8273 H   0  0  0  0  0  0  0  0  0  0  0  0
  144.5571  135.7100  153.2979 H   0  0  0  0  0  0  0  0  0  0  0  0
  143.9134  137.1530  152.5232 H   0  0  0  0  0  0  0  0  0  0  0  0
  145.6896  135.0462  151.2812 H   0  0  0  0  0  0  0  0  0  0  0  0
  144.2757  135.8317  150.5766 H   0  0  0  0  0  0  0  0  0  0  0  0
  146.8759  136.5226  150.2408 H   0  0  0  0  0  0  0  0  0  0  0  0
  145.9539  138.8823  151.4758 H   0  0  0  0  0  0  0  0  0  0  0  0
  147.5427  138.1491  151.6340 H   0  0  0  0  0  0  0  0  0  0  0  0
  145.5956  137.4965  149.8729 H   0  0  0  0  0  0  0  0  0  0  0  0
  146.8325  139.7753  153.1000 H   0  0  0  0  0  0  0  0  0  0  0  0
  1  2  1  0  0  0  0
  1 25  1  0  0  0  0
  2 24  1  0  0  0  0
  2  3  1  0  0  0  0
  2 21  1  0  0  0  0
  3  4  1  0  0  0  0
  3 26  1  0  0  0  0
  3 27  1  0  0  0  0
  4 20  1  0  0  0  0
  4  5  1  0  0  0  0
  4 49  1  0  0  0  0
  5  6  1  0  0  0  0
  5 28  1  0  0  0  0
  5 29  1  0  0  0  0
  6  7  1  0  0  0  0
  6 30  1  0  0  0  0
  6 31  1  0  0  0  0
  7  8  1  0  0  0  0
  7 19  1  0  0  0  0
  7 32  1  0  0  0  0
  8  9  1  0  0  0  0
  9 18  1  0  0  0  0
  9 10  2  0  0  0  0
 10 11  1  0  0  0  0
 10 33  1  0  0  0  0
 11 12  2  0  0  0  0
 11 34  1  0  0  0  0
 12 13  1  0  0  0  0
 12 35  1  0  0  0  0
 13 14  1  0  0  0  0
 13 18  2  0  0  0  0
 14 15  1  0  0  0  0
 14 16  1  0  0  0  0
 14 17  1  0  0  0  0
 18 36  1  0  0  0  0
 19 20  1  0  0  0  0
 19 37  1  0  0  0  0
 19 38  1  0  0  0  0
 20 39  1  0  0  0  0
 20 40  1  0  0  0  0
 21 22  1  0  0  0  0
 21 41  1  0  0  0  0
 21 42  1  0  0  0  0
 22 23  1  0  0  0  0
 22 43  1  0  0  0  0
 22 44  1  0  0  0  0
 23 24  1  0  0  0  0
 23 45  1  0  0  0  0
 23 48  1  0  0  0  0
 24 46  1  0  0  0  0
 24 47  1  0  0  0  0
M  CHG  1   4   1
M  CHG  1  23   1
M  END
> <s_m_source_file>
AV-unprocessed.smi

> <i_m_source_file_index>
67

> <i_lp_mmshare_version>
43012

> <i_f3d_flags>
0

> <s_epik_input>
W0NIMl0xW05IXVtDSDJdW0NIMl1bQ0BAXTEoW09IXSlbQ0gyXU4yW0NIMl1bQ0gyXVtDSF0oW0NIMl1bQ0gyXTIpT2MzW2NIXVtjSF1bY0hdYyhDKEYpKEYpRilbY0hdMw==

> <s_epik_cmdline>
J2VwaWtfcHl0aG9uJywgJy1waCcsICc3LjAnLCAnLXRuJywgJzgnLCAnLW1hJywgJzIwMCcsICctbWV0YWxfYmluZGluZycsICctaW1hZScsICc8aW5maWxlLm1hZT4nLCAnLW9tYWUnLCAnPG91dGZpbGUubWFlPic=

> <r_lp_tautomer_probability>
1

> <r_epik_Ionization_Penalty>
0.0989853

> <r_epik_Ionization_Penalty_Charging>
0.0989662

> <r_epik_Ionization_Penalty_Neutral>
1.91014e-05

> <r_epik_State_Penalty>
0.0852826

> <r_epik_Charging_Adjusted_Penalty>
0.184249

> <i_epik_Tot_Q>
2

> <i_epik_Tot_abs_Q>
2

> <r_epik_Metal_State_Penalty>
0.0849414

> <b_epik_Metal_Only>
0

> <s_lp_Force_Field>
OPLS_2005

> <r_lp_Energy>
57.0803

> <b_lp_Chiralities_Consistent>
1

> <s_lp_Variant>
AV-unprocessed.smi:67-4

> <Gold.Version>
5.8.1

> <Gold.Id.Protein>
6NUR|6NUR_protein|mol2

> <Gold.PLP.Fitness>
48.1525

> <Gold.PLP.PLP>
-46.5219

> <Gold.PLP.part.hbond>
-2.1803

> <Gold.PLP.part.metal>
0.0000

> <Gold.PLP.part.buried>
-3.8785

> <Gold.PLP.part.nonpolar>
-41.8262

> <Gold.PLP.part.repulsive>
0.2215

> <Gold.PLP.ligand.clash>
0.0000

> <Gold.PLP.ligand.torsion>
1.9355

> <Gold.PLP.Chemscore.Hbond>
1.7040

> <Gold.PLP.Chemscore.CHOScore>
0.0000

> <Gold.PLP.Chemscore.Metal>
0.0000

> <Gold.Chemscore.Hbonds>
donor molecule, donor type, donor heavy atom, donor atom, acceptor molecule, acceptor atom, score
      L1  H     1    25       P1  7948  1.00
      L1  H    23    48       P1 10171  0.69

> <Gold.PLP.Chemscore.Internal.Correction>
0.3895

> <Gold.Rescore>
     Score         DG    S(hbond)    S(metal)    S(lipo)     H(rot)  DE(clash)    DE(int)     intcor
     15.46     -18.44       1.91        0.00     105.25       2.24       0.16       2.83       ----

> <Gold.Chemscore.Fitness>
15.4575

> <Gold.Chemscore.DG>
-18.4396

> <Gold.Chemscore.ZeroCoef>
-5.4800

> <Gold.Chemscore.Hbond>
1.9065

> <Gold.Chemscore.Metal>
0.0000

> <Gold.Chemscore.Lipo>
105.2468

> <Gold.Chemscore.Internal_Hbond>
0.0000

> <Gold.Chemscore.DEClash>
0.1568

> <Gold.Chemscore.DEInternal>
2.8253

> <Gold.Chemscore.Rot>
2.2352

> <Gold.Chemscore.Internal.Correction>
   9.000000E+99

> <Gold.Chemscore.Hbonds>
donor molecule, donor type, donor heavy atom, donor atom, acceptor molecule, acceptor atom, score
      L1  H     1    25       P1  7948  0.94
      L1  H    23    48       P1 10171  0.64

> <Gold.Chemscore.Hbond.Weighted>
-6.3678

> <Gold.Chemscore.Metal.Weighted>
-0.0000

> <Gold.Chemscore.Lipo.Weighted>
-12.3139

> <Gold.Chemscore.Internal_Hbond.Weighted>
0.0000

> <Gold.Chemscore.DEClash.Weighted>
0.1568

> <Gold.Chemscore.DEInternal.Weighted>
2.8253

> <Gold.Chemscore.Rot.Weighted>
5.7221

> <Gold.Chemscore.Internal.Correction.Weighted>
   9.000000E+99

> <Gold.Protein.RotatedTorsions>
[ 6907 6896 6895 6894 ] final  125.01 input  -60.11 | X-H torsion
[ 7974 7965 7964 7962 ] final  -67.51 input  175.53 | X-H torsion
[ 8008 7997 7996 7995 ] final   53.41 input   59.86 | X-H torsion
[ 10167 10162 10161 10158 ] final -117.60 input  -65.29 | X-H torsion
[ 10718 10713 10712 10709 ] final  -50.46 input   66.30 | X-H torsion
[ 10763 10752 10751 10750 ] final  -63.69 input  -60.55 | X-H torsion
[ 11005 11000 10999 10996 ] final -111.75 input  -57.11 | X-H torsion

> <Gold.Protein.ActiveResidues>
 VAL166  LYS551  ARG553  GLY616  TRP617  ASP618  TYR619  PRO620  LYS621  CYS622 
 ASP623  PHE694  ASN695  SER759  ASP760  ASP761  ALA762  ILE779  LEU786  VAL792 
 PHE793  MET794  SER795  GLU796  ALA797  LYS798  CYS799  TRP800  GLU811  SER814 

> <Gold.Protein.RotatedAtoms>
  152.4029  133.6845  159.6331 H   0  0  0  0  0  0  0  0  0  0  0  0  # atno 6907 bound_to 6896
  150.7918  133.8760  159.3281 H   0  0  0  0  0  0  0  0  0  0  0  0  # atno 6908 bound_to 6896
  151.6521  135.1002  160.0214 H   0  0  0  0  0  0  0  0  0  0  0  0  # atno 6909 bound_to 6896
  145.7282  140.9008  143.0594 H   0  0  0  0  0  0  0  0  0  0  0  0  # atno 7974 bound_to 7965
  155.4678  140.3464  155.4321 H   0  0  0  0  0  0  0  0  0  0  0  0  # atno 8008 bound_to 7997
  156.1120  140.1463  156.9354 H   0  0  0  0  0  0  0  0  0  0  0  0  # atno 8009 bound_to 7997
  154.4763  140.0884  156.7248 H   0  0  0  0  0  0  0  0  0  0  0  0  # atno 8010 bound_to 7997
  140.0666  143.4917  152.2002 H   0  0  0  0  0  0  0  0  0  0  0  0  # atno 10167 bound_to 10162
  156.1799  130.4150  149.9522 H   0  0  0  0  0  0  0  0  0  0  0  0  # atno 10718 bound_to 10713
  154.3189  135.6200  153.5499 H   0  0  0  0  0  0  0  0  0  0  0  0  # atno 10763 bound_to 10752
  152.9822  135.5719  154.5092 H   0  0  0  0  0  0  0  0  0  0  0  0  # atno 10764 bound_to 10752
  154.4757  135.2861  155.1586 H   0  0  0  0  0  0  0  0  0  0  0  0  # atno 10765 bound_to 10752
  141.0716  133.9370  157.2473 H   0  0  0  0  0  0  0  0  0  0  0  0  # atno 11005 bound_to 11000
  144.6899  139.9295  143.7471 LP  0  0  0  0  0  0  0  0  0  0  0  0  # atno 17320 bound_to 7965
  146.0562  139.3559  143.0609 LP  0  0  0  0  0  0  0  0  0  0  0  0  # atno 17321 bound_to 7965
  139.5861  144.7531  151.3517 LP  0  0  0  0  0  0  0  0  0  0  0  0  # atno 17342 bound_to 10162
  140.7146  143.7301  150.7630 LP  0  0  0  0  0  0  0  0  0  0  0  0  # atno 17343 bound_to 10162
  156.7296  130.9038  151.3624 LP  0  0  0  0  0  0  0  0  0  0  0  0  # atno 17370 bound_to 10713
  157.6861  130.9187  150.0390 LP  0  0  0  0  0  0  0  0  0  0  0  0  # atno 17371 bound_to 10713
  139.9529  135.0171  156.9046 LP  0  0  0  0  0  0  0  0  0  0  0  0  # atno 17394 bound_to 11000
  140.5661  134.0488  155.7415 LP  0  0  0  0  0  0  0  0  0  0  0  0  # atno 17395 bound_to 11000

$$$$
