AV-unprocessed.smi:1807|AV-procd|sdf|7304|dock6
  -GOLD-   22720 8563D 1   1.00000     0.00000
 Structure written by MMmdl.
 44 45  0  0  0  0  0  0  0  0  1 V2000
  147.7741  133.2556  152.5184 C   0  0  0  0  0  0  0  0  0  0  0  0
  146.7092  133.3956  151.4158 C   0  0  1  0  0  0  0  0  0  0  0  0
  145.9138  132.0830  151.2641 C   0  0  0  0  0  0  0  0  0  0  0  0
  144.8429  132.1843  150.1678 C   0  0  0  0  0  0  0  0  0  0  0  0
  143.8920  133.3592  150.4339 C   0  0  0  0  0  0  0  0  0  0  0  0
  144.6686  134.6768  150.5699 C   0  0  0  0  0  0  0  0  0  0  0  0
  145.7524  134.5883  151.6648 C   0  0  2  0  0  0  0  0  0  0  0  0
  146.5054  135.8390  151.7194 N   0  0  0  0  0  0  0  0  0  0  0  0
  145.9989  137.0402  152.0345 C   0  0  0  0  0  0  0  0  0  0  0  0
  144.8054  137.2317  152.2716 O   0  0  0  0  0  0  0  0  0  0  0  0
  146.9962  138.2039  152.0677 C   0  0  0  0  0  0  0  0  0  0  0  0
  146.3703  139.4575  152.4736 N   0  0  0  0  0  0  0  0  0  0  0  0
  147.0652  140.3401  153.3113 C   0  0  0  0  0  0  0  0  0  0  0  0
  146.5026  141.5728  153.7407 C   0  0  0  0  0  0  0  0  0  0  0  0
  147.4806  142.1029  154.5340 C   0  0  0  0  0  0  0  0  0  0  0  0
  148.5373  141.2130  154.5433 N   0  0  0  0  0  0  0  0  0  0  0  0
  149.8030  141.3230  155.2464 C   0  0  0  0  0  0  0  0  0  0  0  0
  150.5700  139.9991  155.2140 C   0  0  0  0  0  0  0  0  0  0  0  0
  149.9408  138.9164  155.6780 N   0  0  0  0  0  0  0  0  0  0  0  0
  151.7167  139.9526  154.7744 O   0  0  0  0  0  0  0  0  0  0  0  0
  148.2847  140.1254  153.7825 N   0  0  0  0  0  0  0  0  0  0  0  0
  147.3108  133.0946  153.4919 H   0  0  0  0  0  0  0  0  0  0  0  0
  148.4025  134.1435  152.5925 H   0  0  0  0  0  0  0  0  0  0  0  0
  148.4334  132.4100  152.3215 H   0  0  0  0  0  0  0  0  0  0  0  0
  147.2332  133.5735  150.4755 H   0  0  0  0  0  0  0  0  0  0  0  0
  146.5918  131.2607  151.0332 H   0  0  0  0  0  0  0  0  0  0  0  0
  145.4373  131.8303  152.2126 H   0  0  0  0  0  0  0  0  0  0  0  0
  145.3226  132.3125  149.1968 H   0  0  0  0  0  0  0  0  0  0  0  0
  144.2775  131.2535  150.1140 H   0  0  0  0  0  0  0  0  0  0  0  0
  143.1630  133.4389  149.6272 H   0  0  0  0  0  0  0  0  0  0  0  0
  143.3249  133.1728  151.3468 H   0  0  0  0  0  0  0  0  0  0  0  0
  145.1299  134.9243  149.6127 H   0  0  0  0  0  0  0  0  0  0  0  0
  143.9725  135.4859  150.7945 H   0  0  0  0  0  0  0  0  0  0  0  0
  145.2611  134.4280  152.6270 H   0  0  0  0  0  0  0  0  0  0  0  0
  147.4961  135.7800  151.5342 H   0  0  0  0  0  0  0  0  0  0  0  0
  147.8411  137.9741  152.7194 H   0  0  0  0  0  0  0  0  0  0  0  0
  147.4044  138.3346  151.0656 H   0  0  0  0  0  0  0  0  0  0  0  0
  145.3657  139.5336  152.4085 H   0  0  0  0  0  0  0  0  0  0  0  0
  145.5365  141.9972  153.5113 H   0  0  0  0  0  0  0  0  0  0  0  0
  147.5117  143.0285  155.0896 H   0  0  0  0  0  0  0  0  0  0  0  0
  150.4078  142.1065  154.7869 H   0  0  0  0  0  0  0  0  0  0  0  0
  149.6066  141.6313  156.2745 H   0  0  0  0  0  0  0  0  0  0  0  0
  150.4041  138.0196  155.6725 H   0  0  0  0  0  0  0  0  0  0  0  0
  148.9976  138.9996  156.0295 H   0  0  0  0  0  0  0  0  0  0  0  0
  1  2  1  0  0  0  0
  1 22  1  0  0  0  0
  1 23  1  0  0  0  0
  1 24  1  0  0  0  0
  2  7  1  0  0  0  0
  2  3  1  0  0  0  0
  2 25  1  0  0  0  0
  3  4  1  0  0  0  0
  3 26  1  0  0  0  0
  3 27  1  0  0  0  0
  4  5  1  0  0  0  0
  4 28  1  0  0  0  0
  4 29  1  0  0  0  0
  5  6  1  0  0  0  0
  5 30  1  0  0  0  0
  5 31  1  0  0  0  0
  6  7  1  0  0  0  0
  6 32  1  0  0  0  0
  6 33  1  0  0  0  0
  7  8  1  0  0  0  0
  7 34  1  0  0  0  0
  8  9  1  0  0  0  0
  8 35  1  0  0  0  0
  9 10  2  0  0  0  0
  9 11  1  0  0  0  0
 11 12  1  0  0  0  0
 11 36  1  0  0  0  0
 11 37  1  0  0  0  0
 12 13  1  0  0  0  0
 12 38  1  0  0  0  0
 13 21  2  0  0  0  0
 13 14  1  0  0  0  0
 14 15  2  0  0  0  0
 14 39  1  0  0  0  0
 15 16  1  0  0  0  0
 15 40  1  0  0  0  0
 16 17  1  0  0  0  0
 16 21  1  0  0  0  0
 17 18  1  0  0  0  0
 17 41  1  0  0  0  0
 17 42  1  0  0  0  0
 18 19  1  0  0  0  0
 18 20  2  0  0  0  0
 19 43  1  0  0  0  0
 19 44  1  0  0  0  0
M  END
> <s_m_source_file>
AV-unprocessed.smi

> <i_m_source_file_index>
1807

> <i_lp_mmshare_version>
43012

> <i_f3d_flags>
0

> <s_epik_input>
W0NIM11bQ0BASF0xW0NIMl1bQ0gyXVtDSDJdW0NIMl1bQ0BIXTFbTkhdQyg9TylbQ0gyXVtOSF1jMltjSF1bY0hdbihuMilbQ0gyXUMoPU8pW05IMl0=

> <s_epik_cmdline>
J2VwaWtfcHl0aG9uJywgJy1waCcsICc3LjAnLCAnLXRuJywgJzgnLCAnLW1hJywgJzIwMCcsICctbWV0YWxfYmluZGluZycsICctaW1hZScsICc8aW5maWxlLm1hZT4nLCAnLW9tYWUnLCAnPG91dGZpbGUubWFlPic=

> <r_lp_tautomer_probability>
1

> <r_epik_Ionization_Penalty>
0.000167642

> <r_epik_Ionization_Penalty_Charging>
0

> <r_epik_Ionization_Penalty_Neutral>
0.000167642

> <r_epik_State_Penalty>
-0

> <r_epik_Charging_Adjusted_Penalty>
0

> <i_epik_Tot_Q>
0

> <i_epik_Tot_abs_Q>
0

> <r_epik_Metal_State_Penalty>
-0

> <b_epik_Metal_Only>
0

> <s_lp_Force_Field>
OPLS_2005

> <r_lp_Energy>
6.04908

> <b_lp_Chiralities_Consistent>
1

> <s_lp_Variant>
AV-unprocessed.smi:1807-4

> <Gold.Version>
5.8.1

> <Gold.Id.Protein>
6NUR|6NUR_protein|mol2

> <Gold.PLP.Fitness>
50.5798

> <Gold.PLP.PLP>
-39.2000

> <Gold.PLP.part.hbond>
-2.7660

> <Gold.PLP.part.metal>
0.0000

> <Gold.PLP.part.buried>
-0.3120

> <Gold.PLP.part.nonpolar>
-37.8759

> <Gold.PLP.part.repulsive>
2.5975

> <Gold.PLP.ligand.clash>
0.0000

> <Gold.PLP.ligand.torsion>
0.3195

> <Gold.PLP.Chemscore.Hbond>
3.0000

> <Gold.PLP.Chemscore.CHOScore>
1.0000

> <Gold.PLP.Chemscore.Metal>
0.0000

> <Gold.Chemscore.Hbonds>
donor molecule, donor type, donor heavy atom, donor atom, acceptor molecule, acceptor atom, score
      L1  H     8    35       P1  7948  0.96
      L1  H    12    38       P1 10175  1.00
      P1  H  7989  7998       L1    20  1.00
      L1  C    15    40       P1  8028  1.00

> <Gold.PLP.Chemscore.Internal.Correction>
0.0188

> <Gold.Rescore>
     Score         DG    S(hbond)    S(metal)    S(lipo)     H(rot)  DE(clash)    DE(int)     intcor
     14.93     -16.88       2.90        0.00      72.38       2.64       0.30       1.66       ----

> <Gold.Chemscore.Fitness>
14.9253

> <Gold.Chemscore.DG>
-16.8806

> <Gold.Chemscore.ZeroCoef>
-5.4800

> <Gold.Chemscore.Hbond>
2.8990

> <Gold.Chemscore.Metal>
0.0000

> <Gold.Chemscore.Lipo>
72.3787

> <Gold.Chemscore.Internal_Hbond>
0.0000

> <Gold.Chemscore.DEClash>
0.2987

> <Gold.Chemscore.DEInternal>
1.6566

> <Gold.Chemscore.Rot>
2.6369

> <Gold.Chemscore.Internal.Correction>
   9.000000E+99

> <Gold.Chemscore.Hbonds>
donor molecule, donor type, donor heavy atom, donor atom, acceptor molecule, acceptor atom, score
      L1  H     8    35       P1  7948  0.87
      L1  H    12    38       P1 10175  0.97
      P1  H  7989  7998       L1    20  0.42

> <Gold.Chemscore.Hbond.Weighted>
-9.6827

> <Gold.Chemscore.Metal.Weighted>
-0.0000

> <Gold.Chemscore.Lipo.Weighted>
-8.4683

> <Gold.Chemscore.Internal_Hbond.Weighted>
0.0000

> <Gold.Chemscore.DEClash.Weighted>
0.2987

> <Gold.Chemscore.DEInternal.Weighted>
1.6566

> <Gold.Chemscore.Rot.Weighted>
6.7504

> <Gold.Chemscore.Internal.Correction.Weighted>
   9.000000E+99

> <Gold.Protein.RotatedTorsions>
[ 6907 6896 6895 6894 ] final -101.33 input  -60.11 | X-H torsion
[ 7974 7965 7964 7962 ] final   39.65 input  175.53 | X-H torsion
[ 8008 7997 7996 7995 ] final  -35.43 input   59.86 | X-H torsion
[ 10167 10162 10161 10158 ] final   25.79 input  -65.29 | X-H torsion
[ 10718 10713 10712 10709 ] final  -32.56 input   66.30 | X-H torsion
[ 10763 10752 10751 10750 ] final  -69.51 input  -60.55 | X-H torsion
[ 11005 11000 10999 10996 ] final  -99.66 input  -57.11 | X-H torsion

> <Gold.Protein.ActiveResidues>
 VAL166  LYS551  ARG553  GLY616  TRP617  ASP618  TYR619  PRO620  LYS621  CYS622 
 ASP623  PHE694  ASN695  SER759  ASP760  ASP761  ALA762  ILE779  LEU786  VAL792 
 PHE793  MET794  SER795  GLU796  ALA797  LYS798  CYS799  TRP800  GLU811  SER814 

> <Gold.Protein.RotatedAtoms>
  150.7150  134.0751  159.3877 H   0  0  0  0  0  0  0  0  0  0  0  0  # atno 6907 bound_to 6896
  151.8734  135.0478  160.0491 H   0  0  0  0  0  0  0  0  0  0  0  0  # atno 6908 bound_to 6896
  152.2625  133.5274  159.5427 H   0  0  0  0  0  0  0  0  0  0  0  0  # atno 6909 bound_to 6896
  146.0967  139.5626  142.9440 H   0  0  0  0  0  0  0  0  0  0  0  0  # atno 7974 bound_to 7965
  154.4096  140.1657  156.2210 H   0  0  0  0  0  0  0  0  0  0  0  0  # atno 8008 bound_to 7997
  155.9364  140.3411  155.6268 H   0  0  0  0  0  0  0  0  0  0  0  0  # atno 8009 bound_to 7997
  155.7043  140.0749  157.2388 H   0  0  0  0  0  0  0  0  0  0  0  0  # atno 8010 bound_to 7997
  140.5077  144.0212  150.6359 H   0  0  0  0  0  0  0  0  0  0  0  0  # atno 10167 bound_to 10162
  156.3734  130.4343  149.7527 H   0  0  0  0  0  0  0  0  0  0  0  0  # atno 10718 bound_to 10713
  154.4045  135.6023  153.5916 H   0  0  0  0  0  0  0  0  0  0  0  0  # atno 10763 bound_to 10752
  152.9789  135.5914  154.4144 H   0  0  0  0  0  0  0  0  0  0  0  0  # atno 10764 bound_to 10752
  154.3948  135.2842  155.2111 H   0  0  0  0  0  0  0  0  0  0  0  0  # atno 10765 bound_to 10752
  141.1300  133.8338  157.1001 H   0  0  0  0  0  0  0  0  0  0  0  0  # atno 11005 bound_to 11000
  145.5934  141.0366  143.2058 LP  0  0  0  0  0  0  0  0  0  0  0  0  # atno 17320 bound_to 7965
  144.7401  139.7473  143.7314 LP  0  0  0  0  0  0  0  0  0  0  0  0  # atno 17321 bound_to 7965
  140.3526  143.2954  152.0471 LP  0  0  0  0  0  0  0  0  0  0  0  0  # atno 17342 bound_to 10162
  139.4888  144.6363  151.6969 LP  0  0  0  0  0  0  0  0  0  0  0  0  # atno 17343 bound_to 10162
  156.4645  130.7967  151.2987 LP  0  0  0  0  0  0  0  0  0  0  0  0  # atno 17370 bound_to 10713
  157.7486  131.0055  150.3117 LP  0  0  0  0  0  0  0  0  0  0  0  0  # atno 17371 bound_to 10713
  140.0339  134.9888  157.0833 LP  0  0  0  0  0  0  0  0  0  0  0  0  # atno 17394 bound_to 11000
  140.4242  134.1849  155.7165 LP  0  0  0  0  0  0  0  0  0  0  0  0  # atno 17395 bound_to 11000

$$$$
