AV-unprocessed.smi:283|AV-procd|sdf|2138|dock8
  -GOLD-   2262021463D 1   1.00000     0.00000
 Structure written by MMmdl.
 48 51  0  0  0  0  0  0  0  0  1 V2000
  147.8825  136.5792  162.8303 C   0  0  0  0  0  0  0  0  0  0  0  0
  146.8134  136.7775  161.7473 C   0  0  1  0  0  0  0  0  0  0  0  0
  147.2936  136.2363  160.4780 N   0  0  0  0  0  0  0  0  0  0  0  0
  147.6735  137.0514  159.4694 C   0  0  0  0  0  0  0  0  0  0  0  0
  146.6644  137.6468  158.7916 N   0  0  0  0  0  0  0  0  0  0  0  0
  146.9346  138.4886  157.7917 C   0  0  0  0  0  0  0  0  0  0  0  0
  148.1229  138.8545  157.3105 N   0  0  0  0  0  0  0  0  0  0  0  0
  149.1508  138.2421  157.9686 C   0  0  0  0  0  0  0  0  0  0  0  0
  149.0104  137.3371  159.0609 C   0  0  0  0  0  0  0  0  0  0  0  0
  150.2693  136.9324  159.4837 N   0  0  0  0  0  0  0  0  0  0  0  0
  151.0953  137.5715  158.7034 C   0  0  0  0  0  0  0  0  0  0  0  0
  150.5104  138.3517  157.7283 N   0  0  0  0  0  0  0  0  0  0  0  0
  151.1990  139.2196  156.7035 C   0  0  2  0  0  0  0  0  0  0  0  0
  151.6991  140.3623  157.3210 O   0  0  0  0  0  0  0  0  0  0  0  0
  150.6646  141.3309  157.4048 C   0  0  1  0  0  0  0  0  0  0  0  0
  151.2631  142.7205  157.6673 C   0  0  0  0  0  0  0  0  0  0  0  0
  150.2396  143.6926  157.6787 O   0  0  0  0  0  0  0  0  0  0  0  0
  149.9866  141.1985  156.0355 C   0  0  2  0  0  0  0  0  0  0  0  0
  148.6073  141.4861  156.1572 O   0  0  0  0  0  0  0  0  0  0  0  0
  150.2010  139.7326  155.6451 C   0  0  1  0  0  0  0  0  0  0  0  0
  150.7409  139.6314  154.3432 O   0  0  0  0  0  0  0  0  0  0  0  0
  145.4702  136.2111  162.2166 C   0  0  0  0  0  0  0  0  0  0  0  0
  144.3458  137.0622  162.3286 C   0  0  0  0  0  0  0  0  0  0  0  0
  143.1029  136.5591  162.7560 C   0  0  0  0  0  0  0  0  0  0  0  0
  142.9672  135.1944  163.0670 C   0  0  0  0  0  0  0  0  0  0  0  0
  144.0746  134.3350  162.9457 C   0  0  0  0  0  0  0  0  0  0  0  0
  145.3221  134.8339  162.5197 C   0  0  0  0  0  0  0  0  0  0  0  0
  146.6435  133.7280  162.3743 Cl  0  0  0  0  0  0  0  0  0  0  0  0
  151.9944  138.5835  156.3129 H   0  0  0  0  0  0  0  0  0  0  0  0
  149.9666  141.0524  158.1977 H   0  0  0  0  0  0  0  0  0  0  0  0
  150.4488  141.8700  155.3100 H   0  0  0  0  0  0  0  0  0  0  0  0
  149.2705  139.1664  155.6722 H   0  0  0  0  0  0  0  0  0  0  0  0
  147.5843  137.0514  163.7668 H   0  0  0  0  0  0  0  0  0  0  0  0
  148.8337  137.0199  162.5299 H   0  0  0  0  0  0  0  0  0  0  0  0
  148.0534  135.5210  163.0314 H   0  0  0  0  0  0  0  0  0  0  0  0
  146.7152  137.8513  161.6000 H   0  0  0  0  0  0  0  0  0  0  0  0
  147.0389  135.2737  160.3115 H   0  0  0  0  0  0  0  0  0  0  0  0
  146.0775  138.9324  157.3073 H   0  0  0  0  0  0  0  0  0  0  0  0
  152.1650  137.4808  158.8234 H   0  0  0  0  0  0  0  0  0  0  0  0
  151.8219  142.7439  158.6032 H   0  0  0  0  0  0  0  0  0  0  0  0
  151.9561  142.9857  156.8684 H   0  0  0  0  0  0  0  0  0  0  0  0
  150.0684  143.9594  156.7885 H   0  0  0  0  0  0  0  0  0  0  0  0
  148.2617  141.6705  155.2971 H   0  0  0  0  0  0  0  0  0  0  0  0
  150.0393  139.4357  153.7410 H   0  0  0  0  0  0  0  0  0  0  0  0
  144.4293  138.1118  162.0878 H   0  0  0  0  0  0  0  0  0  0  0  0
  142.2535  137.2207  162.8427 H   0  0  0  0  0  0  0  0  0  0  0  0
  142.0136  134.8059  163.3928 H   0  0  0  0  0  0  0  0  0  0  0  0
  143.9646  133.2860  163.1782 H   0  0  0  0  0  0  0  0  0  0  0  0
  1  2  1  0  0  0  0
  1 33  1  0  0  0  0
  1 34  1  0  0  0  0
  1 35  1  0  0  0  0
  2  3  1  0  0  0  0
  2 22  1  0  0  0  0
  2 36  1  0  0  0  0
  3  4  1  0  0  0  0
  3 37  1  0  0  0  0
  4  9  1  0  0  0  0
  4  5  2  0  0  0  0
  5  6  1  0  0  0  0
  6  7  2  0  0  0  0
  6 38  1  0  0  0  0
  7  8  1  0  0  0  0
  8 12  1  0  0  0  0
  8  9  2  0  0  0  0
  9 10  1  0  0  0  0
 10 11  2  0  0  0  0
 11 12  1  0  0  0  0
 11 39  1  0  0  0  0
 12 13  1  0  0  0  0
 13 29  1  0  0  0  0
 13 20  1  0  0  0  0
 13 14  1  0  0  0  0
 14 15  1  0  0  0  0
 15 30  1  0  0  0  0
 15 16  1  0  0  0  0
 15 18  1  0  0  0  0
 16 17  1  0  0  0  0
 16 40  1  0  0  0  0
 16 41  1  0  0  0  0
 17 42  1  0  0  0  0
 18 31  1  0  0  0  0
 18 19  1  0  0  0  0
 18 20  1  0  0  0  0
 19 43  1  0  0  0  0
 20 32  1  0  0  0  0
 20 21  1  0  0  0  0
 21 44  1  0  0  0  0
 22 27  1  0  0  0  0
 22 23  2  0  0  0  0
 23 24  1  0  0  0  0
 23 45  1  0  0  0  0
 24 25  2  0  0  0  0
 24 46  1  0  0  0  0
 25 26  1  0  0  0  0
 25 47  1  0  0  0  0
 26 27  2  0  0  0  0
 26 48  1  0  0  0  0
 27 28  1  0  0  0  0
M  END
> <s_m_source_file>
AV-unprocessed.smi

> <i_m_source_file_index>
283

> <i_lp_mmshare_version>
43012

> <i_f3d_flags>
0

> <s_epik_input>
Q2xjMVtjSF1bY0hdW2NIXVtjSF1jMVtDQEhdKFtDSDNdKVtOSF1jKG5bY0hdbjIpYyhjMjMpbltjSF1uM1tDQEBIXTRPW0NASF0oW0NIMl1bT0hdKVtDQEBIXShbT0hdKVtDQEhdNFtPSF0=

> <s_epik_cmdline>
J2VwaWtfcHl0aG9uJywgJy1waCcsICc3LjAnLCAnLXRuJywgJzgnLCAnLW1hJywgJzIwMCcsICctbWV0YWxfYmluZGluZycsICctaW1hZScsICc8aW5maWxlLm1hZT4nLCAnLW9tYWUnLCAnPG91dGZpbGUubWFlPic=

> <r_lp_tautomer_probability>
1

> <r_epik_Ionization_Penalty>
0.000266407

> <r_epik_Ionization_Penalty_Charging>
0

> <r_epik_Ionization_Penalty_Neutral>
0.000266407

> <r_epik_State_Penalty>
-0

> <r_epik_Charging_Adjusted_Penalty>
0

> <i_epik_Tot_Q>
0

> <i_epik_Tot_abs_Q>
0

> <r_epik_Metal_State_Penalty>
-0

> <b_epik_Metal_Only>
0

> <s_epik_Chemistry_Notes>
This compound contains an acetal/aminal-like group ( X-CH(R)-Y where X, Y are N, S, or O) that may be acid/base labile, releasing an aldehyde.

> <s_lp_Force_Field>
OPLS_2005

> <r_lp_Energy>
39.8379

> <b_lp_Chiralities_Consistent>
1

> <s_lp_Variant>
AV-unprocessed.smi:283-14

> <Gold.Version>
5.8.1

> <Gold.Id.Protein>
6NUR|6NUR_protein|mol2

> <Gold.PLP.Fitness>
51.7851

> <Gold.PLP.PLP>
-45.0626

> <Gold.PLP.part.hbond>
-3.3961

> <Gold.PLP.part.metal>
0.0000

> <Gold.PLP.part.buried>
-8.8951

> <Gold.PLP.part.nonpolar>
-33.6716

> <Gold.PLP.part.repulsive>
0.1264

> <Gold.PLP.ligand.clash>
0.0000

> <Gold.PLP.ligand.torsion>
1.1965

> <Gold.PLP.Chemscore.Hbond>
3.0000

> <Gold.PLP.Chemscore.CHOScore>
0.0000

> <Gold.PLP.Chemscore.Metal>
0.0000

> <Gold.Chemscore.Hbonds>
donor molecule, donor type, donor heavy atom, donor atom, acceptor molecule, acceptor atom, score
      L1  H    17    42       P1  8028  0.91
      P1  H  6896  6907       L1    10  0.89
      P1  H  7989  7998       L1    21  1.00

> <Gold.PLP.Chemscore.Internal.Correction>
0.1155

> <Gold.Rescore>
     Score         DG    S(hbond)    S(metal)    S(lipo)     H(rot)  DE(clash)    DE(int)     intcor
     12.45     -15.19       2.66        0.00      96.75       4.10       0.14       2.60       ----

> <Gold.Chemscore.Fitness>
12.4483

> <Gold.Chemscore.DG>
-15.1879

> <Gold.Chemscore.ZeroCoef>
-5.4800

> <Gold.Chemscore.Hbond>
2.6576

> <Gold.Chemscore.Metal>
0.0000

> <Gold.Chemscore.Lipo>
96.7459

> <Gold.Chemscore.Internal_Hbond>
0.0000

> <Gold.Chemscore.DEClash>
0.1416

> <Gold.Chemscore.DEInternal>
2.5979

> <Gold.Chemscore.Rot>
4.0968

> <Gold.Chemscore.Internal.Correction>
   9.000000E+99

> <Gold.Chemscore.Hbonds>
donor molecule, donor type, donor heavy atom, donor atom, acceptor molecule, acceptor atom, score
      L1  H    17    42       P1  8028  0.89
      P1  H  6896  6907       L1    10  0.57
      P1  H  7989  7998       L1    21  0.35

> <Gold.Chemscore.Hbond.Weighted>
-8.8765

> <Gold.Chemscore.Metal.Weighted>
-0.0000

> <Gold.Chemscore.Lipo.Weighted>
-11.3193

> <Gold.Chemscore.Internal_Hbond.Weighted>
0.0000

> <Gold.Chemscore.DEClash.Weighted>
0.1416

> <Gold.Chemscore.DEInternal.Weighted>
2.5979

> <Gold.Chemscore.Rot.Weighted>
10.4879

> <Gold.Chemscore.Internal.Correction.Weighted>
   9.000000E+99

> <Gold.Protein.RotatedTorsions>
[ 6907 6896 6895 6894 ] final  -35.23 input  -60.11 | X-H torsion
[ 7974 7965 7964 7962 ] final   13.96 input  175.53 | X-H torsion
[ 8008 7997 7996 7995 ] final   11.97 input   59.86 | X-H torsion
[ 10167 10162 10161 10158 ] final  -22.24 input  -65.29 | X-H torsion
[ 10718 10713 10712 10709 ] final   49.61 input   66.30 | X-H torsion
[ 10763 10752 10751 10750 ] final -153.62 input  -60.55 | X-H torsion
[ 11005 11000 10999 10996 ] final   67.01 input  -57.11 | X-H torsion

> <Gold.Protein.ActiveResidues>
 VAL166  LYS551  ARG553  GLY616  TRP617  ASP618  TYR619  PRO620  LYS621  CYS622 
 ASP623  PHE694  ASN695  SER759  ASP760  ASP761  ALA762  ILE779  LEU786  VAL792 
 PHE793  MET794  SER795  GLU796  ALA797  LYS798  CYS799  TRP800  GLU811  SER814 

> <Gold.Protein.RotatedAtoms>
  151.0424  134.9616  159.8168 H   0  0  0  0  0  0  0  0  0  0  0  0  # atno 6907 bound_to 6896
  152.5366  134.2641  159.8956 H   0  0  0  0  0  0  0  0  0  0  0  0  # atno 6908 bound_to 6896
  151.2653  133.4239  159.2652 H   0  0  0  0  0  0  0  0  0  0  0  0  # atno 6909 bound_to 6896
  146.2317  139.9111  142.8524 H   0  0  0  0  0  0  0  0  0  0  0  0  # atno 7974 bound_to 7965
  154.8142  140.2873  155.5831 H   0  0  0  0  0  0  0  0  0  0  0  0  # atno 8008 bound_to 7997
  156.2991  140.2562  156.2967 H   0  0  0  0  0  0  0  0  0  0  0  0  # atno 8009 bound_to 7997
  154.9412  140.0381  157.2087 H   0  0  0  0  0  0  0  0  0  0  0  0  # atno 8010 bound_to 7997
  140.7285  143.4553  151.0457 H   0  0  0  0  0  0  0  0  0  0  0  0  # atno 10167 bound_to 10162
  157.4803  130.8311  149.8086 H   0  0  0  0  0  0  0  0  0  0  0  0  # atno 10718 bound_to 10713
  154.7915  135.3209  154.7765 H   0  0  0  0  0  0  0  0  0  0  0  0  # atno 10763 bound_to 10752
  153.8453  135.6867  153.4802 H   0  0  0  0  0  0  0  0  0  0  0  0  # atno 10764 bound_to 10752
  153.1588  135.4669  154.9683 H   0  0  0  0  0  0  0  0  0  0  0  0  # atno 10765 bound_to 10752
  139.9797  134.6765  156.0287 H   0  0  0  0  0  0  0  0  0  0  0  0  # atno 11005 bound_to 11000
  145.2228  140.9942  143.4035 LP  0  0  0  0  0  0  0  0  0  0  0  0  # atno 17320 bound_to 7965
  144.9596  139.3995  143.6362 LP  0  0  0  0  0  0  0  0  0  0  0  0  # atno 17321 bound_to 7965
  139.8233  143.7790  152.3177 LP  0  0  0  0  0  0  0  0  0  0  0  0  # atno 17342 bound_to 10162
  139.7880  144.7420  150.9994 LP  0  0  0  0  0  0  0  0  0  0  0  0  # atno 17343 bound_to 10162
  156.0118  130.3830  150.2239 LP  0  0  0  0  0  0  0  0  0  0  0  0  # atno 17370 bound_to 10713
  157.0425  131.0039  151.3279 LP  0  0  0  0  0  0  0  0  0  0  0  0  # atno 17371 bound_to 10713
  141.1470  133.6554  156.3898 LP  0  0  0  0  0  0  0  0  0  0  0  0  # atno 17394 bound_to 11000
  140.5122  134.6384  157.5288 LP  0  0  0  0  0  0  0  0  0  0  0  0  # atno 17395 bound_to 11000

$$$$
