AV-unprocessed.smi:2739|AV-procd|sdf|10552|dock2
  -GOLD-   2272015 03D 1   1.00000     0.00000
 Structure written by MMmdl.
 35 35  0  0  0  0  0  0  0  0  1 V2000
  146.1430  141.7183  155.5619 C   0  0  0  0  0  0  0  0  0  0  0  0
  147.0955  142.2225  156.6557 C   0  0  0  0  0  0  0  0  0  0  0  0
  146.3842  142.9167  157.8343 C   0  0  2  0  0  0  0  0  0  0  0  0
  145.1836  143.7471  157.3600 C   0  0  0  0  0  0  0  0  0  0  0  0
  147.3088  143.7870  158.5584 N   0  0  0  0  0  0  0  0  0  0  0  0
  147.5637  143.7475  159.8762 C   0  0  0  0  0  0  0  0  0  0  0  0
  147.0478  142.9407  160.6492 O   0  0  0  0  0  0  0  0  0  0  0  0
  148.5606  144.7790  160.4047 C   0  0  0  0  0  0  0  0  0  0  0  0
  149.8901  144.5390  159.8736 N   0  0  0  0  0  0  0  0  0  0  0  0
  150.5799  145.2687  158.9293 C   0  0  0  0  0  0  0  0  0  0  0  0
  151.7873  144.6581  158.7475 C   0  0  0  0  0  0  0  0  0  0  0  0
  151.7491  143.5436  159.6336 C   0  0  0  0  0  0  0  0  0  0  0  0
  152.8230  142.5109  159.8603 C   0  0  1  0  0  0  0  0  0  0  0  0
  153.1962  142.3999  161.3450 C   0  0  0  0  0  0  0  0  0  0  0  0
  152.4453  141.2309  159.3948 O   0  0  0  0  0  0  0  0  0  0  0  0
  150.6075  143.4802  160.3069 N   0  0  0  0  0  0  0  0  0  0  0  0
  146.7024  141.2944  154.7279 H   0  0  0  0  0  0  0  0  0  0  0  0
  145.5280  142.5295  155.1716 H   0  0  0  0  0  0  0  0  0  0  0  0
  145.4758  140.9421  155.9367 H   0  0  0  0  0  0  0  0  0  0  0  0
  147.6947  141.3888  157.0241 H   0  0  0  0  0  0  0  0  0  0  0  0
  147.7989  142.9224  156.2032 H   0  0  0  0  0  0  0  0  0  0  0  0
  145.9983  142.1432  158.5005 H   0  0  0  0  0  0  0  0  0  0  0  0
  144.4558  143.1234  156.8405 H   0  0  0  0  0  0  0  0  0  0  0  0
  145.4920  144.5384  156.6759 H   0  0  0  0  0  0  0  0  0  0  0  0
  144.6730  144.2149  158.2024 H   0  0  0  0  0  0  0  0  0  0  0  0
  147.7863  144.4901  158.0127 H   0  0  0  0  0  0  0  0  0  0  0  0
  148.2454  145.7832  160.1185 H   0  0  0  0  0  0  0  0  0  0  0  0
  148.5894  144.7501  161.4954 H   0  0  0  0  0  0  0  0  0  0  0  0
  150.1575  146.1507  158.4703 H   0  0  0  0  0  0  0  0  0  0  0  0
  152.5805  144.9619  158.0807 H   0  0  0  0  0  0  0  0  0  0  0  0
  153.7157  142.7977  159.3034 H   0  0  0  0  0  0  0  0  0  0  0  0
  153.5416  143.3586  161.7332 H   0  0  0  0  0  0  0  0  0  0  0  0
  153.9967  141.6754  161.4971 H   0  0  0  0  0  0  0  0  0  0  0  0
  152.3432  142.0851  161.9474 H   0  0  0  0  0  0  0  0  0  0  0  0
  153.1969  140.6608  159.4481 H   0  0  0  0  0  0  0  0  0  0  0  0
  1  2  1  0  0  0  0
  1 17  1  0  0  0  0
  1 18  1  0  0  0  0
  1 19  1  0  0  0  0
  2  3  1  0  0  0  0
  2 20  1  0  0  0  0
  2 21  1  0  0  0  0
  3  4  1  0  0  0  0
  3  5  1  0  0  0  0
  3 22  1  0  0  0  0
  4 23  1  0  0  0  0
  4 24  1  0  0  0  0
  4 25  1  0  0  0  0
  5  6  1  0  0  0  0
  5 26  1  0  0  0  0
  6  7  2  0  0  0  0
  6  8  1  0  0  0  0
  8  9  1  0  0  0  0
  8 27  1  0  0  0  0
  8 28  1  0  0  0  0
  9 16  1  0  0  0  0
  9 10  1  0  0  0  0
 10 11  2  0  0  0  0
 10 29  1  0  0  0  0
 11 12  1  0  0  0  0
 11 30  1  0  0  0  0
 12 13  1  0  0  0  0
 12 16  2  0  0  0  0
 13 14  1  0  0  0  0
 13 15  1  0  0  0  0
 13 31  1  0  0  0  0
 14 32  1  0  0  0  0
 14 33  1  0  0  0  0
 14 34  1  0  0  0  0
 15 35  1  0  0  0  0
M  END
> <s_m_source_file>
AV-unprocessed.smi

> <i_m_source_file_index>
2739

> <i_lp_mmshare_version>
43012

> <i_f3d_flags>
0

> <s_epik_input>
W0NIM11bQ0gyXVtDQEhdKFtDSDNdKVtOSF1DKD1PKVtDSDJdbjFbY0hdW2NIXWMobjEpW0NASF0oW0NIM10pW09IXQ==

> <s_epik_cmdline>
J2VwaWtfcHl0aG9uJywgJy1waCcsICc3LjAnLCAnLXRuJywgJzgnLCAnLW1hJywgJzIwMCcsICctbWV0YWxfYmluZGluZycsICctaW1hZScsICc8aW5maWxlLm1hZT4nLCAnLW9tYWUnLCAnPG91dGZpbGUubWFlPic=

> <r_lp_tautomer_probability>
1

> <r_epik_Ionization_Penalty>
5.22246e-06

> <r_epik_Ionization_Penalty_Charging>
0

> <r_epik_Ionization_Penalty_Neutral>
5.22246e-06

> <r_epik_State_Penalty>
-0

> <r_epik_Charging_Adjusted_Penalty>
0

> <i_epik_Tot_Q>
0

> <i_epik_Tot_abs_Q>
0

> <r_epik_Metal_State_Penalty>
-0

> <b_epik_Metal_Only>
0

> <s_lp_Force_Field>
OPLS_2005

> <r_lp_Energy>
1.64389

> <b_lp_Chiralities_Consistent>
1

> <s_lp_Variant>
AV-unprocessed.smi:2739-3

> <Gold.Version>
5.8.1

> <Gold.Id.Protein>
6NUR|6NUR_protein|mol2

> <Gold.PLP.Fitness>
40.2687

> <Gold.PLP.PLP>
-30.8661

> <Gold.PLP.part.hbond>
-4.0000

> <Gold.PLP.part.metal>
0.0000

> <Gold.PLP.part.buried>
-2.2907

> <Gold.PLP.part.nonpolar>
-24.8226

> <Gold.PLP.part.repulsive>
0.1870

> <Gold.PLP.ligand.clash>
0.0000

> <Gold.PLP.ligand.torsion>
0.5346

> <Gold.PLP.Chemscore.Hbond>
2.6989

> <Gold.PLP.Chemscore.CHOScore>
0.7807

> <Gold.PLP.Chemscore.Metal>
0.0000

> <Gold.Chemscore.Hbonds>
donor molecule, donor type, donor heavy atom, donor atom, acceptor molecule, acceptor atom, score
      L1  H     5    26       P1  8029  1.00
      P1  H  6933  6944       L1     7  1.00
      P1  H  6934  6946       L1     7  0.67
      L1  C    10    29       P1  8029  0.78

> <Gold.PLP.Chemscore.Internal.Correction>
0.0331

> <Gold.Rescore>
     Score         DG    S(hbond)    S(metal)    S(lipo)     H(rot)  DE(clash)    DE(int)     intcor
     12.22     -12.83       1.45        0.00      72.68       2.34       0.08       0.54       ----

> <Gold.Chemscore.Fitness>
12.2178

> <Gold.Chemscore.DG>
-12.8342

> <Gold.Chemscore.ZeroCoef>
-5.4800

> <Gold.Chemscore.Hbond>
1.4532

> <Gold.Chemscore.Metal>
0.0000

> <Gold.Chemscore.Lipo>
72.6783

> <Gold.Chemscore.Internal_Hbond>
0.0000

> <Gold.Chemscore.DEClash>
0.0804

> <Gold.Chemscore.DEInternal>
0.5360

> <Gold.Chemscore.Rot>
2.3448

> <Gold.Chemscore.Internal.Correction>
   9.000000E+99

> <Gold.Chemscore.Hbonds>
donor molecule, donor type, donor heavy atom, donor atom, acceptor molecule, acceptor atom, score
      L1  H     5    26       P1  8029  0.38
      P1  H  6933  6944       L1     7  0.24
      P1  H  6934  6946       L1     7  0.66

> <Gold.Chemscore.Hbond.Weighted>
-4.8536

> <Gold.Chemscore.Metal.Weighted>
-0.0000

> <Gold.Chemscore.Lipo.Weighted>
-8.5034

> <Gold.Chemscore.Internal_Hbond.Weighted>
0.0000

> <Gold.Chemscore.DEClash.Weighted>
0.0804

> <Gold.Chemscore.DEInternal.Weighted>
0.5360

> <Gold.Chemscore.Rot.Weighted>
6.0027

> <Gold.Chemscore.Internal.Correction.Weighted>
   9.000000E+99

> <Gold.Protein.RotatedTorsions>
[ 6907 6896 6895 6894 ] final -159.65 input  -60.11 | X-H torsion
[ 7974 7965 7964 7962 ] final -140.95 input  175.53 | X-H torsion
[ 8008 7997 7996 7995 ] final  -55.96 input   59.86 | X-H torsion
[ 10167 10162 10161 10158 ] final  122.95 input  -65.29 | X-H torsion
[ 10718 10713 10712 10709 ] final  -96.39 input   66.30 | X-H torsion
[ 10763 10752 10751 10750 ] final  -92.04 input  -60.55 | X-H torsion
[ 11005 11000 10999 10996 ] final  176.36 input  -57.11 | X-H torsion

> <Gold.Protein.ActiveResidues>
 VAL166  LYS551  ARG553  GLY616  TRP617  ASP618  TYR619  PRO620  LYS621  CYS622 
 ASP623  PHE694  ASN695  SER759  ASP760  ASP761  ALA762  ILE779  LEU786  VAL792 
 PHE793  MET794  SER795  GLU796  ALA797  LYS798  CYS799  TRP800  GLU811  SER814 

> <Gold.Protein.RotatedAtoms>
  151.3369  133.3978  159.2667 H   0  0  0  0  0  0  0  0  0  0  0  0  # atno 6907 bound_to 6896
  150.9910  134.9245  159.7910 H   0  0  0  0  0  0  0  0  0  0  0  0  # atno 6908 bound_to 6896
  152.5247  134.3334  159.9243 H   0  0  0  0  0  0  0  0  0  0  0  0  # atno 6909 bound_to 6896
  144.8557  140.6138  143.5361 H   0  0  0  0  0  0  0  0  0  0  0  0  # atno 7974 bound_to 7965
  154.4213  140.1141  156.5560 H   0  0  0  0  0  0  0  0  0  0  0  0  # atno 8008 bound_to 7997
  155.6361  140.3496  155.4680 H   0  0  0  0  0  0  0  0  0  0  0  0  # atno 8009 bound_to 7997
  155.9909  140.1179  157.0629 H   0  0  0  0  0  0  0  0  0  0  0  0  # atno 8010 bound_to 7997
  139.5828  144.6994  151.3484 H   0  0  0  0  0  0  0  0  0  0  0  0  # atno 10167 bound_to 10162
  156.0061  130.5149  150.6218 H   0  0  0  0  0  0  0  0  0  0  0  0  # atno 10718 bound_to 10713
  154.6822  135.5245  153.8278 H   0  0  0  0  0  0  0  0  0  0  0  0  # atno 10763 bound_to 10752
  153.0572  135.6555  154.0558 H   0  0  0  0  0  0  0  0  0  0  0  0  # atno 10764 bound_to 10752
  154.0444  135.2974  155.3330 H   0  0  0  0  0  0  0  0  0  0  0  0  # atno 10765 bound_to 10752
  140.3723  134.7019  157.4400 H   0  0  0  0  0  0  0  0  0  0  0  0  # atno 11005 bound_to 11000
  145.4412  139.1535  143.3969 LP  0  0  0  0  0  0  0  0  0  0  0  0  # atno 17320 bound_to 7965
  146.2821  140.4533  142.8772 LP  0  0  0  0  0  0  0  0  0  0  0  0  # atno 17321 bound_to 7965
  140.7104  143.7405  150.7557 LP  0  0  0  0  0  0  0  0  0  0  0  0  # atno 17342 bound_to 10162
  140.0942  143.4849  152.2462 LP  0  0  0  0  0  0  0  0  0  0  0  0  # atno 17343 bound_to 10162
  157.4032  131.0813  151.1289 LP  0  0  0  0  0  0  0  0  0  0  0  0  # atno 17370 bound_to 10713
  157.1944  130.6366  149.5716 LP  0  0  0  0  0  0  0  0  0  0  0  0  # atno 17371 bound_to 10713
  140.0542  134.6087  155.8825 LP  0  0  0  0  0  0  0  0  0  0  0  0  # atno 17394 bound_to 11000
  141.1950  133.6585  156.5624 LP  0  0  0  0  0  0  0  0  0  0  0  0  # atno 17395 bound_to 11000

$$$$
