AV-unprocessed.smi:1812|AV-procd|sdf|7337|dock8
  -GOLD-   22720 8593D 1   1.00000     0.00000
 Structure written by MMmdl.
 34 36  0  0  0  0  0  0  0  0  1 V2000
  146.6673  139.4141  153.9141 O   0  0  0  0  0  0  0  0  0  0  0  0
  147.4491  138.6550  153.3407 C   0  0  0  0  0  0  0  0  0  0  0  0
  147.0576  137.7107  152.4734 N   0  0  0  0  0  0  0  0  0  0  0  0
  145.6748  137.4512  152.0891 C   0  0  0  0  0  0  0  0  0  0  0  0
  145.5418  136.1318  151.3120 C   0  0  1  0  0  0  0  0  0  0  0  0
  146.2221  134.9471  151.9893 C   0  0  0  0  0  0  0  0  0  0  0  0
  145.5194  133.7610  151.3569 C   0  0  0  0  0  0  0  0  0  0  0  0
  144.1532  134.3222  150.9489 C   0  0  0  0  0  0  0  0  0  0  0  0
  144.1870  135.7111  151.2606 O   0  0  0  0  0  0  0  0  0  0  0  0
  148.7852  138.6537  153.4928 N   0  0  0  0  0  0  0  0  0  0  0  0
  149.5807  139.5206  154.2881 C   0  0  0  0  0  0  0  0  0  0  0  0
  150.9112  139.4117  154.4055 N   0  0  0  0  0  0  0  0  0  0  0  0
  151.4375  140.3793  155.2497 N   0  0  0  0  0  0  0  0  0  0  0  0
  150.4944  141.1891  155.7456 C   0  0  0  0  0  0  0  0  0  0  0  0
  150.8172  142.3054  156.6825 C   0  0  0  0  0  0  0  0  0  0  0  0
  151.5750  142.0430  157.9638 C   0  0  0  0  0  0  0  0  0  0  0  0
  150.1238  142.4460  158.0199 C   0  0  0  0  0  0  0  0  0  0  0  0
  148.8571  140.8302  155.2059 S   0  0  0  0  0  0  0  0  0  0  0  0
  147.7634  137.1255  152.0511 H   0  0  0  0  0  0  0  0  0  0  0  0
  145.0420  137.4303  152.9778 H   0  0  0  0  0  0  0  0  0  0  0  0
  145.3231  138.2840  151.4796 H   0  0  0  0  0  0  0  0  0  0  0  0
  145.9220  136.2380  150.2940 H   0  0  0  0  0  0  0  0  0  0  0  0
  147.3018  134.9333  151.8380 H   0  0  0  0  0  0  0  0  0  0  0  0
  146.0286  134.9621  153.0629 H   0  0  0  0  0  0  0  0  0  0  0  0
  146.0636  133.4250  150.4735 H   0  0  0  0  0  0  0  0  0  0  0  0
  145.4384  132.9174  152.0430 H   0  0  0  0  0  0  0  0  0  0  0  0
  143.9828  134.1869  149.8803 H   0  0  0  0  0  0  0  0  0  0  0  0
  143.3356  133.8407  151.4860 H   0  0  0  0  0  0  0  0  0  0  0  0
  149.2953  137.9614  152.9646 H   0  0  0  0  0  0  0  0  0  0  0  0
  151.0480  143.2147  156.1313 H   0  0  0  0  0  0  0  0  0  0  0  0
  151.8179  141.0100  158.2053 H   0  0  0  0  0  0  0  0  0  0  0  0
  152.3140  142.7803  158.2706 H   0  0  0  0  0  0  0  0  0  0  0  0
  149.8951  143.4533  158.3616 H   0  0  0  0  0  0  0  0  0  0  0  0
  149.4074  141.6817  158.3131 H   0  0  0  0  0  0  0  0  0  0  0  0
  1  2  2  0  0  0  0
  2  3  1  0  0  0  0
  2 10  1  0  0  0  0
  3  4  1  0  0  0  0
  3 19  1  0  0  0  0
  4  5  1  0  0  0  0
  4 20  1  0  0  0  0
  4 21  1  0  0  0  0
  5  9  1  0  0  0  0
  5  6  1  0  0  0  0
  5 22  1  0  0  0  0
  6  7  1  0  0  0  0
  6 23  1  0  0  0  0
  6 24  1  0  0  0  0
  7  8  1  0  0  0  0
  7 25  1  0  0  0  0
  7 26  1  0  0  0  0
  8  9  1  0  0  0  0
  8 27  1  0  0  0  0
  8 28  1  0  0  0  0
 10 11  1  0  0  0  0
 10 29  1  0  0  0  0
 11 18  1  0  0  0  0
 11 12  2  0  0  0  0
 12 13  1  0  0  0  0
 13 14  2  0  0  0  0
 14 15  1  0  0  0  0
 14 18  1  0  0  0  0
 15 17  1  0  0  0  0
 15 16  1  0  0  0  0
 15 30  1  0  0  0  0
 16 17  1  0  0  0  0
 16 31  1  0  0  0  0
 16 32  1  0  0  0  0
 17 33  1  0  0  0  0
 17 34  1  0  0  0  0
M  END
> <s_m_source_file>
AV-unprocessed.smi

> <i_m_source_file_index>
1812

> <i_lp_mmshare_version>
43012

> <i_f3d_flags>
0

> <s_epik_input>
TzFbQ0gyXVtDSDJdW0NIMl1bQ0BIXTFbQ0gyXVtOSF1DKD1PKVtOSF1jMm5uYyhzMilbQ0hdM1tDSDJdW0NIMl0z

> <s_epik_cmdline>
J2VwaWtfcHl0aG9uJywgJy1waCcsICc3LjAnLCAnLXRuJywgJzgnLCAnLW1hJywgJzIwMCcsICctbWV0YWxfYmluZGluZycsICctaW1hZScsICc8aW5maWxlLm1hZT4nLCAnLW9tYWUnLCAnPG91dGZpbGUubWFlPic=

> <r_lp_tautomer_probability>
1

> <r_epik_Ionization_Penalty>
0.000281817

> <r_epik_Ionization_Penalty_Charging>
0

> <r_epik_Ionization_Penalty_Neutral>
0.000281817

> <r_epik_State_Penalty>
-0

> <r_epik_Charging_Adjusted_Penalty>
0

> <i_epik_Tot_Q>
0

> <i_epik_Tot_abs_Q>
0

> <r_epik_Metal_State_Penalty>
0.157535

> <b_epik_Metal_Only>
0

> <s_lp_Force_Field>
OPLS_2005

> <r_lp_Energy>
14.4176

> <b_lp_Chiralities_Consistent>
1

> <s_lp_Variant>
AV-unprocessed.smi:1812-2

> <Gold.Version>
5.8.1

> <Gold.Id.Protein>
6NUR|6NUR_protein|mol2

> <Gold.PLP.Fitness>
35.2387

> <Gold.PLP.PLP>
-29.9395

> <Gold.PLP.part.hbond>
-4.9609

> <Gold.PLP.part.metal>
0.0000

> <Gold.PLP.part.buried>
-3.2121

> <Gold.PLP.part.nonpolar>
-23.1934

> <Gold.PLP.part.repulsive>
0.6202

> <Gold.PLP.ligand.clash>
0.0000

> <Gold.PLP.ligand.torsion>
0.2146

> <Gold.PLP.Chemscore.Hbond>
1.8636

> <Gold.PLP.Chemscore.CHOScore>
0.0000

> <Gold.PLP.Chemscore.Metal>
0.0000

> <Gold.Chemscore.Hbonds>
donor molecule, donor type, donor heavy atom, donor atom, acceptor molecule, acceptor atom, score
      L1  H     3    19       P1  7948  0.88
      L1  H    10    29       P1  7948  0.80

> <Gold.PLP.Chemscore.Internal.Correction>
0.1378

> <Gold.Rescore>
     Score         DG    S(hbond)    S(metal)    S(lipo)     H(rot)  DE(clash)    DE(int)     intcor
     13.76     -15.45       1.87        0.00      63.97       1.47       0.22       1.48       ----

> <Gold.Chemscore.Fitness>
13.7588

> <Gold.Chemscore.DG>
-15.4526

> <Gold.Chemscore.ZeroCoef>
-5.4800

> <Gold.Chemscore.Hbond>
1.8735

> <Gold.Chemscore.Metal>
0.0000

> <Gold.Chemscore.Lipo>
63.9724

> <Gold.Chemscore.Internal_Hbond>
0.0000

> <Gold.Chemscore.DEClash>
0.2158

> <Gold.Chemscore.DEInternal>
1.4781

> <Gold.Chemscore.Rot>
1.4725

> <Gold.Chemscore.Internal.Correction>
   9.000000E+99

> <Gold.Chemscore.Hbonds>
donor molecule, donor type, donor heavy atom, donor atom, acceptor molecule, acceptor atom, score
      L1  H     3    19       P1  7948  0.85
      L1  H    10    29       P1  7948  0.71

> <Gold.Chemscore.Hbond.Weighted>
-6.2574

> <Gold.Chemscore.Metal.Weighted>
-0.0000

> <Gold.Chemscore.Lipo.Weighted>
-7.4848

> <Gold.Chemscore.Internal_Hbond.Weighted>
0.0000

> <Gold.Chemscore.DEClash.Weighted>
0.2158

> <Gold.Chemscore.DEInternal.Weighted>
1.4781

> <Gold.Chemscore.Rot.Weighted>
3.7695

> <Gold.Chemscore.Internal.Correction.Weighted>
   9.000000E+99

> <Gold.Protein.RotatedTorsions>
[ 6907 6896 6895 6894 ] final  111.31 input  -60.11 | X-H torsion
[ 7974 7965 7964 7962 ] final   59.18 input  175.53 | X-H torsion
[ 8008 7997 7996 7995 ] final  144.38 input   59.86 | X-H torsion
[ 10167 10162 10161 10158 ] final  158.82 input  -65.29 | X-H torsion
[ 10718 10713 10712 10709 ] final   79.20 input   66.30 | X-H torsion
[ 10763 10752 10751 10750 ] final  134.72 input  -60.55 | X-H torsion
[ 11005 11000 10999 10996 ] final -152.39 input  -57.11 | X-H torsion

> <Gold.Protein.ActiveResidues>
 VAL166  LYS551  ARG553  GLY616  TRP617  ASP618  TYR619  PRO620  LYS621  CYS622 
 ASP623  PHE694  ASN695  SER759  ASP760  ASP761  ALA762  ILE779  LEU786  VAL792 
 PHE793  MET794  SER795  GLU796  ALA797  LYS798  CYS799  TRP800  GLU811  SER814 

> <Gold.Protein.RotatedAtoms>
  152.4976  133.8675  159.7281 H   0  0  0  0  0  0  0  0  0  0  0  0  # atno 6907 bound_to 6896
  150.9171  133.6917  159.2847 H   0  0  0  0  0  0  0  0  0  0  0  0  # atno 6908 bound_to 6896
  151.4307  135.1013  159.9694 H   0  0  0  0  0  0  0  0  0  0  0  0  # atno 6909 bound_to 6896
  145.9100  139.3647  143.0541 H   0  0  0  0  0  0  0  0  0  0  0  0  # atno 7974 bound_to 7965
  156.2909  140.2237  156.5044 H   0  0  0  0  0  0  0  0  0  0  0  0  # atno 8008 bound_to 7997
  154.7662  140.0470  157.1036 H   0  0  0  0  0  0  0  0  0  0  0  0  # atno 8009 bound_to 7997
  154.9930  140.3092  155.4902 H   0  0  0  0  0  0  0  0  0  0  0  0  # atno 8010 bound_to 7997
  139.4829  144.4788  151.8473 H   0  0  0  0  0  0  0  0  0  0  0  0  # atno 10167 bound_to 10162
  157.6769  130.9903  150.1898 H   0  0  0  0  0  0  0  0  0  0  0  0  # atno 10718 bound_to 10713
  153.8282  135.3107  155.3416 H   0  0  0  0  0  0  0  0  0  0  0  0  # atno 10763 bound_to 10752
  154.7984  135.4741  154.0219 H   0  0  0  0  0  0  0  0  0  0  0  0  # atno 10764 bound_to 10752
  153.1650  135.6868  153.8778 H   0  0  0  0  0  0  0  0  0  0  0  0  # atno 10765 bound_to 10752
  140.7193  134.3745  157.5186 H   0  0  0  0  0  0  0  0  0  0  0  0  # atno 11005 bound_to 11000
  145.8683  140.9435  143.0664 LP  0  0  0  0  0  0  0  0  0  0  0  0  # atno 17320 bound_to 7965
  144.6742  140.0622  143.7475 LP  0  0  0  0  0  0  0  0  0  0  0  0  # atno 17321 bound_to 7965
  140.4263  144.2176  150.5887 LP  0  0  0  0  0  0  0  0  0  0  0  0  # atno 17342 bound_to 10162
  140.4824  143.2374  151.8936 LP  0  0  0  0  0  0  0  0  0  0  0  0  # atno 17343 bound_to 10162
  156.2612  130.3711  149.8128 LP  0  0  0  0  0  0  0  0  0  0  0  0  # atno 17370 bound_to 10713
  156.5873  130.8491  151.3399 LP  0  0  0  0  0  0  0  0  0  0  0  0  # atno 17371 bound_to 10713
  139.8852  134.8944  156.2658 LP  0  0  0  0  0  0  0  0  0  0  0  0  # atno 17394 bound_to 11000
  141.0017  133.7147  156.0971 LP  0  0  0  0  0  0  0  0  0  0  0  0  # atno 17395 bound_to 11000

$$$$
