AV-unprocessed.smi:3321|AV-procd|sdf|12772|dock6
  -GOLD-   2272019113D 1   1.00000     0.00000
 Structure written by MMmdl.
 40 41  0  0  0  0  0  0  0  0  1 V2000
  151.5212  144.1421  157.2238 C   0  0  0  0  0  0  0  0  0  0  0  0
  150.8196  142.9226  157.8423 C   0  0  1  0  0  0  0  0  0  0  0  0
  150.0377  142.2315  156.8006 N   0  0  0  0  0  0  0  0  0  0  0  0
  150.8531  141.6436  155.7413 C   0  0  0  0  0  0  0  0  0  0  0  0
  150.1446  140.4146  155.1470 C   0  0  0  0  0  0  0  0  0  0  0  0
  148.9136  140.7605  154.4585 N   0  0  0  0  0  0  0  0  0  0  0  0
  148.3989  142.0140  154.2027 C   0  0  0  0  0  0  0  0  0  0  0  0
  147.2201  141.8408  153.5358 C   0  0  0  0  0  0  0  0  0  0  0  0
  147.0985  140.4272  153.4272 C   0  0  0  0  0  0  0  0  0  0  0  0
  148.1143  139.7832  153.9790 N   0  0  0  0  0  0  0  0  0  0  0  0
  151.8586  142.0122  158.5388 C   0  0  0  0  0  0  0  0  0  0  0  0
  151.9890  140.8593  158.1221 O   0  0  0  0  0  0  0  0  0  0  0  0
  152.5978  142.4859  159.5741 N   0  0  0  0  0  0  0  0  0  0  0  0
  153.4926  141.6253  160.3602 C   0  0  0  0  0  0  0  0  0  0  0  0
  152.8821  141.4344  161.7616 C   0  0  0  0  0  0  0  0  0  0  0  0
  152.6244  142.7916  162.4453 C   0  0  0  0  0  0  0  0  0  0  0  0
  151.8622  143.7623  161.5219 C   0  0  0  0  0  0  0  0  0  0  0  0
  152.5383  143.8401  160.1416 C   0  0  0  0  0  0  0  0  0  0  0  0
  152.0888  144.7007  157.9688 H   0  0  0  0  0  0  0  0  0  0  0  0
  150.7959  144.8293  156.7869 H   0  0  0  0  0  0  0  0  0  0  0  0
  152.2134  143.8460  156.4344 H   0  0  0  0  0  0  0  0  0  0  0  0
  150.0956  143.2780  158.5743 H   0  0  0  0  0  0  0  0  0  0  0  0
  149.3333  142.8361  156.4024 H   0  0  0  0  0  0  0  0  0  0  0  0
  151.0238  142.3704  154.9471 H   0  0  0  0  0  0  0  0  0  0  0  0
  151.8316  141.3604  156.1321 H   0  0  0  0  0  0  0  0  0  0  0  0
  150.8020  139.8899  154.4524 H   0  0  0  0  0  0  0  0  0  0  0  0
  149.9043  139.7061  155.9410 H   0  0  0  0  0  0  0  0  0  0  0  0
  148.9072  142.9136  154.5169 H   0  0  0  0  0  0  0  0  0  0  0  0
  146.5468  142.6069  153.1811 H   0  0  0  0  0  0  0  0  0  0  0  0
  146.3074  139.8538  152.9671 H   0  0  0  0  0  0  0  0  0  0  0  0
  153.6656  140.6527  159.8981 H   0  0  0  0  0  0  0  0  0  0  0  0
  154.4751  142.0931  160.4375 H   0  0  0  0  0  0  0  0  0  0  0  0
  151.9431  140.8859  161.6757 H   0  0  0  0  0  0  0  0  0  0  0  0
  153.5416  140.8242  162.3793 H   0  0  0  0  0  0  0  0  0  0  0  0
  152.0767  142.6475  163.3769 H   0  0  0  0  0  0  0  0  0  0  0  0
  153.5816  143.2386  162.7172 H   0  0  0  0  0  0  0  0  0  0  0  0
  150.8309  143.4266  161.4046 H   0  0  0  0  0  0  0  0  0  0  0  0
  151.8176  144.7524  161.9762 H   0  0  0  0  0  0  0  0  0  0  0  0
  153.5534  144.2241  160.2517 H   0  0  0  0  0  0  0  0  0  0  0  0
  152.0362  144.5680  159.5079 H   0  0  0  0  0  0  0  0  0  0  0  0
  1  2  1  0  0  0  0
  1 19  1  0  0  0  0
  1 20  1  0  0  0  0
  1 21  1  0  0  0  0
  2  3  1  0  0  0  0
  2 11  1  0  0  0  0
  2 22  1  0  0  0  0
  3  4  1  0  0  0  0
  3 23  1  0  0  0  0
  4  5  1  0  0  0  0
  4 24  1  0  0  0  0
  4 25  1  0  0  0  0
  5  6  1  0  0  0  0
  5 26  1  0  0  0  0
  5 27  1  0  0  0  0
  6 10  1  0  0  0  0
  6  7  1  0  0  0  0
  7  8  2  0  0  0  0
  7 28  1  0  0  0  0
  8  9  1  0  0  0  0
  8 29  1  0  0  0  0
  9 10  2  0  0  0  0
  9 30  1  0  0  0  0
 11 12  2  0  0  0  0
 11 13  1  0  0  0  0
 13 18  1  0  0  0  0
 13 14  1  0  0  0  0
 14 15  1  0  0  0  0
 14 31  1  0  0  0  0
 14 32  1  0  0  0  0
 15 16  1  0  0  0  0
 15 33  1  0  0  0  0
 15 34  1  0  0  0  0
 16 17  1  0  0  0  0
 16 35  1  0  0  0  0
 16 36  1  0  0  0  0
 17 18  1  0  0  0  0
 17 37  1  0  0  0  0
 17 38  1  0  0  0  0
 18 39  1  0  0  0  0
 18 40  1  0  0  0  0
M  END
> <s_m_source_file>
AV-unprocessed.smi

> <i_m_source_file_index>
3321

> <i_lp_mmshare_version>
43012

> <i_f3d_flags>
0

> <s_epik_input>
W0NIMl0xW0NIMl1bQ0gyXVtDSDJdW0NIMl1OMUMoPU8pW0NASF0oW0NIM10pW05IXVtDSDJdW0NIMl1uMltjSF1bY0hdW2NIXW4y

> <s_epik_cmdline>
J2VwaWtfcHl0aG9uJywgJy1waCcsICc3LjAnLCAnLXRuJywgJzgnLCAnLW1hJywgJzIwMCcsICctbWV0YWxfYmluZGluZycsICctaW1hZScsICc8aW5maWxlLm1hZT4nLCAnLW9tYWUnLCAnPG91dGZpbGUubWFlPic=

> <r_lp_tautomer_probability>
1

> <r_epik_Ionization_Penalty>
0.736446

> <r_epik_Ionization_Penalty_Charging>
0

> <r_epik_Ionization_Penalty_Neutral>
0.736446

> <r_epik_State_Penalty>
0.761204

> <r_epik_Charging_Adjusted_Penalty>
0.761204

> <i_epik_Tot_Q>
0

> <i_epik_Tot_abs_Q>
0

> <r_epik_Metal_State_Penalty>
0.760551

> <b_epik_Metal_Only>
0

> <s_lp_Force_Field>
OPLS_2005

> <r_lp_Energy>
28.7251

> <b_lp_Chiralities_Consistent>
1

> <s_lp_Variant>
AV-unprocessed.smi:3321-4

> <Gold.Version>
5.8.1

> <Gold.Id.Protein>
6NUR|6NUR_protein|mol2

> <Gold.PLP.Fitness>
52.0556

> <Gold.PLP.PLP>
-43.5839

> <Gold.PLP.part.hbond>
-1.0000

> <Gold.PLP.part.metal>
0.0000

> <Gold.PLP.part.buried>
-2.2997

> <Gold.PLP.part.nonpolar>
-39.0189

> <Gold.PLP.part.repulsive>
0.1178

> <Gold.PLP.ligand.clash>
0.0000

> <Gold.PLP.ligand.torsion>
0.2506

> <Gold.PLP.Chemscore.Hbond>
0.9600

> <Gold.PLP.Chemscore.CHOScore>
2.0000

> <Gold.PLP.Chemscore.Metal>
0.0000

> <Gold.Chemscore.Hbonds>
donor molecule, donor type, donor heavy atom, donor atom, acceptor molecule, acceptor atom, score
      L1  H     3    23       P1  8028  0.84
      L1  C     7    28       P1  8028  1.00
      L1  C     9    30       P1 10175  0.48

> <Gold.PLP.Chemscore.Internal.Correction>
0.0930

> <Gold.Rescore>
     Score         DG    S(hbond)    S(metal)    S(lipo)     H(rot)  DE(clash)    DE(int)     intcor
     15.44     -17.89       0.99        0.00     115.71       1.73       0.47       1.98       ----

> <Gold.Chemscore.Fitness>
15.4352

> <Gold.Chemscore.DG>
-17.8850

> <Gold.Chemscore.ZeroCoef>
-5.4800

> <Gold.Chemscore.Hbond>
0.9850

> <Gold.Chemscore.Metal>
0.0000

> <Gold.Chemscore.Lipo>
115.7071

> <Gold.Chemscore.Internal_Hbond>
0.0000

> <Gold.Chemscore.DEClash>
0.4706

> <Gold.Chemscore.DEInternal>
1.9792

> <Gold.Chemscore.Rot>
1.7277

> <Gold.Chemscore.Internal.Correction>
   9.000000E+99

> <Gold.Chemscore.Hbonds>
donor molecule, donor type, donor heavy atom, donor atom, acceptor molecule, acceptor atom, score
      L1  H     3    23       P1  8028  0.79

> <Gold.Chemscore.Hbond.Weighted>
-3.2901

> <Gold.Chemscore.Metal.Weighted>
-0.0000

> <Gold.Chemscore.Lipo.Weighted>
-13.5377

> <Gold.Chemscore.Internal_Hbond.Weighted>
0.0000

> <Gold.Chemscore.DEClash.Weighted>
0.4706

> <Gold.Chemscore.DEInternal.Weighted>
1.9792

> <Gold.Chemscore.Rot.Weighted>
4.4228

> <Gold.Chemscore.Internal.Correction.Weighted>
   9.000000E+99

> <Gold.Protein.RotatedTorsions>
[ 6907 6896 6895 6894 ] final  179.43 input  -60.11 | X-H torsion
[ 7974 7965 7964 7962 ] final  -16.36 input  175.53 | X-H torsion
[ 8008 7997 7996 7995 ] final  134.10 input   59.86 | X-H torsion
[ 10167 10162 10161 10158 ] final  177.11 input  -65.29 | X-H torsion
[ 10718 10713 10712 10709 ] final  111.33 input   66.30 | X-H torsion
[ 10763 10752 10751 10750 ] final  104.05 input  -60.55 | X-H torsion
[ 11005 11000 10999 10996 ] final  -36.58 input  -57.11 | X-H torsion

> <Gold.Protein.ActiveResidues>
 VAL166  LYS551  ARG553  GLY616  TRP617  ASP618  TYR619  PRO620  LYS621  CYS622 
 ASP623  PHE694  ASN695  SER759  ASP760  ASP761  ALA762  ILE779  LEU786  VAL792 
 PHE793  MET794  SER795  GLU796  ALA797  LYS798  CYS799  TRP800  GLU811  SER814 

> <Gold.Protein.RotatedAtoms>
  151.6717  133.3314  159.3197 H   0  0  0  0  0  0  0  0  0  0  0  0  # atno 6907 bound_to 6896
  150.7864  134.6857  159.6478 H   0  0  0  0  0  0  0  0  0  0  0  0  # atno 6908 bound_to 6896
  152.3935  134.6407  160.0150 H   0  0  0  0  0  0  0  0  0  0  0  0  # atno 6909 bound_to 6896
  146.1991  140.3625  142.8430 H   0  0  0  0  0  0  0  0  0  0  0  0  # atno 7974 bound_to 7965
  156.2997  140.2505  156.3361 H   0  0  0  0  0  0  0  0  0  0  0  0  # atno 8008 bound_to 7997
  154.9099  140.0403  157.1959 H   0  0  0  0  0  0  0  0  0  0  0  0  # atno 8009 bound_to 7997
  154.8416  140.2892  155.5660 H   0  0  0  0  0  0  0  0  0  0  0  0  # atno 8010 bound_to 7997
  139.5240  144.2837  152.0524 H   0  0  0  0  0  0  0  0  0  0  0  0  # atno 10167 bound_to 10162
  157.6450  131.0949  150.6733 H   0  0  0  0  0  0  0  0  0  0  0  0  # atno 10718 bound_to 10713
  153.3608  135.3956  155.1716 H   0  0  0  0  0  0  0  0  0  0  0  0  # atno 10763 bound_to 10752
  154.8679  135.3679  154.5102 H   0  0  0  0  0  0  0  0  0  0  0  0  # atno 10764 bound_to 10752
  153.5561  135.7082  153.5629 H   0  0  0  0  0  0  0  0  0  0  0  0  # atno 10765 bound_to 10752
  140.9886  133.7017  156.1809 H   0  0  0  0  0  0  0  0  0  0  0  0  # atno 11005 bound_to 11000
  144.8644  140.7185  143.6087 LP  0  0  0  0  0  0  0  0  0  0  0  0  # atno 17320 bound_to 7965
  145.3544  139.1698  143.4417 LP  0  0  0  0  0  0  0  0  0  0  0  0  # atno 17321 bound_to 7965
  140.2291  144.4387  150.6308 LP  0  0  0  0  0  0  0  0  0  0  0  0  # atno 17342 bound_to 10162
  140.6367  143.2196  151.6379 LP  0  0  0  0  0  0  0  0  0  0  0  0  # atno 17343 bound_to 10162
  156.7052  130.4635  149.5562 LP  0  0  0  0  0  0  0  0  0  0  0  0  # atno 17370 bound_to 10713
  156.1768  130.6473  151.0904 LP  0  0  0  0  0  0  0  0  0  0  0  0  # atno 17371 bound_to 10713
  140.7076  134.4496  157.5583 LP  0  0  0  0  0  0  0  0  0  0  0  0  # atno 17394 bound_to 11000
  139.8981  134.8620  156.2013 LP  0  0  0  0  0  0  0  0  0  0  0  0  # atno 17395 bound_to 11000

$$$$
