#       Name:                AV-unprocessed.smi:1493
#       Creating user name   scv26
#       Creation time:       Fri Mar 27 06:16:42 2020


#       File generated by GOLD software.
#

@<TRIPOS>MOLECULE
AV-unprocessed.smi:1493
    41    41     1
SMALL
NO_CHARGES


@<TRIPOS>ATOM
      1 ****        -2.8738  -0.2141   2.3393 C.3            1 S1                 0.0000
      2 ****        -2.1625   0.4404   1.1503 C.3            1 S1                 0.0000
      3 ****        -2.3762  -0.3350  -0.1619 C.3            1 S1                 0.0000
      4 ****        -1.7385   0.3345  -1.3944 C.3            1 S1                 0.0000
      5 ****        -2.0310  -0.4585  -2.6788 C.3            1 S1                 0.0000
      6 ****        -0.2985   0.4695  -1.1982 N.am           1 S1                 0.0000
      7 ****         0.5027   1.3619  -1.8048 C.2            1 S1                 0.0000
      8 ****         0.0923   2.1659  -2.6411 O.2            1 S1                 0.0000
      9 ****         1.9924   1.3789  -1.4192 C.3            1 S1                 0.0000
     10 ****         2.3685   0.4270  -0.3607 N.am           1 S1                 0.0000
     11 ****         2.3315   0.9636   0.9176 N.2            1 S1                 0.0000
     12 ****         2.6207   0.2263   1.9359 C.2            1 S1                 0.0000
     13 ****         2.5685   0.7975   3.1837 O.3            1 S1                 0.0000
     14 ****         2.9900  -1.1627   1.7730 C.2            1 S1                 0.0000
     15 ****         3.0250  -1.6763   0.5238 C.2            1 S1                 0.0000
     16 ****         2.6986  -0.8687  -0.6528 C.2            1 S1                 0.0000
     17 ****         2.7069  -1.3150  -1.7995 O.2            1 S1                 0.0000
     18 ****         2.8117   0.1112   3.7856 H              1 S1                 0.0000
     19 ****        -2.7055   0.3550   3.2538 H              1 S1                 0.0000
     20 ****        -2.5094  -1.2281   2.5063 H              1 S1                 0.0000
     21 ****        -3.9503  -0.2668   2.1737 H              1 S1                 0.0000
     22 ****        -2.5243   1.4626   1.0342 H              1 S1                 0.0000
     23 ****        -1.0976   0.5135   1.3745 H              1 S1                 0.0000
     24 ****        -1.9823  -1.3464  -0.0507 H              1 S1                 0.0000
     25 ****        -3.4475  -0.4454  -0.3358 H              1 S1                 0.0000
     26 ****        -2.1728   1.3306  -1.4985 H              1 S1                 0.0000
     27 ****        -3.1044  -0.5574  -2.8416 H              1 S1                 0.0000
     28 ****        -1.6079  -1.4625  -2.6307 H              1 S1                 0.0000
     29 ****        -1.6135   0.0366  -3.5561 H              1 S1                 0.0000
     30 ****         0.1246  -0.1548  -0.5268 H              1 S1                 0.0000
     31 ****         2.5854   1.2035  -2.3183 H              1 S1                 0.0000
     32 ****         2.2453   2.3930  -1.1047 H              1 S1                 0.0000
     33 ****         3.2315  -1.7674   2.6346 H              1 S1                 0.0000
     34 ****         3.2994  -2.7119   0.3873 H              1 S1                 0.0000
     35 ****        -0.8748   2.1731  -2.8952 LP             1 S1                 0.0000
     36 ****         0.7260   2.8120  -3.0666 LP             1 S1                 0.0000
     37 ****         2.0806   1.9225   1.0501 LP             1 S1                 0.0000
     38 ****         1.6439   1.1235   3.3805 LP             1 S1                 0.0000
     39 ****         3.2114   1.5609   3.2458 LP             1 S1                 0.0000
     40 ****         2.4652  -0.7229  -2.5682 LP             1 S1                 0.0000
     41 ****         2.9554  -2.2698  -1.9626 LP             1 S1                 0.0000
@<TRIPOS>BOND
    1    1    2 1     
    2    1   19 1     
    3    1   20 1     
    4    1   21 1     
    5    2    3 1     
    6    2   22 1     
    7    2   23 1     
    8    3    4 1     
    9    3   24 1     
   10    3   25 1     
   11    4    5 1     
   12    4    6 1     
   13    4   26 1     
   14    5   27 1     
   15    5   28 1     
   16    5   29 1     
   17    6    7 am    
   18    6   30 1     
   19    7    8 2     
   20    7    9 1     
   21    9   31 1     
   22    9   32 1     
   23    9   10 1     
   24   10   11 1     
   25   10   16 am    
   26   11   12 2     
   27   12   13 1     
   28   12   14 1     
   29   13   18 1     
   30   14   33 1     
   31   14   15 2     
   32   15   34 1     
   33   15   16 1     
   34   16   17 2     
   35    8   35 1     
   36    8   36 1     
   37   11   37 1     
   38   13   38 1     
   39   13   39 1     
   40   17   40 1     
   41   17   41 1     
@<TRIPOS>SUBSTRUCTURE
      1 S1             1
@<TRIPOS>SET
LONE_PAIRS      STATIC     ATOMS    <user>   **** ""
7 35 36 37 38 39 40 41
DONOR_HYDROGENS      STATIC     ATOMS    <user>   **** ""
2 30 18
ATOM$BLUE        STATIC     ATOMS    COLORGROUP SYSTEM
7 35 36 37 38 39 40 41
ATOM$RED        STATIC     ATOMS    COLORGROUP SYSTEM
2 30 18
