AV-unprocessed.smi:218|AV-procd|sdf|1675|dock4
  -GOLD-   2262020103D 1   1.00000     0.00000
 Structure written by MMmdl.
 54 57  0  0  0  0  0  0  0  0  1 V2000
  153.3724  141.7856  160.7052 C   0  0  0  0  0  0  0  0  0  0  0  0
  153.0958  141.9265  159.2035 C   0  0  0  0  0  0  0  0  0  0  0  0
  152.6930  143.3675  158.8454 C   0  0  0  0  0  0  0  0  0  0  0  0
  152.0358  141.0207  158.8900 O   0  0  0  0  0  0  0  0  0  0  0  0
  151.7971  140.6588  157.5780 C   0  0  0  0  0  0  0  0  0  0  0  0
  150.7113  141.2578  156.9073 C   0  0  0  0  0  0  0  0  0  0  0  0
  150.4544  140.9002  155.5663 C   0  0  0  0  0  0  0  0  0  0  0  0
  149.2974  141.5083  154.7967 C   0  0  0  0  0  0  0  0  0  0  0  0
  148.2734  142.1031  155.6461 N   0  0  0  0  0  0  0  0  0  0  0  0
  147.4559  141.3136  156.3746 C   0  0  0  0  0  0  0  0  0  0  0  0
  147.2675  140.0096  156.0452 N   0  0  0  0  0  0  0  0  0  0  0  0
  146.4459  139.2508  156.7752 C   0  0  0  0  0  0  0  0  0  0  0  0
  145.7352  139.5902  157.8524 N   0  0  0  0  0  0  0  0  0  0  0  0
  145.9254  140.8980  158.1974 C   0  0  0  0  0  0  0  0  0  0  0  0
  146.7620  141.8187  157.5047 C   0  0  0  0  0  0  0  0  0  0  0  0
  146.7025  143.0628  158.1156 N   0  0  0  0  0  0  0  0  0  0  0  0
  145.8732  142.8859  159.1075 C   0  0  0  0  0  0  0  0  0  0  0  0
  145.3770  141.6069  159.2532 N   0  0  0  0  0  0  0  0  0  0  0  0
  144.3840  141.1302  160.2801 C   0  0  1  0  0  0  0  0  0  0  0  0
  144.3950  142.0011  161.3701 O   0  0  0  0  0  0  0  0  0  0  0  0
  143.3838  142.9837  161.1959 C   0  0  2  0  0  0  0  0  0  0  0  0
  143.1302  143.7578  162.5016 C   0  0  0  0  0  0  0  0  0  0  0  0
  144.3320  144.3251  162.9787 O   0  0  0  0  0  0  0  0  0  0  0  0
  142.2262  142.1483  160.6361 C   0  0  2  0  0  0  0  0  0  0  0  0
  141.5292  141.4889  161.6807 O   0  0  0  0  0  0  0  0  0  0  0  0
  142.9513  141.1764  159.7023 C   0  0  2  0  0  0  0  0  0  0  0  0
  142.3309  139.9053  159.6389 O   0  0  0  0  0  0  0  0  0  0  0  0
  151.2905  139.9452  154.9541 C   0  0  0  0  0  0  0  0  0  0  0  0
  152.3484  139.3987  155.7056 C   0  0  0  0  0  0  0  0  0  0  0  0
  152.6024  139.7423  156.9857 N   0  0  0  0  0  0  0  0  0  0  0  0
  144.7358  140.1364  160.5595 H   0  0  0  0  0  0  0  0  0  0  0  0
  143.7251  143.6820  160.4287 H   0  0  0  0  0  0  0  0  0  0  0  0
  141.5113  142.7660  160.0914 H   0  0  0  0  0  0  0  0  0  0  0  0
  142.9689  141.6057  158.7000 H   0  0  0  0  0  0  0  0  0  0  0  0
  154.1823  142.4447  161.0194 H   0  0  0  0  0  0  0  0  0  0  0  0
  153.6615  140.7642  160.9539 H   0  0  0  0  0  0  0  0  0  0  0  0
  152.4899  142.0346  161.2952 H   0  0  0  0  0  0  0  0  0  0  0  0
  154.0136  141.6545  158.6802 H   0  0  0  0  0  0  0  0  0  0  0  0
  153.4808  144.0707  159.1165 H   0  0  0  0  0  0  0  0  0  0  0  0
  151.7862  143.6647  159.3727 H   0  0  0  0  0  0  0  0  0  0  0  0
  152.5072  143.4834  157.7781 H   0  0  0  0  0  0  0  0  0  0  0  0
  150.0892  141.9768  157.4199 H   0  0  0  0  0  0  0  0  0  0  0  0
  149.6838  142.2694  154.1172 H   0  0  0  0  0  0  0  0  0  0  0  0
  148.8480  140.7265  154.1830 H   0  0  0  0  0  0  0  0  0  0  0  0
  148.2380  143.1123  155.6626 H   0  0  0  0  0  0  0  0  0  0  0  0
  146.3428  138.2256  156.4514 H   0  0  0  0  0  0  0  0  0  0  0  0
  145.6002  143.6944  159.7701 H   0  0  0  0  0  0  0  0  0  0  0  0
  142.3826  144.5402  162.3688 H   0  0  0  0  0  0  0  0  0  0  0  0
  142.7452  143.0794  163.2632 H   0  0  0  0  0  0  0  0  0  0  0  0
  144.1272  145.1447  163.4024 H   0  0  0  0  0  0  0  0  0  0  0  0
  140.6169  141.4329  161.4395 H   0  0  0  0  0  0  0  0  0  0  0  0
  141.5528  139.9231  160.1750 H   0  0  0  0  0  0  0  0  0  0  0  0
  151.1282  139.6363  153.9319 H   0  0  0  0  0  0  0  0  0  0  0  0
  153.0082  138.6650  155.2668 H   0  0  0  0  0  0  0  0  0  0  0  0
  1  2  1  0  0  0  0
  1 35  1  0  0  0  0
  1 36  1  0  0  0  0
  1 37  1  0  0  0  0
  2  3  1  0  0  0  0
  2  4  1  0  0  0  0
  2 38  1  0  0  0  0
  3 39  1  0  0  0  0
  3 40  1  0  0  0  0
  3 41  1  0  0  0  0
  4  5  1  0  0  0  0
  5 30  1  0  0  0  0
  5  6  2  0  0  0  0
  6  7  1  0  0  0  0
  6 42  1  0  0  0  0
  7  8  1  0  0  0  0
  7 28  2  0  0  0  0
  8  9  1  0  0  0  0
  8 43  1  0  0  0  0
  8 44  1  0  0  0  0
  9 10  1  0  0  0  0
  9 45  1  0  0  0  0
 10 15  1  0  0  0  0
 10 11  2  0  0  0  0
 11 12  1  0  0  0  0
 12 13  2  0  0  0  0
 12 46  1  0  0  0  0
 13 14  1  0  0  0  0
 14 18  1  0  0  0  0
 14 15  2  0  0  0  0
 15 16  1  0  0  0  0
 16 17  2  0  0  0  0
 17 18  1  0  0  0  0
 17 47  1  0  0  0  0
 18 19  1  0  0  0  0
 19 31  1  0  0  0  0
 19 26  1  0  0  0  0
 19 20  1  0  0  0  0
 20 21  1  0  0  0  0
 21 32  1  0  0  0  0
 21 22  1  0  0  0  0
 21 24  1  0  0  0  0
 22 23  1  0  0  0  0
 22 48  1  0  0  0  0
 22 49  1  0  0  0  0
 23 50  1  0  0  0  0
 24 33  1  0  0  0  0
 24 25  1  0  0  0  0
 24 26  1  0  0  0  0
 25 51  1  0  0  0  0
 26 34  1  0  0  0  0
 26 27  1  0  0  0  0
 27 52  1  0  0  0  0
 28 29  1  0  0  0  0
 28 53  1  0  0  0  0
 29 30  2  0  0  0  0
 29 54  1  0  0  0  0
M  END
> <s_m_source_file>
AV-unprocessed.smi

> <i_m_source_file_index>
218

> <i_lp_mmshare_version>
43012

> <i_f3d_flags>
0

> <s_epik_input>
W0NIM11bQ0hdKFtDSDNdKU9jMVtjSF1jKFtjSF1bY0hdbjEpW0NIMl1bTkhdYyhuW2NIXW4yKWMoYzIzKW5bY0hdbjNbQ0BASF00T1tDQEhdKFtDSDJdW09IXSlbQ0BASF0oW09IXSlbQ0BIXTRbT0hd

> <s_epik_cmdline>
J2VwaWtfcHl0aG9uJywgJy1waCcsICc3LjAnLCAnLXRuJywgJzgnLCAnLW1hJywgJzIwMCcsICctbWV0YWxfYmluZGluZycsICctaW1hZScsICc8aW5maWxlLm1hZT4nLCAnLW9tYWUnLCAnPG91dGZpbGUubWFlPic=

> <r_lp_tautomer_probability>
1

> <r_epik_Ionization_Penalty>
0.00457014

> <r_epik_Ionization_Penalty_Charging>
0

> <r_epik_Ionization_Penalty_Neutral>
0.00457014

> <r_epik_State_Penalty>
-0

> <r_epik_Charging_Adjusted_Penalty>
0

> <i_epik_Tot_Q>
0

> <i_epik_Tot_abs_Q>
0

> <r_epik_Metal_State_Penalty>
-0

> <b_epik_Metal_Only>
0

> <s_epik_Chemistry_Notes>
This compound contains an acetal/aminal-like group ( X-CH(R)-Y where X, Y are N, S, or O) that may be acid/base labile, releasing an aldehyde.

> <s_lp_Force_Field>
OPLS_2005

> <r_lp_Energy>
43.0364

> <b_lp_Chiralities_Consistent>
1

> <s_lp_Variant>
AV-unprocessed.smi:218-14

> <Gold.Version>
5.8.1

> <Gold.Id.Protein>
6NUR|6NUR_protein|mol2

> <Gold.PLP.Fitness>
47.0458

> <Gold.PLP.PLP>
-43.7134

> <Gold.PLP.part.hbond>
-5.6074

> <Gold.PLP.part.metal>
0.0000

> <Gold.PLP.part.buried>
-3.2522

> <Gold.PLP.part.nonpolar>
-35.2499

> <Gold.PLP.part.repulsive>
0.4806

> <Gold.PLP.ligand.clash>
0.0000

> <Gold.PLP.ligand.torsion>
1.4151

> <Gold.PLP.Chemscore.Hbond>
1.9920

> <Gold.PLP.Chemscore.CHOScore>
0.0000

> <Gold.PLP.Chemscore.Metal>
0.0000

> <Gold.Chemscore.Hbonds>
donor molecule, donor type, donor heavy atom, donor atom, acceptor molecule, acceptor atom, score
      L1  H     9    45       P1  8028  1.00
      P1  H  7997  8009       L1    30  0.94

> <Gold.PLP.Chemscore.Internal.Correction>
0.1866

> <Gold.Rescore>
     Score         DG    S(hbond)    S(metal)    S(lipo)     H(rot)  DE(clash)    DE(int)     intcor
      3.53      -6.68       1.20        0.00      83.26       4.90       1.84       1.31       ----

> <Gold.Chemscore.Fitness>
3.5338

> <Gold.Chemscore.DG>
-6.6828

> <Gold.Chemscore.ZeroCoef>
-5.4800

> <Gold.Chemscore.Hbond>
1.2016

> <Gold.Chemscore.Metal>
0.0000

> <Gold.Chemscore.Lipo>
83.2569

> <Gold.Chemscore.Internal_Hbond>
0.0000

> <Gold.Chemscore.DEClash>
1.8381

> <Gold.Chemscore.DEInternal>
1.3109

> <Gold.Chemscore.Rot>
4.9029

> <Gold.Chemscore.Internal.Correction>
   9.000000E+99

> <Gold.Chemscore.Hbonds>
donor molecule, donor type, donor heavy atom, donor atom, acceptor molecule, acceptor atom, score
      L1  H     9    45       P1  8028  0.90
      P1  H  7997  8009       L1    30  0.27

> <Gold.Chemscore.Hbond.Weighted>
-4.0133

> <Gold.Chemscore.Metal.Weighted>
-0.0000

> <Gold.Chemscore.Lipo.Weighted>
-9.7411

> <Gold.Chemscore.Internal_Hbond.Weighted>
0.0000

> <Gold.Chemscore.DEClash.Weighted>
1.8381

> <Gold.Chemscore.DEInternal.Weighted>
1.3109

> <Gold.Chemscore.Rot.Weighted>
12.5515

> <Gold.Chemscore.Internal.Correction.Weighted>
   9.000000E+99

> <Gold.Protein.RotatedTorsions>
[ 6907 6896 6895 6894 ] final  -69.55 input  -60.11 | X-H torsion
[ 7974 7965 7964 7962 ] final  104.40 input  175.53 | X-H torsion
[ 8008 7997 7996 7995 ] final  161.93 input   59.86 | X-H torsion
[ 10167 10162 10161 10158 ] final   19.66 input  -65.29 | X-H torsion
[ 10718 10713 10712 10709 ] final  178.93 input   66.30 | X-H torsion
[ 10763 10752 10751 10750 ] final -154.27 input  -60.55 | X-H torsion
[ 11005 11000 10999 10996 ] final   70.61 input  -57.11 | X-H torsion

> <Gold.Protein.ActiveResidues>
 VAL166  LYS551  ARG553  GLY616  TRP617  ASP618  TYR619  PRO620  LYS621  CYS622 
 ASP623  PHE694  ASN695  SER759  ASP760  ASP761  ALA762  ILE779  LEU786  VAL792 
 PHE793  MET794  SER795  GLU796  ALA797  LYS798  CYS799  TRP800  GLU811  SER814 

> <Gold.Protein.RotatedAtoms>
  150.7300  134.5581  159.5828 H   0  0  0  0  0  0  0  0  0  0  0  0  # atno 6907 bound_to 6896
  152.3051  134.7561  160.0358 H   0  0  0  0  0  0  0  0  0  0  0  0  # atno 6908 bound_to 6896
  151.8129  133.3348  159.3597 H   0  0  0  0  0  0  0  0  0  0  0  0  # atno 6909 bound_to 6896
  145.3332  139.2481  143.3649 H   0  0  0  0  0  0  0  0  0  0  0  0  # atno 7974 bound_to 7965
  156.2068  140.1764  156.7782 H   0  0  0  0  0  0  0  0  0  0  0  0  # atno 8008 bound_to 7997
  154.5666  140.0690  156.8931 H   0  0  0  0  0  0  0  0  0  0  0  0  # atno 8009 bound_to 7997
  155.2750  140.3345  155.4265 H   0  0  0  0  0  0  0  0  0  0  0  0  # atno 8010 bound_to 7997
  140.5562  143.9420  150.6611 H   0  0  0  0  0  0  0  0  0  0  0  0  # atno 10167 bound_to 10162
  156.8832  130.9823  151.3059 H   0  0  0  0  0  0  0  0  0  0  0  0  # atno 10718 bound_to 10713
  154.7870  135.3194  154.7863 H   0  0  0  0  0  0  0  0  0  0  0  0  # atno 10763 bound_to 10752
  153.8560  135.6858  153.4792 H   0  0  0  0  0  0  0  0  0  0  0  0  # atno 10764 bound_to 10752
  153.1526  135.4693  154.9598 H   0  0  0  0  0  0  0  0  0  0  0  0  # atno 10765 bound_to 10752
  139.9588  134.7097  156.0692 H   0  0  0  0  0  0  0  0  0  0  0  0  # atno 11005 bound_to 11000
  146.3037  140.3914  142.8695 LP  0  0  0  0  0  0  0  0  0  0  0  0  # atno 17320 bound_to 7965
  144.8848  140.7447  143.5964 LP  0  0  0  0  0  0  0  0  0  0  0  0  # atno 17321 bound_to 7965
  140.2859  143.3357  152.1108 LP  0  0  0  0  0  0  0  0  0  0  0  0  # atno 17342 bound_to 10162
  139.5049  144.6784  151.6070 LP  0  0  0  0  0  0  0  0  0  0  0  0  # atno 17343 bound_to 10162
  157.6128  130.8595  149.8979 LP  0  0  0  0  0  0  0  0  0  0  0  0  # atno 17370 bound_to 10713
  156.0666  130.3691  150.0865 LP  0  0  0  0  0  0  0  0  0  0  0  0  # atno 17371 bound_to 10713
  141.1263  133.6598  156.3345 LP  0  0  0  0  0  0  0  0  0  0  0  0  # atno 17394 bound_to 11000
  140.5547  134.5993  157.5417 LP  0  0  0  0  0  0  0  0  0  0  0  0  # atno 17395 bound_to 11000

$$$$
