AV-unprocessed.smi:1247|AV-procd|sdf|5244|dock8
  -GOLD-   22720 4353D 1   1.00000     0.00000
 Structure written by MMmdl.
 46 47  0  0  0  0  0  0  0  0  1 V2000
  152.0519  141.3392  158.0344 C   0  0  0  0  0  0  0  0  0  0  0  0
  151.5778  140.5908  156.8236 C   0  0  0  0  0  0  0  0  0  0  0  0
  150.3764  140.7902  156.0831 C   0  0  0  0  0  0  0  0  0  0  0  0
  150.4674  139.8421  155.1009 C   0  0  0  0  0  0  0  0  0  0  0  0
  149.5988  139.5714  154.0906 N   0  0  0  0  0  0  0  0  0  0  0  0
  148.3163  139.1758  154.1690 C   0  0  0  0  0  0  0  0  0  0  0  0
  147.6975  138.9608  155.2116 O   0  0  0  0  0  0  0  0  0  0  0  0
  147.7790  139.0330  152.9491 N   0  0  0  0  0  0  0  0  0  0  0  0
  146.4084  138.6138  152.6829 C   0  0  0  0  0  0  0  0  0  0  0  0
  146.3638  137.4751  151.6471 C   0  0  0  0  0  0  0  0  0  0  0  0
  145.4662  136.3712  151.9828 N   0  0  0  0  0  0  0  0  0  0  0  0
  144.1045  136.8193  152.2674 C   0  0  0  0  0  0  0  0  0  0  0  0
  143.1472  135.6534  152.5877 C   0  0  2  0  0  0  0  0  0  0  0  0
  143.3714  135.0472  153.9837 C   0  0  0  0  0  0  0  0  0  0  0  0
  143.2116  134.6607  151.5626 O   0  0  0  0  0  0  0  0  0  0  0  0
  144.5224  134.1906  151.2538 C   0  0  1  0  0  0  0  0  0  0  0  0
  144.4110  133.1987  150.0913 C   0  0  0  0  0  0  0  0  0  0  0  0
  145.4259  135.3878  150.9079 C   0  0  0  0  0  0  0  0  0  0  0  0
  151.6444  139.1456  155.2622 N   0  0  0  0  0  0  0  0  0  0  0  0
  152.1848  138.0554  154.4737 C   0  0  0  0  0  0  0  0  0  0  0  0
  152.3267  139.6103  156.3310 N   0  0  0  0  0  0  0  0  0  0  0  0
  151.3737  142.1556  158.2836 H   0  0  0  0  0  0  0  0  0  0  0  0
  153.0402  141.7692  157.8691 H   0  0  0  0  0  0  0  0  0  0  0  0
  152.1134  140.6824  158.9023 H   0  0  0  0  0  0  0  0  0  0  0  0
  149.5954  141.5143  156.2591 H   0  0  0  0  0  0  0  0  0  0  0  0
  149.9737  139.6829  153.1600 H   0  0  0  0  0  0  0  0  0  0  0  0
  148.3583  139.2292  152.1461 H   0  0  0  0  0  0  0  0  0  0  0  0
  145.9201  138.3076  153.6099 H   0  0  0  0  0  0  0  0  0  0  0  0
  145.8690  139.4884  152.3208 H   0  0  0  0  0  0  0  0  0  0  0  0
  146.0998  137.8805  150.6692 H   0  0  0  0  0  0  0  0  0  0  0  0
  147.3749  137.0791  151.5429 H   0  0  0  0  0  0  0  0  0  0  0  0
  144.0977  137.5178  153.1034 H   0  0  0  0  0  0  0  0  0  0  0  0
  143.7171  137.3659  151.4063 H   0  0  0  0  0  0  0  0  0  0  0  0
  142.1290  136.0433  152.5715 H   0  0  0  0  0  0  0  0  0  0  0  0
  143.2070  135.7938  154.7608 H   0  0  0  0  0  0  0  0  0  0  0  0
  144.3851  134.6671  154.1083 H   0  0  0  0  0  0  0  0  0  0  0  0
  142.6808  134.2237  154.1656 H   0  0  0  0  0  0  0  0  0  0  0  0
  144.9310  133.6632  152.1162 H   0  0  0  0  0  0  0  0  0  0  0  0
  145.3891  132.7992  149.8219 H   0  0  0  0  0  0  0  0  0  0  0  0
  143.9870  133.6740  149.2063 H   0  0  0  0  0  0  0  0  0  0  0  0
  143.7704  132.3575  150.3569 H   0  0  0  0  0  0  0  0  0  0  0  0
  145.0711  135.8596  149.9900 H   0  0  0  0  0  0  0  0  0  0  0  0
  146.4343  135.0267  150.7015 H   0  0  0  0  0  0  0  0  0  0  0  0
  152.2862  138.3699  153.4348 H   0  0  0  0  0  0  0  0  0  0  0  0
  151.5115  137.1992  154.5239 H   0  0  0  0  0  0  0  0  0  0  0  0
  153.1647  137.7576  154.8494 H   0  0  0  0  0  0  0  0  0  0  0  0
  1  2  1  0  0  0  0
  1 22  1  0  0  0  0
  1 23  1  0  0  0  0
  1 24  1  0  0  0  0
  2 21  2  0  0  0  0
  2  3  1  0  0  0  0
  3  4  2  0  0  0  0
  3 25  1  0  0  0  0
  4  5  1  0  0  0  0
  4 19  1  0  0  0  0
  5  6  1  0  0  0  0
  5 26  1  0  0  0  0
  6  7  2  0  0  0  0
  6  8  1  0  0  0  0
  8  9  1  0  0  0  0
  8 27  1  0  0  0  0
  9 10  1  0  0  0  0
  9 28  1  0  0  0  0
  9 29  1  0  0  0  0
 10 11  1  0  0  0  0
 10 30  1  0  0  0  0
 10 31  1  0  0  0  0
 11 18  1  0  0  0  0
 11 12  1  0  0  0  0
 12 13  1  0  0  0  0
 12 32  1  0  0  0  0
 12 33  1  0  0  0  0
 13 14  1  0  0  0  0
 13 15  1  0  0  0  0
 13 34  1  0  0  0  0
 14 35  1  0  0  0  0
 14 36  1  0  0  0  0
 14 37  1  0  0  0  0
 15 16  1  0  0  0  0
 16 17  1  0  0  0  0
 16 18  1  0  0  0  0
 16 38  1  0  0  0  0
 17 39  1  0  0  0  0
 17 40  1  0  0  0  0
 17 41  1  0  0  0  0
 18 42  1  0  0  0  0
 18 43  1  0  0  0  0
 19 20  1  0  0  0  0
 19 21  1  0  0  0  0
 20 44  1  0  0  0  0
 20 45  1  0  0  0  0
 20 46  1  0  0  0  0
M  END
> <s_m_source_file>
AV-unprocessed.smi

> <i_m_source_file_index>
1247

> <i_lp_mmshare_version>
43012

> <i_f3d_flags>
0

> <s_epik_input>
W0NIM11jMVtjSF1jKG4objEpW0NIM10pW05IXUMoPU8pW05IXVtDSDJdW0NIMl1OMltDSDJdW0NAQEhdKFtDSDNdKU9bQ0BASF0oW0NIM10pW0NIMl0y

> <s_epik_cmdline>
J2VwaWtfcHl0aG9uJywgJy1waCcsICc3LjAnLCAnLXRuJywgJzgnLCAnLW1hJywgJzIwMCcsICctbWV0YWxfYmluZGluZycsICctaW1hZScsICc8aW5maWxlLm1hZT4nLCAnLW9tYWUnLCAnPG91dGZpbGUubWFlPic=

> <r_lp_tautomer_probability>
1

> <r_epik_Ionization_Penalty>
0.233972

> <r_epik_Ionization_Penalty_Charging>
0

> <r_epik_Ionization_Penalty_Neutral>
0.233972

> <r_epik_State_Penalty>
0.224627

> <r_epik_Charging_Adjusted_Penalty>
0.224627

> <i_epik_Tot_Q>
0

> <i_epik_Tot_abs_Q>
0

> <r_epik_Metal_State_Penalty>
0.224624

> <b_epik_Metal_Only>
0

> <s_lp_Force_Field>
OPLS_2005

> <r_lp_Energy>
23.1298

> <b_lp_Chiralities_Consistent>
1

> <s_lp_Variant>
AV-unprocessed.smi:1247-2

> <Gold.Version>
5.8.1

> <Gold.Id.Protein>
6NUR|6NUR_protein|mol2

> <Gold.PLP.Fitness>
42.8656

> <Gold.PLP.PLP>
-35.7756

> <Gold.PLP.part.hbond>
-3.4329

> <Gold.PLP.part.metal>
0.0000

> <Gold.PLP.part.buried>
-2.2877

> <Gold.PLP.part.nonpolar>
-31.0225

> <Gold.PLP.part.repulsive>
1.0936

> <Gold.PLP.ligand.clash>
0.0000

> <Gold.PLP.ligand.torsion>
0.9513

> <Gold.PLP.Chemscore.Hbond>
2.9760

> <Gold.PLP.Chemscore.CHOScore>
0.0000

> <Gold.PLP.Chemscore.Metal>
0.0000

> <Gold.Chemscore.Hbonds>
donor molecule, donor type, donor heavy atom, donor atom, acceptor molecule, acceptor atom, score
      L1  H     5    26       P1  7957  0.90
      L1  H     8    27       P1  7957  1.00
      P1  H  7997  8010       L1    21  0.89

> <Gold.PLP.Chemscore.Internal.Correction>
0.0644

> <Gold.Rescore>
     Score         DG    S(hbond)    S(metal)    S(lipo)     H(rot)  DE(clash)    DE(int)     intcor
     17.72     -19.86       2.88        0.00      73.23       1.48       1.16       0.98       ----

> <Gold.Chemscore.Fitness>
17.7198

> <Gold.Chemscore.DG>
-19.8600

> <Gold.Chemscore.ZeroCoef>
-5.4800

> <Gold.Chemscore.Hbond>
2.8775

> <Gold.Chemscore.Metal>
0.0000

> <Gold.Chemscore.Lipo>
73.2286

> <Gold.Chemscore.Internal_Hbond>
0.0000

> <Gold.Chemscore.DEClash>
1.1571

> <Gold.Chemscore.DEInternal>
0.9831

> <Gold.Chemscore.Rot>
1.4838

> <Gold.Chemscore.Internal.Correction>
   9.000000E+99

> <Gold.Chemscore.Hbonds>
donor molecule, donor type, donor heavy atom, donor atom, acceptor molecule, acceptor atom, score
      L1  H     5    26       P1  7957  0.83
      L1  H     8    27       P1  7957  1.00
      P1  H  7997  8010       L1    21  0.68

> <Gold.Chemscore.Hbond.Weighted>
-9.6108

> <Gold.Chemscore.Metal.Weighted>
-0.0000

> <Gold.Chemscore.Lipo.Weighted>
-8.5677

> <Gold.Chemscore.Internal_Hbond.Weighted>
0.0000

> <Gold.Chemscore.DEClash.Weighted>
1.1571

> <Gold.Chemscore.DEInternal.Weighted>
0.9831

> <Gold.Chemscore.Rot.Weighted>
3.7985

> <Gold.Chemscore.Internal.Correction.Weighted>
   9.000000E+99

> <Gold.Protein.RotatedTorsions>
[ 6907 6896 6895 6894 ] final  -30.46 input  -60.11 | X-H torsion
[ 7974 7965 7964 7962 ] final   43.37 input  175.53 | X-H torsion
[ 8008 7997 7996 7995 ] final   74.97 input   59.86 | X-H torsion
[ 10167 10162 10161 10158 ] final   80.82 input  -65.29 | X-H torsion
[ 10718 10713 10712 10709 ] final -114.08 input   66.30 | X-H torsion
[ 10763 10752 10751 10750 ] final -171.95 input  -60.55 | X-H torsion
[ 11005 11000 10999 10996 ] final  -72.09 input  -57.11 | X-H torsion

> <Gold.Protein.ActiveResidues>
 VAL166  LYS551  ARG553  GLY616  TRP617  ASP618  TYR619  PRO620  LYS621  CYS622 
 ASP623  PHE694  ASN695  SER759  ASP760  ASP761  ALA762  ILE779  LEU786  VAL792 
 PHE793  MET794  SER795  GLU796  ALA797  LYS798  CYS799  TRP800  GLU811  SER814 

> <Gold.Protein.RotatedAtoms>
  151.1053  134.9996  159.8467 H   0  0  0  0  0  0  0  0  0  0  0  0  # atno 6907 bound_to 6896
  152.5440  134.1901  159.8680 H   0  0  0  0  0  0  0  0  0  0  0  0  # atno 6908 bound_to 6896
  151.1947  133.4602  159.2628 H   0  0  0  0  0  0  0  0  0  0  0  0  # atno 6909 bound_to 6896
  146.0661  139.5194  142.9627 H   0  0  0  0  0  0  0  0  0  0  0  0  # atno 7974 bound_to 7965
  155.8061  140.3475  155.5430 H   0  0  0  0  0  0  0  0  0  0  0  0  # atno 8008 bound_to 7997
  155.8489  140.0953  157.1708 H   0  0  0  0  0  0  0  0  0  0  0  0  # atno 8009 bound_to 7997
  154.4007  140.1380  156.3807 H   0  0  0  0  0  0  0  0  0  0  0  0  # atno 8010 bound_to 7997
  139.9457  144.6060  150.8208 H   0  0  0  0  0  0  0  0  0  0  0  0  # atno 10167 bound_to 10162
  156.0807  130.6008  150.8728 H   0  0  0  0  0  0  0  0  0  0  0  0  # atno 10718 bound_to 10713
  154.6248  135.2879  155.0284 H   0  0  0  0  0  0  0  0  0  0  0  0  # atno 10763 bound_to 10752
  154.1466  135.6510  153.4958 H   0  0  0  0  0  0  0  0  0  0  0  0  # atno 10764 bound_to 10752
  153.0252  135.5345  154.7052 H   0  0  0  0  0  0  0  0  0  0  0  0  # atno 10765 bound_to 10752
  141.1603  133.6836  156.7005 H   0  0  0  0  0  0  0  0  0  0  0  0  # atno 11005 bound_to 11000
  145.6475  141.0270  143.1778 LP  0  0  0  0  0  0  0  0  0  0  0  0  # atno 17320 bound_to 7965
  144.7203  139.8053  143.7384 LP  0  0  0  0  0  0  0  0  0  0  0  0  # atno 17321 bound_to 7965
  140.7598  143.3136  151.2786 LP  0  0  0  0  0  0  0  0  0  0  0  0  # atno 17342 bound_to 10162
  139.6668  144.0090  152.2728 LP  0  0  0  0  0  0  0  0  0  0  0  0  # atno 17343 bound_to 10162
  157.5923  131.0944  150.9099 LP  0  0  0  0  0  0  0  0  0  0  0  0  # atno 17370 bound_to 10713
  156.9272  130.5336  149.5279 LP  0  0  0  0  0  0  0  0  0  0  0  0  # atno 17371 bound_to 10713
  140.2962  134.8200  157.4059 LP  0  0  0  0  0  0  0  0  0  0  0  0  # atno 17394 bound_to 11000
  140.1302  134.5105  155.8111 LP  0  0  0  0  0  0  0  0  0  0  0  0  # atno 17395 bound_to 11000

$$$$
