AV-unprocessed.smi:1165|AV-procd|sdf|4930|dock6
  -GOLD-   22720 3513D 1   1.00000     0.00000
 Structure written by MMmdl.
 41 42  0  0  0  0  0  0  0  0  1 V2000
  146.4306  142.1920  155.0524 C   0  0  0  0  0  0  0  0  0  0  0  0
  147.4874  141.9798  153.9529 C   0  0  1  0  0  0  0  0  0  0  0  0
  148.8915  141.6715  154.5066 C   0  0  0  0  0  0  0  0  0  0  0  0
  148.9853  140.2849  154.9939 N   0  0  0  0  0  0  0  0  0  0  0  0
  150.3618  139.8551  155.9547 S   0  0  0  0  0  0  0  0  0  0  0  0
  150.0264  138.6646  156.7510 O   0  0  0  0  0  0  0  0  0  0  0  0
  151.5530  139.8875  155.0929 O   0  0  0  0  0  0  0  0  0  0  0  0
  150.4136  141.2159  157.0148 N   0  0  0  0  0  0  0  0  0  0  0  0
  151.1114  141.1098  158.2952 C   0  0  0  0  0  0  0  0  0  0  0  0
  151.8484  142.4174  158.6079 C   0  0  0  0  0  0  0  0  0  0  0  0
  152.5399  142.3705  159.9557 C   0  0  0  0  0  0  0  0  0  0  0  0
  152.2957  143.3579  160.9322 C   0  0  0  0  0  0  0  0  0  0  0  0
  152.9678  143.2708  162.1666 C   0  0  0  0  0  0  0  0  0  0  0  0
  153.8581  142.1977  162.3715 C   0  0  0  0  0  0  0  0  0  0  0  0
  154.1006  141.2475  161.4428 N   0  0  0  0  0  0  0  0  0  0  0  0
  153.4519  141.3382  160.2622 C   0  0  0  0  0  0  0  0  0  0  0  0
  148.5189  139.2988  154.0099 C   0  0  0  0  0  0  0  0  0  0  0  0
  147.1092  139.6545  153.5056 C   0  0  2  0  0  0  0  0  0  0  0  0
  146.6532  138.7232  152.3769 C   0  0  0  0  0  0  0  0  0  0  0  0
  147.0922  140.9880  153.0080 O   0  0  0  0  0  0  0  0  0  0  0  0
  146.6952  143.0405  155.6838 H   0  0  0  0  0  0  0  0  0  0  0  0
  146.3303  141.3256  155.7051 H   0  0  0  0  0  0  0  0  0  0  0  0
  145.4529  142.3984  154.6164 H   0  0  0  0  0  0  0  0  0  0  0  0
  147.5512  142.9153  153.3967 H   0  0  0  0  0  0  0  0  0  0  0  0
  149.6354  141.8114  153.7209 H   0  0  0  0  0  0  0  0  0  0  0  0
  149.1423  142.3733  155.3013 H   0  0  0  0  0  0  0  0  0  0  0  0
  149.5258  141.7150  157.0645 H   0  0  0  0  0  0  0  0  0  0  0  0
  150.3885  140.8912  159.0811 H   0  0  0  0  0  0  0  0  0  0  0  0
  151.8107  140.2740  158.2557 H   0  0  0  0  0  0  0  0  0  0  0  0
  152.5861  142.6268  157.8321 H   0  0  0  0  0  0  0  0  0  0  0  0
  151.1478  143.2538  158.6025 H   0  0  0  0  0  0  0  0  0  0  0  0
  151.6079  144.1685  160.7406 H   0  0  0  0  0  0  0  0  0  0  0  0
  152.8056  144.0088  162.9383 H   0  0  0  0  0  0  0  0  0  0  0  0
  154.3901  142.1002  163.3062 H   0  0  0  0  0  0  0  0  0  0  0  0
  153.6691  140.5653  159.5393 H   0  0  0  0  0  0  0  0  0  0  0  0
  149.2275  139.2674  153.1812 H   0  0  0  0  0  0  0  0  0  0  0  0
  148.5082  138.3059  154.4597 H   0  0  0  0  0  0  0  0  0  0  0  0
  146.3965  139.5584  154.3247 H   0  0  0  0  0  0  0  0  0  0  0  0
  146.6307  137.6851  152.7095 H   0  0  0  0  0  0  0  0  0  0  0  0
  147.3217  138.7858  151.5177 H   0  0  0  0  0  0  0  0  0  0  0  0
  145.6505  138.9841  152.0378 H   0  0  0  0  0  0  0  0  0  0  0  0
  1  2  1  0  0  0  0
  1 21  1  0  0  0  0
  1 22  1  0  0  0  0
  1 23  1  0  0  0  0
  2 20  1  0  0  0  0
  2  3  1  0  0  0  0
  2 24  1  0  0  0  0
  3  4  1  0  0  0  0
  3 25  1  0  0  0  0
  3 26  1  0  0  0  0
  4  5  1  0  0  0  0
  4 17  1  0  0  0  0
  5  6  2  0  0  0  0
  5  7  2  0  0  0  0
  5  8  1  0  0  0  0
  8  9  1  0  0  0  0
  8 27  1  0  0  0  0
  9 10  1  0  0  0  0
  9 28  1  0  0  0  0
  9 29  1  0  0  0  0
 10 11  1  0  0  0  0
 10 30  1  0  0  0  0
 10 31  1  0  0  0  0
 11 16  1  0  0  0  0
 11 12  2  0  0  0  0
 12 13  1  0  0  0  0
 12 32  1  0  0  0  0
 13 14  2  0  0  0  0
 13 33  1  0  0  0  0
 14 15  1  0  0  0  0
 14 34  1  0  0  0  0
 15 16  2  0  0  0  0
 16 35  1  0  0  0  0
 17 18  1  0  0  0  0
 17 36  1  0  0  0  0
 17 37  1  0  0  0  0
 18 19  1  0  0  0  0
 18 20  1  0  0  0  0
 18 38  1  0  0  0  0
 19 39  1  0  0  0  0
 19 40  1  0  0  0  0
 19 41  1  0  0  0  0
M  END
> <s_m_source_file>
AV-unprocessed.smi

> <i_m_source_file_index>
1165

> <i_lp_mmshare_version>
43012

> <i_f3d_flags>
0

> <s_epik_input>
W0NIM11bQ0BASF0xW0NIMl1OKFtDSDJdW0NASF0oTzEpW0NIM10pUyg9TykoPU8pW05IXVtDSDJdW0NIMl1jMltjSF1bY0hdW2NIXW5bY0hdMg==

> <s_epik_cmdline>
J2VwaWtfcHl0aG9uJywgJy1waCcsICc3LjAnLCAnLXRuJywgJzgnLCAnLW1hJywgJzIwMCcsICctbWV0YWxfYmluZGluZycsICctaW1hZScsICc8aW5maWxlLm1hZT4nLCAnLW9tYWUnLCAnPG91dGZpbGUubWFlPic=

> <r_epik_Ionization_Penalty>
0.0861056

> <r_epik_Ionization_Penalty_Charging>
0

> <r_epik_Ionization_Penalty_Neutral>
0.0861056

> <r_epik_State_Penalty>
0.0574425

> <r_epik_Charging_Adjusted_Penalty>
0.0574425

> <i_epik_Tot_Q>
0

> <i_epik_Tot_abs_Q>
0

> <r_epik_Metal_State_Penalty>
0.317425

> <b_epik_Metal_Only>
0

> <s_lp_Force_Field>
OPLS_2005

> <r_lp_Energy>
8.11282

> <b_lp_Chiralities_Consistent>
1

> <s_lp_Variant>
AV-unprocessed.smi:1165-3

> <Gold.Version>
5.8.1

> <Gold.Id.Protein>
6NUR|6NUR_protein|mol2

> <Gold.PLP.Fitness>
44.0321

> <Gold.PLP.PLP>
-42.4363

> <Gold.PLP.part.hbond>
-1.0000

> <Gold.PLP.part.metal>
0.0000

> <Gold.PLP.part.buried>
-3.5314

> <Gold.PLP.part.nonpolar>
-35.9483

> <Gold.PLP.part.repulsive>
0.3027

> <Gold.PLP.ligand.clash>
0.0000

> <Gold.PLP.ligand.torsion>
1.0839

> <Gold.PLP.Chemscore.Hbond>
1.0000

> <Gold.PLP.Chemscore.CHOScore>
0.0000

> <Gold.PLP.Chemscore.Metal>
0.0000

> <Gold.Chemscore.Hbonds>
donor molecule, donor type, donor heavy atom, donor atom, acceptor molecule, acceptor atom, score
      P1  H  7989  7998       L1     7  1.00

> <Gold.PLP.Chemscore.Internal.Correction>
0.7637

> <Gold.Rescore>
     Score         DG    S(hbond)    S(metal)    S(lipo)     H(rot)  DE(clash)    DE(int)     intcor
     16.32     -17.53       0.98        0.00     112.35       1.71       0.17       1.04       ----

> <Gold.Chemscore.Fitness>
16.3237

> <Gold.Chemscore.DG>
-17.5272

> <Gold.Chemscore.ZeroCoef>
-5.4800

> <Gold.Chemscore.Hbond>
0.9789

> <Gold.Chemscore.Metal>
0.0000

> <Gold.Chemscore.Lipo>
112.3520

> <Gold.Chemscore.Internal_Hbond>
0.0000

> <Gold.Chemscore.DEClash>
0.1663

> <Gold.Chemscore.DEInternal>
1.0373

> <Gold.Chemscore.Rot>
1.7060

> <Gold.Chemscore.Internal.Correction>
   9.000000E+99

> <Gold.Chemscore.Hbonds>
donor molecule, donor type, donor heavy atom, donor atom, acceptor molecule, acceptor atom, score
      P1  H  7989  7998       L1     7  0.98

> <Gold.Chemscore.Hbond.Weighted>
-3.2694

> <Gold.Chemscore.Metal.Weighted>
-0.0000

> <Gold.Chemscore.Lipo.Weighted>
-13.1452

> <Gold.Chemscore.Internal_Hbond.Weighted>
0.0000

> <Gold.Chemscore.DEClash.Weighted>
0.1663

> <Gold.Chemscore.DEInternal.Weighted>
1.0373

> <Gold.Chemscore.Rot.Weighted>
4.3674

> <Gold.Chemscore.Internal.Correction.Weighted>
   9.000000E+99

> <Gold.Protein.RotatedTorsions>
[ 6907 6896 6895 6894 ] final   42.58 input  -60.11 | X-H torsion
[ 7974 7965 7964 7962 ] final  105.97 input  175.53 | X-H torsion
[ 8008 7997 7996 7995 ] final   52.70 input   59.86 | X-H torsion
[ 10167 10162 10161 10158 ] final   36.65 input  -65.29 | X-H torsion
[ 10718 10713 10712 10709 ] final   29.76 input   66.30 | X-H torsion
[ 10763 10752 10751 10750 ] final   39.18 input  -60.55 | X-H torsion
[ 11005 11000 10999 10996 ] final   -8.68 input  -57.11 | X-H torsion

> <Gold.Protein.ActiveResidues>
 VAL166  LYS551  ARG553  GLY616  TRP617  ASP618  TYR619  PRO620  LYS621  CYS622 
 ASP623  PHE694  ASN695  SER759  ASP760  ASP761  ALA762  ILE779  LEU786  VAL792 
 PHE793  MET794  SER795  GLU796  ALA797  LYS798  CYS799  TRP800  GLU811  SER814 

> <Gold.Protein.RotatedAtoms>
  152.2096  134.8514  160.0498 H   0  0  0  0  0  0  0  0  0  0  0  0  # atno 6907 bound_to 6896
  151.9337  133.3613  159.3948 H   0  0  0  0  0  0  0  0  0  0  0  0  # atno 6908 bound_to 6896
  150.6973  134.4436  159.5347 H   0  0  0  0  0  0  0  0  0  0  0  0  # atno 6909 bound_to 6896
  145.3127  139.2535  143.3754 H   0  0  0  0  0  0  0  0  0  0  0  0  # atno 7974 bound_to 7965
  155.4561  140.3460  155.4307 H   0  0  0  0  0  0  0  0  0  0  0  0  # atno 8008 bound_to 7997
  156.1190  140.1482  156.9261 H   0  0  0  0  0  0  0  0  0  0  0  0  # atno 8009 bound_to 7997
  154.4810  140.0870  156.7355 H   0  0  0  0  0  0  0  0  0  0  0  0  # atno 8010 bound_to 7997
  140.4107  144.1596  150.6139 H   0  0  0  0  0  0  0  0  0  0  0  0  # atno 10167 bound_to 10162
  157.2507  130.7114  149.6404 H   0  0  0  0  0  0  0  0  0  0  0  0  # atno 10718 bound_to 10713
  152.9976  135.6228  154.2423 H   0  0  0  0  0  0  0  0  0  0  0  0  # atno 10763 bound_to 10752
  154.2164  135.2797  155.2942 H   0  0  0  0  0  0  0  0  0  0  0  0  # atno 10764 bound_to 10752
  154.5565  135.5718  153.7027 H   0  0  0  0  0  0  0  0  0  0  0  0  # atno 10765 bound_to 10752
  140.7261  133.8788  155.8857 H   0  0  0  0  0  0  0  0  0  0  0  0  # atno 11005 bound_to 11000
  146.3112  140.3667  142.8670 LP  0  0  0  0  0  0  0  0  0  0  0  0  # atno 17320 bound_to 7965
  144.9003  140.7634  143.5871 LP  0  0  0  0  0  0  0  0  0  0  0  0  # atno 17321 bound_to 7965
  140.4641  143.2438  151.9180 LP  0  0  0  0  0  0  0  0  0  0  0  0  # atno 17342 bound_to 10162
  139.4782  144.5438  151.8489 LP  0  0  0  0  0  0  0  0  0  0  0  0  # atno 17343 bound_to 10162
  155.9666  130.4428  150.5397 LP  0  0  0  0  0  0  0  0  0  0  0  0  # atno 17370 bound_to 10713
  157.3280  131.0694  151.1882 LP  0  0  0  0  0  0  0  0  0  0  0  0  # atno 17371 bound_to 10713
  140.9962  134.1212  157.4361 LP  0  0  0  0  0  0  0  0  0  0  0  0  # atno 17394 bound_to 11000
  139.8837  135.0055  156.6317 LP  0  0  0  0  0  0  0  0  0  0  0  0  # atno 17395 bound_to 11000

$$$$
