AV-unprocessed.smi:325|AV-procd|sdf|2342|dock3
  -GOLD-   2262022253D 1   1.00000     0.00000
 Structure written by MMmdl.
 46 47  0  0  0  0  0  0  0  0  1 V2000
  151.7525  137.4879  158.8948 C   0  0  0  0  0  0  0  0  0  0  0  0
  151.6102  138.5651  157.8339 C   0  0  0  0  0  0  0  0  0  0  0  0
  151.7464  139.8577  158.3056 N   0  0  0  0  0  0  0  0  0  0  0  0
  151.6219  140.9213  157.4200 C   0  0  0  0  0  0  0  0  0  0  0  0
  151.7654  142.1800  158.0035 N   0  0  0  0  0  0  0  0  0  0  0  0
  152.7280  142.3741  159.0885 C   0  0  0  0  0  0  0  0  0  0  0  0
  153.0932  143.8592  159.2512 C   0  0  0  0  0  0  0  0  0  0  0  0
  151.9119  144.6230  159.4534 O   0  0  0  0  0  0  0  0  0  0  0  0
  151.0320  144.5231  158.3417 C   0  0  0  0  0  0  0  0  0  0  0  0
  150.6046  143.0584  158.1496 C   0  0  0  0  0  0  0  0  0  0  0  0
  151.4030  140.7607  156.1465 N   0  0  0  0  0  0  0  0  0  0  0  0
  151.2707  139.4737  155.6042 C   0  0  0  0  0  0  0  0  0  0  0  0
  151.0742  139.3217  154.3995 O   0  0  0  0  0  0  0  0  0  0  0  0
  151.3803  138.3206  156.5219 C   0  0  0  0  0  0  0  0  0  0  0  0
  151.2104  136.9151  155.9518 C   0  0  0  0  0  0  0  0  0  0  0  0
  149.7877  136.6743  155.4122 C   0  0  0  0  0  0  0  0  0  0  0  0
  149.3786  135.1984  155.4369 C   0  0  0  0  0  0  0  0  0  0  0  0
  149.4287  134.5507  156.4831 O   0  0  0  0  0  0  0  0  0  0  0  0
  148.9693  134.6787  154.2686 N   0  0  0  0  0  0  0  0  0  0  0  0
  148.5235  133.3032  154.0630 C   0  0  0  0  0  0  0  0  0  0  0  0
  149.6502  132.3132  154.3999 C   0  0  0  0  0  0  0  0  0  0  0  0
  148.0368  133.1353  152.6173 C   0  0  0  0  0  0  0  0  0  0  0  0
  151.9270  139.9849  159.2909 H   0  0  0  0  0  0  0  0  0  0  0  0
  152.5331  136.7799  158.6158 H   0  0  0  0  0  0  0  0  0  0  0  0
  150.8156  136.9425  159.0104 H   0  0  0  0  0  0  0  0  0  0  0  0
  152.0154  137.9109  159.8653 H   0  0  0  0  0  0  0  0  0  0  0  0
  153.6397  141.8012  158.9160 H   0  0  0  0  0  0  0  0  0  0  0  0
  152.2920  141.9967  160.0145 H   0  0  0  0  0  0  0  0  0  0  0  0
  153.7514  143.9916  160.1102 H   0  0  0  0  0  0  0  0  0  0  0  0
  153.6333  144.2250  158.3763 H   0  0  0  0  0  0  0  0  0  0  0  0
  150.1575  145.1477  158.5243 H   0  0  0  0  0  0  0  0  0  0  0  0
  151.5159  144.9082  157.4426 H   0  0  0  0  0  0  0  0  0  0  0  0
  150.0143  142.7274  159.0053 H   0  0  0  0  0  0  0  0  0  0  0  0
  149.9614  142.9852  157.2713 H   0  0  0  0  0  0  0  0  0  0  0  0
  151.4569  136.1837  156.7234 H   0  0  0  0  0  0  0  0  0  0  0  0
  151.9370  136.7461  155.1571 H   0  0  0  0  0  0  0  0  0  0  0  0
  149.0631  137.2375  156.0013 H   0  0  0  0  0  0  0  0  0  0  0  0
  149.7183  137.0492  154.3899 H   0  0  0  0  0  0  0  0  0  0  0  0
  148.9579  135.2849  153.4612 H   0  0  0  0  0  0  0  0  0  0  0  0
  147.6770  133.1043  154.7227 H   0  0  0  0  0  0  0  0  0  0  0  0
  149.3240  131.2837  154.2500 H   0  0  0  0  0  0  0  0  0  0  0  0
  149.9635  132.4077  155.4401 H   0  0  0  0  0  0  0  0  0  0  0  0
  150.5260  132.4788  153.7716 H   0  0  0  0  0  0  0  0  0  0  0  0
  147.6607  132.1264  152.4462 H   0  0  0  0  0  0  0  0  0  0  0  0
  148.8414  133.3152  151.9030 H   0  0  0  0  0  0  0  0  0  0  0  0
  147.2273  133.8304  152.3909 H   0  0  0  0  0  0  0  0  0  0  0  0
  1 24  1  0  0  0  0
  1 25  1  0  0  0  0
  1 26  1  0  0  0  0
  1  2  1  0  0  0  0
  2 14  2  0  0  0  0
  2  3  1  0  0  0  0
  3 23  1  0  0  0  0
  3  4  1  0  0  0  0
  4  5  1  0  0  0  0
  4 11  2  0  0  0  0
  5 10  1  0  0  0  0
  5  6  1  0  0  0  0
  6  7  1  0  0  0  0
  6 27  1  0  0  0  0
  6 28  1  0  0  0  0
  7  8  1  0  0  0  0
  7 29  1  0  0  0  0
  7 30  1  0  0  0  0
  8  9  1  0  0  0  0
  9 10  1  0  0  0  0
  9 31  1  0  0  0  0
  9 32  1  0  0  0  0
 10 33  1  0  0  0  0
 10 34  1  0  0  0  0
 11 12  1  0  0  0  0
 12 13  2  0  0  0  0
 12 14  1  0  0  0  0
 14 15  1  0  0  0  0
 15 16  1  0  0  0  0
 15 35  1  0  0  0  0
 15 36  1  0  0  0  0
 16 17  1  0  0  0  0
 16 37  1  0  0  0  0
 16 38  1  0  0  0  0
 17 18  2  0  0  0  0
 17 19  1  0  0  0  0
 19 20  1  0  0  0  0
 19 39  1  0  0  0  0
 20 21  1  0  0  0  0
 20 22  1  0  0  0  0
 20 40  1  0  0  0  0
 21 41  1  0  0  0  0
 21 42  1  0  0  0  0
 21 43  1  0  0  0  0
 22 44  1  0  0  0  0
 22 45  1  0  0  0  0
 22 46  1  0  0  0  0
M  END
> <s_m_source_file>
AV-unprocessed.smi

> <i_m_source_file_index>
325

> <i_lp_mmshare_version>
43012

> <i_f3d_flags>
0

> <s_epik_input>
W0NIMl0xW0NIMl1PW0NIMl1bQ0gyXU4xYyhuYzJbQ0gzXSlbbkhdYyg9TyljMltDSDJdW0NIMl1DKD1PKVtOSF1bQ0hdKFtDSDNdKVtDSDNd

> <s_epik_cmdline>
J2VwaWtfcHl0aG9uJywgJy1waCcsICc3LjAnLCAnLXRuJywgJzgnLCAnLW1hJywgJzIwMCcsICctbWV0YWxfYmluZGluZycsICctaW1hZScsICc8aW5maWxlLm1hZT4nLCAnLW9tYWUnLCAnPG91dGZpbGUubWFlPic=

> <r_lp_tautomer_probability>
0.108306

> <r_epik_Ionization_Penalty>
0.0738532

> <r_epik_Ionization_Penalty_Charging>
0.0614224

> <r_epik_Ionization_Penalty_Neutral>
0.0124309

> <r_epik_State_Penalty>
1.70966

> <r_epik_Charging_Adjusted_Penalty>
1.77108

> <i_epik_Tot_Q>
0

> <i_epik_Tot_abs_Q>
0

> <r_epik_Metal_State_Penalty>
2.67951

> <b_epik_Metal_Only>
0

> <s_lp_Force_Field>
OPLS_2005

> <r_lp_Energy>
25.9906

> <b_lp_Chiralities_Consistent>
1

> <s_lp_Variant>
AV-unprocessed.smi:325-2

> <Gold.Version>
5.8.1

> <Gold.Id.Protein>
6NUR|6NUR_protein|mol2

> <Gold.PLP.Fitness>
40.6216

> <Gold.PLP.PLP>
-36.5733

> <Gold.PLP.part.hbond>
-2.0000

> <Gold.PLP.part.metal>
0.0000

> <Gold.PLP.part.buried>
-6.5101

> <Gold.PLP.part.nonpolar>
-28.4371

> <Gold.PLP.part.repulsive>
0.2947

> <Gold.PLP.ligand.clash>
0.0000

> <Gold.PLP.ligand.torsion>
1.1539

> <Gold.PLP.Chemscore.Hbond>
2.0000

> <Gold.PLP.Chemscore.CHOScore>
0.0000

> <Gold.PLP.Chemscore.Metal>
0.0000

> <Gold.Chemscore.Hbonds>
donor molecule, donor type, donor heavy atom, donor atom, acceptor molecule, acceptor atom, score
      L1  H    19    39       P1  7948  1.00
      P1  H  7989  7998       L1    13  1.00

> <Gold.PLP.Chemscore.Internal.Correction>
0.3561

> <Gold.Rescore>
     Score         DG    S(hbond)    S(metal)    S(lipo)     H(rot)  DE(clash)    DE(int)     intcor
     15.71     -16.95       1.85        0.00      82.60       1.71       0.07       1.17       ----

> <Gold.Chemscore.Fitness>
15.7054

> <Gold.Chemscore.DG>
-16.9491

> <Gold.Chemscore.ZeroCoef>
-5.4800

> <Gold.Chemscore.Hbond>
1.8493

> <Gold.Chemscore.Metal>
0.0000

> <Gold.Chemscore.Lipo>
82.6037

> <Gold.Chemscore.Internal_Hbond>
0.0000

> <Gold.Chemscore.DEClash>
0.0699

> <Gold.Chemscore.DEInternal>
1.1737

> <Gold.Chemscore.Rot>
1.7080

> <Gold.Chemscore.Internal.Correction>
   9.000000E+99

> <Gold.Chemscore.Hbonds>
donor molecule, donor type, donor heavy atom, donor atom, acceptor molecule, acceptor atom, score
      L1  H    19    39       P1  7948  0.60
      P1  H  7989  7998       L1    13  0.70

> <Gold.Chemscore.Hbond.Weighted>
-6.1768

> <Gold.Chemscore.Metal.Weighted>
-0.0000

> <Gold.Chemscore.Lipo.Weighted>
-9.6646

> <Gold.Chemscore.Internal_Hbond.Weighted>
0.0000

> <Gold.Chemscore.DEClash.Weighted>
0.0699

> <Gold.Chemscore.DEInternal.Weighted>
1.1737

> <Gold.Chemscore.Rot.Weighted>
4.3724

> <Gold.Chemscore.Internal.Correction.Weighted>
   9.000000E+99

> <Gold.Protein.RotatedTorsions>
[ 6907 6896 6895 6894 ] final   94.73 input  -60.11 | X-H torsion
[ 7974 7965 7964 7962 ] final   93.44 input  175.53 | X-H torsion
[ 8008 7997 7996 7995 ] final  -87.66 input   59.86 | X-H torsion
[ 10167 10162 10161 10158 ] final   -0.51 input  -65.29 | X-H torsion
[ 10718 10713 10712 10709 ] final   29.95 input   66.30 | X-H torsion
[ 10763 10752 10751 10750 ] final    8.30 input  -60.55 | X-H torsion
[ 11005 11000 10999 10996 ] final  -17.95 input  -57.11 | X-H torsion

> <Gold.Protein.ActiveResidues>
 VAL166  LYS551  ARG553  GLY616  TRP617  ASP618  TYR619  PRO620  LYS621  CYS622 
 ASP623  PHE694  ASN695  SER759  ASP760  ASP761  ALA762  ILE779  LEU786  VAL792 
 PHE793  MET794  SER795  GLU796  ALA797  LYS798  CYS799  TRP800  GLU811  SER814 

> <Gold.Protein.RotatedAtoms>
  152.5448  134.1149  159.8373 H   0  0  0  0  0  0  0  0  0  0  0  0  # atno 6907 bound_to 6896
  151.1211  133.5096  159.2609 H   0  0  0  0  0  0  0  0  0  0  0  0  # atno 6908 bound_to 6896
  151.1778  135.0357  159.8834 H   0  0  0  0  0  0  0  0  0  0  0  0  # atno 6909 bound_to 6896
  145.4789  139.2279  143.2893 H   0  0  0  0  0  0  0  0  0  0  0  0  # atno 7974 bound_to 7965
  154.6658  140.0563  157.0112 H   0  0  0  0  0  0  0  0  0  0  0  0  # atno 8008 bound_to 7997
  155.1161  140.3243  155.4490 H   0  0  0  0  0  0  0  0  0  0  0  0  # atno 8009 bound_to 7997
  156.2637  140.2006  156.6284 H   0  0  0  0  0  0  0  0  0  0  0  0  # atno 8010 bound_to 7997
  140.6770  143.6886  150.8046 H   0  0  0  0  0  0  0  0  0  0  0  0  # atno 10167 bound_to 10162
  157.2532  130.7125  149.6416 H   0  0  0  0  0  0  0  0  0  0  0  0  # atno 10718 bound_to 10713
  153.2266  135.6887  153.7938 H   0  0  0  0  0  0  0  0  0  0  0  0  # atno 10763 bound_to 10752
  153.7118  135.3281  155.3249 H   0  0  0  0  0  0  0  0  0  0  0  0  # atno 10764 bound_to 10752
  154.8294  135.4592  154.1134 H   0  0  0  0  0  0  0  0  0  0  0  0  # atno 10765 bound_to 10752
  140.8220  133.8061  155.9669 H   0  0  0  0  0  0  0  0  0  0  0  0  # atno 11005 bound_to 11000
  146.2353  140.5574  142.8957 LP  0  0  0  0  0  0  0  0  0  0  0  0  # atno 17320 bound_to 7965
  144.7901  140.6014  143.6547 LP  0  0  0  0  0  0  0  0  0  0  0  0  # atno 17321 bound_to 7965
  140.0580  143.5183  152.2641 LP  0  0  0  0  0  0  0  0  0  0  0  0  # atno 17342 bound_to 10162
  139.6069  144.7598  151.3041 LP  0  0  0  0  0  0  0  0  0  0  0  0  # atno 17343 bound_to 10162
  155.9665  130.4421  150.5366 LP  0  0  0  0  0  0  0  0  0  0  0  0  # atno 17370 bound_to 10713
  157.3255  131.0690  151.1900 LP  0  0  0  0  0  0  0  0  0  0  0  0  # atno 17371 bound_to 10713
  140.9089  134.2285  157.4997 LP  0  0  0  0  0  0  0  0  0  0  0  0  # atno 17394 bound_to 11000
  139.8708  134.9741  156.4834 LP  0  0  0  0  0  0  0  0  0  0  0  0  # atno 17395 bound_to 11000

$$$$
