AV-unprocessed.smi:1419|AV-procd|sdf|5783|dock10
  -GOLD-   22720 5433D 1   1.00000     0.00000
 Structure written by MMmdl.
 41 42  0  0  0  0  0  0  0  0  1 V2000
  146.2535  131.1163  153.4914 C   0  0  0  0  0  0  0  0  0  0  0  0
  147.2229  131.9072  152.5978 C   0  0  1  0  0  0  0  0  0  0  0  0
  146.5556  133.1078  151.8924 C   0  0  0  0  0  0  0  0  0  0  0  0
  145.5380  132.7040  150.9412 N   0  0  0  0  0  0  0  0  0  0  0  0
  144.1730  132.9499  151.0140 C   0  0  0  0  0  0  0  0  0  0  0  0
  143.6112  132.3807  149.8936 C   0  0  0  0  0  0  0  0  0  0  0  0
  144.6060  131.7875  149.1199 N   0  0  0  0  0  0  0  0  0  0  0  0
  145.7197  132.0216  149.8024 C   0  0  0  0  0  0  0  0  0  0  0  0
  148.3492  132.3649  153.4051 N   0  0  0  0  0  0  0  0  0  0  0  0
  149.0942  131.5978  154.2193 C   0  0  0  0  0  0  0  0  0  0  0  0
  148.8651  130.3987  154.3830 O   0  0  0  0  0  0  0  0  0  0  0  0
  150.1024  132.2538  154.8457 N   0  0  0  0  0  0  0  0  0  0  0  0
  151.1847  131.6550  155.6392 C   0  0  0  0  0  0  0  0  0  0  0  0
  150.9542  131.9817  157.1296 C   0  0  2  0  0  0  0  0  0  0  0  0
  149.7600  131.2375  157.7552 C   0  0  0  0  0  0  0  0  0  0  0  0
  150.8369  133.3980  157.2996 O   0  0  0  0  0  0  0  0  0  0  0  0
  149.8587  134.0443  156.4802 C   0  0  1  0  0  0  0  0  0  0  0  0
  149.9348  135.5502  156.7532 C   0  0  0  0  0  0  0  0  0  0  0  0
  150.1226  133.7096  154.9987 C   0  0  0  0  0  0  0  0  0  0  0  0
  145.4421  130.6766  152.9110 H   0  0  0  0  0  0  0  0  0  0  0  0
  145.8089  131.7547  154.2557 H   0  0  0  0  0  0  0  0  0  0  0  0
  146.7667  130.2984  153.9984 H   0  0  0  0  0  0  0  0  0  0  0  0
  147.5983  131.2200  151.8370 H   0  0  0  0  0  0  0  0  0  0  0  0
  146.0984  133.7729  152.6267 H   0  0  0  0  0  0  0  0  0  0  0  0
  147.2998  133.6998  151.3579 H   0  0  0  0  0  0  0  0  0  0  0  0
  143.7264  133.4907  151.8355 H   0  0  0  0  0  0  0  0  0  0  0  0
  142.5760  132.3536  149.5868 H   0  0  0  0  0  0  0  0  0  0  0  0
  146.6908  131.6870  149.4677 H   0  0  0  0  0  0  0  0  0  0  0  0
  148.5941  133.3414  153.3289 H   0  0  0  0  0  0  0  0  0  0  0  0
  151.2947  130.5787  155.5063 H   0  0  0  0  0  0  0  0  0  0  0  0
  152.1346  132.0819  155.3138 H   0  0  0  0  0  0  0  0  0  0  0  0
  151.8451  131.6797  157.6807 H   0  0  0  0  0  0  0  0  0  0  0  0
  149.9035  130.1584  157.6959 H   0  0  0  0  0  0  0  0  0  0  0  0
  148.8183  131.4660  157.2570 H   0  0  0  0  0  0  0  0  0  0  0  0
  149.6499  131.4984  158.8079 H   0  0  0  0  0  0  0  0  0  0  0  0
  148.8635  133.6983  156.7613 H   0  0  0  0  0  0  0  0  0  0  0  0
  149.1953  136.0936  156.1649 H   0  0  0  0  0  0  0  0  0  0  0  0
  150.9193  135.9471  156.5037 H   0  0  0  0  0  0  0  0  0  0  0  0
  149.7463  135.7656  157.8054 H   0  0  0  0  0  0  0  0  0  0  0  0
  151.0955  134.0940  154.6883 H   0  0  0  0  0  0  0  0  0  0  0  0
  149.3885  134.2085  154.3642 H   0  0  0  0  0  0  0  0  0  0  0  0
  1  2  1  0  0  0  0
  1 20  1  0  0  0  0
  1 21  1  0  0  0  0
  1 22  1  0  0  0  0
  2  3  1  0  0  0  0
  2  9  1  0  0  0  0
  2 23  1  0  0  0  0
  3  4  1  0  0  0  0
  3 24  1  0  0  0  0
  3 25  1  0  0  0  0
  4  8  1  0  0  0  0
  4  5  1  0  0  0  0
  5  6  2  0  0  0  0
  5 26  1  0  0  0  0
  6  7  1  0  0  0  0
  6 27  1  0  0  0  0
  7  8  2  0  0  0  0
  8 28  1  0  0  0  0
  9 10  1  0  0  0  0
  9 29  1  0  0  0  0
 10 11  2  0  0  0  0
 10 12  1  0  0  0  0
 12 19  1  0  0  0  0
 12 13  1  0  0  0  0
 13 14  1  0  0  0  0
 13 30  1  0  0  0  0
 13 31  1  0  0  0  0
 14 15  1  0  0  0  0
 14 16  1  0  0  0  0
 14 32  1  0  0  0  0
 15 33  1  0  0  0  0
 15 34  1  0  0  0  0
 15 35  1  0  0  0  0
 16 17  1  0  0  0  0
 17 18  1  0  0  0  0
 17 19  1  0  0  0  0
 17 36  1  0  0  0  0
 18 37  1  0  0  0  0
 18 38  1  0  0  0  0
 18 39  1  0  0  0  0
 19 40  1  0  0  0  0
 19 41  1  0  0  0  0
M  END
> <s_m_source_file>
AV-unprocessed.smi

> <i_m_source_file_index>
1419

> <i_lp_mmshare_version>
43012

> <i_f3d_flags>
0

> <s_epik_input>
W2NIXTFuW2NIXVtjSF1uMVtDSDJdW0NAQEhdKFtDSDNdKVtOSF1DKD1PKU4yW0NIMl1bQ0BASF0oW0NIM10pT1tDQEBIXShbQ0gzXSlbQ0gyXTI=

> <s_epik_cmdline>
J2VwaWtfcHl0aG9uJywgJy1waCcsICc3LjAnLCAnLXRuJywgJzgnLCAnLW1hJywgJzIwMCcsICctbWV0YWxfYmluZGluZycsICctaW1hZScsICc8aW5maWxlLm1hZT4nLCAnLW9tYWUnLCAnPG91dGZpbGUubWFlPic=

> <r_lp_tautomer_probability>
1

> <r_epik_Ionization_Penalty>
0.625124

> <r_epik_Ionization_Penalty_Charging>
0.625093

> <r_epik_Ionization_Penalty_Neutral>
3.17415e-05

> <r_epik_State_Penalty>
0.641455

> <r_epik_Charging_Adjusted_Penalty>
1.26655

> <i_epik_Tot_Q>
0

> <i_epik_Tot_abs_Q>
0

> <r_epik_Metal_State_Penalty>
0.307717

> <b_epik_Metal_Only>
0

> <s_lp_Force_Field>
OPLS_2005

> <r_lp_Energy>
30.8813

> <b_lp_Chiralities_Consistent>
1

> <s_lp_Variant>
AV-unprocessed.smi:1419-10

> <Gold.Version>
5.8.1

> <Gold.Id.Protein>
6NUR|6NUR_protein|mol2

> <Gold.PLP.Fitness>
40.9948

> <Gold.PLP.PLP>
-31.0333

> <Gold.PLP.part.hbond>
-2.0000

> <Gold.PLP.part.metal>
0.0000

> <Gold.PLP.part.buried>
-4.3414

> <Gold.PLP.part.nonpolar>
-25.8626

> <Gold.PLP.part.repulsive>
0.2135

> <Gold.PLP.ligand.clash>
0.4596

> <Gold.PLP.ligand.torsion>
0.2127

> <Gold.PLP.Chemscore.Hbond>
1.1091

> <Gold.PLP.Chemscore.CHOScore>
2.4901

> <Gold.PLP.Chemscore.Metal>
0.0000

> <Gold.Chemscore.Hbonds>
donor molecule, donor type, donor heavy atom, donor atom, acceptor molecule, acceptor atom, score
      P1  H  6896  6907       L1    16  0.83
      P1  H 10785 10796       L1     7  0.11
      L1  C     6    27       P1 10186  0.77
      L1  C     6    27       P1 10952  0.68
      L1  C     8    28       P1 10747  0.98

> <Gold.PLP.Chemscore.Internal.Correction>
0.0488

> <Gold.Rescore>
     Score         DG    S(hbond)    S(metal)    S(lipo)     H(rot)  DE(clash)    DE(int)     intcor
     10.03     -11.51       0.92        0.00      59.65       1.58       0.01       1.48       ----

> <Gold.Chemscore.Fitness>
10.0260

> <Gold.Chemscore.DG>
-11.5112

> <Gold.Chemscore.ZeroCoef>
-5.4800

> <Gold.Chemscore.Hbond>
0.9250

> <Gold.Chemscore.Metal>
0.0000

> <Gold.Chemscore.Lipo>
59.6479

> <Gold.Chemscore.Internal_Hbond>
0.0000

> <Gold.Chemscore.DEClash>
0.0089

> <Gold.Chemscore.DEInternal>
1.4764

> <Gold.Chemscore.Rot>
1.5769

> <Gold.Chemscore.Internal.Correction>
   9.000000E+99

> <Gold.Chemscore.Hbonds>
donor molecule, donor type, donor heavy atom, donor atom, acceptor molecule, acceptor atom, score
      P1  H  6896  6907       L1    16  0.21

> <Gold.Chemscore.Hbond.Weighted>
-3.0893

> <Gold.Chemscore.Metal.Weighted>
-0.0000

> <Gold.Chemscore.Lipo.Weighted>
-6.9788

> <Gold.Chemscore.Internal_Hbond.Weighted>
0.0000

> <Gold.Chemscore.DEClash.Weighted>
0.0089

> <Gold.Chemscore.DEInternal.Weighted>
1.4764

> <Gold.Chemscore.Rot.Weighted>
4.0369

> <Gold.Chemscore.Internal.Correction.Weighted>
   9.000000E+99

> <Gold.Protein.RotatedTorsions>
[ 6907 6896 6895 6894 ] final -143.74 input  -60.11 | X-H torsion
[ 7974 7965 7964 7962 ] final  129.97 input  175.53 | X-H torsion
[ 8008 7997 7996 7995 ] final  -38.96 input   59.86 | X-H torsion
[ 10167 10162 10161 10158 ] final  168.56 input  -65.29 | X-H torsion
[ 10718 10713 10712 10709 ] final  -34.51 input   66.30 | X-H torsion
[ 10763 10752 10751 10750 ] final   79.77 input  -60.55 | X-H torsion
[ 11005 11000 10999 10996 ] final  120.96 input  -57.11 | X-H torsion

> <Gold.Protein.ActiveResidues>
 VAL166  LYS551  ARG553  GLY616  TRP617  ASP618  TYR619  PRO620  LYS621  CYS622 
 ASP623  PHE694  ASN695  SER759  ASP760  ASP761  ALA762  ILE779  LEU786  VAL792 
 PHE793  MET794  SER795  GLU796  ALA797  LYS798  CYS799  TRP800  GLU811  SER814 

> <Gold.Protein.RotatedAtoms>
  151.1045  133.5219  159.2608 H   0  0  0  0  0  0  0  0  0  0  0  0  # atno 6907 bound_to 6896
  151.2037  135.0452  159.8892 H   0  0  0  0  0  0  0  0  0  0  0  0  # atno 6908 bound_to 6896
  152.5445  134.0870  159.8314 H   0  0  0  0  0  0  0  0  0  0  0  0  # atno 6909 bound_to 6896
  145.0230  139.4115  143.5188 H   0  0  0  0  0  0  0  0  0  0  0  0  # atno 7974 bound_to 7965
  154.4029  140.1564  156.2786 H   0  0  0  0  0  0  0  0  0  0  0  0  # atno 8008 bound_to 7997
  155.8890  140.3439  155.5920 H   0  0  0  0  0  0  0  0  0  0  0  0  # atno 8009 bound_to 7997
  155.7580  140.0814  157.2159 H   0  0  0  0  0  0  0  0  0  0  0  0  # atno 8010 bound_to 7997
  139.4971  144.3801  151.9632 H   0  0  0  0  0  0  0  0  0  0  0  0  # atno 10167 bound_to 10162
  156.3497  130.4306  149.7715 H   0  0  0  0  0  0  0  0  0  0  0  0  # atno 10718 bound_to 10713
  153.0979  135.4827  154.8812 H   0  0  0  0  0  0  0  0  0  0  0  0  # atno 10763 bound_to 10752
  154.7345  135.3068  154.8837 H   0  0  0  0  0  0  0  0  0  0  0  0  # atno 10764 bound_to 10752
  153.9463  135.6828  153.4797 H   0  0  0  0  0  0  0  0  0  0  0  0  # atno 10765 bound_to 10752
  139.9206  134.9637  156.7885 H   0  0  0  0  0  0  0  0  0  0  0  0  # atno 11005 bound_to 11000
  146.3488  139.9737  142.8703 LP  0  0  0  0  0  0  0  0  0  0  0  0  # atno 17320 bound_to 7965
  145.1871  140.9794  143.4232 LP  0  0  0  0  0  0  0  0  0  0  0  0  # atno 17321 bound_to 7965
  140.3237  144.3398  150.6003 LP  0  0  0  0  0  0  0  0  0  0  0  0  # atno 17342 bound_to 10162
  140.5702  143.2182  151.7613 LP  0  0  0  0  0  0  0  0  0  0  0  0  # atno 17343 bound_to 10162
  156.4920  130.8089  151.3098 LP  0  0  0  0  0  0  0  0  0  0  0  0  # atno 17370 bound_to 10713
  157.7459  130.9972  150.2808 LP  0  0  0  0  0  0  0  0  0  0  0  0  # atno 17371 bound_to 10713
  140.6486  133.9752  155.7743 LP  0  0  0  0  0  0  0  0  0  0  0  0  # atno 17394 bound_to 11000
  141.0723  134.0187  157.3508 LP  0  0  0  0  0  0  0  0  0  0  0  0  # atno 17395 bound_to 11000

$$$$
