AV-unprocessed.smi:1830|AV-procd|sdf|7448|dock2
  -GOLD-   22720 9133D 1   1.00000     0.00000
 Structure written by MMmdl.
 54 57  0  0  0  0  0  0  0  0  3 V2000
  146.5699  137.4004  153.3423 O   0  0  0  0  0  0  0  0  0  0  0  0
  145.8042  138.3176  153.0490 C   0  0  0  0  0  0  0  0  0  0  0  0
  144.5438  138.1216  152.6424 N   0  0  0  0  0  0  0  0  0  0  0  0
  143.9259  136.8093  152.4910 C   0  0  0  0  0  0  0  0  0  0  0  0
  144.8021  135.8510  151.6661 C   0  0  2  0  0  0  0  0  0  0  0  0
  143.9955  134.8963  150.7664 C   0  0  0  0  0  0  0  0  0  0  0  0
  144.8895  133.9887  150.0037 N   0  3  2  0  0  0  0  0  0  0  0  0
  144.1496  132.8757  149.3692 C   0  0  0  0  0  0  0  0  0  0  0  0
  144.2744  131.6678  150.3163 C   0  0  0  0  0  0  0  0  0  0  0  0
  145.2249  132.1121  151.4343 C   0  0  0  0  0  0  0  0  0  0  0  0
  145.9176  133.3432  150.8494 C   0  0  2  0  0  0  0  0  0  0  0  0
  146.5648  134.3036  151.8683 C   0  0  0  0  0  0  0  0  0  0  0  0
  145.5833  135.0657  152.5575 O   0  0  0  0  0  0  0  0  0  0  0  0
  146.1006  139.6268  153.1046 N   0  0  0  0  0  0  0  0  0  0  0  0
  147.3164  140.2438  153.5187 C   0  0  0  0  0  0  0  0  0  0  0  0
  148.5838  139.6213  153.3780 C   0  0  0  0  0  0  0  0  0  0  0  0
  149.7459  140.2986  153.7978 C   0  0  0  0  0  0  0  0  0  0  0  0
  149.6272  141.5904  154.3422 C   0  0  0  0  0  0  0  0  0  0  0  0
  148.4096  142.1625  154.4466 N   0  3  0  0  0  0  0  0  0  0  0  0
  147.2617  141.5543  154.0586 C   0  0  0  0  0  0  0  0  0  0  0  0
  146.0448  142.2432  154.2024 N   0  0  0  0  0  0  0  0  0  0  0  0
  145.6754  142.5925  155.5640 C   0  0  0  0  0  0  0  0  0  0  0  0
  144.5628  143.6345  155.4269 C   0  0  0  0  0  0  0  0  0  0  0  0
  144.7517  144.2303  154.0263 C   0  0  0  0  0  0  0  0  0  0  0  0
  145.9382  143.4690  153.4287 C   0  0  0  0  0  0  0  0  0  0  0  0
  143.9712  138.9266  152.4337 H   0  0  0  0  0  0  0  0  0  0  0  0
  143.7459  136.3799  153.4779 H   0  0  0  0  0  0  0  0  0  0  0  0
  142.9519  136.9245  152.0131 H   0  0  0  0  0  0  0  0  0  0  0  0
  145.4654  136.4587  151.0478 H   0  0  0  0  0  0  0  0  0  0  0  0
  143.3121  134.3017  151.3746 H   0  0  0  0  0  0  0  0  0  0  0  0
  143.3813  135.4636  150.0661 H   0  0  0  0  0  0  0  0  0  0  0  0
  143.1116  133.1322  149.1509 H   0  0  0  0  0  0  0  0  0  0  0  0
  144.6310  132.6448  148.4182 H   0  0  0  0  0  0  0  0  0  0  0  0
  143.3063  131.3743  150.7237 H   0  0  0  0  0  0  0  0  0  0  0  0
  144.6794  130.8084  149.7802 H   0  0  0  0  0  0  0  0  0  0  0  0
  144.6514  132.3863  152.3210 H   0  0  0  0  0  0  0  0  0  0  0  0
  145.9299  131.3316  151.7225 H   0  0  0  0  0  0  0  0  0  0  0  0
  146.7017  132.9850  150.1799 H   0  0  0  0  0  0  0  0  0  0  0  0
  147.1577  133.7437  152.5919 H   0  0  0  0  0  0  0  0  0  0  0  0
  147.2543  134.9808  151.3616 H   0  0  0  0  0  0  0  0  0  0  0  0
  145.3394  140.2609  152.9099 H   0  0  0  0  0  0  0  0  0  0  0  0
  148.6916  138.6402  152.9424 H   0  0  0  0  0  0  0  0  0  0  0  0
  150.7161  139.8338  153.6985 H   0  0  0  0  0  0  0  0  0  0  0  0
  150.4629  142.1819  154.6875 H   0  0  0  0  0  0  0  0  0  0  0  0
  145.3376  141.7154  156.1169 H   0  0  0  0  0  0  0  0  0  0  0  0
  146.5253  143.0207  156.0971 H   0  0  0  0  0  0  0  0  0  0  0  0
  143.5851  143.1558  155.4970 H   0  0  0  0  0  0  0  0  0  0  0  0
  144.6194  144.3896  156.2115 H   0  0  0  0  0  0  0  0  0  0  0  0
  143.8539  144.0680  153.4287 H   0  0  0  0  0  0  0  0  0  0  0  0
  144.9412  145.3037  154.0553 H   0  0  0  0  0  0  0  0  0  0  0  0
  146.8493  144.0616  153.5232 H   0  0  0  0  0  0  0  0  0  0  0  0
  145.7851  143.2530  152.3709 H   0  0  0  0  0  0  0  0  0  0  0  0
  145.3482  134.5408  149.2925 H   0  0  0  0  0  0  0  0  0  0  0  0
  148.3512  143.1030  154.8373 H   0  0  0  0  0  0  0  0  0  0  0  0
  1  2  2  0  0  0  0
  2  3  1  0  0  0  0
  2 14  1  0  0  0  0
  3  4  1  0  0  0  0
  3 26  1  0  0  0  0
  4  5  1  0  0  0  0
  4 27  1  0  0  0  0
  4 28  1  0  0  0  0
  5 13  1  0  0  0  0
  5  6  1  0  0  0  0
  5 29  1  0  0  0  0
  6  7  1  0  0  0  0
  6 30  1  0  0  0  0
  6 31  1  0  0  0  0
  7 11  1  0  0  0  0
  7  8  1  0  0  0  0
  7 53  1  0  0  0  0
  8  9  1  0  0  0  0
  8 32  1  0  0  0  0
  8 33  1  0  0  0  0
  9 10  1  0  0  0  0
  9 34  1  0  0  0  0
  9 35  1  0  0  0  0
 10 11  1  0  0  0  0
 10 36  1  0  0  0  0
 10 37  1  0  0  0  0
 11 12  1  0  0  0  0
 11 38  1  0  0  0  0
 12 13  1  0  0  0  0
 12 39  1  0  0  0  0
 12 40  1  0  0  0  0
 14 15  1  0  0  0  0
 14 41  1  0  0  0  0
 15 20  1  0  0  0  0
 15 16  2  0  0  0  0
 16 17  1  0  0  0  0
 16 42  1  0  0  0  0
 17 18  2  0  0  0  0
 17 43  1  0  0  0  0
 18 19  1  0  0  0  0
 18 44  1  0  0  0  0
 19 20  2  0  0  0  0
 19 54  1  0  0  0  0
 20 21  1  0  0  0  0
 21 25  1  0  0  0  0
 21 22  1  0  0  0  0
 22 23  1  0  0  0  0
 22 45  1  0  0  0  0
 22 46  1  0  0  0  0
 23 24  1  0  0  0  0
 23 47  1  0  0  0  0
 23 48  1  0  0  0  0
 24 25  1  0  0  0  0
 24 49  1  0  0  0  0
 24 50  1  0  0  0  0
 25 51  1  0  0  0  0
 25 52  1  0  0  0  0
M  CHG  1   7   1
M  CHG  1  19   1
M  END
> <s_m_source_file>
AV-unprocessed.smi

> <i_m_source_file_index>
1830

> <i_lp_mmshare_version>
43012

> <i_f3d_flags>
0

> <s_epik_input>
W0NIMl0xW0NIMl1bQ0gyXVtDQEhdKE4xMilbQ0gyXU9bQ0BASF0oW0NIMl0yKVtDSDJdW05IXUMoPU8pW05IXWMzW2NIXVtjSF1bY0hdbmMzTjRbQ0gyXVtDSDJdW0NIMl1bQ0gyXTQ=

> <s_epik_cmdline>
J2VwaWtfcHl0aG9uJywgJy1waCcsICc3LjAnLCAnLXRuJywgJzgnLCAnLW1hJywgJzIwMCcsICctbWV0YWxfYmluZGluZycsICctaW1hZScsICc8aW5maWxlLm1hZT4nLCAnLW9tYWUnLCAnPG91dGZpbGUubWFlPic=

> <r_lp_tautomer_probability>
0.999994

> <r_epik_Ionization_Penalty>
1.29113

> <r_epik_Ionization_Penalty_Charging>
1.29111

> <r_epik_Ionization_Penalty_Neutral>
1.88144e-05

> <r_epik_State_Penalty>
1.32676

> <r_epik_Charging_Adjusted_Penalty>
2.61787

> <i_epik_Tot_Q>
2

> <i_epik_Tot_abs_Q>
2

> <r_epik_Metal_State_Penalty>
1.40425

> <b_epik_Metal_Only>
0

> <s_lp_Force_Field>
OPLS_2005

> <r_lp_Energy>
77.5794

> <b_lp_Chiralities_Consistent>
1

> <s_lp_Variant>
AV-unprocessed.smi:1830-17

> <Gold.Version>
5.8.1

> <Gold.Id.Protein>
6NUR|6NUR_protein|mol2

> <Gold.PLP.Fitness>
58.4720

> <Gold.PLP.PLP>
-44.8708

> <Gold.PLP.part.hbond>
-4.9062

> <Gold.PLP.part.metal>
0.0000

> <Gold.PLP.part.buried>
-3.6890

> <Gold.PLP.part.nonpolar>
-36.9322

> <Gold.PLP.part.repulsive>
0.6349

> <Gold.PLP.ligand.clash>
0.0000

> <Gold.PLP.ligand.torsion>
0.7035

> <Gold.PLP.Chemscore.Hbond>
4.9920

> <Gold.PLP.Chemscore.CHOScore>
0.0000

> <Gold.PLP.Chemscore.Metal>
0.0000

> <Gold.Chemscore.Hbonds>
donor molecule, donor type, donor heavy atom, donor atom, acceptor molecule, acceptor atom, score
      L1  H     3    26       P1 10175  1.00
      L1  H     7    53       P1  7921  1.00
      L1  H    14    41       P1 10175  0.98
      L1  H    19    54       P1  8028  2.00

> <Gold.PLP.Chemscore.Internal.Correction>
0.0322

> <Gold.Rescore>
     Score         DG    S(hbond)    S(metal)    S(lipo)     H(rot)  DE(clash)    DE(int)     intcor
     21.55     -27.12       3.75        0.00     109.14       1.43       1.25       4.32       ----

> <Gold.Chemscore.Fitness>
21.5456

> <Gold.Chemscore.DG>
-27.1162

> <Gold.Chemscore.ZeroCoef>
-5.4800

> <Gold.Chemscore.Hbond>
3.7492

> <Gold.Chemscore.Metal>
0.0000

> <Gold.Chemscore.Lipo>
109.1364

> <Gold.Chemscore.Internal_Hbond>
0.0000

> <Gold.Chemscore.DEClash>
1.2486

> <Gold.Chemscore.DEInternal>
4.3221

> <Gold.Chemscore.Rot>
1.4278

> <Gold.Chemscore.Internal.Correction>
   9.000000E+99

> <Gold.Chemscore.Hbonds>
donor molecule, donor type, donor heavy atom, donor atom, acceptor molecule, acceptor atom, score
      L1  H     3    26       P1 10175  0.92
      L1  H     7    53       P1  7921  0.97
      L1  H    14    41       P1 10175  0.90
      L1  H    19    54       P1  8028  0.99

> <Gold.Chemscore.Hbond.Weighted>
-12.5223

> <Gold.Chemscore.Metal.Weighted>
-0.0000

> <Gold.Chemscore.Lipo.Weighted>
-12.7690

> <Gold.Chemscore.Internal_Hbond.Weighted>
0.0000

> <Gold.Chemscore.DEClash.Weighted>
1.2486

> <Gold.Chemscore.DEInternal.Weighted>
4.3221

> <Gold.Chemscore.Rot.Weighted>
3.6551

> <Gold.Chemscore.Internal.Correction.Weighted>
   9.000000E+99

> <Gold.Protein.RotatedTorsions>
[ 6907 6896 6895 6894 ] final  -44.84 input  -60.11 | X-H torsion
[ 7974 7965 7964 7962 ] final  -67.20 input  175.53 | X-H torsion
[ 8008 7997 7996 7995 ] final   34.87 input   59.86 | X-H torsion
[ 10167 10162 10161 10158 ] final -121.57 input  -65.29 | X-H torsion
[ 10718 10713 10712 10709 ] final   46.45 input   66.30 | X-H torsion
[ 10763 10752 10751 10750 ] final   67.34 input  -60.55 | X-H torsion
[ 11005 11000 10999 10996 ] final -151.30 input  -57.11 | X-H torsion

> <Gold.Protein.ActiveResidues>
 VAL166  LYS551  ARG553  GLY616  TRP617  ASP618  TYR619  PRO620  LYS621  CYS622 
 ASP623  PHE694  ASN695  SER759  ASP760  ASP761  ALA762  ILE779  LEU786  VAL792 
 PHE793  MET794  SER795  GLU796  ALA797  LYS798  CYS799  TRP800  GLU811  SER814 

> <Gold.Protein.RotatedAtoms>
  150.9284  134.8700  159.7534 H   0  0  0  0  0  0  0  0  0  0  0  0  # atno 6907 bound_to 6896
  152.5026  134.4115  159.9460 H   0  0  0  0  0  0  0  0  0  0  0  0  # atno 6908 bound_to 6896
  151.4144  133.3677  159.2783 H   0  0  0  0  0  0  0  0  0  0  0  0  # atno 6909 bound_to 6896
  145.7322  140.8992  143.0574 H   0  0  0  0  0  0  0  0  0  0  0  0  # atno 7974 bound_to 7965
  155.1618  140.3284  155.4410 H   0  0  0  0  0  0  0  0  0  0  0  0  # atno 8008 bound_to 7997
  156.2540  140.1959  156.6676 H   0  0  0  0  0  0  0  0  0  0  0  0  # atno 8009 bound_to 7997
  154.6399  140.0571  156.9820 H   0  0  0  0  0  0  0  0  0  0  0  0  # atno 8010 bound_to 7997
  140.0236  143.5319  152.2209 H   0  0  0  0  0  0  0  0  0  0  0  0  # atno 10167 bound_to 10162
  157.4482  130.8122  149.7762 H   0  0  0  0  0  0  0  0  0  0  0  0  # atno 10718 bound_to 10713
  153.0182  135.5287  154.6965 H   0  0  0  0  0  0  0  0  0  0  0  0  # atno 10763 bound_to 10752
  154.6085  135.2876  155.0460 H   0  0  0  0  0  0  0  0  0  0  0  0  # atno 10764 bound_to 10752
  154.1491  135.6566  153.5012 H   0  0  0  0  0  0  0  0  0  0  0  0  # atno 10765 bound_to 10752
  140.7310  134.3621  157.5166 H   0  0  0  0  0  0  0  0  0  0  0  0  # atno 11005 bound_to 11000
  144.6890  139.9346  143.7473 LP  0  0  0  0  0  0  0  0  0  0  0  0  # atno 17320 bound_to 7965
  146.0527  139.3526  143.0629 LP  0  0  0  0  0  0  0  0  0  0  0  0  # atno 17321 bound_to 7965
  139.6123  144.7611  151.2924 LP  0  0  0  0  0  0  0  0  0  0  0  0  # atno 17342 bound_to 10162
  140.7332  143.6802  150.8008 LP  0  0  0  0  0  0  0  0  0  0  0  0  # atno 17343 bound_to 10162
  155.9976  130.3899  150.2733 LP  0  0  0  0  0  0  0  0  0  0  0  0  # atno 17370 bound_to 10713
  157.0903  131.0168  151.3124 LP  0  0  0  0  0  0  0  0  0  0  0  0  # atno 17371 bound_to 10713
  139.8826  134.9018  156.2819 LP  0  0  0  0  0  0  0  0  0  0  0  0  # atno 17394 bound_to 11000
  140.9921  133.7202  156.0829 LP  0  0  0  0  0  0  0  0  0  0  0  0  # atno 17395 bound_to 11000

$$$$
