#       Name:                AV-unprocessed.smi:792
#       Creating user name   scv26
#       Creation time:       Fri Mar 27 01:18:18 2020


#       File generated by GOLD software.
#

@<TRIPOS>MOLECULE
AV-unprocessed.smi:792
    51    52     1
SMALL
NO_CHARGES


@<TRIPOS>ATOM
      1 ****        -5.2761   6.6894  -0.7303 C.3            1 S1                 0.0000
      2 ****        -4.7783   5.2644  -0.6118 C.ar           1 S1                 0.0000
      3 ****        -4.5618   4.6412   0.6362 C.ar           1 S1                 0.0000
      4 ****        -4.0964   3.3101   0.6697 C.ar           1 S1                 0.0000
      5 ****        -3.8585   2.6287  -0.5441 C.ar           1 S1                 0.0000
      6 ****        -3.3560   1.1981  -0.5417 C.3            1 S1                 0.0000
      7 ****        -1.8237   1.1242  -0.5214 C.3            1 S1                 0.0000
      8 ****        -1.3763  -0.2612  -0.5460 N.am           1 S1                 0.0000
      9 ****        -0.0909  -0.6355  -0.5771 C.2            1 S1                 0.0000
     10 ****         0.8550   0.1527  -0.5688 O.2            1 S1                 0.0000
     11 ****         0.0399  -1.9692  -0.6213 N.am           1 S1                 0.0000
     12 ****         1.3128  -2.6881  -0.6464 C.3            1 S1                 0.0000
     13 ****         1.8921  -2.9588   0.7555 C.2            1 S1                 0.0000
     14 ****         1.2343  -2.6350   1.7466 O.2            1 S1                 0.0000
     15 ****         3.1069  -3.5516   0.8589 N.am           1 S1                 0.0000
     16 ****         3.7673  -3.7878   2.1501 C.3            1 S1                 0.0000
     17 ****         4.9983  -2.8690   2.2562 C.3            1 S1                 0.0000
     18 ****         5.9520  -3.0842   1.0661 C.3            1 S1                 0.0000
     19 ****         5.2059  -3.0155  -0.2797 C.3            1 S1                 0.0000
     20 ****         3.9704  -3.9337  -0.2677 C.3            1 S1                 0.0000
     21 ****        -4.0911   3.3033  -1.7618 C.ar           1 S1                 0.0000
     22 ****        -4.5367   4.5787  -1.7516 N.pl3          1 S1                 1.0000
     23 ****        -5.4335   7.1340   0.2529 H              1 S1                 0.0000
     24 ****        -6.2220   6.7177  -1.2719 H              1 S1                 0.0000
     25 ****        -4.5520   7.3016  -1.2687 H              1 S1                 0.0000
     26 ****        -4.7485   5.1735   1.5575 H              1 S1                 0.0000
     27 ****        -3.9238   2.8201   1.6169 H              1 S1                 0.0000
     28 ****        -3.7679   0.6772   0.3241 H              1 S1                 0.0000
     29 ****        -3.7439   0.6850  -1.4229 H              1 S1                 0.0000
     30 ****        -1.4118   1.6508  -1.3841 H              1 S1                 0.0000
     31 ****        -1.4342   1.6140   0.3724 H              1 S1                 0.0000
     32 ****        -2.0874  -0.9780  -0.5466 H              1 S1                 0.0000
     33 ****        -0.7984  -2.5317  -0.6195 H              1 S1                 0.0000
     34 ****         1.1455  -3.6411  -1.1490 H              1 S1                 0.0000
     35 ****         2.0346  -2.1302  -1.2457 H              1 S1                 0.0000
     36 ****         3.1081  -3.6195   3.0027 H              1 S1                 0.0000
     37 ****         4.0726  -4.8333   2.2142 H              1 S1                 0.0000
     38 ****         4.6731  -1.8280   2.2812 H              1 S1                 0.0000
     39 ****         5.5243  -3.0524   3.1935 H              1 S1                 0.0000
     40 ****         6.7580  -2.3504   1.0897 H              1 S1                 0.0000
     41 ****         6.4234  -4.0631   1.1612 H              1 S1                 0.0000
     42 ****         4.8952  -1.9884  -0.4763 H              1 S1                 0.0000
     43 ****         5.8764  -3.2974  -1.0918 H              1 S1                 0.0000
     44 ****         4.2818  -4.9717  -0.1420 H              1 S1                 0.0000
     45 ****         3.4734  -3.9001  -1.2357 H              1 S1                 0.0000
     46 ****        -3.9348   2.8658  -2.7373 H              1 S1                 0.0000
     47 ****        -4.6981   5.0453  -2.6446 H              1 S1                 0.0000
     48 ****         0.6849   1.1376  -0.5373 LP             1 S1                 0.0000
     49 ****         1.7934  -0.1921  -0.5936 LP             1 S1                 0.0000
     50 ****         0.3392  -2.2037   1.6336 LP             1 S1                 0.0000
     51 ****         1.5958  -2.8037   2.6636 LP             1 S1                 0.0000
@<TRIPOS>BOND
    1    1    2 1     
    2    1   23 1     
    3    1   24 1     
    4    1   25 1     
    5    2   22 ar    
    6    2    3 ar    
    7    3    4 ar    
    8    3   26 1     
    9    4    5 ar    
   10    4   27 1     
   11    5    6 1     
   12    5   21 ar    
   13    6    7 1     
   14    6   28 1     
   15    6   29 1     
   16    7    8 1     
   17    7   30 1     
   18    7   31 1     
   19    8    9 am    
   20    8   32 1     
   21    9   10 2     
   22    9   11 am    
   23   11   12 1     
   24   11   33 1     
   25   12   13 1     
   26   12   34 1     
   27   12   35 1     
   28   13   14 2     
   29   13   15 am    
   30   15   20 1     
   31   15   16 1     
   32   16   17 1     
   33   16   36 1     
   34   16   37 1     
   35   17   18 1     
   36   17   38 1     
   37   17   39 1     
   38   18   19 1     
   39   18   40 1     
   40   18   41 1     
   41   19   20 1     
   42   19   42 1     
   43   19   43 1     
   44   20   44 1     
   45   20   45 1     
   46   21   22 ar    
   47   21   46 1     
   48   22   47 1     
   49   10   48 1     
   50   10   49 1     
   51   14   50 1     
   52   14   51 1     
@<TRIPOS>SUBSTRUCTURE
      1 S1             1
@<TRIPOS>SET
LONE_PAIRS      STATIC     ATOMS    <user>   **** ""
4 48 49 50 51
DONOR_HYDROGENS      STATIC     ATOMS    <user>   **** ""
3 32 33 47
ATOM$BLUE        STATIC     ATOMS    COLORGROUP SYSTEM
4 48 49 50 51
ATOM$RED        STATIC     ATOMS    COLORGROUP SYSTEM
3 32 33 47
