AV-unprocessed.smi:160|AV-procd|sdf|1371|dock9
  -GOLD-   2262019 93D 1   1.00000     0.00000
 Structure written by MMmdl.
 28 29  0  0  0  0  0  0  0  0  2 V2000
  151.9912  137.3247  153.8361 N   0  5  0  0  0  0  0  0  0  0  0  0
  152.4921  138.4435  154.4036 C   0  0  0  0  0  0  0  0  0  0  0  0
  153.6790  138.7644  154.4547 O   0  0  0  0  0  0  0  0  0  0  0  0
  151.4552  139.3537  155.0179 C   0  0  0  0  0  0  0  0  0  0  0  0
  151.7541  140.1063  156.1203 N   0  0  0  0  0  0  0  0  0  0  0  0
  150.5868  140.7133  156.2858 C   0  0  0  0  0  0  0  0  0  0  0  0
  149.6632  140.3815  155.3795 N   0  0  0  0  0  0  0  0  0  0  0  0
  148.2437  140.8352  155.2445 C   0  0  2  0  0  0  0  0  0  0  0  0
  147.4246  139.7783  155.6458 O   0  0  0  0  0  0  0  0  0  0  0  0
  146.3917  139.5577  154.6884 C   0  0  2  0  0  0  0  0  0  0  0  0
  145.9031  138.0989  154.7314 C   0  0  0  0  0  0  0  0  0  0  0  0
  144.6862  137.9718  154.0265 O   0  0  0  0  0  0  0  0  0  0  0  0
  147.0097  140.0116  153.3583 C   0  0  2  0  0  0  0  0  0  0  0  0
  147.7771  138.9754  152.7701 O   0  0  0  0  0  0  0  0  0  0  0  0
  147.8574  141.1996  153.7964 C   0  0  2  0  0  0  0  0  0  0  0  0
  148.9319  141.4853  152.9161 O   0  0  0  0  0  0  0  0  0  0  0  0
  150.2144  139.4745  154.5364 N   0  0  0  0  0  0  0  0  0  0  0  0
  148.1608  141.6776  155.9323 H   0  0  0  0  0  0  0  0  0  0  0  0
  145.5678  140.2355  154.9206 H   0  0  0  0  0  0  0  0  0  0  0  0
  146.2458  140.3106  152.6400 H   0  0  0  0  0  0  0  0  0  0  0  0
  147.2186  142.0817  153.8535 H   0  0  0  0  0  0  0  0  0  0  0  0
  151.6975  137.3657  152.8527 H   0  0  0  0  0  0  0  0  0  0  0  0
  150.4015  141.4163  157.0844 H   0  0  0  0  0  0  0  0  0  0  0  0
  146.6283  137.4449  154.2466 H   0  0  0  0  0  0  0  0  0  0  0  0
  145.7850  137.7502  155.7581 H   0  0  0  0  0  0  0  0  0  0  0  0
  144.5898  138.7216  153.4596 H   0  0  0  0  0  0  0  0  0  0  0  0
  148.4295  139.3684  152.2102 H   0  0  0  0  0  0  0  0  0  0  0  0
  148.9440  140.8330  152.2327 H   0  0  0  0  0  0  0  0  0  0  0  0
  1  2  1  0  0  0  0
  1 22  1  0  0  0  0
  2  3  2  0  0  0  0
  2  4  1  0  0  0  0
  4 17  2  0  0  0  0
  4  5  1  0  0  0  0
  5  6  2  0  0  0  0
  6  7  1  0  0  0  0
  6 23  1  0  0  0  0
  7  8  1  0  0  0  0
  7 17  1  0  0  0  0
  8 18  1  0  0  0  0
  8 15  1  0  0  0  0
  8  9  1  0  0  0  0
  9 10  1  0  0  0  0
 10 19  1  0  0  0  0
 10 11  1  0  0  0  0
 10 13  1  0  0  0  0
 11 12  1  0  0  0  0
 11 24  1  0  0  0  0
 11 25  1  0  0  0  0
 12 26  1  0  0  0  0
 13 20  1  0  0  0  0
 13 14  1  0  0  0  0
 13 15  1  0  0  0  0
 14 27  1  0  0  0  0
 15 21  1  0  0  0  0
 15 16  1  0  0  0  0
 16 28  1  0  0  0  0
M  CHG  1   1  -1
M  END
> <s_m_source_file>
AV-unprocessed.smi

> <i_m_source_file_index>
160

> <i_lp_mmshare_version>
43012

> <i_f3d_flags>
0

> <s_epik_input>
W05IMl1DKD1PKWMxbltjSF1uKG4xKVtDQEBIXTJPW0NASF0oW0NIMl1bT0hdKVtDQEBIXShbT0hdKVtDQEhdMltPSF0=

> <s_epik_cmdline>
J2VwaWtfcHl0aG9uJywgJy1waCcsICc3LjAnLCAnLXRuJywgJzgnLCAnLW1hJywgJzIwMCcsICctbWV0YWxfYmluZGluZycsICctaW1hZScsICc8aW5maWxlLm1hZT4nLCAnLW9tYWUnLCAnPG91dGZpbGUubWFlPic=

> <r_lp_tautomer_probability>
1

> <r_epik_Ionization_Penalty>
6.6993

> <r_epik_Ionization_Penalty_Charging>
6.6993

> <r_epik_Ionization_Penalty_Neutral>
6.01698e-06

> <r_epik_State_Penalty>
6.69929

> <r_epik_Charging_Adjusted_Penalty>
13.3986

> <i_epik_Tot_Q>
-1

> <i_epik_Tot_abs_Q>
1

> <r_epik_Metal_State_Penalty>
2.62798

> <b_epik_Metal_Only>
1

> <s_epik_Chemistry_Notes>
This compound contains an acetal/aminal-like group ( X-CH(R)-Y where X, Y are N, S, or O) that may be acid/base labile, releasing an aldehyde.

> <s_lp_Force_Field>
OPLS_2005

> <r_lp_Energy>
51.4861

> <b_lp_Chiralities_Consistent>
1

> <s_lp_Variant>
AV-unprocessed.smi:160-29

> <Gold.Version>
5.8.1

> <Gold.Id.Protein>
6NUR|6NUR_protein|mol2

> <Gold.PLP.Fitness>
44.5512

> <Gold.PLP.PLP>
-26.0409

> <Gold.PLP.part.hbond>
-7.4728

> <Gold.PLP.part.metal>
0.0000

> <Gold.PLP.part.buried>
-3.2250

> <Gold.PLP.part.nonpolar>
-16.0547

> <Gold.PLP.part.repulsive>
0.1123

> <Gold.PLP.ligand.clash>
0.0000

> <Gold.PLP.ligand.torsion>
0.8466

> <Gold.PLP.Chemscore.Hbond>
6.7321

> <Gold.PLP.Chemscore.CHOScore>
0.0000

> <Gold.PLP.Chemscore.Metal>
0.0000

> <Gold.Chemscore.Hbonds>
donor molecule, donor type, donor heavy atom, donor atom, acceptor molecule, acceptor atom, score
      L1  H     1    22       P1  7949  0.69
      L1  H    12    26       P1 10175  0.59
      L1  H    14    27       P1  7957  1.00
      L1  H    16    28       P1  7957  0.86
      P1  H  7997  8010       L1     3  0.74
      P1  H  8011  8017       L1    16  0.58
      P1  H 10752 10763       L1     1  2.00

> <Gold.PLP.Chemscore.Internal.Correction>
0.0072

> <Gold.Rescore>
     Score         DG    S(hbond)    S(metal)    S(lipo)     H(rot)  DE(clash)    DE(int)     intcor
      9.01     -12.55       4.53        0.00      19.48       4.04       1.11       2.43       ----

> <Gold.Chemscore.Fitness>
9.0149

> <Gold.Chemscore.DG>
-12.5506

> <Gold.Chemscore.ZeroCoef>
-5.4800

> <Gold.Chemscore.Hbond>
4.5313

> <Gold.Chemscore.Metal>
0.0000

> <Gold.Chemscore.Lipo>
19.4788

> <Gold.Chemscore.Internal_Hbond>
0.0000

> <Gold.Chemscore.DEClash>
1.1074

> <Gold.Chemscore.DEInternal>
2.4283

> <Gold.Chemscore.Rot>
4.0403

> <Gold.Chemscore.Internal.Correction>
   9.000000E+99

> <Gold.Chemscore.Hbonds>
donor molecule, donor type, donor heavy atom, donor atom, acceptor molecule, acceptor atom, score
      L1  H     1    22       P1  7949  0.66
      L1  H    12    26       P1 10175  0.58
      L1  H    14    27       P1  7957  1.00
      L1  H    16    28       P1  7957  0.81
      P1  H  7997  8010       L1     3  0.71
      P1  H  8011  8017       L1    16  0.11
      P1  H 10752 10763       L1     1  0.59

> <Gold.Chemscore.Hbond.Weighted>
-15.1346

> <Gold.Chemscore.Metal.Weighted>
-0.0000

> <Gold.Chemscore.Lipo.Weighted>
-2.2790

> <Gold.Chemscore.Internal_Hbond.Weighted>
0.0000

> <Gold.Chemscore.DEClash.Weighted>
1.1074

> <Gold.Chemscore.DEInternal.Weighted>
2.4283

> <Gold.Chemscore.Rot.Weighted>
10.3431

> <Gold.Chemscore.Internal.Correction.Weighted>
   9.000000E+99

> <Gold.Protein.RotatedTorsions>
[ 6907 6896 6895 6894 ] final   27.43 input  -60.11 | X-H torsion
[ 7974 7965 7964 7962 ] final  131.47 input  175.53 | X-H torsion
[ 8008 7997 7996 7995 ] final  110.36 input   59.86 | X-H torsion
[ 10167 10162 10161 10158 ] final -122.05 input  -65.29 | X-H torsion
[ 10718 10713 10712 10709 ] final  164.90 input   66.30 | X-H torsion
[ 10763 10752 10751 10750 ] final   28.79 input  -60.55 | X-H torsion
[ 11005 11000 10999 10996 ] final  151.28 input  -57.11 | X-H torsion

> <Gold.Protein.ActiveResidues>
 VAL166  LYS551  ARG553  GLY616  TRP617  ASP618  TYR619  PRO620  LYS621  CYS622 
 ASP623  PHE694  ASN695  SER759  ASP760  ASP761  ALA762  ILE779  LEU786  VAL792 
 PHE793  MET794  SER795  GLU796  ALA797  LYS798  CYS799  TRP800  GLU811  SER814 

> <Gold.Protein.RotatedAtoms>
  152.0022  134.9922  160.0565 H   0  0  0  0  0  0  0  0  0  0  0  0  # atno 6907 bound_to 6896
  152.1508  133.4516  159.4821 H   0  0  0  0  0  0  0  0  0  0  0  0  # atno 6908 bound_to 6896
  150.6875  134.2109  159.4402 H   0  0  0  0  0  0  0  0  0  0  0  0  # atno 6909 bound_to 6896
  145.0070  139.4257  143.5264 H   0  0  0  0  0  0  0  0  0  0  0  0  # atno 7974 bound_to 7965
  156.2047  140.3040  155.9601 H   0  0  0  0  0  0  0  0  0  0  0  0  # atno 8008 bound_to 7997
  155.2870  140.0440  157.3037 H   0  0  0  0  0  0  0  0  0  0  0  0  # atno 8009 bound_to 7997
  154.5617  140.2322  155.8334 H   0  0  0  0  0  0  0  0  0  0  0  0  # atno 8010 bound_to 7997
  140.0185  143.5369  152.2231 H   0  0  0  0  0  0  0  0  0  0  0  0  # atno 10167 bound_to 10162
  157.0877  131.0409  151.2550 H   0  0  0  0  0  0  0  0  0  0  0  0  # atno 10718 bound_to 10713
  153.0470  135.6504  154.0792 H   0  0  0  0  0  0  0  0  0  0  0  0  # atno 10763 bound_to 10752
  154.0488  135.2897  155.3345 H   0  0  0  0  0  0  0  0  0  0  0  0  # atno 10764 bound_to 10752
  154.6733  135.5347  153.8233 H   0  0  0  0  0  0  0  0  0  0  0  0  # atno 10765 bound_to 10752
  140.1205  134.8866  157.2065 H   0  0  0  0  0  0  0  0  0  0  0  0  # atno 11005 bound_to 11000
  146.3463  139.9491  142.8731 LP  0  0  0  0  0  0  0  0  0  0  0  0  # atno 17320 bound_to 7965
  145.2075  140.9881  143.4120 LP  0  0  0  0  0  0  0  0  0  0  0  0  # atno 17321 bound_to 7965
  139.6156  144.7618  151.2854 LP  0  0  0  0  0  0  0  0  0  0  0  0  # atno 17342 bound_to 10162
  140.7352  143.6743  150.8055 LP  0  0  0  0  0  0  0  0  0  0  0  0  # atno 17343 bound_to 10162
  157.4747  130.7729  149.7357 LP  0  0  0  0  0  0  0  0  0  0  0  0  # atno 17370 bound_to 10713
  155.9906  130.3943  150.3020 LP  0  0  0  0  0  0  0  0  0  0  0  0  # atno 17371 bound_to 10713
  140.2971  134.3174  155.7299 LP  0  0  0  0  0  0  0  0  0  0  0  0  # atno 17394 bound_to 11000
  141.2150  133.7569  156.9587 LP  0  0  0  0  0  0  0  0  0  0  0  0  # atno 17395 bound_to 11000

$$$$
