AV-unprocessed.smi:686|AV-procd|sdf|3342|dock7
  -GOLD-   22720 0313D 1   1.00000     0.00000
 Structure written by MMmdl.
 41 42  0  0  0  0  0  0  0  0  2 V2000
  149.5737  132.2291  154.6936 C   0  0  0  0  0  0  0  0  0  0  0  0
  149.0300  133.3494  153.7966 C   0  0  1  0  0  0  0  0  0  0  0  0
  147.9945  132.8687  152.7779 C   0  0  0  0  0  0  0  0  0  0  0  0
  147.1813  134.0605  152.4648 N   0  3  1  0  0  0  0  0  0  0  0  0
  145.8977  133.7918  151.7567 C   0  0  0  0  0  0  0  0  0  0  0  0
  146.1179  132.9540  150.4830 C   0  0  0  0  0  0  0  0  0  0  0  0
  145.1737  135.1021  151.3939 C   0  0  0  0  0  0  0  0  0  0  0  0
  147.0489  134.7836  153.7485 C   0  0  0  0  0  0  0  0  0  0  0  0
  148.3198  134.4796  154.5639 C   0  0  2  0  0  0  0  0  0  0  0  0
  149.1958  135.6532  154.6635 N   0  0  0  0  0  0  0  0  0  0  0  0
  150.3704  135.7762  155.9257 S   0  0  0  0  0  0  0  0  0  0  0  0
  150.2033  134.6212  156.8220 O   0  0  0  0  0  0  0  0  0  0  0  0
  151.6703  136.0414  155.2913 O   0  0  0  0  0  0  0  0  0  0  0  0
  149.8427  137.3031  156.8152 C   0  0  0  0  0  0  0  0  0  0  0  0
  149.8628  138.4678  155.8678 C   0  0  0  0  0  0  0  0  0  0  0  0
  148.9755  138.7502  154.7928 C   0  0  0  0  0  0  0  0  0  0  0  0
  149.4612  139.9173  154.2777 C   0  0  0  0  0  0  0  0  0  0  0  0
  150.5521  140.3263  154.9736 O   0  0  0  0  0  0  0  0  0  0  0  0
  150.8002  139.3947  155.9881 N   0  0  0  0  0  0  0  0  0  0  0  0
  148.7780  131.7629  155.2754 H   0  0  0  0  0  0  0  0  0  0  0  0
  150.3154  132.6154  155.3933 H   0  0  0  0  0  0  0  0  0  0  0  0
  150.0522  131.4499  154.0995 H   0  0  0  0  0  0  0  0  0  0  0  0
  149.8641  133.7690  153.2306 H   0  0  0  0  0  0  0  0  0  0  0  0
  148.4691  132.4492  151.8903 H   0  0  0  0  0  0  0  0  0  0  0  0
  147.3560  132.1004  153.2180 H   0  0  0  0  0  0  0  0  0  0  0  0
  145.2511  133.2223  152.4263 H   0  0  0  0  0  0  0  0  0  0  0  0
  145.1796  132.8042  149.9482 H   0  0  0  0  0  0  0  0  0  0  0  0
  146.5105  131.9624  150.7082 H   0  0  0  0  0  0  0  0  0  0  0  0
  146.8122  133.4443  149.7994 H   0  0  0  0  0  0  0  0  0  0  0  0
  144.2583  134.9018  150.8360 H   0  0  0  0  0  0  0  0  0  0  0  0
  145.8024  135.7443  150.7758 H   0  0  0  0  0  0  0  0  0  0  0  0
  144.8843  135.6682  152.2793 H   0  0  0  0  0  0  0  0  0  0  0  0
  146.8869  135.8482  153.5827 H   0  0  0  0  0  0  0  0  0  0  0  0
  146.1813  134.4044  154.2911 H   0  0  0  0  0  0  0  0  0  0  0  0
  148.0466  134.1554  155.5694 H   0  0  0  0  0  0  0  0  0  0  0  0
  149.5274  136.0124  153.7681 H   0  0  0  0  0  0  0  0  0  0  0  0
  148.8457  137.1398  157.2240 H   0  0  0  0  0  0  0  0  0  0  0  0
  150.5186  137.4707  157.6530 H   0  0  0  0  0  0  0  0  0  0  0  0
  148.1215  138.1844  154.4510 H   0  0  0  0  0  0  0  0  0  0  0  0
  149.1562  140.5506  153.4578 H   0  0  0  0  0  0  0  0  0  0  0  0
  147.7470  134.6422  151.8634 H   0  0  0  0  0  0  0  0  0  0  0  0
  1  2  1  0  0  0  0
  1 20  1  0  0  0  0
  1 21  1  0  0  0  0
  1 22  1  0  0  0  0
  2  9  1  0  0  0  0
  2  3  1  0  0  0  0
  2 23  1  0  0  0  0
  3  4  1  0  0  0  0
  3 24  1  0  0  0  0
  3 25  1  0  0  0  0
  4  5  1  0  0  0  0
  4  8  1  0  0  0  0
  4 41  1  0  0  0  0
  5  6  1  0  0  0  0
  5  7  1  0  0  0  0
  5 26  1  0  0  0  0
  6 27  1  0  0  0  0
  6 28  1  0  0  0  0
  6 29  1  0  0  0  0
  7 30  1  0  0  0  0
  7 31  1  0  0  0  0
  7 32  1  0  0  0  0
  8  9  1  0  0  0  0
  8 33  1  0  0  0  0
  8 34  1  0  0  0  0
  9 10  1  0  0  0  0
  9 35  1  0  0  0  0
 10 11  1  0  0  0  0
 10 36  1  0  0  0  0
 11 12  2  0  0  0  0
 11 13  2  0  0  0  0
 11 14  1  0  0  0  0
 14 15  1  0  0  0  0
 14 37  1  0  0  0  0
 14 38  1  0  0  0  0
 15 19  2  0  0  0  0
 15 16  1  0  0  0  0
 16 17  2  0  0  0  0
 16 39  1  0  0  0  0
 17 18  1  0  0  0  0
 17 40  1  0  0  0  0
 18 19  1  0  0  0  0
M  CHG  1   4   1
M  END
> <s_m_source_file>
AV-unprocessed.smi

> <i_m_source_file_index>
686

> <i_lp_mmshare_version>
43012

> <i_f3d_flags>
0

> <s_epik_input>
W0NIM11bQ0BASF0xW0NIMl1OKFtDSF0oW0NIM10pW0NIM10pW0NIMl1bQ0BIXTFbTkhdUyg9TykoPU8pW0NIMl1jMltjSF1bY0hdb24y

> <s_epik_cmdline>
J2VwaWtfcHl0aG9uJywgJy1waCcsICc3LjAnLCAnLXRuJywgJzgnLCAnLW1hJywgJzIwMCcsICctbWV0YWxfYmluZGluZycsICctaW1hZScsICc8aW5maWxlLm1hZT4nLCAnLW9tYWUnLCAnPG91dGZpbGUubWFlPic=

> <r_epik_Ionization_Penalty>
0.00200818

> <r_epik_Ionization_Penalty_Charging>
0.000701289

> <r_epik_Ionization_Penalty_Neutral>
0.00130689

> <r_epik_State_Penalty>
0.00131314

> <r_epik_Charging_Adjusted_Penalty>
0.00201443

> <i_epik_Tot_Q>
1

> <i_epik_Tot_abs_Q>
1

> <r_epik_Metal_State_Penalty>
0.310831

> <b_epik_Metal_Only>
0

> <s_lp_Force_Field>
OPLS_2005

> <r_lp_Energy>
19.8293

> <b_lp_Chiralities_Consistent>
1

> <s_lp_Variant>
AV-unprocessed.smi:686-6

> <Gold.Version>
5.8.1

> <Gold.Id.Protein>
6NUR|6NUR_protein|mol2

> <Gold.PLP.Fitness>
42.8204

> <Gold.PLP.PLP>
-26.8091

> <Gold.PLP.part.hbond>
-4.0000

> <Gold.PLP.part.metal>
0.0000

> <Gold.PLP.part.buried>
-2.9834

> <Gold.PLP.part.nonpolar>
-20.9127

> <Gold.PLP.part.repulsive>
0.1697

> <Gold.PLP.ligand.clash>
0.0000

> <Gold.PLP.ligand.torsion>
0.4562

> <Gold.PLP.Chemscore.Hbond>
4.7040

> <Gold.PLP.Chemscore.CHOScore>
0.8822

> <Gold.PLP.Chemscore.Metal>
0.0000

> <Gold.Chemscore.Hbonds>
donor molecule, donor type, donor heavy atom, donor atom, acceptor molecule, acceptor atom, score
      L1  H     4    41       P1  7948  1.79
      L1  H    10    36       P1  7948  0.85
      P1  H  7989  7998       L1    18  0.90
      P1  H 10752 10765       L1    13  1.00
      L1  C    17    40       P1  7957  0.87

> <Gold.PLP.Chemscore.Internal.Correction>
0.1651

> <Gold.Rescore>
     Score         DG    S(hbond)    S(metal)    S(lipo)     H(rot)  DE(clash)    DE(int)     intcor
     17.87     -18.58       3.53        0.00      52.91       1.91       0.01       0.70       ----

> <Gold.Chemscore.Fitness>
17.8660

> <Gold.Chemscore.DG>
-18.5786

> <Gold.Chemscore.ZeroCoef>
-5.4800

> <Gold.Chemscore.Hbond>
3.5335

> <Gold.Chemscore.Metal>
0.0000

> <Gold.Chemscore.Lipo>
52.9078

> <Gold.Chemscore.Internal_Hbond>
0.0000

> <Gold.Chemscore.DEClash>
0.0095

> <Gold.Chemscore.DEInternal>
0.7032

> <Gold.Chemscore.Rot>
1.9115

> <Gold.Chemscore.Internal.Correction>
   9.000000E+99

> <Gold.Chemscore.Hbonds>
donor molecule, donor type, donor heavy atom, donor atom, acceptor molecule, acceptor atom, score
      L1  H     4    41       P1  7948  0.30
      L1  H    10    36       P1  7948  0.42
      P1  H  7989  7998       L1    18  0.18
      P1  H 10752 10765       L1    13  0.93

> <Gold.Chemscore.Hbond.Weighted>
-11.8019

> <Gold.Chemscore.Metal.Weighted>
-0.0000

> <Gold.Chemscore.Lipo.Weighted>
-6.1902

> <Gold.Chemscore.Internal_Hbond.Weighted>
0.0000

> <Gold.Chemscore.DEClash.Weighted>
0.0095

> <Gold.Chemscore.DEInternal.Weighted>
0.7032

> <Gold.Chemscore.Rot.Weighted>
4.8935

> <Gold.Chemscore.Internal.Correction.Weighted>
   9.000000E+99

> <Gold.Protein.RotatedTorsions>
[ 6907 6896 6895 6894 ] final  133.70 input  -60.11 | X-H torsion
[ 7974 7965 7964 7962 ] final -164.11 input  175.53 | X-H torsion
[ 8008 7997 7996 7995 ] final  177.62 input   59.86 | X-H torsion
[ 10167 10162 10161 10158 ] final -131.68 input  -65.29 | X-H torsion
[ 10718 10713 10712 10709 ] final -129.02 input   66.30 | X-H torsion
[ 10763 10752 10751 10750 ] final  174.76 input  -60.55 | X-H torsion
[ 11005 11000 10999 10996 ] final -129.97 input  -57.11 | X-H torsion

> <Gold.Protein.ActiveResidues>
 VAL166  LYS551  ARG553  GLY616  TRP617  ASP618  TYR619  PRO620  LYS621  CYS622 
 ASP623  PHE694  ASN695  SER759  ASP760  ASP761  ALA762  ILE779  LEU786  VAL792 
 PHE793  MET794  SER795  GLU796  ALA797  LYS798  CYS799  TRP800  GLU811  SER814 

> <Gold.Protein.RotatedAtoms>
  152.3191  133.5835  159.5732 H   0  0  0  0  0  0  0  0  0  0  0  0  # atno 6907 bound_to 6896
  150.7362  134.0037  159.3655 H   0  0  0  0  0  0  0  0  0  0  0  0  # atno 6908 bound_to 6896
  151.7923  135.0733  160.0440 H   0  0  0  0  0  0  0  0  0  0  0  0  # atno 6909 bound_to 6896
  144.7306  140.3009  143.6204 H   0  0  0  0  0  0  0  0  0  0  0  0  # atno 7974 bound_to 7965
  156.0637  140.1354  156.9911 H   0  0  0  0  0  0  0  0  0  0  0  0  # atno 8008 bound_to 7997
  154.4495  140.0986  156.6626 H   0  0  0  0  0  0  0  0  0  0  0  0  # atno 8009 bound_to 7997
  155.5337  140.3459  155.4434 H   0  0  0  0  0  0  0  0  0  0  0  0  # atno 8010 bound_to 7997
  139.9164  143.6434  152.2564 H   0  0  0  0  0  0  0  0  0  0  0  0  # atno 10167 bound_to 10162
  156.2006  130.6855  151.0534 H   0  0  0  0  0  0  0  0  0  0  0  0  # atno 10718 bound_to 10713
  154.4583  135.2767  155.1731 H   0  0  0  0  0  0  0  0  0  0  0  0  # atno 10763 bound_to 10752
  154.3529  135.6146  153.5655 H   0  0  0  0  0  0  0  0  0  0  0  0  # atno 10764 bound_to 10752
  152.9852  135.5816  154.4941 H   0  0  0  0  0  0  0  0  0  0  0  0  # atno 10765 bound_to 10752
  140.9386  134.1224  157.4171 H   0  0  0  0  0  0  0  0  0  0  0  0  # atno 11005 bound_to 11000
  145.7761  139.1874  143.2184 LP  0  0  0  0  0  0  0  0  0  0  0  0  # atno 17320 bound_to 7965
  146.0871  140.7698  142.9613 LP  0  0  0  0  0  0  0  0  0  0  0  0  # atno 17321 bound_to 7965
  139.6899  144.7648  151.1458 LP  0  0  0  0  0  0  0  0  0  0  0  0  # atno 17342 bound_to 10162
  140.7673  143.5604  150.9105 LP  0  0  0  0  0  0  0  0  0  0  0  0  # atno 17343 bound_to 10162
  157.6983  131.0785  150.6899 LP  0  0  0  0  0  0  0  0  0  0  0  0  # atno 17370 bound_to 10713
  156.6957  130.4608  149.5587 LP  0  0  0  0  0  0  0  0  0  0  0  0  # atno 17371 bound_to 10713
  139.8814  135.0029  156.6154 LP  0  0  0  0  0  0  0  0  0  0  0  0  # atno 17394 bound_to 11000
  140.7765  133.8695  155.8533 LP  0  0  0  0  0  0  0  0  0  0  0  0  # atno 17395 bound_to 11000

$$$$
