AV-unprocessed.smi:3303|AV-procd|sdf|12664|dock5
  -GOLD-   2272019 03D 1   1.00000     0.00000
 Structure written by MMmdl.
 45 46  0  0  0  0  0  0  0  0  3 V2000
  151.5289  137.7360  154.7035 C   0  0  0  0  0  0  0  0  0  0  0  0
  150.5933  138.9108  154.3722 C   0  0  1  0  0  0  0  0  0  0  0  0
  149.1858  138.4369  153.9603 C   0  0  0  0  0  0  0  0  0  0  0  0
  148.3167  139.5719  153.5514 N   0  3  1  0  0  0  0  0  0  0  0  0
  147.0190  139.0808  153.0270 C   0  0  0  0  0  0  0  0  0  0  0  0
  148.1859  140.6004  154.6277 C   0  0  2  0  0  0  0  0  0  0  0  0
  147.3280  141.8050  154.1936 C   0  0  0  0  0  0  0  0  0  0  0  0
  149.5782  141.0980  155.0801 C   0  0  0  0  0  0  0  0  0  0  0  0
  150.5203  139.9584  155.5026 C   0  0  1  0  0  0  0  0  0  0  0  0
  150.0816  139.3653  156.7895 N   0  3  0  0  0  0  0  0  0  0  0  0
  150.3766  140.1857  157.9813 C   0  0  0  0  0  0  0  0  0  0  0  0
  151.7119  140.9252  157.8255 C   0  0  0  0  0  0  0  0  0  0  0  0
  151.6414  142.3474  158.3476 C   0  0  0  0  0  0  0  0  0  0  0  0
  152.2692  142.7041  159.5601 C   0  0  0  0  0  0  0  0  0  0  0  0
  152.1773  144.0411  159.9937 C   0  0  0  0  0  0  0  0  0  0  0  0
  151.4658  144.9637  159.2026 C   0  0  0  0  0  0  0  0  0  0  0  0
  150.8762  144.5074  158.0069 C   0  0  0  0  0  0  0  0  0  0  0  0
  150.9600  143.2281  157.5809 N   0  0  0  0  0  0  0  0  0  0  0  0
  151.1551  137.1424  155.5382 H   0  0  0  0  0  0  0  0  0  0  0  0
  152.5265  138.0899  154.9657 H   0  0  0  0  0  0  0  0  0  0  0  0
  151.6341  137.0678  153.8482 H   0  0  0  0  0  0  0  0  0  0  0  0
  151.0265  139.4098  153.5034 H   0  0  0  0  0  0  0  0  0  0  0  0
  149.2764  137.7391  153.1266 H   0  0  0  0  0  0  0  0  0  0  0  0
  148.7117  137.8885  154.7761 H   0  0  0  0  0  0  0  0  0  0  0  0
  146.3972  138.6826  153.8299 H   0  0  0  0  0  0  0  0  0  0  0  0
  147.1715  138.2884  152.2937 H   0  0  0  0  0  0  0  0  0  0  0  0
  146.4668  139.8710  152.5192 H   0  0  0  0  0  0  0  0  0  0  0  0
  147.6930  140.1306  155.4808 H   0  0  0  0  0  0  0  0  0  0  0  0
  147.3311  142.5813  154.9595 H   0  0  0  0  0  0  0  0  0  0  0  0
  146.2847  141.5315  154.0366 H   0  0  0  0  0  0  0  0  0  0  0  0
  147.7043  142.2512  153.2721 H   0  0  0  0  0  0  0  0  0  0  0  0
  150.0412  141.6505  154.2608 H   0  0  0  0  0  0  0  0  0  0  0  0
  149.4754  141.8116  155.8993 H   0  0  0  0  0  0  0  0  0  0  0  0
  151.5160  140.3858  155.6360 H   0  0  0  0  0  0  0  0  0  0  0  0
  149.0832  139.2172  156.7522 H   0  0  0  0  0  0  0  0  0  0  0  0
  149.5701  140.9046  158.1330 H   0  0  0  0  0  0  0  0  0  0  0  0
  150.4060  139.5390  158.8597 H   0  0  0  0  0  0  0  0  0  0  0  0
  152.5013  140.3930  158.3586 H   0  0  0  0  0  0  0  0  0  0  0  0
  152.0084  140.9431  156.7758 H   0  0  0  0  0  0  0  0  0  0  0  0
  152.8087  141.9750  160.1469 H   0  0  0  0  0  0  0  0  0  0  0  0
  152.6440  144.3532  160.9165 H   0  0  0  0  0  0  0  0  0  0  0  0
  151.3744  145.9966  159.5046 H   0  0  0  0  0  0  0  0  0  0  0  0
  150.3244  145.1877  157.3752 H   0  0  0  0  0  0  0  0  0  0  0  0
  150.5354  138.4699  156.9018 H   0  0  0  0  0  0  0  0  0  0  0  0
  148.7817  140.0217  152.7751 H   0  0  0  0  0  0  0  0  0  0  0  0
  1  2  1  0  0  0  0
  1 19  1  0  0  0  0
  1 20  1  0  0  0  0
  1 21  1  0  0  0  0
  2  9  1  0  0  0  0
  2  3  1  0  0  0  0
  2 22  1  0  0  0  0
  3  4  1  0  0  0  0
  3 23  1  0  0  0  0
  3 24  1  0  0  0  0
  4  5  1  0  0  0  0
  4  6  1  0  0  0  0
  4 45  1  0  0  0  0
  5 25  1  0  0  0  0
  5 26  1  0  0  0  0
  5 27  1  0  0  0  0
  6  7  1  0  0  0  0
  6  8  1  0  0  0  0
  6 28  1  0  0  0  0
  7 29  1  0  0  0  0
  7 30  1  0  0  0  0
  7 31  1  0  0  0  0
  8  9  1  0  0  0  0
  8 32  1  0  0  0  0
  8 33  1  0  0  0  0
  9 10  1  0  0  0  0
  9 34  1  0  0  0  0
 10 11  1  0  0  0  0
 10 35  1  0  0  0  0
 10 44  1  0  0  0  0
 11 12  1  0  0  0  0
 11 36  1  0  0  0  0
 11 37  1  0  0  0  0
 12 13  1  0  0  0  0
 12 38  1  0  0  0  0
 12 39  1  0  0  0  0
 13 18  1  0  0  0  0
 13 14  2  0  0  0  0
 14 15  1  0  0  0  0
 14 40  1  0  0  0  0
 15 16  2  0  0  0  0
 15 41  1  0  0  0  0
 16 17  1  0  0  0  0
 16 42  1  0  0  0  0
 17 18  2  0  0  0  0
 17 43  1  0  0  0  0
M  CHG  1   4   1
M  CHG  1  10   1
M  END
> <s_m_source_file>
AV-unprocessed.smi

> <i_m_source_file_index>
3303

> <i_lp_mmshare_version>
43012

> <i_f3d_flags>
0

> <s_epik_input>
W0NIM11bQ0BASF0xW0NIMl1OKFtDSDNdKVtDQEBIXShbQ0gzXSlbQ0gyXVtDQEhdMVtOSF1bQ0gyXVtDSDJdYzJbY0hdW2NIXVtjSF1bY0hdbjI=

> <s_epik_cmdline>
J2VwaWtfcHl0aG9uJywgJy1waCcsICc3LjAnLCAnLXRuJywgJzgnLCAnLW1hJywgJzIwMCcsICctbWV0YWxfYmluZGluZycsICctaW1hZScsICc8aW5maWxlLm1hZT4nLCAnLW9tYWUnLCAnPG91dGZpbGUubWFlPic=

> <r_epik_Ionization_Penalty>
0.0769462

> <r_epik_Ionization_Penalty_Charging>
0.0759813

> <r_epik_Ionization_Penalty_Neutral>
0.000964829

> <r_epik_State_Penalty>
0.0654373

> <r_epik_Charging_Adjusted_Penalty>
0.141419

> <i_epik_Tot_Q>
2

> <i_epik_Tot_abs_Q>
2

> <r_epik_Metal_State_Penalty>
0.0656439

> <b_epik_Metal_Only>
0

> <s_lp_Force_Field>
OPLS_2005

> <r_lp_Energy>
34.3244

> <b_lp_Chiralities_Consistent>
1

> <s_lp_Variant>
AV-unprocessed.smi:3303-8

> <Gold.Version>
5.8.1

> <Gold.Id.Protein>
6NUR|6NUR_protein|mol2

> <Gold.PLP.Fitness>
46.8183

> <Gold.PLP.PLP>
-42.2955

> <Gold.PLP.part.hbond>
-1.0000

> <Gold.PLP.part.metal>
0.0000

> <Gold.PLP.part.buried>
-2.3993

> <Gold.PLP.part.nonpolar>
-39.6137

> <Gold.PLP.part.repulsive>
0.2168

> <Gold.PLP.ligand.clash>
0.0000

> <Gold.PLP.ligand.torsion>
0.7133

> <Gold.PLP.Chemscore.Hbond>
1.0000

> <Gold.PLP.Chemscore.CHOScore>
0.9748

> <Gold.PLP.Chemscore.Metal>
0.0000

> <Gold.Chemscore.Hbonds>
donor molecule, donor type, donor heavy atom, donor atom, acceptor molecule, acceptor atom, score
      L1  H     4    45       P1  7957  1.00
      L1  C    17    43       P1  8028  0.65
      L1  C    17    43       P1  8029  0.03

> <Gold.PLP.Chemscore.Internal.Correction>
0.0248

> <Gold.Rescore>
     Score         DG    S(hbond)    S(metal)    S(lipo)     H(rot)  DE(clash)    DE(int)     intcor
     19.39     -20.07       1.00        0.00     126.38       1.37       0.05       0.63       ----

> <Gold.Chemscore.Fitness>
19.3927

> <Gold.Chemscore.DG>
-20.0729

> <Gold.Chemscore.ZeroCoef>
-5.4800

> <Gold.Chemscore.Hbond>
0.9955

> <Gold.Chemscore.Metal>
0.0000

> <Gold.Chemscore.Lipo>
126.3804

> <Gold.Chemscore.Internal_Hbond>
0.0000

> <Gold.Chemscore.DEClash>
0.0469

> <Gold.Chemscore.DEInternal>
0.6333

> <Gold.Chemscore.Rot>
1.3744

> <Gold.Chemscore.Internal.Correction>
   9.000000E+99

> <Gold.Chemscore.Hbonds>
donor molecule, donor type, donor heavy atom, donor atom, acceptor molecule, acceptor atom, score
      L1  H     4    45       P1  7957  0.98

> <Gold.Chemscore.Hbond.Weighted>
-3.3249

> <Gold.Chemscore.Metal.Weighted>
-0.0000

> <Gold.Chemscore.Lipo.Weighted>
-14.7865

> <Gold.Chemscore.Internal_Hbond.Weighted>
0.0000

> <Gold.Chemscore.DEClash.Weighted>
0.0469

> <Gold.Chemscore.DEInternal.Weighted>
0.6333

> <Gold.Chemscore.Rot.Weighted>
3.5185

> <Gold.Chemscore.Internal.Correction.Weighted>
   9.000000E+99

> <Gold.Protein.RotatedTorsions>
[ 6907 6896 6895 6894 ] final  -77.99 input  -60.11 | X-H torsion
[ 7974 7965 7964 7962 ] final  159.24 input  175.53 | X-H torsion
[ 8008 7997 7996 7995 ] final -118.94 input   59.86 | X-H torsion
[ 10167 10162 10161 10158 ] final  171.92 input  -65.29 | X-H torsion
[ 10718 10713 10712 10709 ] final   99.67 input   66.30 | X-H torsion
[ 10763 10752 10751 10750 ] final  -21.67 input  -60.55 | X-H torsion
[ 11005 11000 10999 10996 ] final    3.04 input  -57.11 | X-H torsion

> <Gold.Protein.ActiveResidues>
 VAL166  LYS551  ARG553  GLY616  TRP617  ASP618  TYR619  PRO620  LYS621  CYS622 
 ASP623  PHE694  ASN695  SER759  ASP760  ASP761  ALA762  ILE779  LEU786  VAL792 
 PHE793  MET794  SER795  GLU796  ALA797  LYS798  CYS799  TRP800  GLU811  SER814 

> <Gold.Protein.RotatedAtoms>
  150.6984  134.4339  159.5260 H   0  0  0  0  0  0  0  0  0  0  0  0  # atno 6907 bound_to 6896
  152.2061  134.8541  160.0512 H   0  0  0  0  0  0  0  0  0  0  0  0  # atno 6908 bound_to 6896
  151.9443  133.3612  159.4013 H   0  0  0  0  0  0  0  0  0  0  0  0  # atno 6909 bound_to 6896
  144.7801  139.7590  143.6263 H   0  0  0  0  0  0  0  0  0  0  0  0  # atno 7974 bound_to 7965
  155.1078  140.0397  157.2715 H   0  0  0  0  0  0  0  0  0  0  0  0  # atno 8008 bound_to 7997
  154.6709  140.2612  155.6983 H   0  0  0  0  0  0  0  0  0  0  0  0  # atno 8009 bound_to 7997
  156.2657  140.2798  156.1217 H   0  0  0  0  0  0  0  0  0  0  0  0  # atno 8010 bound_to 7997
  139.5061  144.3431  151.9998 H   0  0  0  0  0  0  0  0  0  0  0  0  # atno 10167 bound_to 10162
  157.6871  131.0676  150.4983 H   0  0  0  0  0  0  0  0  0  0  0  0  # atno 10718 bound_to 10713
  153.6398  135.6985  153.5245 H   0  0  0  0  0  0  0  0  0  0  0  0  # atno 10763 bound_to 10752
  153.2791  135.4191  155.1061 H   0  0  0  0  0  0  0  0  0  0  0  0  # atno 10764 bound_to 10752
  154.8502  135.3597  154.5942 H   0  0  0  0  0  0  0  0  0  0  0  0  # atno 10765 bound_to 10752
  140.5975  133.9866  155.8117 H   0  0  0  0  0  0  0  0  0  0  0  0  # atno 11005 bound_to 11000
  146.2004  139.5295  142.9747 LP  0  0  0  0  0  0  0  0  0  0  0  0  # atno 17320 bound_to 7965
  145.6074  141.0345  143.1985 LP  0  0  0  0  0  0  0  0  0  0  0  0  # atno 17321 bound_to 7965
  140.2869  144.3797  150.6101 LP  0  0  0  0  0  0  0  0  0  0  0  0  # atno 17342 bound_to 10162
  140.5976  143.2167  151.7134 LP  0  0  0  0  0  0  0  0  0  0  0  0  # atno 17343 bound_to 10162
  156.5306  130.4184  149.6203 LP  0  0  0  0  0  0  0  0  0  0  0  0  # atno 17370 bound_to 10713
  156.3073  130.7209  151.2094 LP  0  0  0  0  0  0  0  0  0  0  0  0  # atno 17371 bound_to 10713
  141.0894  133.9940  157.3261 LP  0  0  0  0  0  0  0  0  0  0  0  0  # atno 17394 bound_to 11000
  139.9247  135.0201  156.8191 LP  0  0  0  0  0  0  0  0  0  0  0  0  # atno 17395 bound_to 11000

$$$$
