#       Name:                AV-unprocessed.smi:2036
#       Creating user name   scv26
#       Creation time:       Fri Mar 27 10:54:23 2020


#       File generated by GOLD software.
#

@<TRIPOS>MOLECULE
AV-unprocessed.smi:2036
    49    50     1
SMALL
NO_CHARGES


@<TRIPOS>ATOM
      1 ****        -7.9065   1.8119   0.0412 C.3            1 S1                 0.0000
      2 ****        -6.5145   2.0749   0.0371 O.3            1 S1                 0.0000
      3 ****        -5.7367   0.8872   0.0402 C.3            1 S1                 0.0000
      4 ****        -4.2476   1.2410   0.0361 C.2            1 S1                 0.0000
      5 ****        -3.8909   2.4191   0.0244 O.2            1 S1                 0.0000
      6 ****        -3.4109   0.1871   0.0262 N.am           1 S1                 0.0000
      7 ****        -1.9892   0.1741   0.0227 C.ar           1 S1                 0.0000
      8 ****        -1.1754   1.2599   0.4264 C.ar           1 S1                 0.0000
      9 ****         0.2245   1.1110   0.3927 C.ar           1 S1                 0.0000
     10 ****         0.7688  -0.1171  -0.0348 C.ar           1 S1                 0.0000
     11 ****         2.1620  -0.2689  -0.0689 N.3            1 S1                 0.0000
     12 ****         2.6592  -1.2948   0.8370 C.3            1 S1                 0.0000
     13 ****         4.1974  -1.2680   0.8667 C.3            1 S1                 0.0000
     14 ****         4.7718  -2.3987   1.7262 C.3            1 S1                 0.0000
     15 ****         4.7001  -1.4212  -0.4614 O.3            1 S1                 0.0000
     16 ****         4.2359  -0.4443  -1.3975 C.3            1 S1                 0.0000
     17 ****         4.8720   0.9360  -1.1551 C.3            1 S1                 0.0000
     18 ****         2.6941  -0.4175  -1.4174 C.3            1 S1                 0.0000
     19 ****        -0.0029  -1.1639  -0.4114 N.ar           1 S1                 0.0000
     20 ****        -1.3436  -1.0146  -0.3765 C.ar           1 S1                 0.0000
     21 ****        -8.4568   2.7527   0.0358 H              1 S1                 0.0000
     22 ****        -8.1995   1.2550   0.9322 H              1 S1                 0.0000
     23 ****        -8.2029   1.2432  -0.8413 H              1 S1                 0.0000
     24 ****        -5.9611   0.2901   0.9255 H              1 S1                 0.0000
     25 ****        -5.9650   0.2837  -0.8398 H              1 S1                 0.0000
     26 ****        -3.8491  -0.7202  -0.0391 H              1 S1                 0.0000
     27 ****        -1.5892   2.1938   0.7727 H              1 S1                 0.0000
     28 ****         0.8664   1.9254   0.6953 H              1 S1                 0.0000
     29 ****         2.2603  -1.1266   1.8381 H              1 S1                 0.0000
     30 ****         2.3097  -2.2755   0.5101 H              1 S1                 0.0000
     31 ****         4.5390  -0.3196   1.2824 H              1 S1                 0.0000
     32 ****         4.4216  -2.3257   2.7560 H              1 S1                 0.0000
     33 ****         5.8611  -2.3602   1.7424 H              1 S1                 0.0000
     34 ****         4.4779  -3.3753   1.3405 H              1 S1                 0.0000
     35 ****         4.5737  -0.7783  -2.3789 H              1 S1                 0.0000
     36 ****         4.6010   1.6302  -1.9507 H              1 S1                 0.0000
     37 ****         5.9597   0.8644  -1.1366 H              1 S1                 0.0000
     38 ****         4.5495   1.3814  -0.2143 H              1 S1                 0.0000
     39 ****         2.3217  -1.3483  -1.8480 H              1 S1                 0.0000
     40 ****         2.3358   0.3931  -2.0533 H              1 S1                 0.0000
     41 ****        -1.9200  -1.8757  -0.6817 H              1 S1                 0.0000
     42 ****        -6.2868   2.6095   0.8509 LP             1 S1                 0.0000
     43 ****        -6.2904   2.6029  -0.7821 LP             1 S1                 0.0000
     44 ****        -4.5749   3.1485   0.0175 LP             1 S1                 0.0000
     45 ****        -2.9172   2.6467   0.0217 LP             1 S1                 0.0000
     46 ****         2.5188   0.5986   0.2776 LP             1 S1                 0.0000
     47 ****         4.4282  -2.3242  -0.7942 LP             1 S1                 0.0000
     48 ****         5.6979  -1.3662  -0.4242 LP             1 S1                 0.0000
     49 ****         0.4098  -2.0252  -0.7077 LP             1 S1                 0.0000
@<TRIPOS>BOND
    1    1    2 1     
    2    1   21 1     
    3    1   22 1     
    4    1   23 1     
    5    2    3 1     
    6    3    4 1     
    7    3   24 1     
    8    3   25 1     
    9    4    5 2     
   10    4    6 am    
   11    6    7 1     
   12    6   26 1     
   13    7   20 ar    
   14    7    8 ar    
   15    8    9 ar    
   16    8   27 1     
   17    9   10 ar    
   18    9   28 1     
   19   10   11 1     
   20   10   19 ar    
   21   11   18 1     
   22   11   12 1     
   23   12   13 1     
   24   12   29 1     
   25   12   30 1     
   26   13   14 1     
   27   13   15 1     
   28   13   31 1     
   29   14   32 1     
   30   14   33 1     
   31   14   34 1     
   32   15   16 1     
   33   16   17 1     
   34   16   18 1     
   35   16   35 1     
   36   17   36 1     
   37   17   37 1     
   38   17   38 1     
   39   18   39 1     
   40   18   40 1     
   41   19   20 ar    
   42   20   41 1     
   43    2   42 1     
   44    2   43 1     
   45    5   44 1     
   46    5   45 1     
   47   11   46 1     
   48   15   47 1     
   49   15   48 1     
   50   19   49 1     
@<TRIPOS>SUBSTRUCTURE
      1 S1             1
@<TRIPOS>SET
LONE_PAIRS      STATIC     ATOMS    <user>   **** ""
8 42 43 44 45 46 47 48 49
DONOR_HYDROGENS      STATIC     ATOMS    <user>   **** ""
1 26
ATOM$BLUE        STATIC     ATOMS    COLORGROUP SYSTEM
8 42 43 44 45 46 47 48 49
ATOM$RED        STATIC     ATOMS    COLORGROUP SYSTEM
1 26
