AV-unprocessed.smi:2108|AV-procd|sdf|8604|dock3
  -GOLD-   2272011343D 1   1.00000     0.00000
 Structure written by MMmdl.
 35 36  0  0  0  0  0  0  0  0  1 V2000
  154.3889  138.8005  157.7753 O   0  0  0  0  0  0  0  0  0  0  0  0
  153.0134  138.6065  158.2582 S   0  0  0  0  0  0  0  0  0  0  0  0
  152.5681  137.3129  158.7988 O   0  0  0  0  0  0  0  0  0  0  0  0
  152.6623  139.8278  159.4261 N   0  0  0  0  0  0  0  0  0  0  0  0
  153.7471  140.6484  159.9652 C   0  0  0  0  0  0  0  0  0  0  0  0
  153.2003  141.6622  160.9783 C   0  0  0  0  0  0  0  0  0  0  0  0
  152.5430  142.8481  160.2974 C   0  0  0  0  0  0  0  0  0  0  0  0
  152.5840  142.9861  158.8936 C   0  0  0  0  0  0  0  0  0  0  0  0
  151.9727  144.1136  158.3120 C   0  0  0  0  0  0  0  0  0  0  0  0
  151.3480  145.0553  159.1525 C   0  0  0  0  0  0  0  0  0  0  0  0
  151.3631  144.8269  160.5429 C   0  0  0  0  0  0  0  0  0  0  0  0
  151.9470  143.7494  161.1108 N   0  0  0  0  0  0  0  0  0  0  0  0
  151.9224  139.0867  157.0013 N   0  0  0  0  0  0  0  0  0  0  0  0
  151.9291  138.2937  155.7620 C   0  0  0  0  0  0  0  0  0  0  0  0
  150.7237  138.6494  154.8765 C   0  0  0  0  0  0  0  0  0  0  0  0
  150.6885  140.0481  154.6362 O   0  0  0  0  0  0  0  0  0  0  0  0
  150.5296  140.7792  155.8427 C   0  0  0  0  0  0  0  0  0  0  0  0
  151.7275  140.5292  156.7727 C   0  0  0  0  0  0  0  0  0  0  0  0
  151.9715  139.5366  160.1173 H   0  0  0  0  0  0  0  0  0  0  0  0
  154.4857  139.9999  160.4377 H   0  0  0  0  0  0  0  0  0  0  0  0
  154.2468  141.1674  159.1465 H   0  0  0  0  0  0  0  0  0  0  0  0
  152.4761  141.1793  161.6362 H   0  0  0  0  0  0  0  0  0  0  0  0
  154.0056  142.0232  161.6199 H   0  0  0  0  0  0  0  0  0  0  0  0
  153.0758  142.2488  158.2759 H   0  0  0  0  0  0  0  0  0  0  0  0
  151.9844  144.2543  157.2412 H   0  0  0  0  0  0  0  0  0  0  0  0
  150.8695  145.9322  158.7419 H   0  0  0  0  0  0  0  0  0  0  0  0
  150.8955  145.5293  161.2169 H   0  0  0  0  0  0  0  0  0  0  0  0
  152.8601  138.4834  155.2266 H   0  0  0  0  0  0  0  0  0  0  0  0
  151.9070  137.2308  156.0024 H   0  0  0  0  0  0  0  0  0  0  0  0
  150.7955  138.1283  153.9218 H   0  0  0  0  0  0  0  0  0  0  0  0
  149.7922  138.3257  155.3438 H   0  0  0  0  0  0  0  0  0  0  0  0
  150.4563  141.8406  155.6051 H   0  0  0  0  0  0  0  0  0  0  0  0
  149.5952  140.4991  156.3322 H   0  0  0  0  0  0  0  0  0  0  0  0
  151.5709  141.0430  157.7207 H   0  0  0  0  0  0  0  0  0  0  0  0
  152.6360  140.9417  156.3322 H   0  0  0  0  0  0  0  0  0  0  0  0
  1  2  2  0  0  0  0
  2  3  2  0  0  0  0
  2  4  1  0  0  0  0
  2 13  1  0  0  0  0
  4  5  1  0  0  0  0
  4 19  1  0  0  0  0
  5  6  1  0  0  0  0
  5 20  1  0  0  0  0
  5 21  1  0  0  0  0
  6  7  1  0  0  0  0
  6 22  1  0  0  0  0
  6 23  1  0  0  0  0
  7 12  1  0  0  0  0
  7  8  2  0  0  0  0
  8  9  1  0  0  0  0
  8 24  1  0  0  0  0
  9 10  2  0  0  0  0
  9 25  1  0  0  0  0
 10 11  1  0  0  0  0
 10 26  1  0  0  0  0
 11 12  2  0  0  0  0
 11 27  1  0  0  0  0
 13 18  1  0  0  0  0
 13 14  1  0  0  0  0
 14 15  1  0  0  0  0
 14 28  1  0  0  0  0
 14 29  1  0  0  0  0
 15 16  1  0  0  0  0
 15 30  1  0  0  0  0
 15 31  1  0  0  0  0
 16 17  1  0  0  0  0
 17 18  1  0  0  0  0
 17 32  1  0  0  0  0
 17 33  1  0  0  0  0
 18 34  1  0  0  0  0
 18 35  1  0  0  0  0
M  END
> <s_m_source_file>
AV-unprocessed.smi

> <i_m_source_file_index>
2108

> <i_lp_mmshare_version>
43012

> <i_f3d_flags>
0

> <s_epik_input>
W0NIMl0xW0NIMl1PW0NIMl1bQ0gyXU4xUyg9TykoPU8pW05IXVtDSDJdW0NIMl1jMltjSF1bY0hdW2NIXVtjSF1uMg==

> <s_epik_cmdline>
J2VwaWtfcHl0aG9uJywgJy1waCcsICc3LjAnLCAnLXRuJywgJzgnLCAnLW1hJywgJzIwMCcsICctbWV0YWxfYmluZGluZycsICctaW1hZScsICc8aW5maWxlLm1hZT4nLCAnLW9tYWUnLCAnPG91dGZpbGUubWFlPic=

> <r_epik_Ionization_Penalty>
0.085378

> <r_epik_Ionization_Penalty_Charging>
0

> <r_epik_Ionization_Penalty_Neutral>
0.085378

> <r_epik_State_Penalty>
0.0441186

> <r_epik_Charging_Adjusted_Penalty>
0.0441186

> <i_epik_Tot_Q>
0

> <i_epik_Tot_abs_Q>
0

> <r_epik_Metal_State_Penalty>
0.24397

> <b_epik_Metal_Only>
0

> <s_lp_Force_Field>
OPLS_2005

> <r_lp_Energy>
7.91242

> <b_lp_Chiralities_Consistent>
1

> <s_lp_Variant>
AV-unprocessed.smi:2108-1

> <Gold.Version>
5.8.1

> <Gold.Id.Protein>
6NUR|6NUR_protein|mol2

> <Gold.PLP.Fitness>
47.4791

> <Gold.PLP.PLP>
-41.9941

> <Gold.PLP.part.hbond>
-2.0000

> <Gold.PLP.part.metal>
0.0000

> <Gold.PLP.part.buried>
-6.6380

> <Gold.PLP.part.nonpolar>
-34.4743

> <Gold.PLP.part.repulsive>
0.2034

> <Gold.PLP.ligand.clash>
0.0000

> <Gold.PLP.ligand.torsion>
0.6884

> <Gold.PLP.Chemscore.Hbond>
2.0000

> <Gold.PLP.Chemscore.CHOScore>
0.0000

> <Gold.PLP.Chemscore.Metal>
0.0000

> <Gold.Chemscore.Hbonds>
donor molecule, donor type, donor heavy atom, donor atom, acceptor molecule, acceptor atom, score
      P1  H  7989  7998       L1    16  1.00
      P1  H  7997  8008       L1     1  0.65

> <Gold.PLP.Chemscore.Internal.Correction>
0.8618

> <Gold.Rescore>
     Score         DG    S(hbond)    S(metal)    S(lipo)     H(rot)  DE(clash)    DE(int)     intcor
     18.86     -19.49       1.89        0.00     106.03       1.84       0.01       0.62       ----

> <Gold.Chemscore.Fitness>
18.8565

> <Gold.Chemscore.DG>
-19.4901

> <Gold.Chemscore.ZeroCoef>
-5.4800

> <Gold.Chemscore.Hbond>
1.8893

> <Gold.Chemscore.Metal>
0.0000

> <Gold.Chemscore.Lipo>
106.0290

> <Gold.Chemscore.Internal_Hbond>
0.0000

> <Gold.Chemscore.DEClash>
0.0149

> <Gold.Chemscore.DEInternal>
0.6187

> <Gold.Chemscore.Rot>
1.8382

> <Gold.Chemscore.Internal.Correction>
   9.000000E+99

> <Gold.Chemscore.Hbonds>
donor molecule, donor type, donor heavy atom, donor atom, acceptor molecule, acceptor atom, score
      P1  H  7989  7998       L1    16  0.85
      P1  H  7997  8008       L1     1  0.61

> <Gold.Chemscore.Hbond.Weighted>
-6.3104

> <Gold.Chemscore.Metal.Weighted>
-0.0000

> <Gold.Chemscore.Lipo.Weighted>
-12.4054

> <Gold.Chemscore.Internal_Hbond.Weighted>
0.0000

> <Gold.Chemscore.DEClash.Weighted>
0.0149

> <Gold.Chemscore.DEInternal.Weighted>
0.6187

> <Gold.Chemscore.Rot.Weighted>
4.7057

> <Gold.Chemscore.Internal.Correction.Weighted>
   9.000000E+99

> <Gold.Protein.RotatedTorsions>
[ 6907 6896 6895 6894 ] final   24.22 input  -60.11 | X-H torsion
[ 7974 7965 7964 7962 ] final  179.02 input  175.53 | X-H torsion
[ 8008 7997 7996 7995 ] final -103.61 input   59.86 | X-H torsion
[ 10167 10162 10161 10158 ] final -131.64 input  -65.29 | X-H torsion
[ 10718 10713 10712 10709 ] final   46.22 input   66.30 | X-H torsion
[ 10763 10752 10751 10750 ] final   52.32 input  -60.55 | X-H torsion
[ 11005 11000 10999 10996 ] final   75.32 input  -57.11 | X-H torsion

> <Gold.Protein.ActiveResidues>
 VAL166  LYS551  ARG553  GLY616  TRP617  ASP618  TYR619  PRO620  LYS621  CYS622 
 ASP623  PHE694  ASN695  SER759  ASP760  ASP761  ALA762  ILE779  LEU786  VAL792 
 PHE793  MET794  SER795  GLU796  ALA797  LYS798  CYS799  TRP800  GLU811  SER814 

> <Gold.Protein.RotatedAtoms>
  151.9542  135.0155  160.0543 H   0  0  0  0  0  0  0  0  0  0  0  0  # atno 6907 bound_to 6896
  152.1926  133.4779  159.5024 H   0  0  0  0  0  0  0  0  0  0  0  0  # atno 6908 bound_to 6896
  150.6938  134.1610  159.4219 H   0  0  0  0  0  0  0  0  0  0  0  0  # atno 6909 bound_to 6896
  144.7150  140.0485  143.6436 H   0  0  0  0  0  0  0  0  0  0  0  0  # atno 7974 bound_to 7965
  154.8734  140.0422  157.1738 H   0  0  0  0  0  0  0  0  0  0  0  0  # atno 8008 bound_to 7997
  154.8715  140.2959  155.5458 H   0  0  0  0  0  0  0  0  0  0  0  0  # atno 8009 bound_to 7997
  156.2999  140.2428  156.3704 H   0  0  0  0  0  0  0  0  0  0  0  0  # atno 8010 bound_to 7997
  139.9168  143.6429  152.2563 H   0  0  0  0  0  0  0  0  0  0  0  0  # atno 10167 bound_to 10162
  157.4458  130.8109  149.7739 H   0  0  0  0  0  0  0  0  0  0  0  0  # atno 10718 bound_to 10713
  152.9788  135.5816  154.4559 H   0  0  0  0  0  0  0  0  0  0  0  0  # atno 10763 bound_to 10752
  154.4141  135.2770  155.2019 H   0  0  0  0  0  0  0  0  0  0  0  0  # atno 10764 bound_to 10752
  154.3796  135.6149  153.5838 H   0  0  0  0  0  0  0  0  0  0  0  0  # atno 10765 bound_to 10752
  139.9349  134.7508  156.1257 H   0  0  0  0  0  0  0  0  0  0  0  0  # atno 11005 bound_to 11000
  145.9964  139.3056  143.0954 LP  0  0  0  0  0  0  0  0  0  0  0  0  # atno 17320 bound_to 7965
  145.8844  140.9343  143.0584 LP  0  0  0  0  0  0  0  0  0  0  0  0  # atno 17321 bound_to 7965
  139.6896  144.7648  151.1463 LP  0  0  0  0  0  0  0  0  0  0  0  0  # atno 17342 bound_to 10162
  140.7672  143.5608  150.9101 LP  0  0  0  0  0  0  0  0  0  0  0  0  # atno 17343 bound_to 10162
  155.9967  130.3904  150.2769 LP  0  0  0  0  0  0  0  0  0  0  0  0  # atno 17370 bound_to 10713
  157.0937  131.0177  151.3112 LP  0  0  0  0  0  0  0  0  0  0  0  0  # atno 17371 bound_to 10713
  141.0958  133.6696  156.2641 LP  0  0  0  0  0  0  0  0  0  0  0  0  # atno 17394 bound_to 11000
  140.6102  134.5466  157.5532 LP  0  0  0  0  0  0  0  0  0  0  0  0  # atno 17395 bound_to 11000

$$$$
