AV-unprocessed.smi:778|AV-procd|sdf|3703|dock6
  -GOLD-   22720 1123D 1   1.00000     0.00000
 Structure written by MMmdl.
 40 41  0  0  0  0  0  0  0  0  1 V2000
  146.4717  130.6994  148.6029 N   0  0  0  0  0  0  0  0  0  0  0  0
  146.1232  131.5981  149.2429 C   0  0  0  0  0  0  0  0  0  0  0  0
  145.6844  132.7292  150.0486 C   0  0  0  0  0  0  0  0  0  0  0  0
  146.4876  133.2074  151.1064 C   0  0  0  0  0  0  0  0  0  0  0  0
  146.1114  134.2538  151.8728 N   0  0  0  0  0  0  0  0  0  0  0  0
  144.9370  134.8172  151.5776 C   0  0  0  0  0  0  0  0  0  0  0  0
  144.4013  136.2006  152.5706 S   0  0  0  0  0  0  0  0  0  0  0  0
  145.8237  137.3328  152.4919 C   0  0  0  0  0  0  0  0  0  0  0  0
  145.8119  138.3245  153.6581 C   0  0  0  0  0  0  0  0  0  0  0  0
  147.0335  139.0476  153.6455 O   0  0  0  0  0  0  0  0  0  0  0  0
  146.9070  140.4599  153.7632 C   0  0  0  0  0  0  0  0  0  0  0  0
  148.2437  141.2177  153.5975 C   0  0  0  0  0  0  0  0  0  0  0  0
  149.3940  140.7423  154.4978 C   0  0  0  0  0  0  0  0  0  0  0  0
  149.1045  140.8149  156.0059 C   0  0  0  0  0  0  0  0  0  0  0  0
  148.1503  139.7092  156.4805 C   0  0  0  0  0  0  0  0  0  0  0  0
  146.6492  140.0205  156.3401 C   0  0  0  0  0  0  0  0  0  0  0  0
  146.1971  140.7988  155.0874 C   0  0  0  0  0  0  0  0  0  0  0  0
  144.0927  134.4556  150.6089 N   0  0  0  0  0  0  0  0  0  0  0  0
  144.4587  133.4099  149.8359 C   0  0  0  0  0  0  0  0  0  0  0  0
  143.5642  133.0470  148.8273 N   0  0  0  0  0  0  0  0  0  0  0  0
  147.4382  132.7516  151.3429 H   0  0  0  0  0  0  0  0  0  0  0  0
  146.7440  136.7487  152.5171 H   0  0  0  0  0  0  0  0  0  0  0  0
  145.8053  137.8744  151.5455 H   0  0  0  0  0  0  0  0  0  0  0  0
  144.9550  138.9908  153.5607 H   0  0  0  0  0  0  0  0  0  0  0  0
  145.7085  137.7881  154.6024 H   0  0  0  0  0  0  0  0  0  0  0  0
  146.2450  140.8067  152.9676 H   0  0  0  0  0  0  0  0  0  0  0  0
  148.5707  141.1531  152.5600 H   0  0  0  0  0  0  0  0  0  0  0  0
  148.0741  142.2810  153.7705 H   0  0  0  0  0  0  0  0  0  0  0  0
  149.6827  139.7269  154.2232 H   0  0  0  0  0  0  0  0  0  0  0  0
  150.2657  141.3615  154.2845 H   0  0  0  0  0  0  0  0  0  0  0  0
  150.0524  140.6865  156.5295 H   0  0  0  0  0  0  0  0  0  0  0  0
  148.7369  141.8012  156.2913 H   0  0  0  0  0  0  0  0  0  0  0  0
  148.3836  138.7811  155.9572 H   0  0  0  0  0  0  0  0  0  0  0  0
  148.3498  139.4980  157.5317 H   0  0  0  0  0  0  0  0  0  0  0  0
  146.1075  139.0749  156.3824 H   0  0  0  0  0  0  0  0  0  0  0  0
  146.3210  140.5794  157.2170 H   0  0  0  0  0  0  0  0  0  0  0  0
  146.2903  141.8687  155.2761 H   0  0  0  0  0  0  0  0  0  0  0  0
  145.1273  140.6265  154.9629 H   0  0  0  0  0  0  0  0  0  0  0  0
  143.7551  132.2775  148.2018 H   0  0  0  0  0  0  0  0  0  0  0  0
  142.7018  133.5527  148.6836 H   0  0  0  0  0  0  0  0  0  0  0  0
  1  2  3  0  0  0  0
  2  3  1  0  0  0  0
  3 19  1  0  0  0  0
  3  4  2  0  0  0  0
  4  5  1  0  0  0  0
  4 21  1  0  0  0  0
  5  6  2  0  0  0  0
  6  7  1  0  0  0  0
  6 18  1  0  0  0  0
  7  8  1  0  0  0  0
  8  9  1  0  0  0  0
  8 22  1  0  0  0  0
  8 23  1  0  0  0  0
  9 10  1  0  0  0  0
  9 24  1  0  0  0  0
  9 25  1  0  0  0  0
 10 11  1  0  0  0  0
 11 17  1  0  0  0  0
 11 12  1  0  0  0  0
 11 26  1  0  0  0  0
 12 13  1  0  0  0  0
 12 27  1  0  0  0  0
 12 28  1  0  0  0  0
 13 14  1  0  0  0  0
 13 29  1  0  0  0  0
 13 30  1  0  0  0  0
 14 15  1  0  0  0  0
 14 31  1  0  0  0  0
 14 32  1  0  0  0  0
 15 16  1  0  0  0  0
 15 33  1  0  0  0  0
 15 34  1  0  0  0  0
 16 17  1  0  0  0  0
 16 35  1  0  0  0  0
 16 36  1  0  0  0  0
 17 37  1  0  0  0  0
 17 38  1  0  0  0  0
 18 19  2  0  0  0  0
 19 20  1  0  0  0  0
 20 39  1  0  0  0  0
 20 40  1  0  0  0  0
M  END
> <s_m_source_file>
AV-unprocessed.smi

> <i_m_source_file_index>
778

> <i_lp_mmshare_version>
43012

> <i_f3d_flags>
0

> <s_epik_input>
TiNDYzFbY0hdbmMobmMxW05IMl0pU1tDSDJdW0NIMl1PW0NIXTJbQ0gyXVtDSDJdW0NIMl1bQ0gyXVtDSDJdW0NIMl0y

> <s_epik_cmdline>
J2VwaWtfcHl0aG9uJywgJy1waCcsICc3LjAnLCAnLXRuJywgJzgnLCAnLW1hJywgJzIwMCcsICctbWV0YWxfYmluZGluZycsICctaW1hZScsICc8aW5maWxlLm1hZT4nLCAnLW9tYWUnLCAnPG91dGZpbGUubWFlPic=

> <r_lp_tautomer_probability>
1

> <r_epik_Ionization_Penalty>
5.1519e-05

> <r_epik_Ionization_Penalty_Charging>
0

> <r_epik_Ionization_Penalty_Neutral>
5.1519e-05

> <r_epik_State_Penalty>
-0

> <r_epik_Charging_Adjusted_Penalty>
0

> <i_epik_Tot_Q>
0

> <i_epik_Tot_abs_Q>
0

> <r_epik_Metal_State_Penalty>
-0

> <b_epik_Metal_Only>
0

> <s_lp_Force_Field>
OPLS_2005

> <r_lp_Energy>
14.4265

> <b_lp_Chiralities_Consistent>
1

> <s_lp_Variant>
AV-unprocessed.smi:778-1

> <Gold.Version>
5.8.1

> <Gold.Id.Protein>
6NUR|6NUR_protein|mol2

> <Gold.PLP.Fitness>
31.1103

> <Gold.PLP.PLP>
-24.7260

> <Gold.PLP.part.hbond>
-2.5188

> <Gold.PLP.part.metal>
0.0000

> <Gold.PLP.part.buried>
0.6056

> <Gold.PLP.part.nonpolar>
-23.5904

> <Gold.PLP.part.repulsive>
0.9422

> <Gold.PLP.ligand.clash>
0.0000

> <Gold.PLP.ligand.torsion>
0.5209

> <Gold.PLP.Chemscore.Hbond>
1.4713

> <Gold.PLP.Chemscore.CHOScore>
1.0000

> <Gold.PLP.Chemscore.Metal>
0.0000

> <Gold.Chemscore.Hbonds>
donor molecule, donor type, donor heavy atom, donor atom, acceptor molecule, acceptor atom, score
      L1  H    20    40       P1 10186  0.84
      P1  H 10777 10791       L1     1  0.36
      L1  C     4    21       P1 10747  0.68

> <Gold.PLP.Chemscore.Internal.Correction>
0.0125

> <Gold.Rescore>
     Score         DG    S(hbond)    S(metal)    S(lipo)     H(rot)  DE(clash)    DE(int)     intcor
      9.88     -11.99       1.68        0.00      56.97       2.26       1.63       0.48       ----

> <Gold.Chemscore.Fitness>
9.8774

> <Gold.Chemscore.DG>
-11.9900

> <Gold.Chemscore.ZeroCoef>
-5.4800

> <Gold.Chemscore.Hbond>
1.6826

> <Gold.Chemscore.Metal>
0.0000

> <Gold.Chemscore.Lipo>
56.9736

> <Gold.Chemscore.Internal_Hbond>
0.0000

> <Gold.Chemscore.DEClash>
1.6308

> <Gold.Chemscore.DEInternal>
0.4818

> <Gold.Chemscore.Rot>
2.2562

> <Gold.Chemscore.Internal.Correction>
   9.000000E+99

> <Gold.Chemscore.Hbonds>
donor molecule, donor type, donor heavy atom, donor atom, acceptor molecule, acceptor atom, score
      L1  H    20    40       P1 10186  0.79
      P1  H 10777 10791       L1     1  0.35

> <Gold.Chemscore.Hbond.Weighted>
-5.6200

> <Gold.Chemscore.Metal.Weighted>
-0.0000

> <Gold.Chemscore.Lipo.Weighted>
-6.6659

> <Gold.Chemscore.Internal_Hbond.Weighted>
0.0000

> <Gold.Chemscore.DEClash.Weighted>
1.6308

> <Gold.Chemscore.DEInternal.Weighted>
0.4818

> <Gold.Chemscore.Rot.Weighted>
5.7759

> <Gold.Chemscore.Internal.Correction.Weighted>
   9.000000E+99

> <Gold.Protein.RotatedTorsions>
[ 6907 6896 6895 6894 ] final -121.01 input  -60.11 | X-H torsion
[ 7974 7965 7964 7962 ] final -159.42 input  175.53 | X-H torsion
[ 8008 7997 7996 7995 ] final   41.86 input   59.86 | X-H torsion
[ 10167 10162 10161 10158 ] final -131.01 input  -65.29 | X-H torsion
[ 10718 10713 10712 10709 ] final  -12.53 input   66.30 | X-H torsion
[ 10763 10752 10751 10750 ] final -130.99 input  -60.55 | X-H torsion
[ 11005 11000 10999 10996 ] final   65.88 input  -57.11 | X-H torsion

> <Gold.Protein.ActiveResidues>
 VAL166  LYS551  ARG553  GLY616  TRP617  ASP618  TYR619  PRO620  LYS621  CYS622 
 ASP623  PHE694  ASN695  SER759  ASP760  ASP761  ALA762  ILE779  LEU786  VAL792 
 PHE793  MET794  SER795  GLU796  ALA797  LYS798  CYS799  TRP800  GLU811  SER814 

> <Gold.Protein.RotatedAtoms>
  150.8444  133.7884  159.3048 H   0  0  0  0  0  0  0  0  0  0  0  0  # atno 6907 bound_to 6896
  151.5575  135.1064  159.9974 H   0  0  0  0  0  0  0  0  0  0  0  0  # atno 6908 bound_to 6896
  152.4501  133.7570  159.6782 H   0  0  0  0  0  0  0  0  0  0  0  0  # atno 6909 bound_to 6896
  144.7466  140.3687  143.6080 H   0  0  0  0  0  0  0  0  0  0  0  0  # atno 7974 bound_to 7965
  155.2766  140.3369  155.4261 H   0  0  0  0  0  0  0  0  0  0  0  0  # atno 8008 bound_to 7997
  156.2108  140.1769  156.7739 H   0  0  0  0  0  0  0  0  0  0  0  0  # atno 8009 bound_to 7997
  154.5684  140.0674  156.8912 H   0  0  0  0  0  0  0  0  0  0  0  0  # atno 8010 bound_to 7997
  139.9234  143.6356  152.2548 H   0  0  0  0  0  0  0  0  0  0  0  0  # atno 10167 bound_to 10162
  156.6432  130.4934  149.6087 H   0  0  0  0  0  0  0  0  0  0  0  0  # atno 10718 bound_to 10713
  154.8753  135.3844  154.4174 H   0  0  0  0  0  0  0  0  0  0  0  0  # atno 10763 bound_to 10752
  153.4881  135.7030  153.5905 H   0  0  0  0  0  0  0  0  0  0  0  0  # atno 10764 bound_to 10752
  153.4290  135.3883  155.2126 H   0  0  0  0  0  0  0  0  0  0  0  0  # atno 10765 bound_to 10752
  139.9867  134.6657  156.0164 H   0  0  0  0  0  0  0  0  0  0  0  0  # atno 11005 bound_to 11000
  145.7100  139.1682  143.2544 LP  0  0  0  0  0  0  0  0  0  0  0  0  # atno 17320 bound_to 7965
  146.1354  140.7130  142.9392 LP  0  0  0  0  0  0  0  0  0  0  0  0  # atno 17321 bound_to 7965
  139.6842  144.7653  151.1553 LP  0  0  0  0  0  0  0  0  0  0  0  0  # atno 17342 bound_to 10162
  140.7656  143.5680  150.9026 LP  0  0  0  0  0  0  0  0  0  0  0  0  # atno 17343 bound_to 10162
  156.2142  130.6697  151.1301 LP  0  0  0  0  0  0  0  0  0  0  0  0  # atno 17370 bound_to 10713
  157.7164  131.0707  150.6309 LP  0  0  0  0  0  0  0  0  0  0  0  0  # atno 17371 bound_to 10713
  141.1530  133.6546  156.4074 LP  0  0  0  0  0  0  0  0  0  0  0  0  # atno 17394 bound_to 11000
  140.4989  134.6505  157.5240 LP  0  0  0  0  0  0  0  0  0  0  0  0  # atno 17395 bound_to 11000

$$$$
