AV-unprocessed.smi:247|AV-procd|sdf|1888|dock5
  -GOLD-   2262020543D 1   1.00000     0.00000
 Structure written by MMmdl.
 61 65  0  0  0  0  0  0  0  0  1 V2000
  147.3687  137.0718  161.8305 O   0  0  0  0  0  0  0  0  0  0  0  0
  147.9587  135.7882  161.7709 C   0  0  0  0  0  0  0  0  0  0  0  0
  147.0019  134.6917  161.2251 C   0  0  0  0  0  0  0  0  0  0  0  0
  146.8968  134.8561  159.6759 C   0  0  0  0  0  0  0  0  0  0  0  0
  147.2366  136.1788  159.1694 N   0  0  0  0  0  0  0  0  0  0  0  0
  146.3563  137.1858  158.8388 C   0  0  0  0  0  0  0  0  0  0  0  0
  146.9042  138.2908  158.4127 N   0  0  0  0  0  0  0  0  0  0  0  0
  148.2667  138.0335  158.4752 C   0  0  0  0  0  0  0  0  0  0  0  0
  149.4262  138.7939  158.1769 C   0  0  0  0  0  0  0  0  0  0  0  0
  149.3436  140.0646  157.7242 N   0  0  0  0  0  0  0  0  0  0  0  0
  148.5287  140.2382  156.5263 C   0  0  0  0  0  0  0  0  0  0  0  0
  149.2028  141.3344  155.6886 C   0  0  0  0  0  0  0  0  0  0  0  0
  150.2279  141.9591  156.6329 C   0  0  0  0  0  0  0  0  0  0  0  0
  150.6036  140.7727  157.5245 C   0  0  1  0  0  0  0  0  0  0  0  0
  151.3449  141.1030  158.8494 C   0  0  2  0  0  0  0  0  0  0  0  0
  151.0058  142.5034  159.4135 C   0  0  0  0  0  0  0  0  0  0  0  0
  151.6574  142.7047  160.6628 O   0  0  0  0  0  0  0  0  0  0  0  0
  153.0760  142.6920  160.5557 C   0  0  0  0  0  0  0  0  0  0  0  0
  153.5436  141.3128  160.0688 C   0  0  0  0  0  0  0  0  0  0  0  0
  152.8771  140.9589  158.7316 C   0  0  1  0  0  0  0  0  0  0  0  0
  153.2328  139.6342  158.3889 O   0  0  0  0  0  0  0  0  0  0  0  0
  150.6386  138.2107  158.3690 N   0  0  0  0  0  0  0  0  0  0  0  0
  150.7087  136.9579  158.8301 C   0  0  0  0  0  0  0  0  0  0  0  0
  149.7125  136.1299  159.1543 N   0  0  0  0  0  0  0  0  0  0  0  0
  148.4958  136.7148  158.9563 C   0  0  0  0  0  0  0  0  0  0  0  0
  147.5259  133.2890  161.6284 C   0  0  0  0  0  0  0  0  0  0  0  0
  146.5106  132.1746  161.3183 C   0  0  0  0  0  0  0  0  0  0  0  0
  145.2823  132.4442  161.9829 O   0  0  0  0  0  0  0  0  0  0  0  0
  144.6688  133.6529  161.5518 C   0  0  0  0  0  0  0  0  0  0  0  0
  145.5900  134.8530  161.8466 C   0  0  0  0  0  0  0  0  0  0  0  0
  146.9362  137.1651  162.6655 H   0  0  0  0  0  0  0  0  0  0  0  0
  148.8516  135.8570  161.1486 H   0  0  0  0  0  0  0  0  0  0  0  0
  148.2933  135.5426  162.7785 H   0  0  0  0  0  0  0  0  0  0  0  0
  147.5341  134.1428  159.1557 H   0  0  0  0  0  0  0  0  0  0  0  0
  145.8823  134.6240  159.3494 H   0  0  0  0  0  0  0  0  0  0  0  0
  145.2849  137.0735  158.9184 H   0  0  0  0  0  0  0  0  0  0  0  0
  148.4192  139.3166  155.9523 H   0  0  0  0  0  0  0  0  0  0  0  0
  147.5319  140.5554  156.8333 H   0  0  0  0  0  0  0  0  0  0  0  0
  149.7161  140.8810  154.8396 H   0  0  0  0  0  0  0  0  0  0  0  0
  148.4912  142.0627  155.2984 H   0  0  0  0  0  0  0  0  0  0  0  0
  151.0823  142.3835  156.1047 H   0  0  0  0  0  0  0  0  0  0  0  0
  149.7526  142.7545  157.2063 H   0  0  0  0  0  0  0  0  0  0  0  0
  151.2519  140.1255  156.9317 H   0  0  0  0  0  0  0  0  0  0  0  0
  151.0135  140.3770  159.5939 H   0  0  0  0  0  0  0  0  0  0  0  0
  151.2960  143.2975  158.7253 H   0  0  0  0  0  0  0  0  0  0  0  0
  149.9329  142.6030  159.5748 H   0  0  0  0  0  0  0  0  0  0  0  0
  153.4103  143.4796  159.8786 H   0  0  0  0  0  0  0  0  0  0  0  0
  153.5048  142.9093  161.5341 H   0  0  0  0  0  0  0  0  0  0  0  0
  154.6294  141.2996  159.9674 H   0  0  0  0  0  0  0  0  0  0  0  0
  153.2903  140.5648  160.8217 H   0  0  0  0  0  0  0  0  0  0  0  0
  153.2552  141.6263  157.9564 H   0  0  0  0  0  0  0  0  0  0  0  0
  152.7240  139.0389  158.9179 H   0  0  0  0  0  0  0  0  0  0  0  0
  151.7058  136.5631  158.9589 H   0  0  0  0  0  0  0  0  0  0  0  0
  148.4832  133.0729  161.1559 H   0  0  0  0  0  0  0  0  0  0  0  0
  147.7217  133.2616  162.7008 H   0  0  0  0  0  0  0  0  0  0  0  0
  146.3439  132.0664  160.2464 H   0  0  0  0  0  0  0  0  0  0  0  0
  146.8935  131.2173  161.6720 H   0  0  0  0  0  0  0  0  0  0  0  0
  144.4123  133.5878  160.4944 H   0  0  0  0  0  0  0  0  0  0  0  0
  143.7274  133.7716  162.0883 H   0  0  0  0  0  0  0  0  0  0  0  0
  145.6635  134.9446  162.9305 H   0  0  0  0  0  0  0  0  0  0  0  0
  145.1229  135.7754  161.4999 H   0  0  0  0  0  0  0  0  0  0  0  0
  1  2  1  0  0  0  0
  1 31  1  0  0  0  0
  2  3  1  0  0  0  0
  2 32  1  0  0  0  0
  2 33  1  0  0  0  0
  3 30  1  0  0  0  0
  3  4  1  0  0  0  0
  3 26  1  0  0  0  0
  4  5  1  0  0  0  0
  4 34  1  0  0  0  0
  4 35  1  0  0  0  0
  5 25  1  0  0  0  0
  5  6  1  0  0  0  0
  6  7  2  0  0  0  0
  6 36  1  0  0  0  0
  7  8  1  0  0  0  0
  8 25  2  0  0  0  0
  8  9  1  0  0  0  0
  9 10  1  0  0  0  0
  9 22  2  0  0  0  0
 10 14  1  0  0  0  0
 10 11  1  0  0  0  0
 11 12  1  0  0  0  0
 11 37  1  0  0  0  0
 11 38  1  0  0  0  0
 12 13  1  0  0  0  0
 12 39  1  0  0  0  0
 12 40  1  0  0  0  0
 13 14  1  0  0  0  0
 13 41  1  0  0  0  0
 13 42  1  0  0  0  0
 14 15  1  0  0  0  0
 14 43  1  0  0  0  0
 15 20  1  0  0  0  0
 15 16  1  0  0  0  0
 15 44  1  0  0  0  0
 16 17  1  0  0  0  0
 16 45  1  0  0  0  0
 16 46  1  0  0  0  0
 17 18  1  0  0  0  0
 18 19  1  0  0  0  0
 18 47  1  0  0  0  0
 18 48  1  0  0  0  0
 19 20  1  0  0  0  0
 19 49  1  0  0  0  0
 19 50  1  0  0  0  0
 20 21  1  0  0  0  0
 20 51  1  0  0  0  0
 21 52  1  0  0  0  0
 22 23  1  0  0  0  0
 23 24  2  0  0  0  0
 23 53  1  0  0  0  0
 24 25  1  0  0  0  0
 26 27  1  0  0  0  0
 26 54  1  0  0  0  0
 26 55  1  0  0  0  0
 27 28  1  0  0  0  0
 27 56  1  0  0  0  0
 27 57  1  0  0  0  0
 28 29  1  0  0  0  0
 29 30  1  0  0  0  0
 29 58  1  0  0  0  0
 29 59  1  0  0  0  0
 30 60  1  0  0  0  0
 30 61  1  0  0  0  0
M  END
> <s_m_source_file>
AV-unprocessed.smi

> <i_m_source_file_index>
247

> <i_lp_mmshare_version>
43012

> <i_f3d_flags>
0

> <s_epik_input>
W0NIMl0xW0NIMl1PW0NIMl1bQ0gyXUMxKFtDSDJdW09IXSlbQ0gyXW4oW2NIXW4yKWMoYzIzKW5bY0hdbmMzTjRbQ0gyXVtDSDJdW0NIMl1bQ0BIXTRbQ0BASF01W0NIMl1PW0NIMl1bQ0gyXVtDQEhdNVtPSF0=

> <s_epik_cmdline>
J2VwaWtfcHl0aG9uJywgJy1waCcsICc3LjAnLCAnLXRuJywgJzgnLCAnLW1hJywgJzIwMCcsICctbWV0YWxfYmluZGluZycsICctaW1hZScsICc8aW5maWxlLm1hZT4nLCAnLW9tYWUnLCAnPG91dGZpbGUubWFlPic=

> <r_lp_tautomer_probability>
1

> <r_epik_Ionization_Penalty>
0.00362597

> <r_epik_Ionization_Penalty_Charging>
0

> <r_epik_Ionization_Penalty_Neutral>
0.00362597

> <r_epik_State_Penalty>
0.00241433

> <r_epik_Charging_Adjusted_Penalty>
0.00241433

> <i_epik_Tot_Q>
0

> <i_epik_Tot_abs_Q>
0

> <r_epik_Metal_State_Penalty>
-0

> <b_epik_Metal_Only>
0

> <s_lp_Force_Field>
OPLS_2005

> <r_lp_Energy>
58.6296

> <b_lp_Chiralities_Consistent>
1

> <s_lp_Variant>
AV-unprocessed.smi:247-1

> <Gold.Version>
5.8.1

> <Gold.Id.Protein>
6NUR|6NUR_protein|mol2

> <Gold.PLP.Fitness>
49.8542

> <Gold.PLP.PLP>
-44.5224

> <Gold.PLP.part.hbond>
-4.8354

> <Gold.PLP.part.metal>
0.0000

> <Gold.PLP.part.buried>
-5.9301

> <Gold.PLP.part.nonpolar>
-34.1059

> <Gold.PLP.part.repulsive>
0.1415

> <Gold.PLP.ligand.clash>
0.0000

> <Gold.PLP.ligand.torsion>
2.2602

> <Gold.PLP.Chemscore.Hbond>
3.2192

> <Gold.PLP.Chemscore.CHOScore>
0.0000

> <Gold.PLP.Chemscore.Metal>
0.0000

> <Gold.Chemscore.Hbonds>
donor molecule, donor type, donor heavy atom, donor atom, acceptor molecule, acceptor atom, score
      P1  H  6896  6908       L1    24  0.80
      P1  H  6931  6943       L1     1  0.95
      P1  H  6934  6947       L1     1  0.57
      P1  H  7997  8009       L1    21  0.95

> <Gold.PLP.Chemscore.Internal.Correction>
0.1946

> <Gold.Rescore>
     Score         DG    S(hbond)    S(metal)    S(lipo)     H(rot)  DE(clash)    DE(int)     intcor
     14.34     -19.07       2.50        0.00     115.33       3.23       0.23       4.51       ----

> <Gold.Chemscore.Fitness>
14.3360

> <Gold.Chemscore.DG>
-19.0694

> <Gold.Chemscore.ZeroCoef>
-5.4800

> <Gold.Chemscore.Hbond>
2.5026

> <Gold.Chemscore.Metal>
0.0000

> <Gold.Chemscore.Lipo>
115.3346

> <Gold.Chemscore.Internal_Hbond>
0.0000

> <Gold.Chemscore.DEClash>
0.2252

> <Gold.Chemscore.DEInternal>
4.5081

> <Gold.Chemscore.Rot>
3.2278

> <Gold.Chemscore.Internal.Correction>
   9.000000E+99

> <Gold.Chemscore.Hbonds>
donor molecule, donor type, donor heavy atom, donor atom, acceptor molecule, acceptor atom, score
      P1  H  6896  6908       L1    24  0.12
      P1  H  6931  6943       L1     1  0.14
      P1  H  6934  6947       L1     1  0.22
      P1  H  7997  8009       L1    21  0.21

> <Gold.Chemscore.Hbond.Weighted>
-8.3585

> <Gold.Chemscore.Metal.Weighted>
-0.0000

> <Gold.Chemscore.Lipo.Weighted>
-13.4941

> <Gold.Chemscore.Internal_Hbond.Weighted>
0.0000

> <Gold.Chemscore.DEClash.Weighted>
0.2252

> <Gold.Chemscore.DEInternal.Weighted>
4.5081

> <Gold.Chemscore.Rot.Weighted>
8.2633

> <Gold.Chemscore.Internal.Correction.Weighted>
   9.000000E+99

> <Gold.Protein.RotatedTorsions>
[ 6907 6896 6895 6894 ] final -177.66 input  -60.11 | X-H torsion
[ 7974 7965 7964 7962 ] final  -93.29 input  175.53 | X-H torsion
[ 8008 7997 7996 7995 ] final  149.14 input   59.86 | X-H torsion
[ 10167 10162 10161 10158 ] final -133.76 input  -65.29 | X-H torsion
[ 10718 10713 10712 10709 ] final  -25.20 input   66.30 | X-H torsion
[ 10763 10752 10751 10750 ] final  -25.65 input  -60.55 | X-H torsion
[ 11005 11000 10999 10996 ] final    2.33 input  -57.11 | X-H torsion

> <Gold.Protein.ActiveResidues>
 VAL166  LYS551  ARG553  GLY616  TRP617  ASP618  TYR619  PRO620  LYS621  CYS622 
 ASP623  PHE694  ASN695  SER759  ASP760  ASP761  ALA762  ILE779  LEU786  VAL792 
 PHE793  MET794  SER795  GLU796  ALA797  LYS798  CYS799  TRP800  GLU811  SER814 

> <Gold.Protein.RotatedAtoms>
  151.6246  133.3336  159.3095 H   0  0  0  0  0  0  0  0  0  0  0  0  # atno 6907 bound_to 6896
  150.8088  134.7234  159.6680 H   0  0  0  0  0  0  0  0  0  0  0  0  # atno 6908 bound_to 6896
  152.4184  134.6004  160.0050 H   0  0  0  0  0  0  0  0  0  0  0  0  # atno 6909 bound_to 6896
  145.3885  140.9525  143.2354 H   0  0  0  0  0  0  0  0  0  0  0  0  # atno 7974 bound_to 7965
  156.2766  140.2110  156.5811 H   0  0  0  0  0  0  0  0  0  0  0  0  # atno 8008 bound_to 7997
  154.7058  140.0516  157.0526 H   0  0  0  0  0  0  0  0  0  0  0  0  # atno 8009 bound_to 7997
  155.0672  140.3173  155.4645 H   0  0  0  0  0  0  0  0  0  0  0  0  # atno 8010 bound_to 7997
  139.8949  143.6677  152.2605 H   0  0  0  0  0  0  0  0  0  0  0  0  # atno 10167 bound_to 10162
  156.4675  130.4517  149.6890 H   0  0  0  0  0  0  0  0  0  0  0  0  # atno 10718 bound_to 10713
  153.7032  135.6955  153.5057 H   0  0  0  0  0  0  0  0  0  0  0  0  # atno 10763 bound_to 10752
  153.2326  135.4332  155.0611 H   0  0  0  0  0  0  0  0  0  0  0  0  # atno 10764 bound_to 10752
  154.8337  135.3488  154.6571 H   0  0  0  0  0  0  0  0  0  0  0  0  # atno 10765 bound_to 10752
  140.6055  133.9796  155.8152 H   0  0  0  0  0  0  0  0  0  0  0  0  # atno 11005 bound_to 11000
  144.8457  139.5401  143.6880 LP  0  0  0  0  0  0  0  0  0  0  0  0  # atno 17320 bound_to 7965
  146.2809  139.6874  142.9230 LP  0  0  0  0  0  0  0  0  0  0  0  0  # atno 17321 bound_to 7965
  139.7076  144.7625  151.1166 LP  0  0  0  0  0  0  0  0  0  0  0  0  # atno 17342 bound_to 10162
  140.7719  143.5373  150.9353 LP  0  0  0  0  0  0  0  0  0  0  0  0  # atno 17343 bound_to 10162
  156.3652  130.7502  151.2479 LP  0  0  0  0  0  0  0  0  0  0  0  0  # atno 17370 bound_to 10713
  157.7493  131.0339  150.4291 LP  0  0  0  0  0  0  0  0  0  0  0  0  # atno 17371 bound_to 10713
  141.0843  134.0014  157.3337 LP  0  0  0  0  0  0  0  0  0  0  0  0  # atno 17394 bound_to 11000
  139.9214  135.0200  156.8078 LP  0  0  0  0  0  0  0  0  0  0  0  0  # atno 17395 bound_to 11000

$$$$
