AV-unprocessed.smi:3308|AV-procd|sdf|12708|dock6
  -GOLD-   2272019 43D 1   1.00000     0.00000
 Structure written by MMmdl.
 41 42  0  0  0  0  0  0  0  0  2 V2000
  149.5363  137.1757  156.4637 C   0  0  0  0  0  0  0  0  0  0  0  0
  149.4564  137.1494  154.9251 C   0  0  2  0  0  0  0  0  0  0  0  0
  149.8890  135.8256  154.4177 N   0  3  0  0  0  0  0  0  0  0  0  0
  149.2515  134.6558  155.0603 C   0  0  0  0  0  0  0  0  0  0  0  0
  150.2485  133.8396  155.8948 C   0  0  0  0  0  0  0  0  0  0  0  0
  150.8401  134.3752  156.8337 O   0  0  0  0  0  0  0  0  0  0  0  0
  150.4447  132.5461  155.5667 N   0  0  0  0  0  0  0  0  0  0  0  0
  149.7479  131.8756  154.4707 C   0  0  0  0  0  0  0  0  0  0  0  0
  150.0604  130.3880  154.6313 C   0  0  0  0  0  0  0  0  0  0  0  0
  151.3904  130.3655  155.3719 C   0  0  0  0  0  0  0  0  0  0  0  0
  151.3575  131.6231  156.2414 C   0  0  0  0  0  0  0  0  0  0  0  0
  150.3090  138.2704  154.2686 C   0  0  2  0  0  0  0  0  0  0  0  0
  151.7593  138.3128  154.7856 C   0  0  0  0  0  0  0  0  0  0  0  0
  149.6983  139.5858  154.4332 N   0  0  0  0  0  0  0  0  0  0  0  0
  148.4540  140.0060  154.0096 C   0  0  0  0  0  0  0  0  0  0  0  0
  148.3208  141.3168  154.3677 C   0  0  0  0  0  0  0  0  0  0  0  0
  149.5567  141.6215  155.0026 C   0  0  0  0  0  0  0  0  0  0  0  0
  150.3800  140.5864  155.0365 N   0  0  0  0  0  0  0  0  0  0  0  0
  149.1507  138.1095  156.8711 H   0  0  0  0  0  0  0  0  0  0  0  0
  150.5639  137.0606  156.8095 H   0  0  0  0  0  0  0  0  0  0  0  0
  148.9453  136.3777  156.9122 H   0  0  0  0  0  0  0  0  0  0  0  0
  148.4158  137.2996  154.6332 H   0  0  0  0  0  0  0  0  0  0  0  0
  149.6431  135.7856  153.4384 H   0  0  0  0  0  0  0  0  0  0  0  0
  148.4378  134.9874  155.7049 H   0  0  0  0  0  0  0  0  0  0  0  0
  148.8260  134.0149  154.2870 H   0  0  0  0  0  0  0  0  0  0  0  0
  148.6725  132.0587  154.4919 H   0  0  0  0  0  0  0  0  0  0  0  0
  150.1369  132.2487  153.5222 H   0  0  0  0  0  0  0  0  0  0  0  0
  149.2922  129.9174  155.2467 H   0  0  0  0  0  0  0  0  0  0  0  0
  150.0962  129.8583  153.6788 H   0  0  0  0  0  0  0  0  0  0  0  0
  151.5371  129.4537  155.9517 H   0  0  0  0  0  0  0  0  0  0  0  0
  152.2076  130.4392  154.6533 H   0  0  0  0  0  0  0  0  0  0  0  0
  152.3586  132.0400  156.3606 H   0  0  0  0  0  0  0  0  0  0  0  0
  150.9638  131.3896  157.2317 H   0  0  0  0  0  0  0  0  0  0  0  0
  150.3493  138.0771  153.1953 H   0  0  0  0  0  0  0  0  0  0  0  0
  152.3089  137.4083  154.5276 H   0  0  0  0  0  0  0  0  0  0  0  0
  151.7936  138.4281  155.8694 H   0  0  0  0  0  0  0  0  0  0  0  0
  152.3047  139.1494  154.3473 H   0  0  0  0  0  0  0  0  0  0  0  0
  147.7723  139.3447  153.4948 H   0  0  0  0  0  0  0  0  0  0  0  0
  147.4720  141.9622  154.1964 H   0  0  0  0  0  0  0  0  0  0  0  0
  149.8786  142.5577  155.4344 H   0  0  0  0  0  0  0  0  0  0  0  0
  150.8930  135.7469  154.4953 H   0  0  0  0  0  0  0  0  0  0  0  0
  1  2  1  0  0  0  0
  1 19  1  0  0  0  0
  1 20  1  0  0  0  0
  1 21  1  0  0  0  0
  2  3  1  0  0  0  0
  2 12  1  0  0  0  0
  2 22  1  0  0  0  0
  3  4  1  0  0  0  0
  3 23  1  0  0  0  0
  3 41  1  0  0  0  0
  4  5  1  0  0  0  0
  4 24  1  0  0  0  0
  4 25  1  0  0  0  0
  5  6  2  0  0  0  0
  5  7  1  0  0  0  0
  7 11  1  0  0  0  0
  7  8  1  0  0  0  0
  8  9  1  0  0  0  0
  8 26  1  0  0  0  0
  8 27  1  0  0  0  0
  9 10  1  0  0  0  0
  9 28  1  0  0  0  0
  9 29  1  0  0  0  0
 10 11  1  0  0  0  0
 10 30  1  0  0  0  0
 10 31  1  0  0  0  0
 11 32  1  0  0  0  0
 11 33  1  0  0  0  0
 12 13  1  0  0  0  0
 12 14  1  0  0  0  0
 12 34  1  0  0  0  0
 13 35  1  0  0  0  0
 13 36  1  0  0  0  0
 13 37  1  0  0  0  0
 14 18  1  0  0  0  0
 14 15  1  0  0  0  0
 15 16  2  0  0  0  0
 15 38  1  0  0  0  0
 16 17  1  0  0  0  0
 16 39  1  0  0  0  0
 17 18  2  0  0  0  0
 17 40  1  0  0  0  0
M  CHG  1   3   1
M  END
> <s_m_source_file>
AV-unprocessed.smi

> <i_m_source_file_index>
3308

> <i_lp_mmshare_version>
43012

> <i_f3d_flags>
0

> <s_epik_input>
bjFbY0hdW2NIXVtjSF1uMVtDQEBIXShbQ0gzXSlbQ0BIXShbQ0gzXSlbTkhdW0NIMl1DKD1PKU4yW0NIMl1bQ0gyXVtDSDJdW0NIMl0y

> <s_epik_cmdline>
J2VwaWtfcHl0aG9uJywgJy1waCcsICc3LjAnLCAnLXRuJywgJzgnLCAnLW1hJywgJzIwMCcsICctbWV0YWxfYmluZGluZycsICctaW1hZScsICc8aW5maWxlLm1hZT4nLCAnLW9tYWUnLCAnPG91dGZpbGUubWFlPic=

> <r_lp_tautomer_probability>
1

> <r_epik_Ionization_Penalty>
0.141739

> <r_epik_Ionization_Penalty_Charging>
0.141731

> <r_epik_Ionization_Penalty_Neutral>
8.82171e-06

> <r_epik_State_Penalty>
0.131043

> <r_epik_Charging_Adjusted_Penalty>
0.272773

> <i_epik_Tot_Q>
1

> <i_epik_Tot_abs_Q>
1

> <r_epik_Metal_State_Penalty>
0.131385

> <b_epik_Metal_Only>
0

> <s_lp_Force_Field>
OPLS_2005

> <r_lp_Energy>
31.7083

> <b_lp_Chiralities_Consistent>
1

> <s_lp_Variant>
AV-unprocessed.smi:3308-1

> <Gold.Version>
5.8.1

> <Gold.Id.Protein>
6NUR|6NUR_protein|mol2

> <Gold.PLP.Fitness>
44.9113

> <Gold.PLP.PLP>
-34.1409

> <Gold.PLP.part.hbond>
-2.8932

> <Gold.PLP.part.metal>
0.0000

> <Gold.PLP.part.buried>
-3.0695

> <Gold.PLP.part.nonpolar>
-28.8239

> <Gold.PLP.part.repulsive>
0.1352

> <Gold.PLP.ligand.clash>
0.0000

> <Gold.PLP.ligand.torsion>
0.5806

> <Gold.PLP.Chemscore.Hbond>
2.9440

> <Gold.PLP.Chemscore.CHOScore>
1.0000

> <Gold.PLP.Chemscore.Metal>
0.0000

> <Gold.Chemscore.Hbonds>
donor molecule, donor type, donor heavy atom, donor atom, acceptor molecule, acceptor atom, score
      L1  H     3    23       P1  7948  1.60
      P1  H  7989  7998       L1    18  0.71
      L1  C    17    40       P1  8028  1.00

> <Gold.PLP.Chemscore.Internal.Correction>
0.0996

> <Gold.Rescore>
     Score         DG    S(hbond)    S(metal)    S(lipo)     H(rot)  DE(clash)    DE(int)     intcor
     13.22     -13.77       1.56        0.00      65.44       1.78       0.02       0.53       ----

> <Gold.Chemscore.Fitness>
13.2231

> <Gold.Chemscore.DG>
-13.7704

> <Gold.Chemscore.ZeroCoef>
-5.4800

> <Gold.Chemscore.Hbond>
1.5568

> <Gold.Chemscore.Metal>
0.0000

> <Gold.Chemscore.Lipo>
65.4413

> <Gold.Chemscore.Internal_Hbond>
0.0000

> <Gold.Chemscore.DEClash>
0.0215

> <Gold.Chemscore.DEInternal>
0.5258

> <Gold.Chemscore.Rot>
1.7836

> <Gold.Chemscore.Internal.Correction>
   9.000000E+99

> <Gold.Chemscore.Hbonds>
donor molecule, donor type, donor heavy atom, donor atom, acceptor molecule, acceptor atom, score
      L1  H     3    23       P1  7948  0.12
      P1  H  6896  6907       L1     6  0.01
      P1  H  7989  7998       L1    18  0.04

> <Gold.Chemscore.Hbond.Weighted>
-5.1998

> <Gold.Chemscore.Metal.Weighted>
-0.0000

> <Gold.Chemscore.Lipo.Weighted>
-7.6566

> <Gold.Chemscore.Internal_Hbond.Weighted>
0.0000

> <Gold.Chemscore.DEClash.Weighted>
0.0215

> <Gold.Chemscore.DEInternal.Weighted>
0.5258

> <Gold.Chemscore.Rot.Weighted>
4.5660

> <Gold.Chemscore.Internal.Correction.Weighted>
   9.000000E+99

> <Gold.Protein.RotatedTorsions>
[ 6907 6896 6895 6894 ] final -129.38 input  -60.11 | X-H torsion
[ 7974 7965 7964 7962 ] final   92.68 input  175.53 | X-H torsion
[ 8008 7997 7996 7995 ] final -158.25 input   59.86 | X-H torsion
[ 10167 10162 10161 10158 ] final  -50.31 input  -65.29 | X-H torsion
[ 10718 10713 10712 10709 ] final   88.15 input   66.30 | X-H torsion
[ 10763 10752 10751 10750 ] final   14.34 input  -60.55 | X-H torsion
[ 11005 11000 10999 10996 ] final   27.13 input  -57.11 | X-H torsion

> <Gold.Protein.ActiveResidues>
 VAL166  LYS551  ARG553  GLY616  TRP617  ASP618  TYR619  PRO620  LYS621  CYS622 
 ASP623  PHE694  ASN695  SER759  ASP760  ASP761  ALA762  ILE779  LEU786  VAL792 
 PHE793  MET794  SER795  GLU796  ALA797  LYS798  CYS799  TRP800  GLU811  SER814 

> <Gold.Protein.RotatedAtoms>
  150.9280  133.6800  159.2816 H   0  0  0  0  0  0  0  0  0  0  0  0  # atno 6907 bound_to 6896
  151.4232  135.0999  159.9630 H   0  0  0  0  0  0  0  0  0  0  0  0  # atno 6908 bound_to 6896
  152.5012  133.8728  159.7362 H   0  0  0  0  0  0  0  0  0  0  0  0  # atno 6909 bound_to 6896
  145.4891  139.2277  143.2840 H   0  0  0  0  0  0  0  0  0  0  0  0  # atno 7974 bound_to 7965
  155.7447  140.0818  157.2229 H   0  0  0  0  0  0  0  0  0  0  0  0  # atno 8008 bound_to 7997
  154.4018  140.1571  156.2711 H   0  0  0  0  0  0  0  0  0  0  0  0  # atno 8009 bound_to 7997
  155.8987  140.3411  155.6013 H   0  0  0  0  0  0  0  0  0  0  0  0  # atno 8010 bound_to 7997
  140.6643  143.2662  151.4341 H   0  0  0  0  0  0  0  0  0  0  0  0  # atno 10167 bound_to 10162
  157.6946  131.0283  150.3231 H   0  0  0  0  0  0  0  0  0  0  0  0  # atno 10718 bound_to 10713
  153.1631  135.6799  153.8713 H   0  0  0  0  0  0  0  0  0  0  0  0  # atno 10763 bound_to 10752
  153.8102  135.3144  155.3401 H   0  0  0  0  0  0  0  0  0  0  0  0  # atno 10764 bound_to 10752
  154.7947  135.4814  154.0222 H   0  0  0  0  0  0  0  0  0  0  0  0  # atno 10765 bound_to 10752
  140.3296  134.2452  155.7704 H   0  0  0  0  0  0  0  0  0  0  0  0  # atno 11005 bound_to 11000
  146.2295  140.5683  142.8981 LP  0  0  0  0  0  0  0  0  0  0  0  0  # atno 17320 bound_to 7965
  144.7844  140.5907  143.6583 LP  0  0  0  0  0  0  0  0  0  0  0  0  # atno 17321 bound_to 7965
  139.5887  144.1547  152.2061 LP  0  0  0  0  0  0  0  0  0  0  0  0  # atno 17342 bound_to 10162
  140.0894  144.5633  150.7065 LP  0  0  0  0  0  0  0  0  0  0  0  0  # atno 17343 bound_to 10162
  156.3715  130.3864  149.7172 LP  0  0  0  0  0  0  0  0  0  0  0  0  # atno 17370 bound_to 10713
  156.4584  130.7940  151.2961 LP  0  0  0  0  0  0  0  0  0  0  0  0  # atno 17371 bound_to 10713
  141.2066  133.7827  157.0164 LP  0  0  0  0  0  0  0  0  0  0  0  0  # atno 17394 bound_to 11000
  140.0872  134.9614  157.1718 LP  0  0  0  0  0  0  0  0  0  0  0  0  # atno 17395 bound_to 11000

$$$$
