AV-unprocessed.smi:1648|AV-procd|sdf|6630|dock6
  -GOLD-   22720 7333D 1   1.00000     0.00000
 Structure written by MMmdl.
 42 42  0  0  0  0  0  0  0  0  2 V2000
  153.9825  136.9409  164.1568 C   0  0  0  0  0  0  0  0  0  0  0  0
  154.4205  137.1159  162.7014 C   0  0  0  0  0  0  0  0  0  0  0  0
  154.2724  136.1861  161.9120 O   0  0  0  0  0  0  0  0  0  0  0  0
  154.9567  138.2850  162.3105 N   0  0  0  0  0  0  0  0  0  0  0  0
  155.4321  138.6398  160.9710 C   0  0  1  0  0  0  0  0  0  0  0  0
  154.8743  140.0370  160.6458 C   0  0  0  0  0  0  0  0  0  0  0  0
  155.6368  140.9619  160.3611 O   0  0  0  0  0  0  0  0  0  0  0  0
  153.5404  140.1762  160.7081 N   0  0  0  0  0  0  0  0  0  0  0  0
  152.8018  141.4179  160.4835 C   0  0  1  0  0  0  0  0  0  0  0  0
  153.1939  142.4292  161.5685 C   0  0  0  0  0  0  0  0  0  0  0  0
  153.0748  141.9808  159.0706 C   0  0  0  0  0  0  0  0  0  0  0  0
  152.3313  143.2140  158.7856 N   0  0  0  0  0  0  0  0  0  0  0  0
  152.4375  144.4175  159.4349 C   0  0  0  0  0  0  0  0  0  0  0  0
  151.5443  145.2666  158.8339 C   0  0  0  0  0  0  0  0  0  0  0  0
  150.9390  144.5501  157.8366 N   0  3  0  0  0  0  0  0  0  0  0  0
  151.4259  143.3058  157.8026 C   0  0  0  0  0  0  0  0  0  0  0  0
  156.9886  138.6760  160.9781 C   0  0  0  0  0  0  0  0  0  0  0  0
  157.5611  139.5860  162.0846 C   0  0  0  0  0  0  0  0  0  0  0  0
  157.5567  139.1209  159.6160 C   0  0  0  0  0  0  0  0  0  0  0  0
  154.7958  137.1669  164.8455 H   0  0  0  0  0  0  0  0  0  0  0  0
  153.6637  135.9144  164.3411 H   0  0  0  0  0  0  0  0  0  0  0  0
  153.1429  137.5989  164.3817 H   0  0  0  0  0  0  0  0  0  0  0  0
  154.9926  139.0233  162.9988 H   0  0  0  0  0  0  0  0  0  0  0  0
  155.0965  137.9120  160.2300 H   0  0  0  0  0  0  0  0  0  0  0  0
  152.9936  139.3593  160.9397 H   0  0  0  0  0  0  0  0  0  0  0  0
  151.7313  141.2327  160.5898 H   0  0  0  0  0  0  0  0  0  0  0  0
  152.6361  143.3595  161.4572 H   0  0  0  0  0  0  0  0  0  0  0  0
  154.2565  142.6713  161.5224 H   0  0  0  0  0  0  0  0  0  0  0  0
  152.9841  142.0385  162.5648 H   0  0  0  0  0  0  0  0  0  0  0  0
  154.1338  142.2165  158.9580 H   0  0  0  0  0  0  0  0  0  0  0  0
  152.8337  141.2411  158.3053 H   0  0  0  0  0  0  0  0  0  0  0  0
  153.1155  144.5732  160.2616 H   0  0  0  0  0  0  0  0  0  0  0  0
  151.3010  146.2997  159.0357 H   0  0  0  0  0  0  0  0  0  0  0  0
  151.1356  142.5276  157.1202 H   0  0  0  0  0  0  0  0  0  0  0  0
  157.3621  137.6672  161.1632 H   0  0  0  0  0  0  0  0  0  0  0  0
  157.1964  140.6085  161.9820 H   0  0  0  0  0  0  0  0  0  0  0  0
  158.6501  139.6183  162.0398 H   0  0  0  0  0  0  0  0  0  0  0  0
  157.2987  139.2368  163.0835 H   0  0  0  0  0  0  0  0  0  0  0  0
  157.2012  140.1158  159.3464 H   0  0  0  0  0  0  0  0  0  0  0  0
  157.2760  138.4384  158.8136 H   0  0  0  0  0  0  0  0  0  0  0  0
  158.6464  139.1537  159.6368 H   0  0  0  0  0  0  0  0  0  0  0  0
  150.2270  144.9085  157.2125 H   0  0  0  0  0  0  0  0  0  0  0  0
  1  2  1  0  0  0  0
  1 20  1  0  0  0  0
  1 21  1  0  0  0  0
  1 22  1  0  0  0  0
  2  3  2  0  0  0  0
  2  4  1  0  0  0  0
  4  5  1  0  0  0  0
  4 23  1  0  0  0  0
  5  6  1  0  0  0  0
  5 17  1  0  0  0  0
  5 24  1  0  0  0  0
  6  7  2  0  0  0  0
  6  8  1  0  0  0  0
  8  9  1  0  0  0  0
  8 25  1  0  0  0  0
  9 10  1  0  0  0  0
  9 11  1  0  0  0  0
  9 26  1  0  0  0  0
 10 27  1  0  0  0  0
 10 28  1  0  0  0  0
 10 29  1  0  0  0  0
 11 12  1  0  0  0  0
 11 30  1  0  0  0  0
 11 31  1  0  0  0  0
 12 16  1  0  0  0  0
 12 13  1  0  0  0  0
 13 14  2  0  0  0  0
 13 32  1  0  0  0  0
 14 15  1  0  0  0  0
 14 33  1  0  0  0  0
 15 16  2  0  0  0  0
 15 42  1  0  0  0  0
 16 34  1  0  0  0  0
 17 18  1  0  0  0  0
 17 19  1  0  0  0  0
 17 35  1  0  0  0  0
 18 36  1  0  0  0  0
 18 37  1  0  0  0  0
 18 38  1  0  0  0  0
 19 39  1  0  0  0  0
 19 40  1  0  0  0  0
 19 41  1  0  0  0  0
M  CHG  1  15   1
M  END
> <s_m_source_file>
AV-unprocessed.smi

> <i_m_source_file_index>
1648

> <i_lp_mmshare_version>
43012

> <i_f3d_flags>
0

> <s_epik_input>
W0NIM11DKD1PKVtOSF1bQ0BASF0oW0NIXShbQ0gzXSlbQ0gzXSlDKD1PKVtOSF1bQ0BIXShbQ0gzXSlbQ0gyXW4xW2NIXVtjSF1uW2NIXTE=

> <s_epik_cmdline>
J2VwaWtfcHl0aG9uJywgJy1waCcsICc3LjAnLCAnLXRuJywgJzgnLCAnLW1hJywgJzIwMCcsICctbWV0YWxfYmluZGluZycsICctaW1hZScsICc8aW5maWxlLm1hZT4nLCAnLW9tYWUnLCAnPG91dGZpbGUubWFlPic=

> <r_lp_tautomer_probability>
1

> <r_epik_Ionization_Penalty>
0.251562

> <r_epik_Ionization_Penalty_Charging>
0

> <r_epik_Ionization_Penalty_Neutral>
0.251562

> <r_epik_State_Penalty>
0.242926

> <r_epik_Charging_Adjusted_Penalty>
0.242926

> <i_epik_Tot_Q>
1

> <i_epik_Tot_abs_Q>
1

> <r_epik_Metal_State_Penalty>
0.53388

> <b_epik_Metal_Only>
0

> <s_lp_Force_Field>
OPLS_2005

> <r_lp_Energy>
9.97271

> <b_lp_Chiralities_Consistent>
1

> <s_lp_Variant>
AV-unprocessed.smi:1648-4

> <Gold.Version>
5.8.1

> <Gold.Id.Protein>
6NUR|6NUR_protein|mol2

> <Gold.PLP.Fitness>
44.5128

> <Gold.PLP.PLP>
-38.8880

> <Gold.PLP.part.hbond>
-2.0000

> <Gold.PLP.part.metal>
0.0000

> <Gold.PLP.part.buried>
-4.9008

> <Gold.PLP.part.nonpolar>
-32.3829

> <Gold.PLP.part.repulsive>
0.1477

> <Gold.PLP.ligand.clash>
0.0000

> <Gold.PLP.ligand.torsion>
0.2204

> <Gold.PLP.Chemscore.Hbond>
2.0000

> <Gold.PLP.Chemscore.CHOScore>
0.0000

> <Gold.PLP.Chemscore.Metal>
0.0000

> <Gold.Chemscore.Hbonds>
donor molecule, donor type, donor heavy atom, donor atom, acceptor molecule, acceptor atom, score
      L1  H    15    42       P1  8028  1.80

> <Gold.PLP.Chemscore.Internal.Correction>
0.0655

> <Gold.Rescore>
     Score         DG    S(hbond)    S(metal)    S(lipo)     H(rot)  DE(clash)    DE(int)     intcor
      7.43     -11.23       0.99        0.00      77.94       2.61       0.02       3.78       ----

> <Gold.Chemscore.Fitness>
7.4295

> <Gold.Chemscore.DG>
-11.2306

> <Gold.Chemscore.ZeroCoef>
-5.4800

> <Gold.Chemscore.Hbond>
0.9946

> <Gold.Chemscore.Metal>
0.0000

> <Gold.Chemscore.Lipo>
77.9410

> <Gold.Chemscore.Internal_Hbond>
0.0000

> <Gold.Chemscore.DEClash>
0.0233

> <Gold.Chemscore.DEInternal>
3.7777

> <Gold.Chemscore.Rot>
2.6135

> <Gold.Chemscore.Internal.Correction>
   9.000000E+99

> <Gold.Chemscore.Hbonds>
donor molecule, donor type, donor heavy atom, donor atom, acceptor molecule, acceptor atom, score
      L1  H    15    42       P1  8028  0.17

> <Gold.Chemscore.Hbond.Weighted>
-3.3221

> <Gold.Chemscore.Metal.Weighted>
-0.0000

> <Gold.Chemscore.Lipo.Weighted>
-9.1191

> <Gold.Chemscore.Internal_Hbond.Weighted>
0.0000

> <Gold.Chemscore.DEClash.Weighted>
0.0233

> <Gold.Chemscore.DEInternal.Weighted>
3.7777

> <Gold.Chemscore.Rot.Weighted>
6.6906

> <Gold.Chemscore.Internal.Correction.Weighted>
   9.000000E+99

> <Gold.Protein.RotatedTorsions>
[ 6907 6896 6895 6894 ] final  -15.50 input  -60.11 | X-H torsion
[ 7974 7965 7964 7962 ] final  -42.59 input  175.53 | X-H torsion
[ 8008 7997 7996 7995 ] final -129.08 input   59.86 | X-H torsion
[ 10167 10162 10161 10158 ] final  128.99 input  -65.29 | X-H torsion
[ 10718 10713 10712 10709 ] final   71.63 input   66.30 | X-H torsion
[ 10763 10752 10751 10750 ] final -179.03 input  -60.55 | X-H torsion
[ 11005 11000 10999 10996 ] final  172.98 input  -57.11 | X-H torsion

> <Gold.Protein.ActiveResidues>
 VAL166  LYS551  ARG553  GLY616  TRP617  ASP618  TYR619  PRO620  LYS621  CYS622 
 ASP623  PHE694  ASN695  SER759  ASP760  ASP761  ALA762  ILE779  LEU786  VAL792 
 PHE793  MET794  SER795  GLU796  ALA797  LYS798  CYS799  TRP800  GLU811  SER814 

> <Gold.Protein.RotatedAtoms>
  151.3230  135.0823  159.9312 H   0  0  0  0  0  0  0  0  0  0  0  0  # atno 6907 bound_to 6896
  152.5252  133.9619  159.7731 H   0  0  0  0  0  0  0  0  0  0  0  0  # atno 6908 bound_to 6896
  150.9944  133.6065  159.2734 H   0  0  0  0  0  0  0  0  0  0  0  0  # atno 6909 bound_to 6896
  146.0101  140.6974  142.9228 H   0  0  0  0  0  0  0  0  0  0  0  0  # atno 7974 bound_to 7965
  155.2733  140.0441  157.3009 H   0  0  0  0  0  0  0  0  0  0  0  0  # atno 8008 bound_to 7997
  154.5640  140.2354  155.8260 H   0  0  0  0  0  0  0  0  0  0  0  0  # atno 8009 bound_to 7997
  156.2070  140.3009  155.9656 H   0  0  0  0  0  0  0  0  0  0  0  0  # atno 8010 bound_to 7997
  139.5499  144.6805  151.4355 H   0  0  0  0  0  0  0  0  0  0  0  0  # atno 10167 bound_to 10162
  157.6461  130.9538  150.0815 H   0  0  0  0  0  0  0  0  0  0  0  0  # atno 10718 bound_to 10713
  154.5402  135.2805  155.1102 H   0  0  0  0  0  0  0  0  0  0  0  0  # atno 10763 bound_to 10752
  154.2588  135.6325  153.5270 H   0  0  0  0  0  0  0  0  0  0  0  0  # atno 10764 bound_to 10752
  152.9977  135.5600  154.5939 H   0  0  0  0  0  0  0  0  0  0  0  0  # atno 10765 bound_to 10752
  140.3355  134.7321  157.4165 H   0  0  0  0  0  0  0  0  0  0  0  0  # atno 11005 bound_to 11000
  144.6950  140.3384  143.7203 LP  0  0  0  0  0  0  0  0  0  0  0  0  # atno 17320 bound_to 7965
  145.7355  139.1748  143.2406 LP  0  0  0  0  0  0  0  0  0  0  0  0  # atno 17321 bound_to 7965
  140.6759  143.8190  150.7058 LP  0  0  0  0  0  0  0  0  0  0  0  0  # atno 17342 bound_to 10162
  140.1629  143.4260  152.2054 LP  0  0  0  0  0  0  0  0  0  0  0  0  # atno 17343 bound_to 10162
  156.1790  130.3649  149.9061 LP  0  0  0  0  0  0  0  0  0  0  0  0  # atno 17370 bound_to 10713
  156.7018  130.8936  151.3600 LP  0  0  0  0  0  0  0  0  0  0  0  0  # atno 17371 bound_to 10713
  140.0824  134.5712  155.8526 LP  0  0  0  0  0  0  0  0  0  0  0  0  # atno 17394 bound_to 11000
  141.2052  133.6645  156.6168 LP  0  0  0  0  0  0  0  0  0  0  0  0  # atno 17395 bound_to 11000

$$$$
