AV-unprocessed.smi:701|AV-procd|sdf|3411|dock5
  -GOLD-   22720 0393D 1   1.00000     0.00000
 Structure written by MMmdl.
 49 51  0  0  0  0  0  0  0  0  1 V2000
  153.5115  141.8970  160.2859 C   0  0  0  0  0  0  0  0  0  0  0  0
  152.3527  142.2289  159.3435 C   0  0  0  0  0  0  0  0  0  0  0  0
  152.1295  141.1222  158.4859 O   0  0  0  0  0  0  0  0  0  0  0  0
  150.9379  141.2458  157.7255 C   0  0  1  0  0  0  0  0  0  0  0  0
  150.9306  142.4137  156.7350 C   0  0  0  0  0  0  0  0  0  0  0  0
  150.2758  141.4635  155.7273 C   0  0  2  0  0  0  0  0  0  0  0  0
  148.8168  141.5603  155.7938 N   0  0  0  0  0  0  0  0  0  0  0  0
  148.0069  141.7478  154.7420 C   0  0  0  0  0  0  0  0  0  0  0  0
  148.4137  141.8548  153.5846 O   0  0  0  0  0  0  0  0  0  0  0  0
  146.5032  141.7869  155.0439 C   0  0  0  0  0  0  0  0  0  0  0  0
  145.8667  143.0248  154.5731 N   0  0  0  0  0  0  0  0  0  0  0  0
  146.0972  143.4874  153.2853 C   0  0  0  0  0  0  0  0  0  0  0  0
  145.5475  144.6222  152.7916 C   0  0  0  0  0  0  0  0  0  0  0  0
  144.6606  145.4338  153.6183 C   0  0  0  0  0  0  0  0  0  0  0  0
  144.1123  146.4739  153.2606 O   0  0  0  0  0  0  0  0  0  0  0  0
  144.4572  144.9376  154.9085 N   0  0  0  0  0  0  0  0  0  0  0  0
  145.0230  143.7708  155.4246 C   0  0  0  0  0  0  0  0  0  0  0  0
  144.7813  143.4248  156.5805 O   0  0  0  0  0  0  0  0  0  0  0  0
  150.8637  140.2650  156.5298 C   0  0  0  0  0  0  0  0  0  0  0  0
  152.2231  139.7534  156.0051 C   0  0  0  0  0  0  0  0  0  0  0  0
  152.0935  138.9245  154.7149 C   0  0  0  0  0  0  0  0  0  0  0  0
  151.1486  137.7320  154.9106 C   0  0  0  0  0  0  0  0  0  0  0  0
  149.7954  138.1834  155.4738 C   0  0  0  0  0  0  0  0  0  0  0  0
  149.9798  139.0206  156.7510 C   0  0  0  0  0  0  0  0  0  0  0  0
  143.8523  145.4685  155.5183 H   0  0  0  0  0  0  0  0  0  0  0  0
  153.7183  142.7298  160.9584 H   0  0  0  0  0  0  0  0  0  0  0  0
  154.4222  141.6850  159.7254 H   0  0  0  0  0  0  0  0  0  0  0  0
  153.2811  141.0232  160.8958 H   0  0  0  0  0  0  0  0  0  0  0  0
  151.4525  142.4445  159.9207 H   0  0  0  0  0  0  0  0  0  0  0  0
  152.5927  143.1191  158.7606 H   0  0  0  0  0  0  0  0  0  0  0  0
  150.0355  141.2128  158.3400 H   0  0  0  0  0  0  0  0  0  0  0  0
  150.3223  143.2662  157.0397 H   0  0  0  0  0  0  0  0  0  0  0  0
  151.9319  142.7252  156.4338 H   0  0  0  0  0  0  0  0  0  0  0  0
  150.6926  141.5721  154.7249 H   0  0  0  0  0  0  0  0  0  0  0  0
  148.3954  141.4770  156.7074 H   0  0  0  0  0  0  0  0  0  0  0  0
  146.0430  140.9194  154.5684 H   0  0  0  0  0  0  0  0  0  0  0  0
  146.3264  141.6553  156.1135 H   0  0  0  0  0  0  0  0  0  0  0  0
  146.7515  142.9202  152.6388 H   0  0  0  0  0  0  0  0  0  0  0  0
  145.7657  144.9313  151.7795 H   0  0  0  0  0  0  0  0  0  0  0  0
  152.9024  140.5856  155.8183 H   0  0  0  0  0  0  0  0  0  0  0  0
  152.7123  139.1452  156.7671 H   0  0  0  0  0  0  0  0  0  0  0  0
  151.7216  139.5549  153.9065 H   0  0  0  0  0  0  0  0  0  0  0  0
  153.0756  138.5702  154.4007 H   0  0  0  0  0  0  0  0  0  0  0  0
  151.0061  137.2061  153.9662 H   0  0  0  0  0  0  0  0  0  0  0  0
  151.6055  137.0178  155.5968 H   0  0  0  0  0  0  0  0  0  0  0  0
  149.2634  138.7673  154.7224 H   0  0  0  0  0  0  0  0  0  0  0  0
  149.1730  137.3135  155.6848 H   0  0  0  0  0  0  0  0  0  0  0  0
  150.4215  138.3908  157.5246 H   0  0  0  0  0  0  0  0  0  0  0  0
  149.0005  139.2992  157.1402 H   0  0  0  0  0  0  0  0  0  0  0  0
  1  2  1  0  0  0  0
  1 26  1  0  0  0  0
  1 27  1  0  0  0  0
  1 28  1  0  0  0  0
  2  3  1  0  0  0  0
  2 29  1  0  0  0  0
  2 30  1  0  0  0  0
  3  4  1  0  0  0  0
  4 19  1  0  0  0  0
  4  5  1  0  0  0  0
  4 31  1  0  0  0  0
  5  6  1  0  0  0  0
  5 32  1  0  0  0  0
  5 33  1  0  0  0  0
  6  7  1  0  0  0  0
  6 19  1  0  0  0  0
  6 34  1  0  0  0  0
  7  8  1  0  0  0  0
  7 35  1  0  0  0  0
  8  9  2  0  0  0  0
  8 10  1  0  0  0  0
 10 11  1  0  0  0  0
 10 36  1  0  0  0  0
 10 37  1  0  0  0  0
 11 17  1  0  0  0  0
 11 12  1  0  0  0  0
 12 13  2  0  0  0  0
 12 38  1  0  0  0  0
 13 14  1  0  0  0  0
 13 39  1  0  0  0  0
 14 15  2  0  0  0  0
 14 16  1  0  0  0  0
 16 25  1  0  0  0  0
 16 17  1  0  0  0  0
 17 18  2  0  0  0  0
 19 24  1  0  0  0  0
 19 20  1  0  0  0  0
 20 21  1  0  0  0  0
 20 40  1  0  0  0  0
 20 41  1  0  0  0  0
 21 22  1  0  0  0  0
 21 42  1  0  0  0  0
 21 43  1  0  0  0  0
 22 23  1  0  0  0  0
 22 44  1  0  0  0  0
 22 45  1  0  0  0  0
 23 24  1  0  0  0  0
 23 46  1  0  0  0  0
 23 47  1  0  0  0  0
 24 48  1  0  0  0  0
 24 49  1  0  0  0  0
M  END
> <s_m_source_file>
AV-unprocessed.smi

> <i_m_source_file_index>
701

> <i_lp_mmshare_version>
43012

> <i_f3d_flags>
0

> <s_epik_input>
W0NIMl0xW0NIMl1bQ0gyXVtDSDJdW0NIMl1DMTJbQ0BIXShPW0NIMl1bQ0gzXSlbQ0gyXVtDQEhdMltOSF1DKD1PKVtDSDJdbjNbY0hdW2NIXWMoPU8pW25IXWMzPU8=

> <s_epik_cmdline>
J2VwaWtfcHl0aG9uJywgJy1waCcsICc3LjAnLCAnLXRuJywgJzgnLCAnLW1hJywgJzIwMCcsICctbWV0YWxfYmluZGluZycsICctaW1hZScsICc8aW5maWxlLm1hZT4nLCAnLW9tYWUnLCAnPG91dGZpbGUubWFlPic=

> <r_lp_tautomer_probability>
0.999537

> <r_epik_Ionization_Penalty>
0.00304597

> <r_epik_Ionization_Penalty_Charging>
0.00304595

> <r_epik_Ionization_Penalty_Neutral>
1.88422e-08

> <r_epik_State_Penalty>
0.00214084

> <r_epik_Charging_Adjusted_Penalty>
0.00518679

> <i_epik_Tot_Q>
0

> <i_epik_Tot_abs_Q>
0

> <r_epik_Metal_State_Penalty>
0.361872

> <b_epik_Metal_Only>
0

> <s_lp_Force_Field>
OPLS_2005

> <r_lp_Energy>
29.1408

> <b_lp_Chiralities_Consistent>
1

> <s_lp_Variant>
AV-unprocessed.smi:701-4

> <Gold.Version>
5.8.1

> <Gold.Id.Protein>
6NUR|6NUR_protein|mol2

> <Gold.PLP.Fitness>
48.5015

> <Gold.PLP.PLP>
-47.4657

> <Gold.PLP.part.hbond>
-3.3582

> <Gold.PLP.part.metal>
0.0000

> <Gold.PLP.part.buried>
-4.8785

> <Gold.PLP.part.nonpolar>
-39.0140

> <Gold.PLP.part.repulsive>
0.4049

> <Gold.PLP.ligand.clash>
0.0000

> <Gold.PLP.ligand.torsion>
0.3282

> <Gold.PLP.Chemscore.Hbond>
0.4420

> <Gold.PLP.Chemscore.CHOScore>
0.0000

> <Gold.PLP.Chemscore.Metal>
0.0000

> <Gold.Chemscore.Hbonds>
donor molecule, donor type, donor heavy atom, donor atom, acceptor molecule, acceptor atom, score
      P1  H  8011  8017       L1     9  0.51

> <Gold.PLP.Chemscore.Internal.Correction>
0.3662

> <Gold.Rescore>
     Score         DG    S(hbond)    S(metal)    S(lipo)     H(rot)  DE(clash)    DE(int)     intcor
      9.82     -13.20       0.54        0.00      96.33       2.09       2.32       1.05       ----

> <Gold.Chemscore.Fitness>
9.8233

> <Gold.Chemscore.DG>
-13.1954

> <Gold.Chemscore.ZeroCoef>
-5.4800

> <Gold.Chemscore.Hbond>
0.5401

> <Gold.Chemscore.Metal>
0.0000

> <Gold.Chemscore.Lipo>
96.3280

> <Gold.Chemscore.Internal_Hbond>
0.0000

> <Gold.Chemscore.DEClash>
2.3217

> <Gold.Chemscore.DEInternal>
1.0504

> <Gold.Chemscore.Rot>
2.0933

> <Gold.Chemscore.Internal.Correction>
   9.000000E+99

> <Gold.Chemscore.Hbonds>
donor molecule, donor type, donor heavy atom, donor atom, acceptor molecule, acceptor atom, score
      P1  H  8011  8017       L1     9  0.52

> <Gold.Chemscore.Hbond.Weighted>
-1.8038

> <Gold.Chemscore.Metal.Weighted>
-0.0000

> <Gold.Chemscore.Lipo.Weighted>
-11.2704

> <Gold.Chemscore.Internal_Hbond.Weighted>
0.0000

> <Gold.Chemscore.DEClash.Weighted>
2.3217

> <Gold.Chemscore.DEInternal.Weighted>
1.0504

> <Gold.Chemscore.Rot.Weighted>
5.3588

> <Gold.Chemscore.Internal.Correction.Weighted>
   9.000000E+99

> <Gold.Protein.RotatedTorsions>
[ 6907 6896 6895 6894 ] final -173.81 input  -60.11 | X-H torsion
[ 7974 7965 7964 7962 ] final   92.05 input  175.53 | X-H torsion
[ 8008 7997 7996 7995 ] final  -72.13 input   59.86 | X-H torsion
[ 10167 10162 10161 10158 ] final   44.88 input  -65.29 | X-H torsion
[ 10718 10713 10712 10709 ] final   21.69 input   66.30 | X-H torsion
[ 10763 10752 10751 10750 ] final   72.30 input  -60.55 | X-H torsion
[ 11005 11000 10999 10996 ] final  -40.70 input  -57.11 | X-H torsion

> <Gold.Protein.ActiveResidues>
 VAL166  LYS551  ARG553  GLY616  TRP617  ASP618  TYR619  PRO620  LYS621  CYS622 
 ASP623  PHE694  ASN695  SER759  ASP760  ASP761  ALA762  ILE779  LEU786  VAL792 
 PHE793  MET794  SER795  GLU796  ALA797  LYS798  CYS799  TRP800  GLU811  SER814 

> <Gold.Protein.RotatedAtoms>
  151.5621  133.3401  159.2972 H   0  0  0  0  0  0  0  0  0  0  0  0  # atno 6907 bound_to 6896
  150.8416  134.7713  159.6948 H   0  0  0  0  0  0  0  0  0  0  0  0  # atno 6908 bound_to 6896
  152.4482  134.5456  159.9903 H   0  0  0  0  0  0  0  0  0  0  0  0  # atno 6909 bound_to 6896
  145.4975  139.2276  143.2796 H   0  0  0  0  0  0  0  0  0  0  0  0  # atno 7974 bound_to 7965
  154.5142  140.0803  156.8048 H   0  0  0  0  0  0  0  0  0  0  0  0  # atno 8008 bound_to 7997
  155.3718  140.3423  155.4225 H   0  0  0  0  0  0  0  0  0  0  0  0  # atno 8009 bound_to 7997
  156.1608  140.1588  156.8602 H   0  0  0  0  0  0  0  0  0  0  0  0  # atno 8010 bound_to 7997
  140.3298  144.2603  150.6170 H   0  0  0  0  0  0  0  0  0  0  0  0  # atno 10167 bound_to 10162
  157.1420  130.6636  149.5984 H   0  0  0  0  0  0  0  0  0  0  0  0  # atno 10718 bound_to 10713
  153.0451  135.5105  154.7723 H   0  0  0  0  0  0  0  0  0  0  0  0  # atno 10763 bound_to 10752
  154.6630  135.2941  154.9844 H   0  0  0  0  0  0  0  0  0  0  0  0  # atno 10764 bound_to 10752
  154.0688  135.6680  153.4874 H   0  0  0  0  0  0  0  0  0  0  0  0  # atno 10765 bound_to 10752
  141.0193  133.6870  156.2357 H   0  0  0  0  0  0  0  0  0  0  0  0  # atno 11005 bound_to 11000
  146.2246  140.5773  142.9002 LP  0  0  0  0  0  0  0  0  0  0  0  0  # atno 17320 bound_to 7965
  144.7799  140.5818  143.6613 LP  0  0  0  0  0  0  0  0  0  0  0  0  # atno 17321 bound_to 7965
  140.5408  143.2224  151.8088 LP  0  0  0  0  0  0  0  0  0  0  0  0  # atno 17342 bound_to 10162
  139.4858  144.4603  151.9549 LP  0  0  0  0  0  0  0  0  0  0  0  0  # atno 17343 bound_to 10162
  155.9787  130.4774  150.6670 LP  0  0  0  0  0  0  0  0  0  0  0  0  # atno 17370 bound_to 10713
  157.4299  131.0848  151.1049 LP  0  0  0  0  0  0  0  0  0  0  0  0  # atno 17371 bound_to 10713
  140.6600  134.4977  157.5583 LP  0  0  0  0  0  0  0  0  0  0  0  0  # atno 17394 bound_to 11000
  139.9136  134.8292  156.1442 LP  0  0  0  0  0  0  0  0  0  0  0  0  # atno 17395 bound_to 11000

$$$$
