AV-unprocessed.smi:1091|AV-procd|sdf|4736|dock2
  -GOLD-   22720 3273D 1   1.00000     0.00000
 Structure written by MMmdl.
 38 39  0  0  0  0  0  0  0  0  1 V2000
  146.4300  139.1380  154.0184 O   0  0  0  0  0  0  0  0  0  0  0  0
  147.2538  138.4524  153.4174 C   0  0  0  0  0  0  0  0  0  0  0  0
  148.5890  138.5409  153.5769 N   0  0  0  0  0  0  0  0  0  0  0  0
  149.3276  139.3992  154.4348 C   0  0  0  0  0  0  0  0  0  0  0  0
  148.6064  140.2686  155.2774 C   0  0  0  0  0  0  0  0  0  0  0  0
  149.3097  141.1231  156.1473 C   0  0  0  0  0  0  0  0  0  0  0  0
  150.7176  141.0752  156.1536 C   0  0  0  0  0  0  0  0  0  0  0  0
  151.4026  141.9199  157.0023 O   0  0  0  0  0  0  0  0  0  0  0  0
  150.6771  142.5792  158.0370 C   0  0  0  0  0  0  0  0  0  0  0  0
  151.5900  143.6048  158.7192 C   0  0  0  0  0  0  0  0  0  0  0  0
  152.6027  142.9703  159.3089 F   0  0  0  0  0  0  0  0  0  0  0  0
  152.0840  144.4536  157.8180 F   0  0  0  0  0  0  0  0  0  0  0  0
  150.9116  144.2813  159.6457 F   0  0  0  0  0  0  0  0  0  0  0  0
  151.4208  140.2295  155.3606 N   0  0  0  0  0  0  0  0  0  0  0  0
  150.7406  139.4131  154.5277 C   0  0  0  0  0  0  0  0  0  0  0  0
  146.8637  137.5095  152.5399 N   0  0  0  0  0  0  0  0  0  0  0  0
  145.5046  137.1463  152.1302 C   0  0  0  0  0  0  0  0  0  0  0  0
  144.6049  137.0734  153.3783 C   0  0  0  0  0  0  0  0  0  0  0  0
  143.1375  136.7853  153.0289 C   0  0  0  0  0  0  0  0  0  0  0  0
  142.9573  135.1692  152.2264 S   0  0  0  0  0  0  0  0  0  0  0  0
  144.1107  135.4225  150.8500 C   0  0  0  0  0  0  0  0  0  0  0  0
  145.5078  135.8107  151.3556 C   0  0  0  0  0  0  0  0  0  0  0  0
  149.1369  137.8621  153.0687 H   0  0  0  0  0  0  0  0  0  0  0  0
  147.5265  140.2876  155.2554 H   0  0  0  0  0  0  0  0  0  0  0  0
  148.7792  141.8040  156.7962 H   0  0  0  0  0  0  0  0  0  0  0  0
  149.8033  143.0844  157.6219 H   0  0  0  0  0  0  0  0  0  0  0  0
  150.3262  141.8544  158.7737 H   0  0  0  0  0  0  0  0  0  0  0  0
  151.3596  138.7500  153.9444 H   0  0  0  0  0  0  0  0  0  0  0  0
  147.6027  136.9692  152.1136 H   0  0  0  0  0  0  0  0  0  0  0  0
  145.1059  137.9316  151.4854 H   0  0  0  0  0  0  0  0  0  0  0  0
  144.9748  136.3089  154.0632 H   0  0  0  0  0  0  0  0  0  0  0  0
  144.6572  138.0193  153.9192 H   0  0  0  0  0  0  0  0  0  0  0  0
  142.5261  136.7956  153.9313 H   0  0  0  0  0  0  0  0  0  0  0  0
  142.7441  137.5581  152.3675 H   0  0  0  0  0  0  0  0  0  0  0  0
  144.1629  134.5032  150.2669 H   0  0  0  0  0  0  0  0  0  0  0  0
  143.7153  136.1966  150.1914 H   0  0  0  0  0  0  0  0  0  0  0  0
  146.1790  135.8799  150.4990 H   0  0  0  0  0  0  0  0  0  0  0  0
  145.9037  135.0140  151.9867 H   0  0  0  0  0  0  0  0  0  0  0  0
  1  2  2  0  0  0  0
  2  3  1  0  0  0  0
  2 16  1  0  0  0  0
  3  4  1  0  0  0  0
  3 23  1  0  0  0  0
  4 15  1  0  0  0  0
  4  5  2  0  0  0  0
  5  6  1  0  0  0  0
  5 24  1  0  0  0  0
  6  7  2  0  0  0  0
  6 25  1  0  0  0  0
  7  8  1  0  0  0  0
  7 14  1  0  0  0  0
  8  9  1  0  0  0  0
  9 10  1  0  0  0  0
  9 26  1  0  0  0  0
  9 27  1  0  0  0  0
 10 11  1  0  0  0  0
 10 12  1  0  0  0  0
 10 13  1  0  0  0  0
 14 15  2  0  0  0  0
 15 28  1  0  0  0  0
 16 17  1  0  0  0  0
 16 29  1  0  0  0  0
 17 22  1  0  0  0  0
 17 18  1  0  0  0  0
 17 30  1  0  0  0  0
 18 19  1  0  0  0  0
 18 31  1  0  0  0  0
 18 32  1  0  0  0  0
 19 20  1  0  0  0  0
 19 33  1  0  0  0  0
 19 34  1  0  0  0  0
 20 21  1  0  0  0  0
 21 22  1  0  0  0  0
 21 35  1  0  0  0  0
 21 36  1  0  0  0  0
 22 37  1  0  0  0  0
 22 38  1  0  0  0  0
M  END
> <s_m_source_file>
AV-unprocessed.smi

> <i_m_source_file_index>
1091

> <i_lp_mmshare_version>
43012

> <i_f3d_flags>
0

> <s_epik_input>
W0NIMl0xW0NIMl1TW0NIMl1bQ0gyXVtDSF0xW05IXUMoPU8pW05IXWMyW2NIXVtjSF1jKG5bY0hdMilPW0NIMl1DKEYpKEYpRg==

> <s_epik_cmdline>
J2VwaWtfcHl0aG9uJywgJy1waCcsICc3LjAnLCAnLXRuJywgJzgnLCAnLW1hJywgJzIwMCcsICctbWV0YWxfYmluZGluZycsICctaW1hZScsICc8aW5maWxlLm1hZT4nLCAnLW9tYWUnLCAnPG91dGZpbGUubWFlPic=

> <r_lp_tautomer_probability>
1

> <r_epik_Ionization_Penalty>
4.01219e-05

> <r_epik_Ionization_Penalty_Charging>
0

> <r_epik_Ionization_Penalty_Neutral>
4.01219e-05

> <r_epik_State_Penalty>
-0

> <r_epik_Charging_Adjusted_Penalty>
0

> <i_epik_Tot_Q>
0

> <i_epik_Tot_abs_Q>
0

> <r_epik_Metal_State_Penalty>
-0

> <b_epik_Metal_Only>
0

> <s_lp_Force_Field>
OPLS_2005

> <r_lp_Energy>
17.6645

> <b_lp_Chiralities_Consistent>
1

> <s_lp_Variant>
AV-unprocessed.smi:1091-1

> <Gold.Version>
5.8.1

> <Gold.Id.Protein>
6NUR|6NUR_protein|mol2

> <Gold.PLP.Fitness>
47.4413

> <Gold.PLP.PLP>
-42.5319

> <Gold.PLP.part.hbond>
-4.0000

> <Gold.PLP.part.metal>
0.0000

> <Gold.PLP.part.buried>
-3.7349

> <Gold.PLP.part.nonpolar>
-36.1890

> <Gold.PLP.part.repulsive>
0.3262

> <Gold.PLP.ligand.clash>
0.0088

> <Gold.PLP.ligand.torsion>
0.3686

> <Gold.PLP.Chemscore.Hbond>
1.8723

> <Gold.PLP.Chemscore.CHOScore>
0.0000

> <Gold.PLP.Chemscore.Metal>
0.0000

> <Gold.Chemscore.Hbonds>
donor molecule, donor type, donor heavy atom, donor atom, acceptor molecule, acceptor atom, score
      L1  H     3    23       P1  7948  0.86
      L1  H    16    29       P1  7948  1.00

> <Gold.PLP.Chemscore.Internal.Correction>
0.0385

> <Gold.Rescore>
     Score         DG    S(hbond)    S(metal)    S(lipo)     H(rot)  DE(clash)    DE(int)     intcor
     13.08     -16.04       1.94        0.00      71.50       1.67       0.32       2.64       ----

> <Gold.Chemscore.Fitness>
13.0815

> <Gold.Chemscore.DG>
-16.0391

> <Gold.Chemscore.ZeroCoef>
-5.4800

> <Gold.Chemscore.Hbond>
1.9360

> <Gold.Chemscore.Metal>
0.0000

> <Gold.Chemscore.Lipo>
71.5030

> <Gold.Chemscore.Internal_Hbond>
0.0000

> <Gold.Chemscore.DEClash>
0.3222

> <Gold.Chemscore.DEInternal>
2.6353

> <Gold.Chemscore.Rot>
1.6691

> <Gold.Chemscore.Internal.Correction>
   9.000000E+99

> <Gold.Chemscore.Hbonds>
donor molecule, donor type, donor heavy atom, donor atom, acceptor molecule, acceptor atom, score
      L1  H     3    23       P1  7948  0.80
      L1  H    16    29       P1  7948  0.94

> <Gold.Chemscore.Hbond.Weighted>
-6.4661

> <Gold.Chemscore.Metal.Weighted>
-0.0000

> <Gold.Chemscore.Lipo.Weighted>
-8.3659

> <Gold.Chemscore.Internal_Hbond.Weighted>
0.0000

> <Gold.Chemscore.DEClash.Weighted>
0.3222

> <Gold.Chemscore.DEInternal.Weighted>
2.6353

> <Gold.Chemscore.Rot.Weighted>
4.2729

> <Gold.Chemscore.Internal.Correction.Weighted>
   9.000000E+99

> <Gold.Protein.RotatedTorsions>
[ 6907 6896 6895 6894 ] final -105.72 input  -60.11 | X-H torsion
[ 7974 7965 7964 7962 ] final -139.61 input  175.53 | X-H torsion
[ 8008 7997 7996 7995 ] final -128.54 input   59.86 | X-H torsion
[ 10167 10162 10161 10158 ] final   56.30 input  -65.29 | X-H torsion
[ 10718 10713 10712 10709 ] final  114.99 input   66.30 | X-H torsion
[ 10763 10752 10751 10750 ] final  138.22 input  -60.55 | X-H torsion
[ 11005 11000 10999 10996 ] final   94.76 input  -57.11 | X-H torsion

> <Gold.Protein.ActiveResidues>
 VAL166  LYS551  ARG553  GLY616  TRP617  ASP618  TYR619  PRO620  LYS621  CYS622 
 ASP623  PHE694  ASN695  SER759  ASP760  ASP761  ALA762  ILE779  LEU786  VAL792 
 PHE793  MET794  SER795  GLU796  ALA797  LYS798  CYS799  TRP800  GLU811  SER814 

> <Gold.Protein.RotatedAtoms>
  150.7351  134.0084  159.3661 H   0  0  0  0  0  0  0  0  0  0  0  0  # atno 6907 bound_to 6896
  151.8042  135.0698  160.0413 H   0  0  0  0  0  0  0  0  0  0  0  0  # atno 6908 bound_to 6896
  152.3119  133.5725  159.5723 H   0  0  0  0  0  0  0  0  0  0  0  0  # atno 6909 bound_to 6896
  144.8663  140.6299  143.5295 H   0  0  0  0  0  0  0  0  0  0  0  0  # atno 7974 bound_to 7965
  155.2644  140.0437  157.3001 H   0  0  0  0  0  0  0  0  0  0  0  0  # atno 8008 bound_to 7997
  154.5691  140.2368  155.8188 H   0  0  0  0  0  0  0  0  0  0  0  0  # atno 8009 bound_to 7997
  156.2108  140.2999  155.9736 H   0  0  0  0  0  0  0  0  0  0  0  0  # atno 8010 bound_to 7997
  140.2102  144.3897  150.6492 H   0  0  0  0  0  0  0  0  0  0  0  0  # atno 10167 bound_to 10162
  157.6248  131.1006  150.7266 H   0  0  0  0  0  0  0  0  0  0  0  0  # atno 10718 bound_to 10713
  153.8860  135.3038  155.3446 H   0  0  0  0  0  0  0  0  0  0  0  0  # atno 10763 bound_to 10752
  154.7739  135.4871  153.9707 H   0  0  0  0  0  0  0  0  0  0  0  0  # atno 10764 bound_to 10752
  153.1324  135.6807  153.9254 H   0  0  0  0  0  0  0  0  0  0  0  0  # atno 10765 bound_to 10752
  139.8795  134.8862  156.3911 H   0  0  0  0  0  0  0  0  0  0  0  0  # atno 11005 bound_to 11000
  145.4215  139.1563  143.4072 LP  0  0  0  0  0  0  0  0  0  0  0  0  # atno 17320 bound_to 7965
  146.2898  140.4325  142.8744 LP  0  0  0  0  0  0  0  0  0  0  0  0  # atno 17321 bound_to 7965
  140.6329  143.2190  151.6458 LP  0  0  0  0  0  0  0  0  0  0  0  0  # atno 17342 bound_to 10162
  139.5183  144.3289  152.0844 LP  0  0  0  0  0  0  0  0  0  0  0  0  # atno 17343 bound_to 10162
  156.7616  130.4800  149.5436 LP  0  0  0  0  0  0  0  0  0  0  0  0  # atno 17370 bound_to 10713
  156.1414  130.6247  151.0472 LP  0  0  0  0  0  0  0  0  0  0  0  0  # atno 17371 bound_to 10713
  140.9332  133.7565  156.0051 LP  0  0  0  0  0  0  0  0  0  0  0  0  # atno 17394 bound_to 11000
  140.8306  134.3183  157.5350 LP  0  0  0  0  0  0  0  0  0  0  0  0  # atno 17395 bound_to 11000

$$$$
