AV-unprocessed.smi:1056|AV-procd|sdf|4634|dock6
  -GOLD-   22720 3143D 1   1.00000     0.00000
 Structure written by MMmdl.
 46 48  0  0  0  0  0  0  0  0  3 V2000
  151.6738  145.1980  160.3675 C   0  0  0  0  0  0  0  0  0  0  0  0
  151.6887  143.9462  159.5067 C   0  0  0  0  0  0  0  0  0  0  0  0
  150.9303  143.9388  158.3147 C   0  0  0  0  0  0  0  0  0  0  0  0
  150.9692  142.7823  157.5449 C   0  0  0  0  0  0  0  0  0  0  0  0
  150.3440  142.4685  156.3367 N   0  3  0  0  0  0  0  0  0  0  0  0
  150.6876  141.2059  155.9609 C   0  0  0  0  0  0  0  0  0  0  0  0
  151.5222  140.7060  156.9129 N   0  0  0  0  0  0  0  0  0  0  0  0
  152.1874  139.3961  156.9837 C   0  0  0  0  0  0  0  0  0  0  0  0
  152.3471  138.7242  155.6034 C   0  0  2  0  0  0  0  0  0  0  0  0
  152.9104  139.6434  154.6895 O   0  0  0  0  0  0  0  0  0  0  0  0
  151.0035  138.2474  155.0144 C   0  0  0  0  0  0  0  0  0  0  0  0
  150.5247  136.9782  155.6180 N   0  3  2  0  0  0  0  0  0  0  0  0
  149.4765  136.2970  154.8214 C   0  0  0  0  0  0  0  0  0  0  0  0
  149.1907  134.9003  155.4018 C   0  0  0  0  0  0  0  0  0  0  0  0
  149.1107  134.8915  156.8607 N   0  0  0  0  0  0  0  0  0  0  0  0
  149.5226  135.8818  157.6689 C   0  0  0  0  0  0  0  0  0  0  0  0
  149.4340  135.7986  158.8909 O   0  0  0  0  0  0  0  0  0  0  0  0
  150.1159  137.1494  157.0354 C   0  0  0  0  0  0  0  0  0  0  0  0
  151.7262  141.6558  157.9228 C   0  0  0  0  0  0  0  0  0  0  0  0
  152.4739  141.6450  159.0988 C   0  0  0  0  0  0  0  0  0  0  0  0
  152.4494  142.8129  159.8944 C   0  0  0  0  0  0  0  0  0  0  0  0
  153.2597  142.8312  161.1795 C   0  0  0  0  0  0  0  0  0  0  0  0
  151.0505  145.9772  159.9280 H   0  0  0  0  0  0  0  0  0  0  0  0
  152.6813  145.6007  160.4755 H   0  0  0  0  0  0  0  0  0  0  0  0
  151.2799  144.9770  161.3597 H   0  0  0  0  0  0  0  0  0  0  0  0
  150.3475  144.7974  158.0141 H   0  0  0  0  0  0  0  0  0  0  0  0
  150.3591  140.6964  155.0664 H   0  0  0  0  0  0  0  0  0  0  0  0
  153.1669  139.5637  157.4331 H   0  0  0  0  0  0  0  0  0  0  0  0
  151.6445  138.7524  157.6761 H   0  0  0  0  0  0  0  0  0  0  0  0
  153.0441  137.8904  155.6837 H   0  0  0  0  0  0  0  0  0  0  0  0
  153.3633  139.1603  154.0147 H   0  0  0  0  0  0  0  0  0  0  0  0
  150.2606  139.0294  155.1803 H   0  0  0  0  0  0  0  0  0  0  0  0
  151.0768  138.1237  153.9325 H   0  0  0  0  0  0  0  0  0  0  0  0
  148.5682  136.9016  154.8353 H   0  0  0  0  0  0  0  0  0  0  0  0
  149.7738  136.1990  153.7779 H   0  0  0  0  0  0  0  0  0  0  0  0
  148.2662  134.4983  154.9866 H   0  0  0  0  0  0  0  0  0  0  0  0
  149.9879  134.2144  155.1133 H   0  0  0  0  0  0  0  0  0  0  0  0
  148.7168  134.0665  157.2914 H   0  0  0  0  0  0  0  0  0  0  0  0
  150.9779  137.4666  157.6239 H   0  0  0  0  0  0  0  0  0  0  0  0
  149.3699  137.9426  157.1046 H   0  0  0  0  0  0  0  0  0  0  0  0
  153.0515  140.7838  159.4003 H   0  0  0  0  0  0  0  0  0  0  0  0
  153.7721  141.8826  161.3430 H   0  0  0  0  0  0  0  0  0  0  0  0
  152.6131  143.0121  162.0385 H   0  0  0  0  0  0  0  0  0  0  0  0
  154.0157  143.6159  161.1433 H   0  0  0  0  0  0  0  0  0  0  0  0
  151.3186  136.3544  155.6384 H   0  0  0  0  0  0  0  0  0  0  0  0
  149.7307  143.0726  155.8040 H   0  0  0  0  0  0  0  0  0  0  0  0
  1  2  1  0  0  0  0
  1 23  1  0  0  0  0
  1 24  1  0  0  0  0
  1 25  1  0  0  0  0
  2 21  1  0  0  0  0
  2  3  2  0  0  0  0
  3  4  1  0  0  0  0
  3 26  1  0  0  0  0
  4 19  2  0  0  0  0
  4  5  1  0  0  0  0
  5  6  2  0  0  0  0
  5 46  1  0  0  0  0
  6  7  1  0  0  0  0
  6 27  1  0  0  0  0
  7  8  1  0  0  0  0
  7 19  1  0  0  0  0
  8  9  1  0  0  0  0
  8 28  1  0  0  0  0
  8 29  1  0  0  0  0
  9 10  1  0  0  0  0
  9 11  1  0  0  0  0
  9 30  1  0  0  0  0
 10 31  1  0  0  0  0
 11 12  1  0  0  0  0
 11 32  1  0  0  0  0
 11 33  1  0  0  0  0
 12 18  1  0  0  0  0
 12 13  1  0  0  0  0
 12 45  1  0  0  0  0
 13 14  1  0  0  0  0
 13 34  1  0  0  0  0
 13 35  1  0  0  0  0
 14 15  1  0  0  0  0
 14 36  1  0  0  0  0
 14 37  1  0  0  0  0
 15 16  1  0  0  0  0
 15 38  1  0  0  0  0
 16 17  2  0  0  0  0
 16 18  1  0  0  0  0
 18 39  1  0  0  0  0
 18 40  1  0  0  0  0
 19 20  1  0  0  0  0
 20 21  2  0  0  0  0
 20 41  1  0  0  0  0
 21 22  1  0  0  0  0
 22 42  1  0  0  0  0
 22 43  1  0  0  0  0
 22 44  1  0  0  0  0
M  CHG  1   5   1
M  CHG  1  12   1
M  END
> <s_m_source_file>
AV-unprocessed.smi

> <i_m_source_file_index>
1056

> <i_lp_mmshare_version>
43012

> <i_f3d_flags>
0

> <s_epik_input>
W0NIM11jKFtjSF0xKWMoW0NIM10pW2NIXWMoYzEyKW4oW2NIXW4yKVtDSDJdW0NASF0oW09IXSlbQ0gyXU4zW0NIMl1bQ0gyXVtOSF1DKD1PKVtDSDJdMw==

> <s_epik_cmdline>
J2VwaWtfcHl0aG9uJywgJy1waCcsICc3LjAnLCAnLXRuJywgJzgnLCAnLW1hJywgJzIwMCcsICctbWV0YWxfYmluZGluZycsICctaW1hZScsICc8aW5maWxlLm1hZT4nLCAnLW9tYWUnLCAnPG91dGZpbGUubWFlPic=

> <r_epik_Ionization_Penalty>
1.262

> <r_epik_Ionization_Penalty_Charging>
1.26188

> <r_epik_Ionization_Penalty_Neutral>
0.000125436

> <r_epik_State_Penalty>
1.3387

> <r_epik_Charging_Adjusted_Penalty>
2.60058

> <i_epik_Tot_Q>
2

> <i_epik_Tot_abs_Q>
2

> <r_epik_Metal_State_Penalty>
1.58938

> <b_epik_Metal_Only>
0

> <s_lp_Force_Field>
OPLS_2005

> <r_lp_Energy>
36.1571

> <b_lp_Chiralities_Consistent>
1

> <s_lp_Variant>
AV-unprocessed.smi:1056-5

> <Gold.Version>
5.8.1

> <Gold.Id.Protein>
6NUR|6NUR_protein|mol2

> <Gold.PLP.Fitness>
53.1355

> <Gold.PLP.PLP>
-41.5364

> <Gold.PLP.part.hbond>
-4.0000

> <Gold.PLP.part.metal>
0.0000

> <Gold.PLP.part.buried>
-4.5637

> <Gold.PLP.part.nonpolar>
-33.4195

> <Gold.PLP.part.repulsive>
0.1908

> <Gold.PLP.ligand.clash>
0.0071

> <Gold.PLP.ligand.torsion>
0.6397

> <Gold.PLP.Chemscore.Hbond>
4.2882

> <Gold.PLP.Chemscore.CHOScore>
0.0000

> <Gold.PLP.Chemscore.Metal>
0.0000

> <Gold.Chemscore.Hbonds>
donor molecule, donor type, donor heavy atom, donor atom, acceptor molecule, acceptor atom, score
      L1  H     5    46       P1  8028  1.92
      P1  H  6896  6907       L1    17  1.00
      P1  H  7989  7998       L1    10  0.33
      P1  H  7997  8008       L1    10  0.86

> <Gold.PLP.Chemscore.Internal.Correction>
0.0210

> <Gold.Rescore>
     Score         DG    S(hbond)    S(metal)    S(lipo)     H(rot)  DE(clash)    DE(int)     intcor
     17.34     -19.41       2.02        0.00     114.56       2.44       0.19       1.89       ----

> <Gold.Chemscore.Fitness>
17.3362

> <Gold.Chemscore.DG>
-19.4096

> <Gold.Chemscore.ZeroCoef>
-5.4800

> <Gold.Chemscore.Hbond>
2.0243

> <Gold.Chemscore.Metal>
0.0000

> <Gold.Chemscore.Lipo>
114.5617

> <Gold.Chemscore.Internal_Hbond>
0.0000

> <Gold.Chemscore.DEClash>
0.1866

> <Gold.Chemscore.DEInternal>
1.8868

> <Gold.Chemscore.Rot>
2.4357

> <Gold.Chemscore.Internal.Correction>
   9.000000E+99

> <Gold.Chemscore.Hbonds>
donor molecule, donor type, donor heavy atom, donor atom, acceptor molecule, acceptor atom, score
      L1  H     5    46       P1  8028  0.92
      P1  H  6896  6907       L1    17  0.89
      P1  H  7989  7998       L1    10  0.07
      P1  H  7997  8008       L1    10  0.04

> <Gold.Chemscore.Hbond.Weighted>
-6.7612

> <Gold.Chemscore.Metal.Weighted>
-0.0000

> <Gold.Chemscore.Lipo.Weighted>
-13.4037

> <Gold.Chemscore.Internal_Hbond.Weighted>
0.0000

> <Gold.Chemscore.DEClash.Weighted>
0.1866

> <Gold.Chemscore.DEInternal.Weighted>
1.8868

> <Gold.Chemscore.Rot.Weighted>
6.2353

> <Gold.Chemscore.Internal.Correction.Weighted>
   9.000000E+99

> <Gold.Protein.RotatedTorsions>
[ 6907 6896 6895 6894 ] final  -44.27 input  -60.11 | X-H torsion
[ 7974 7965 7964 7962 ] final  -82.05 input  175.53 | X-H torsion
[ 8008 7997 7996 7995 ] final   -9.46 input   59.86 | X-H torsion
[ 10167 10162 10161 10158 ] final  -32.21 input  -65.29 | X-H torsion
[ 10718 10713 10712 10709 ] final  106.08 input   66.30 | X-H torsion
[ 10763 10752 10751 10750 ] final  105.20 input  -60.55 | X-H torsion
[ 11005 11000 10999 10996 ] final  -71.30 input  -57.11 | X-H torsion

> <Gold.Protein.ActiveResidues>
 VAL166  LYS551  ARG553  GLY616  TRP617  ASP618  TYR619  PRO620  LYS621  CYS622 
 ASP623  PHE694  ASN695  SER759  ASP760  ASP761  ALA762  ILE779  LEU786  VAL792 
 PHE793  MET794  SER795  GLU796  ALA797  LYS798  CYS799  TRP800  GLU811  SER814 

> <Gold.Protein.RotatedAtoms>
  150.9347  134.8760  159.7573 H   0  0  0  0  0  0  0  0  0  0  0  0  # atno 6907 bound_to 6896
  152.5054  134.4028  159.9432 H   0  0  0  0  0  0  0  0  0  0  0  0  # atno 6908 bound_to 6896
  151.4053  133.3704  159.2772 H   0  0  0  0  0  0  0  0  0  0  0  0  # atno 6909 bound_to 6896
  145.5385  140.9512  143.1564 H   0  0  0  0  0  0  0  0  0  0  0  0  # atno 7974 bound_to 7965
  154.5645  140.2354  155.8285 H   0  0  0  0  0  0  0  0  0  0  0  0  # atno 8008 bound_to 7997
  156.2057  140.3040  155.9580 H   0  0  0  0  0  0  0  0  0  0  0  0  # atno 8009 bound_to 7997
  155.2827  140.0423  157.3007 H   0  0  0  0  0  0  0  0  0  0  0  0  # atno 8010 bound_to 7997
  140.7225  143.3712  151.1775 H   0  0  0  0  0  0  0  0  0  0  0  0  # atno 10167 bound_to 10162
  157.6682  131.0842  150.5953 H   0  0  0  0  0  0  0  0  0  0  0  0  # atno 10718 bound_to 10713
  153.3761  135.3918  155.1823 H   0  0  0  0  0  0  0  0  0  0  0  0  # atno 10763 bound_to 10752
  154.8701  135.3714  154.4916 H   0  0  0  0  0  0  0  0  0  0  0  0  # atno 10764 bound_to 10752
  153.5388  135.7085  153.5707 H   0  0  0  0  0  0  0  0  0  0  0  0  # atno 10765 bound_to 10752
  141.1590  133.6814  156.6885 H   0  0  0  0  0  0  0  0  0  0  0  0  # atno 11005 bound_to 11000
  144.7589  139.7005  143.7242 LP  0  0  0  0  0  0  0  0  0  0  0  0  # atno 17320 bound_to 7965
  146.1997  139.5284  142.9751 LP  0  0  0  0  0  0  0  0  0  0  0  0  # atno 17321 bound_to 7965
  139.7283  143.9113  152.3010 LP  0  0  0  0  0  0  0  0  0  0  0  0  # atno 17342 bound_to 10162
  139.8893  144.6974  150.8788 LP  0  0  0  0  0  0  0  0  0  0  0  0  # atno 17343 bound_to 10162
  156.6253  130.4417  149.5807 LP  0  0  0  0  0  0  0  0  0  0  0  0  # atno 17370 bound_to 10713
  156.2324  130.6802  151.1476 LP  0  0  0  0  0  0  0  0  0  0  0  0  # atno 17371 bound_to 10713
  140.3048  134.8134  157.4128 LP  0  0  0  0  0  0  0  0  0  0  0  0  # atno 17394 bound_to 11000
  140.1230  134.5195  155.8168 LP  0  0  0  0  0  0  0  0  0  0  0  0  # atno 17395 bound_to 11000

$$$$
