AV-unprocessed.smi:2269|AV-procd|sdf|9153|dock9
  -GOLD-   2272012363D 1   1.00000     0.00000
 Structure written by MMmdl.
 41 42  0  0  0  0  0  0  0  0  1 V2000
  144.8836  144.0442  154.4876 C   0  0  0  0  0  0  0  0  0  0  0  0
  145.6795  142.7511  154.5115 C   0  0  0  0  0  0  0  0  0  0  0  0
  146.6902  142.6464  153.5512 N   0  0  0  0  0  0  0  0  0  0  0  0
  147.4210  141.5811  153.4981 C   0  0  0  0  0  0  0  0  0  0  0  0
  147.2307  140.5117  154.3875 N   0  0  0  0  0  0  0  0  0  0  0  0
  148.1252  139.3559  154.2179 C   0  0  0  0  0  0  0  0  0  0  0  0
  149.5154  139.6003  154.8495 C   0  0  1  0  0  0  0  0  0  0  0  0
  150.5017  139.4834  153.8440 O   0  0  0  0  0  0  0  0  0  0  0  0
  149.6352  141.0102  155.4454 C   0  0  0  0  0  0  0  0  0  0  0  0
  150.5023  140.9481  156.5684 O   0  0  0  0  0  0  0  0  0  0  0  0
  150.8624  142.2162  157.0954 C   0  0  0  0  0  0  0  0  0  0  0  0
  151.7086  142.1200  158.3566 C   0  0  0  0  0  0  0  0  0  0  0  0
  152.1568  140.8548  158.7939 C   0  0  0  0  0  0  0  0  0  0  0  0
  152.9398  140.7393  159.9583 C   0  0  0  0  0  0  0  0  0  0  0  0
  153.2777  141.8894  160.6953 C   0  0  0  0  0  0  0  0  0  0  0  0
  152.8299  143.1538  160.2681 C   0  0  0  0  0  0  0  0  0  0  0  0
  152.0454  143.2749  159.1034 C   0  0  0  0  0  0  0  0  0  0  0  0
  151.5101  144.8459  158.6184 Cl  0  0  0  0  0  0  0  0  0  0  0  0
  146.2616  140.5270  155.3482 C   0  0  0  0  0  0  0  0  0  0  0  0
  146.0930  139.5750  156.1127 O   0  0  0  0  0  0  0  0  0  0  0  0
  145.4401  141.7472  155.3989 C   0  0  0  0  0  0  0  0  0  0  0  0
  144.3525  141.8045  156.4645 C   0  0  0  0  0  0  0  0  0  0  0  0
  143.8284  143.8401  154.3039 H   0  0  0  0  0  0  0  0  0  0  0  0
  145.2360  144.7132  153.7015 H   0  0  0  0  0  0  0  0  0  0  0  0
  144.9782  144.5686  155.4388 H   0  0  0  0  0  0  0  0  0  0  0  0
  148.2189  141.4471  152.7655 H   0  0  0  0  0  0  0  0  0  0  0  0
  147.6845  138.4312  154.5973 H   0  0  0  0  0  0  0  0  0  0  0  0
  148.2349  139.1681  153.1485 H   0  0  0  0  0  0  0  0  0  0  0  0
  149.7320  138.8702  155.6306 H   0  0  0  0  0  0  0  0  0  0  0  0
  150.0713  139.4501  153.0033 H   0  0  0  0  0  0  0  0  0  0  0  0
  150.0572  141.7006  154.7134 H   0  0  0  0  0  0  0  0  0  0  0  0
  148.6486  141.3865  155.7204 H   0  0  0  0  0  0  0  0  0  0  0  0
  151.4421  142.7447  156.3383 H   0  0  0  0  0  0  0  0  0  0  0  0
  149.9688  142.8175  157.2694 H   0  0  0  0  0  0  0  0  0  0  0  0
  151.9041  139.9657  158.2351 H   0  0  0  0  0  0  0  0  0  0  0  0
  153.2809  139.7682  160.2856 H   0  0  0  0  0  0  0  0  0  0  0  0
  153.8783  141.8020  161.5888 H   0  0  0  0  0  0  0  0  0  0  0  0
  153.0887  144.0340  160.8379 H   0  0  0  0  0  0  0  0  0  0  0  0
  144.7940  141.7115  157.4572 H   0  0  0  0  0  0  0  0  0  0  0  0
  143.6497  140.9820  156.3288 H   0  0  0  0  0  0  0  0  0  0  0  0
  143.7803  142.7306  156.4456 H   0  0  0  0  0  0  0  0  0  0  0  0
  1  2  1  0  0  0  0
  1 23  1  0  0  0  0
  1 24  1  0  0  0  0
  1 25  1  0  0  0  0
  2 21  2  0  0  0  0
  2  3  1  0  0  0  0
  3  4  2  0  0  0  0
  4  5  1  0  0  0  0
  4 26  1  0  0  0  0
  5  6  1  0  0  0  0
  5 19  1  0  0  0  0
  6  7  1  0  0  0  0
  6 27  1  0  0  0  0
  6 28  1  0  0  0  0
  7  8  1  0  0  0  0
  7  9  1  0  0  0  0
  7 29  1  0  0  0  0
  8 30  1  0  0  0  0
  9 10  1  0  0  0  0
  9 31  1  0  0  0  0
  9 32  1  0  0  0  0
 10 11  1  0  0  0  0
 11 12  1  0  0  0  0
 11 33  1  0  0  0  0
 11 34  1  0  0  0  0
 12 17  1  0  0  0  0
 12 13  2  0  0  0  0
 13 14  1  0  0  0  0
 13 35  1  0  0  0  0
 14 15  2  0  0  0  0
 14 36  1  0  0  0  0
 15 16  1  0  0  0  0
 15 37  1  0  0  0  0
 16 17  2  0  0  0  0
 16 38  1  0  0  0  0
 17 18  1  0  0  0  0
 19 20  2  0  0  0  0
 19 21  1  0  0  0  0
 21 22  1  0  0  0  0
 22 39  1  0  0  0  0
 22 40  1  0  0  0  0
 22 41  1  0  0  0  0
M  END
> <s_m_source_file>
AV-unprocessed.smi

> <i_m_source_file_index>
2269

> <i_lp_mmshare_version>
43012

> <i_f3d_flags>
0

> <s_epik_input>
W0NIM11jMW5bY0hdbihjKD1PKWMxW0NIM10pW0NIMl1bQ0BIXShbT0hdKVtDSDJdT1tDSDJdYzJbY0hdW2NIXVtjSF1bY0hdYzJDbA==

> <s_epik_cmdline>
J2VwaWtfcHl0aG9uJywgJy1waCcsICc3LjAnLCAnLXRuJywgJzgnLCAnLW1hJywgJzIwMCcsICctbWV0YWxfYmluZGluZycsICctaW1hZScsICc8aW5maWxlLm1hZT4nLCAnLW9tYWUnLCAnPG91dGZpbGUubWFlPic=

> <r_lp_tautomer_probability>
1

> <r_epik_Ionization_Penalty>
5.36022e-05

> <r_epik_Ionization_Penalty_Charging>
1.17753e-07

> <r_epik_Ionization_Penalty_Neutral>
5.34845e-05

> <r_epik_State_Penalty>
-0

> <r_epik_Charging_Adjusted_Penalty>
1.17753e-07

> <i_epik_Tot_Q>
0

> <i_epik_Tot_abs_Q>
0

> <r_epik_Metal_State_Penalty>
-0

> <b_epik_Metal_Only>
0

> <s_lp_Force_Field>
OPLS_2005

> <r_lp_Energy>
21.6364

> <b_lp_Chiralities_Consistent>
1

> <s_lp_Variant>
AV-unprocessed.smi:2269-2

> <Gold.Version>
5.8.1

> <Gold.Id.Protein>
6NUR|6NUR_protein|mol2

> <Gold.PLP.Fitness>
47.8862

> <Gold.PLP.PLP>
-41.7615

> <Gold.PLP.part.hbond>
-2.0000

> <Gold.PLP.part.metal>
0.0000

> <Gold.PLP.part.buried>
-3.8657

> <Gold.PLP.part.nonpolar>
-35.3317

> <Gold.PLP.part.repulsive>
0.2558

> <Gold.PLP.ligand.clash>
0.0000

> <Gold.PLP.ligand.torsion>
1.5014

> <Gold.PLP.Chemscore.Hbond>
2.0000

> <Gold.PLP.Chemscore.CHOScore>
1.0000

> <Gold.PLP.Chemscore.Metal>
0.0000

> <Gold.Chemscore.Hbonds>
donor molecule, donor type, donor heavy atom, donor atom, acceptor molecule, acceptor atom, score
      L1  H     8    30       P1  7957  1.00
      P1  H  7989  7998       L1     8  0.85
      L1  C     4    26       P1  7957  1.00

> <Gold.PLP.Chemscore.Internal.Correction>
0.1275

> <Gold.Rescore>
     Score         DG    S(hbond)    S(metal)    S(lipo)     H(rot)  DE(clash)    DE(int)     intcor
     15.75     -17.37       1.52        0.00     113.28       2.52       0.06       1.56       ----

> <Gold.Chemscore.Fitness>
15.7493

> <Gold.Chemscore.DG>
-17.3710

> <Gold.Chemscore.ZeroCoef>
-5.4800

> <Gold.Chemscore.Hbond>
1.5204

> <Gold.Chemscore.Metal>
0.0000

> <Gold.Chemscore.Lipo>
113.2830

> <Gold.Chemscore.Internal_Hbond>
0.0000

> <Gold.Chemscore.DEClash>
0.0630

> <Gold.Chemscore.DEInternal>
1.5586

> <Gold.Chemscore.Rot>
2.5162

> <Gold.Chemscore.Internal.Correction>
   9.000000E+99

> <Gold.Chemscore.Hbonds>
donor molecule, donor type, donor heavy atom, donor atom, acceptor molecule, acceptor atom, score
      L1  H     8    30       P1  7957  0.94
      P1  H  7989  7998       L1     8  0.14

> <Gold.Chemscore.Hbond.Weighted>
-5.0782

> <Gold.Chemscore.Metal.Weighted>
-0.0000

> <Gold.Chemscore.Lipo.Weighted>
-13.2541

> <Gold.Chemscore.Internal_Hbond.Weighted>
0.0000

> <Gold.Chemscore.DEClash.Weighted>
0.0630

> <Gold.Chemscore.DEInternal.Weighted>
1.5586

> <Gold.Chemscore.Rot.Weighted>
6.4414

> <Gold.Chemscore.Internal.Correction.Weighted>
   9.000000E+99

> <Gold.Protein.RotatedTorsions>
[ 6907 6896 6895 6894 ] final  -55.79 input  -60.11 | X-H torsion
[ 7974 7965 7964 7962 ] final  -37.29 input  175.53 | X-H torsion
[ 8008 7997 7996 7995 ] final   13.12 input   59.86 | X-H torsion
[ 10167 10162 10161 10158 ] final  -63.89 input  -65.29 | X-H torsion
[ 10718 10713 10712 10709 ] final   93.37 input   66.30 | X-H torsion
[ 10763 10752 10751 10750 ] final  -44.15 input  -60.55 | X-H torsion
[ 11005 11000 10999 10996 ] final   47.30 input  -57.11 | X-H torsion

> <Gold.Protein.ActiveResidues>
 VAL166  LYS551  ARG553  GLY616  TRP617  ASP618  TYR619  PRO620  LYS621  CYS622 
 ASP623  PHE694  ASN695  SER759  ASP760  ASP761  ALA762  ILE779  LEU786  VAL792 
 PHE793  MET794  SER795  GLU796  ALA797  LYS798  CYS799  TRP800  GLU811  SER814 

> <Gold.Protein.RotatedAtoms>
  150.8222  134.7435  159.6781 H   0  0  0  0  0  0  0  0  0  0  0  0  # atno 6907 bound_to 6896
  152.4336  134.5726  159.9935 H   0  0  0  0  0  0  0  0  0  0  0  0  # atno 6908 bound_to 6896
  151.5907  133.3329  159.3063 H   0  0  0  0  0  0  0  0  0  0  0  0  # atno 6909 bound_to 6896
  146.0588  140.6378  142.9007 H   0  0  0  0  0  0  0  0  0  0  0  0  # atno 7974 bound_to 7965
  154.8301  140.2898  155.5728 H   0  0  0  0  0  0  0  0  0  0  0  0  # atno 8008 bound_to 7997
  156.3005  140.2534  156.3155 H   0  0  0  0  0  0  0  0  0  0  0  0  # atno 8009 bound_to 7997
  154.9241  140.0385  157.2003 H   0  0  0  0  0  0  0  0  0  0  0  0  # atno 8010 bound_to 7997
  140.5839  143.2331  151.6284 H   0  0  0  0  0  0  0  0  0  0  0  0  # atno 10167 bound_to 10162
  157.6955  131.0476  150.4024 H   0  0  0  0  0  0  0  0  0  0  0  0  # atno 10718 bound_to 10713
  154.0073  135.6686  153.4763 H   0  0  0  0  0  0  0  0  0  0  0  0  # atno 10763 bound_to 10752
  153.0636  135.5013  154.8146 H   0  0  0  0  0  0  0  0  0  0  0  0  # atno 10764 bound_to 10752
  154.7017  135.3080  154.9295 H   0  0  0  0  0  0  0  0  0  0  0  0  # atno 10765 bound_to 10752
  140.1292  134.4728  155.8535 H   0  0  0  0  0  0  0  0  0  0  0  0  # atno 11005 bound_to 11000
  144.7163  140.4220  143.7042 LP  0  0  0  0  0  0  0  0  0  0  0  0  # atno 17320 bound_to 7965
  145.6597  139.1579  143.2815 LP  0  0  0  0  0  0  0  0  0  0  0  0  # atno 17321 bound_to 7965
  139.5186  144.3280  152.0852 LP  0  0  0  0  0  0  0  0  0  0  0  0  # atno 17342 bound_to 10162
  140.2434  144.4246  150.6251 LP  0  0  0  0  0  0  0  0  0  0  0  0  # atno 17343 bound_to 10162
  156.4416  130.3993  149.6693 LP  0  0  0  0  0  0  0  0  0  0  0  0  # atno 17370 bound_to 10713
  156.3875  130.7610  151.2608 LP  0  0  0  0  0  0  0  0  0  0  0  0  # atno 17371 bound_to 10713
  141.2167  133.6789  156.7036 LP  0  0  0  0  0  0  0  0  0  0  0  0  # atno 17394 bound_to 11000
  140.2865  134.8275  157.3979 LP  0  0  0  0  0  0  0  0  0  0  0  0  # atno 17395 bound_to 11000

$$$$
