AV-unprocessed.smi:39|AV-procd|sdf|354|dock8
  -GOLD-   2262016193D 1   1.00000     0.00000
 Structure written by MMmdl.
 32 33  0  0  0  0  0  0  0  0  3 V2000
  153.1651  144.0329  159.9194 C   0  0  0  0  0  0  0  0  0  0  0  0
  152.3019  143.2656  158.9311 C   0  0  0  0  0  0  0  0  0  0  0  0
  152.3273  141.9107  158.8410 C   0  0  0  0  0  0  0  0  0  0  0  0
  151.5494  141.1825  157.9475 N   0  0  0  0  0  0  0  0  0  0  0  0
  151.6024  139.6695  157.8534 C   0  0  2  0  0  0  0  0  0  0  0  0
  151.2177  139.0233  159.1991 C   0  0  0  0  0  0  0  0  0  0  0  0
  152.3661  138.0576  159.4564 C   0  0  1  0  0  0  0  0  0  0  0  0
  152.1060  136.7465  158.8448 N   0  0  0  0  0  0  0  0  0  0  0  0
  152.4929  136.5914  157.6789 N   0  3  0  0  0  0  0  0  0  0  0  0
  152.9269  136.5450  156.6280 N   0  5  0  0  0  0  0  0  0  0  0  0
  153.5199  138.7968  158.7693 C   0  0  1  0  0  0  0  0  0  0  0  0
  154.7613  137.9415  158.4640 C   0  0  0  0  0  0  0  0  0  0  0  0
  155.6663  138.6750  157.6668 O   0  0  0  0  0  0  0  0  0  0  0  0
  152.9057  139.2511  157.5693 O   0  0  0  0  0  0  0  0  0  0  0  0
  150.6954  141.8710  157.0611 C   0  0  0  0  0  0  0  0  0  0  0  0
  149.9933  141.2939  156.2315 O   0  0  0  0  0  0  0  0  0  0  0  0
  150.6672  143.2607  157.1550 N   0  0  0  0  0  0  0  0  0  0  0  0
  151.4197  144.0299  158.0452 C   0  0  0  0  0  0  0  0  0  0  0  0
  151.3067  145.2546  158.0350 O   0  0  0  0  0  0  0  0  0  0  0  0
  150.9468  139.4004  157.0229 H   0  0  0  0  0  0  0  0  0  0  0  0
  152.5661  137.9553  160.5249 H   0  0  0  0  0  0  0  0  0  0  0  0
  153.7980  139.6527  159.3877 H   0  0  0  0  0  0  0  0  0  0  0  0
  150.0529  143.7542  156.5240 H   0  0  0  0  0  0  0  0  0  0  0  0
  153.7738  143.3654  160.5301 H   0  0  0  0  0  0  0  0  0  0  0  0
  152.5420  144.6244  160.5910 H   0  0  0  0  0  0  0  0  0  0  0  0
  153.8384  144.7091  159.3916 H   0  0  0  0  0  0  0  0  0  0  0  0
  152.9972  141.3889  159.5075 H   0  0  0  0  0  0  0  0  0  0  0  0
  151.1869  139.7819  159.9829 H   0  0  0  0  0  0  0  0  0  0  0  0
  150.2378  138.5474  159.1401 H   0  0  0  0  0  0  0  0  0  0  0  0
  155.2754  137.6826  159.3901 H   0  0  0  0  0  0  0  0  0  0  0  0
  154.4921  137.0082  157.9688 H   0  0  0  0  0  0  0  0  0  0  0  0
  156.3339  139.0388  158.2279 H   0  0  0  0  0  0  0  0  0  0  0  0
  1  2  1  0  0  0  0
  1 24  1  0  0  0  0
  1 25  1  0  0  0  0
  1 26  1  0  0  0  0
  2 18  1  0  0  0  0
  2  3  2  0  0  0  0
  3  4  1  0  0  0  0
  3 27  1  0  0  0  0
  4  5  1  0  0  0  0
  4 15  1  0  0  0  0
  5 20  1  0  0  0  0
  5 14  1  0  0  0  0
  5  6  1  0  0  0  0
  6  7  1  0  0  0  0
  6 28  1  0  0  0  0
  6 29  1  0  0  0  0
  7 21  1  0  0  0  0
  7  8  1  0  0  0  0
  7 11  1  0  0  0  0
  8  9  2  0  0  0  0
  9 10  2  0  0  0  0
 11 22  1  0  0  0  0
 11 12  1  0  0  0  0
 11 14  1  0  0  0  0
 12 13  1  0  0  0  0
 12 30  1  0  0  0  0
 12 31  1  0  0  0  0
 13 32  1  0  0  0  0
 15 16  2  0  0  0  0
 15 17  1  0  0  0  0
 17 23  1  0  0  0  0
 17 18  1  0  0  0  0
 18 19  2  0  0  0  0
M  CHG  1   9   1
M  CHG  1  10  -1
M  END
> <s_m_source_file>
AV-unprocessed.smi

> <i_m_source_file_index>
39

> <i_lp_mmshare_version>
43012

> <i_f3d_flags>
0

> <s_epik_input>
Tz1jMVtuSF1jKD1PKW4oW2NIXWMxW0NIM10pW0NASF0yW0NIMl1bQ0BIXShOPVtOK109W04tXSlbQ0BIXShPMilbQ0gyXVtPSF0=

> <s_epik_cmdline>
J2VwaWtfcHl0aG9uJywgJy1waCcsICc3LjAnLCAnLXRuJywgJzgnLCAnLW1hJywgJzIwMCcsICctbWV0YWxfYmluZGluZycsICctaW1hZScsICc8aW5maWxlLm1hZT4nLCAnLW9tYWUnLCAnPG91dGZpbGUubWFlPic=

> <r_lp_tautomer_probability>
0.999537

> <r_epik_Ionization_Penalty>
0.00127512

> <r_epik_Ionization_Penalty_Charging>
0.00127507

> <r_epik_Ionization_Penalty_Neutral>
5.43433e-08

> <r_epik_State_Penalty>
0.000844892

> <r_epik_Charging_Adjusted_Penalty>
0.00211996

> <i_epik_Tot_Q>
0

> <i_epik_Tot_abs_Q>
2

> <r_epik_Metal_State_Penalty>
0.680636

> <b_epik_Metal_Only>
0

> <s_epik_Chemistry_Notes>
This compound contains an acetal/aminal-like group ( X-CH(R)-Y where X, Y are N, S, or O) that may be acid/base labile, releasing an aldehyde.

> <s_lp_Force_Field>
OPLS_2005

> <r_lp_Energy>
25.8418

> <b_lp_Chiralities_Consistent>
1

> <s_lp_Variant>
AV-unprocessed.smi:39-4

> <Gold.Version>
5.8.1

> <Gold.Id.Protein>
6NUR|6NUR_protein|mol2

> <Gold.PLP.Fitness>
41.4382

> <Gold.PLP.PLP>
-29.5353

> <Gold.PLP.part.hbond>
-5.0000

> <Gold.PLP.part.metal>
0.0000

> <Gold.PLP.part.buried>
-4.9680

> <Gold.PLP.part.nonpolar>
-19.4699

> <Gold.PLP.part.repulsive>
0.2374

> <Gold.PLP.ligand.clash>
0.0000

> <Gold.PLP.ligand.torsion>
0.3735

> <Gold.PLP.Chemscore.Hbond>
4.2000

> <Gold.PLP.Chemscore.CHOScore>
0.0000

> <Gold.PLP.Chemscore.Metal>
0.0000

> <Gold.Chemscore.Hbonds>
donor molecule, donor type, donor heavy atom, donor atom, acceptor molecule, acceptor atom, score
      L1  H    17    23       P1  8028  1.00
      P1  H  6896  6907       L1     8  0.83
      P1  H  7997  8008       L1    14  0.99
      P1  H 10752 10764       L1    10  0.83

> <Gold.PLP.Chemscore.Internal.Correction>
0.0499

> <Gold.Rescore>
     Score         DG    S(hbond)    S(metal)    S(lipo)     H(rot)  DE(clash)    DE(int)     intcor
     12.11     -18.14       4.10        0.00      51.44       2.75       0.07       5.96       ----

> <Gold.Chemscore.Fitness>
12.1065

> <Gold.Chemscore.DG>
-18.1355

> <Gold.Chemscore.ZeroCoef>
-5.4800

> <Gold.Chemscore.Hbond>
4.0968

> <Gold.Chemscore.Metal>
0.0000

> <Gold.Chemscore.Lipo>
51.4399

> <Gold.Chemscore.Internal_Hbond>
0.0000

> <Gold.Chemscore.DEClash>
0.0680

> <Gold.Chemscore.DEInternal>
5.9610

> <Gold.Chemscore.Rot>
2.7524

> <Gold.Chemscore.Internal.Correction>
   9.000000E+99

> <Gold.Chemscore.Hbonds>
donor molecule, donor type, donor heavy atom, donor atom, acceptor molecule, acceptor atom, score
      L1  H    17    23       P1  8028  1.00
      P1  H  6896  6907       L1     8  0.77
      P1  H  7997  8008       L1    14  0.50
      P1  H 10752 10764       L1    10  0.81

> <Gold.Chemscore.Hbond.Weighted>
-13.6831

> <Gold.Chemscore.Metal.Weighted>
-0.0000

> <Gold.Chemscore.Lipo.Weighted>
-6.0185

> <Gold.Chemscore.Internal_Hbond.Weighted>
0.0000

> <Gold.Chemscore.DEClash.Weighted>
0.0680

> <Gold.Chemscore.DEInternal.Weighted>
5.9610

> <Gold.Chemscore.Rot.Weighted>
7.0461

> <Gold.Chemscore.Internal.Correction.Weighted>
   9.000000E+99

> <Gold.Protein.RotatedTorsions>
[ 6907 6896 6895 6894 ] final    7.69 input  -60.11 | X-H torsion
[ 7974 7965 7964 7962 ] final   40.44 input  175.53 | X-H torsion
[ 8008 7997 7996 7995 ] final  -50.39 input   59.86 | X-H torsion
[ 10167 10162 10161 10158 ] final -170.05 input  -65.29 | X-H torsion
[ 10718 10713 10712 10709 ] final  172.02 input   66.30 | X-H torsion
[ 10763 10752 10751 10750 ] final   13.05 input  -60.55 | X-H torsion
[ 11005 11000 10999 10996 ] final  127.57 input  -57.11 | X-H torsion

> <Gold.Protein.ActiveResidues>
 VAL166  LYS551  ARG553  GLY616  TRP617  ASP618  TYR619  PRO620  LYS621  CYS622 
 ASP623  PHE694  ASN695  SER759  ASP760  ASP761  ALA762  ILE779  LEU786  VAL792 
 PHE793  MET794  SER795  GLU796  ALA797  LYS798  CYS799  TRP800  GLU811  SER814 

> <Gold.Protein.RotatedAtoms>
  151.6940  135.0941  160.0238 H   0  0  0  0  0  0  0  0  0  0  0  0  # atno 6907 bound_to 6896
  152.3761  133.6479  159.6133 H   0  0  0  0  0  0  0  0  0  0  0  0  # atno 6908 bound_to 6896
  150.7710  133.9107  159.3410 H   0  0  0  0  0  0  0  0  0  0  0  0  # atno 6909 bound_to 6896
  146.0905  139.5533  142.9479 H   0  0  0  0  0  0  0  0  0  0  0  0  # atno 7974 bound_to 7965
  154.4061  140.1273  156.4658 H   0  0  0  0  0  0  0  0  0  0  0  0  # atno 8008 bound_to 7997
  155.7228  140.3492  155.5004 H   0  0  0  0  0  0  0  0  0  0  0  0  # atno 8009 bound_to 7997
  155.9199  140.1051  157.1205 H   0  0  0  0  0  0  0  0  0  0  0  0  # atno 8010 bound_to 7997
  139.5885  144.1265  152.1605 H   0  0  0  0  0  0  0  0  0  0  0  0  # atno 10167 bound_to 10162
  156.9851  131.0131  151.2871 H   0  0  0  0  0  0  0  0  0  0  0  0  # atno 10718 bound_to 10713
  153.1760  135.6820  153.8543 H   0  0  0  0  0  0  0  0  0  0  0  0  # atno 10763 bound_to 10752
  153.7891  135.3171  155.3377 H   0  0  0  0  0  0  0  0  0  0  0  0  # atno 10764 bound_to 10752
  154.8029  135.4767  154.0413 H   0  0  0  0  0  0  0  0  0  0  0  0  # atno 10765 bound_to 10752
  139.9514  134.9621  156.8874 H   0  0  0  0  0  0  0  0  0  0  0  0  # atno 11005 bound_to 11000
  145.6048  141.0349  143.1998 LP  0  0  0  0  0  0  0  0  0  0  0  0  # atno 17320 bound_to 7965
  144.7356  139.7594  143.7330 LP  0  0  0  0  0  0  0  0  0  0  0  0  # atno 17321 bound_to 7965
  140.0834  144.5681  150.7106 LP  0  0  0  0  0  0  0  0  0  0  0  0  # atno 17342 bound_to 10162
  140.7152  143.2539  151.4455 LP  0  0  0  0  0  0  0  0  0  0  0  0  # atno 17343 bound_to 10162
  157.5499  130.8175  149.8132 LP  0  0  0  0  0  0  0  0  0  0  0  0  # atno 17370 bound_to 10713
  156.0229  130.3789  150.1908 LP  0  0  0  0  0  0  0  0  0  0  0  0  # atno 17371 bound_to 10713
  140.5709  134.0444  155.7430 LP  0  0  0  0  0  0  0  0  0  0  0  0  # atno 17394 bound_to 11000
  141.1178  133.9512  157.2789 LP  0  0  0  0  0  0  0  0  0  0  0  0  # atno 17395 bound_to 11000

$$$$
