AV-unprocessed.smi:707|AV-procd|sdf|3454|dock6
  -GOLD-   22720 0443D 1   1.00000     0.00000
 Structure written by MMmdl.
 44 45  0  0  0  0  0  0  0  0  1 V2000
  149.5201  133.1245  153.7874 C   0  0  0  0  0  0  0  0  0  0  0  0
  150.0225  133.5289  155.1354 C   0  0  0  0  0  0  0  0  0  0  0  0
  150.3803  132.6592  156.0873 N   0  0  0  0  0  0  0  0  0  0  0  0
  150.7802  133.4292  157.1620 N   0  0  0  0  0  0  0  0  0  0  0  0
  150.6229  134.6868  156.7504 C   0  0  0  0  0  0  0  0  0  0  0  0
  150.1548  134.8204  155.5002 N   0  0  0  0  0  0  0  0  0  0  0  0
  149.8802  136.0396  154.7627 C   0  0  0  0  0  0  0  0  0  0  0  0
  151.0994  136.9713  154.7420 C   0  0  0  0  0  0  0  0  0  0  0  0
  150.9958  137.9742  155.7920 N   0  0  0  0  0  0  0  0  0  0  0  0
  151.0116  139.2979  155.5790 C   0  0  0  0  0  0  0  0  0  0  0  0
  151.1122  139.8015  154.4607 O   0  0  0  0  0  0  0  0  0  0  0  0
  150.8775  140.1912  156.8107 C   0  0  0  0  0  0  0  0  0  0  0  0
  152.1081  140.1847  157.5221 O   0  0  0  0  0  0  0  0  0  0  0  0
  152.0837  140.9056  158.7478 C   0  0  1  0  0  0  0  0  0  0  0  0
  153.4020  140.6067  159.4818 C   0  0  0  0  0  0  0  0  0  0  0  0
  153.5041  141.4004  160.7929 C   0  0  0  0  0  0  0  0  0  0  0  0
  153.3537  142.9088  160.5409 C   0  0  0  0  0  0  0  0  0  0  0  0
  152.0389  143.2305  159.8048 C   0  0  1  0  0  0  0  0  0  0  0  0
  151.8953  144.7373  159.5461 C   0  0  0  0  0  0  0  0  0  0  0  0
  151.9384  142.4218  158.4962 C   0  0  0  0  0  0  0  0  0  0  0  0
  149.5915  132.0436  153.6626 H   0  0  0  0  0  0  0  0  0  0  0  0
  150.1096  133.6005  153.0042 H   0  0  0  0  0  0  0  0  0  0  0  0
  148.4769  133.4185  153.6721 H   0  0  0  0  0  0  0  0  0  0  0  0
  150.8568  135.5340  157.3783 H   0  0  0  0  0  0  0  0  0  0  0  0
  149.5773  135.7773  153.7484 H   0  0  0  0  0  0  0  0  0  0  0  0
  149.0287  136.5394  155.2265 H   0  0  0  0  0  0  0  0  0  0  0  0
  152.0160  136.3969  154.8853 H   0  0  0  0  0  0  0  0  0  0  0  0
  151.1776  137.4655  153.7723 H   0  0  0  0  0  0  0  0  0  0  0  0
  150.9119  137.6446  156.7426 H   0  0  0  0  0  0  0  0  0  0  0  0
  150.6085  141.1998  156.4965 H   0  0  0  0  0  0  0  0  0  0  0  0
  150.0706  139.8099  157.4383 H   0  0  0  0  0  0  0  0  0  0  0  0
  151.2580  140.5521  159.3685 H   0  0  0  0  0  0  0  0  0  0  0  0
  153.4786  139.5390  159.6893 H   0  0  0  0  0  0  0  0  0  0  0  0
  154.2467  140.8579  158.8386 H   0  0  0  0  0  0  0  0  0  0  0  0
  152.7305  141.0653  161.4849 H   0  0  0  0  0  0  0  0  0  0  0  0
  154.4602  141.1986  161.2764 H   0  0  0  0  0  0  0  0  0  0  0  0
  153.3902  143.4427  161.4912 H   0  0  0  0  0  0  0  0  0  0  0  0
  154.2021  143.2644  159.9545 H   0  0  0  0  0  0  0  0  0  0  0  0
  151.2114  142.9283  160.4487 H   0  0  0  0  0  0  0  0  0  0  0  0
  152.6981  145.1087  158.9082 H   0  0  0  0  0  0  0  0  0  0  0  0
  151.9237  145.3006  160.4792 H   0  0  0  0  0  0  0  0  0  0  0  0
  150.9484  144.9627  159.0548 H   0  0  0  0  0  0  0  0  0  0  0  0
  152.7126  142.7502  157.8013 H   0  0  0  0  0  0  0  0  0  0  0  0
  150.9838  142.6363  158.0162 H   0  0  0  0  0  0  0  0  0  0  0  0
  1  2  1  0  0  0  0
  1 21  1  0  0  0  0
  1 22  1  0  0  0  0
  1 23  1  0  0  0  0
  2  6  1  0  0  0  0
  2  3  2  0  0  0  0
  3  4  1  0  0  0  0
  4  5  2  0  0  0  0
  5  6  1  0  0  0  0
  5 24  1  0  0  0  0
  6  7  1  0  0  0  0
  7  8  1  0  0  0  0
  7 25  1  0  0  0  0
  7 26  1  0  0  0  0
  8  9  1  0  0  0  0
  8 27  1  0  0  0  0
  8 28  1  0  0  0  0
  9 10  1  0  0  0  0
  9 29  1  0  0  0  0
 10 11  2  0  0  0  0
 10 12  1  0  0  0  0
 12 13  1  0  0  0  0
 12 30  1  0  0  0  0
 12 31  1  0  0  0  0
 13 14  1  0  0  0  0
 14 20  1  0  0  0  0
 14 15  1  0  0  0  0
 14 32  1  0  0  0  0
 15 16  1  0  0  0  0
 15 33  1  0  0  0  0
 15 34  1  0  0  0  0
 16 17  1  0  0  0  0
 16 35  1  0  0  0  0
 16 36  1  0  0  0  0
 17 18  1  0  0  0  0
 17 37  1  0  0  0  0
 17 38  1  0  0  0  0
 18 19  1  0  0  0  0
 18 20  1  0  0  0  0
 18 39  1  0  0  0  0
 19 40  1  0  0  0  0
 19 41  1  0  0  0  0
 19 42  1  0  0  0  0
 20 43  1  0  0  0  0
 20 44  1  0  0  0  0
M  END
> <s_m_source_file>
AV-unprocessed.smi

> <i_m_source_file_index>
707

> <i_lp_mmshare_version>
43012

> <i_f3d_flags>
0

> <s_epik_input>
W0NIM11jMW5uW2NIXW4xW0NIMl1bQ0gyXVtOSF1DKD1PKVtDSDJdT1tDQEBIXTJbQ0gyXVtDSDJdW0NIMl1bQ0BASF0oW0NIM10pW0NIMl0y

> <s_epik_cmdline>
J2VwaWtfcHl0aG9uJywgJy1waCcsICc3LjAnLCAnLXRuJywgJzgnLCAnLW1hJywgJzIwMCcsICctbWV0YWxfYmluZGluZycsICctaW1hZScsICc8aW5maWxlLm1hZT4nLCAnLW9tYWUnLCAnPG91dGZpbGUubWFlPic=

> <r_lp_tautomer_probability>
1

> <r_epik_Ionization_Penalty>
0.000271783

> <r_epik_Ionization_Penalty_Charging>
0

> <r_epik_Ionization_Penalty_Neutral>
0.000271783

> <r_epik_State_Penalty>
-0

> <r_epik_Charging_Adjusted_Penalty>
0

> <i_epik_Tot_Q>
0

> <i_epik_Tot_abs_Q>
0

> <r_epik_Metal_State_Penalty>
-0

> <b_epik_Metal_Only>
0

> <s_lp_Force_Field>
OPLS_2005

> <r_lp_Energy>
13.3019

> <b_lp_Chiralities_Consistent>
1

> <s_lp_Variant>
AV-unprocessed.smi:707-2

> <Gold.Version>
5.8.1

> <Gold.Id.Protein>
6NUR|6NUR_protein|mol2

> <Gold.PLP.Fitness>
42.6348

> <Gold.PLP.PLP>
-37.9474

> <Gold.PLP.part.hbond>
-2.0000

> <Gold.PLP.part.metal>
0.0000

> <Gold.PLP.part.buried>
-4.1241

> <Gold.PLP.part.nonpolar>
-32.4217

> <Gold.PLP.part.repulsive>
0.1488

> <Gold.PLP.ligand.clash>
0.0000

> <Gold.PLP.ligand.torsion>
0.5125

> <Gold.PLP.Chemscore.Hbond>
1.8800

> <Gold.PLP.Chemscore.CHOScore>
0.0000

> <Gold.PLP.Chemscore.Metal>
0.0000

> <Gold.Chemscore.Hbonds>
donor molecule, donor type, donor heavy atom, donor atom, acceptor molecule, acceptor atom, score
      P1  H  6896  6909       L1     4  0.76
      P1  H  7989  7998       L1    11  0.99

> <Gold.PLP.Chemscore.Internal.Correction>
0.0722

> <Gold.Rescore>
     Score         DG    S(hbond)    S(metal)    S(lipo)     H(rot)  DE(clash)    DE(int)     intcor
     16.43     -17.03       2.00        0.00      94.68       2.42       0.16       0.44       ----

> <Gold.Chemscore.Fitness>
16.4264

> <Gold.Chemscore.DG>
-17.0333

> <Gold.Chemscore.ZeroCoef>
-5.4800

> <Gold.Chemscore.Hbond>
1.9965

> <Gold.Chemscore.Metal>
0.0000

> <Gold.Chemscore.Lipo>
94.6840

> <Gold.Chemscore.Internal_Hbond>
0.0000

> <Gold.Chemscore.DEClash>
0.1649

> <Gold.Chemscore.DEInternal>
0.4420

> <Gold.Chemscore.Rot>
2.4191

> <Gold.Chemscore.Internal.Correction>
   9.000000E+99

> <Gold.Chemscore.Hbonds>
donor molecule, donor type, donor heavy atom, donor atom, acceptor molecule, acceptor atom, score
      P1  H  6896  6909       L1     4  0.32
      P1  H  7989  7998       L1    11  0.92
      P1  H  7997  8008       L1    13  0.01

> <Gold.Chemscore.Hbond.Weighted>
-6.6682

> <Gold.Chemscore.Metal.Weighted>
-0.0000

> <Gold.Chemscore.Lipo.Weighted>
-11.0780

> <Gold.Chemscore.Internal_Hbond.Weighted>
0.0000

> <Gold.Chemscore.DEClash.Weighted>
0.1649

> <Gold.Chemscore.DEInternal.Weighted>
0.4420

> <Gold.Chemscore.Rot.Weighted>
6.1929

> <Gold.Chemscore.Internal.Correction.Weighted>
   9.000000E+99

> <Gold.Protein.RotatedTorsions>
[ 6907 6896 6895 6894 ] final  -16.35 input  -60.11 | X-H torsion
[ 7974 7965 7964 7962 ] final   47.13 input  175.53 | X-H torsion
[ 8008 7997 7996 7995 ] final  -44.62 input   59.86 | X-H torsion
[ 10167 10162 10161 10158 ] final  -39.65 input  -65.29 | X-H torsion
[ 10718 10713 10712 10709 ] final  -42.08 input   66.30 | X-H torsion
[ 10763 10752 10751 10750 ] final  -55.85 input  -60.55 | X-H torsion
[ 11005 11000 10999 10996 ] final   54.48 input  -57.11 | X-H torsion

> <Gold.Protein.ActiveResidues>
 VAL166  LYS551  ARG553  GLY616  TRP617  ASP618  TYR619  PRO620  LYS621  CYS622 
 ASP623  PHE694  ASN695  SER759  ASP760  ASP761  ALA762  ILE779  LEU786  VAL792 
 PHE793  MET794  SER795  GLU796  ALA797  LYS798  CYS799  TRP800  GLU811  SER814 

> <Gold.Protein.RotatedAtoms>
  151.3100  135.0791  159.9268 H   0  0  0  0  0  0  0  0  0  0  0  0  # atno 6907 bound_to 6896
  152.5280  133.9746  159.7788 H   0  0  0  0  0  0  0  0  0  0  0  0  # atno 6908 bound_to 6896
  151.0047  133.5970  159.2720 H   0  0  0  0  0  0  0  0  0  0  0  0  # atno 6909 bound_to 6896
  146.0326  139.4782  142.9828 H   0  0  0  0  0  0  0  0  0  0  0  0  # atno 7974 bound_to 7965
  154.3998  140.1417  156.3713 H   0  0  0  0  0  0  0  0  0  0  0  0  # atno 8008 bound_to 7997
  155.8090  140.3473  155.5426 H   0  0  0  0  0  0  0  0  0  0  0  0  # atno 8009 bound_to 7997
  155.8405  140.0926  157.1727 H   0  0  0  0  0  0  0  0  0  0  0  0  # atno 8010 bound_to 7997
  140.7058  143.3201  151.2813 H   0  0  0  0  0  0  0  0  0  0  0  0  # atno 10167 bound_to 10162
  156.2635  130.4199  149.8516 H   0  0  0  0  0  0  0  0  0  0  0  0  # atno 10718 bound_to 10713
  154.1974  135.6417  153.5077 H   0  0  0  0  0  0  0  0  0  0  0  0  # atno 10763 bound_to 10752
  153.0020  135.5443  154.6351 H   0  0  0  0  0  0  0  0  0  0  0  0  # atno 10764 bound_to 10752
  154.5756  135.2920  155.0757 H   0  0  0  0  0  0  0  0  0  0  0  0  # atno 10765 bound_to 10752
  140.0683  134.5506  155.9075 H   0  0  0  0  0  0  0  0  0  0  0  0  # atno 11005 bound_to 11000
  145.7016  141.0134  143.1501 LP  0  0  0  0  0  0  0  0  0  0  0  0  # atno 17320 bound_to 7965
  144.7037  139.8651  143.7436 LP  0  0  0  0  0  0  0  0  0  0  0  0  # atno 17321 bound_to 7965
  139.6652  144.0117  152.2718 LP  0  0  0  0  0  0  0  0  0  0  0  0  # atno 17342 bound_to 10162
  139.9698  144.6501  150.8000 LP  0  0  0  0  0  0  0  0  0  0  0  0  # atno 17343 bound_to 10162
  156.6023  130.8552  151.3435 LP  0  0  0  0  0  0  0  0  0  0  0  0  # atno 17370 bound_to 10713
  157.7259  130.9622  150.1633 LP  0  0  0  0  0  0  0  0  0  0  0  0  # atno 17371 bound_to 10713
  141.2001  133.6611  156.5881 LP  0  0  0  0  0  0  0  0  0  0  0  0  # atno 17394 bound_to 11000
  140.3666  134.7642  157.4570 LP  0  0  0  0  0  0  0  0  0  0  0  0  # atno 17395 bound_to 11000

$$$$
