AV-unprocessed.smi:21|AV-procd|sdf|128|dock6
  -GOLD-   2262015313D 1   1.00000     0.00000
 Structure written by MMmdl.
 62 65  0  0  0  0  0  0  0  0  2 V2000
  146.5695  130.3430  152.4258 C   0  0  0  0  0  0  0  0  0  0  0  0
  147.4585  130.6945  153.4743 O   0  0  0  0  0  0  0  0  0  0  0  0
  148.0790  131.9584  153.2929 C   0  0  2  0  0  0  0  0  0  0  0  0
  148.9015  132.4028  154.4970 C   0  0  0  0  0  0  0  0  0  0  0  0
  148.9615  133.9324  154.3606 C   0  0  2  0  0  0  0  0  0  0  0  0
  149.1935  134.6795  155.7009 C   0  0  0  0  0  0  0  0  0  0  0  0
  150.6078  134.8655  156.0320 N   0  0  0  0  0  0  0  0  0  0  0  0
  151.3041  133.7468  156.6615 C   0  0  0  0  0  0  0  0  0  0  0  0
  151.0499  136.1254  156.2976 C   0  0  0  0  0  0  0  0  0  0  0  0
  152.2892  136.4914  155.8723 N   0  0  0  0  0  0  0  0  0  0  0  0
  152.7803  137.6988  156.1629 C   0  0  0  0  0  0  0  0  0  0  0  0
  152.2131  138.6815  156.8625 N   0  0  0  0  0  0  0  0  0  0  0  0
  150.9631  138.3332  157.2786 C   0  0  0  0  0  0  0  0  0  0  0  0
  150.3041  137.0943  157.0325 C   0  0  0  0  0  0  0  0  0  0  0  0
  149.0316  137.1253  157.5928 N   0  0  0  0  0  0  0  0  0  0  0  0
  148.9516  138.3000  158.1541 C   0  0  0  0  0  0  0  0  0  0  0  0
  150.0810  139.0777  158.0416 N   0  0  0  0  0  0  0  0  0  0  0  0
  150.2738  140.4102  158.5840 C   0  0  0  0  0  0  0  0  0  0  0  0
  150.9313  141.4236  157.6046 C   0  0  1  0  0  0  0  0  0  0  0  0
  150.0677  141.5196  156.3229 C   0  0  0  0  0  0  0  0  0  0  0  0
  148.8864  142.2613  156.5485 O   0  0  0  0  0  0  0  0  0  0  0  0
  151.1716  142.8282  158.2387 C   0  0  2  0  0  0  0  0  0  0  0  0
  151.8901  143.8265  157.3420 C   0  0  0  0  0  0  0  0  0  0  0  0
  152.3744  144.8723  158.3354 C   0  0  0  0  0  0  0  0  0  0  0  0
  152.7468  144.1281  159.4839 O   0  0  0  0  0  0  0  0  0  0  0  0
  152.0948  142.8623  159.4700 C   0  0  0  0  0  0  0  0  0  0  0  0
  147.7235  134.3116  153.6144 N   0  3  2  0  0  0  0  0  0  0  0  0
  146.8136  135.3017  154.2374 C   0  0  0  0  0  0  0  0  0  0  0  0
  147.0331  133.0660  153.2086 C   0  0  0  0  0  0  0  0  0  0  0  0
  148.6908  131.9690  152.3888 H   0  0  0  0  0  0  0  0  0  0  0  0
  149.7827  134.1758  153.6852 H   0  0  0  0  0  0  0  0  0  0  0  0
  146.1014  129.3852  152.6524 H   0  0  0  0  0  0  0  0  0  0  0  0
  147.0922  130.2389  151.4744 H   0  0  0  0  0  0  0  0  0  0  0  0
  145.7784  131.0850  152.3123 H   0  0  0  0  0  0  0  0  0  0  0  0
  148.3788  132.1284  155.4147 H   0  0  0  0  0  0  0  0  0  0  0  0
  149.8896  131.9428  154.5216 H   0  0  0  0  0  0  0  0  0  0  0  0
  148.7609  135.6781  155.6389 H   0  0  0  0  0  0  0  0  0  0  0  0
  148.6598  134.1830  156.5073 H   0  0  0  0  0  0  0  0  0  0  0  0
  152.3818  133.8269  156.5127 H   0  0  0  0  0  0  0  0  0  0  0  0
  150.9802  132.8000  156.2289 H   0  0  0  0  0  0  0  0  0  0  0  0
  151.1028  133.7157  157.7330 H   0  0  0  0  0  0  0  0  0  0  0  0
  153.7727  137.9036  155.7889 H   0  0  0  0  0  0  0  0  0  0  0  0
  148.0693  138.6246  158.6867 H   0  0  0  0  0  0  0  0  0  0  0  0
  149.2930  140.7650  158.9017 H   0  0  0  0  0  0  0  0  0  0  0  0
  150.8753  140.3300  159.4904 H   0  0  0  0  0  0  0  0  0  0  0  0
  151.9028  141.0312  157.3013 H   0  0  0  0  0  0  0  0  0  0  0  0
  150.6313  141.9771  155.5092 H   0  0  0  0  0  0  0  0  0  0  0  0
  149.7498  140.5362  155.9797 H   0  0  0  0  0  0  0  0  0  0  0  0
  148.9927  143.1205  156.1694 H   0  0  0  0  0  0  0  0  0  0  0  0
  150.2094  143.2628  158.5150 H   0  0  0  0  0  0  0  0  0  0  0  0
  152.7434  143.3561  156.8510 H   0  0  0  0  0  0  0  0  0  0  0  0
  151.2470  144.2601  156.5758 H   0  0  0  0  0  0  0  0  0  0  0  0
  153.2062  145.4644  157.9535 H   0  0  0  0  0  0  0  0  0  0  0  0
  151.5636  145.5518  158.6012 H   0  0  0  0  0  0  0  0  0  0  0  0
  151.5486  142.7258  160.4018 H   0  0  0  0  0  0  0  0  0  0  0  0
  152.8630  142.0907  159.4111 H   0  0  0  0  0  0  0  0  0  0  0  0
  146.4295  134.9467  155.1947 H   0  0  0  0  0  0  0  0  0  0  0  0
  145.9607  135.4864  153.5835 H   0  0  0  0  0  0  0  0  0  0  0  0
  147.3141  136.2578  154.3892 H   0  0  0  0  0  0  0  0  0  0  0  0
  146.5947  133.1534  152.2142 H   0  0  0  0  0  0  0  0  0  0  0  0
  146.2250  132.8525  153.9111 H   0  0  0  0  0  0  0  0  0  0  0  0
  148.0525  134.7371  152.7593 H   0  0  0  0  0  0  0  0  0  0  0  0
  1  2  1  0  0  0  0
  1 32  1  0  0  0  0
  1 33  1  0  0  0  0
  1 34  1  0  0  0  0
  2  3  1  0  0  0  0
  3 30  1  0  0  0  0
  3 29  1  0  0  0  0
  3  4  1  0  0  0  0
  4  5  1  0  0  0  0
  4 35  1  0  0  0  0
  4 36  1  0  0  0  0
  5 31  1  0  0  0  0
  5  6  1  0  0  0  0
  5 27  1  0  0  0  0
  6  7  1  0  0  0  0
  6 37  1  0  0  0  0
  6 38  1  0  0  0  0
  7  8  1  0  0  0  0
  7  9  1  0  0  0  0
  8 39  1  0  0  0  0
  8 40  1  0  0  0  0
  8 41  1  0  0  0  0
  9 14  1  0  0  0  0
  9 10  2  0  0  0  0
 10 11  1  0  0  0  0
 11 12  2  0  0  0  0
 11 42  1  0  0  0  0
 12 13  1  0  0  0  0
 13 17  1  0  0  0  0
 13 14  2  0  0  0  0
 14 15  1  0  0  0  0
 15 16  2  0  0  0  0
 16 17  1  0  0  0  0
 16 43  1  0  0  0  0
 17 18  1  0  0  0  0
 18 19  1  0  0  0  0
 18 44  1  0  0  0  0
 18 45  1  0  0  0  0
 19 20  1  0  0  0  0
 19 22  1  0  0  0  0
 19 46  1  0  0  0  0
 20 21  1  0  0  0  0
 20 47  1  0  0  0  0
 20 48  1  0  0  0  0
 21 49  1  0  0  0  0
 22 26  1  0  0  0  0
 22 23  1  0  0  0  0
 22 50  1  0  0  0  0
 23 24  1  0  0  0  0
 23 51  1  0  0  0  0
 23 52  1  0  0  0  0
 24 25  1  0  0  0  0
 24 53  1  0  0  0  0
 24 54  1  0  0  0  0
 25 26  1  0  0  0  0
 26 55  1  0  0  0  0
 26 56  1  0  0  0  0
 27 28  1  0  0  0  0
 27 29  1  0  0  0  0
 27 62  1  0  0  0  0
 28 57  1  0  0  0  0
 28 58  1  0  0  0  0
 28 59  1  0  0  0  0
 29 60  1  0  0  0  0
 29 61  1  0  0  0  0
M  CHG  1  27   1
M  END
> <s_m_source_file>
AV-unprocessed.smi

> <i_m_source_file_index>
21

> <i_lp_mmshare_version>
43012

> <i_f3d_flags>
0

> <s_epik_input>
W0NIM11PW0NASF0xW0NIMl1bQ0BIXShOKFtDSDNdKVtDSDJdMSlbQ0gyXU4oW0NIM10pYyhuW2NIXW4yKWMoYzIzKW5bY0hdbjNbQ0gyXVtDQEhdKFtDSDJdW09IXSlbQ0BASF00W0NIMl1bQ0gyXU9bQ0gyXTQ=

> <s_epik_cmdline>
J2VwaWtfcHl0aG9uJywgJy1waCcsICc3LjAnLCAnLXRuJywgJzgnLCAnLW1hJywgJzIwMCcsICctbWV0YWxfYmluZGluZycsICctaW1hZScsICc8aW5maWxlLm1hZT4nLCAnLW9tYWUnLCAnPG91dGZpbGUubWFlPic=

> <r_lp_tautomer_probability>
1

> <r_epik_Ionization_Penalty>
0.0157465

> <r_epik_Ionization_Penalty_Charging>
0.015354

> <r_epik_Ionization_Penalty_Neutral>
0.000392529

> <r_epik_State_Penalty>
0.0120612

> <r_epik_Charging_Adjusted_Penalty>
0.0274152

> <i_epik_Tot_Q>
1

> <i_epik_Tot_abs_Q>
1

> <r_epik_Metal_State_Penalty>
0.0121253

> <b_epik_Metal_Only>
0

> <s_lp_Force_Field>
OPLS_2005

> <r_lp_Energy>
60.6524

> <b_lp_Chiralities_Consistent>
1

> <s_lp_Variant>
AV-unprocessed.smi:21-8

> <Gold.Version>
5.8.1

> <Gold.Id.Protein>
6NUR|6NUR_protein|mol2

> <Gold.PLP.Fitness>
50.6935

> <Gold.PLP.PLP>
-41.5034

> <Gold.PLP.part.hbond>
-2.7963

> <Gold.PLP.part.metal>
0.0000

> <Gold.PLP.part.buried>
-5.0970

> <Gold.PLP.part.nonpolar>
-34.2716

> <Gold.PLP.part.repulsive>
0.1313

> <Gold.PLP.ligand.clash>
0.0000

> <Gold.PLP.ligand.torsion>
1.7690

> <Gold.PLP.Chemscore.Hbond>
4.0000

> <Gold.PLP.Chemscore.CHOScore>
0.0000

> <Gold.PLP.Chemscore.Metal>
0.0000

> <Gold.Chemscore.Hbonds>
donor molecule, donor type, donor heavy atom, donor atom, acceptor molecule, acceptor atom, score
      L1  H    21    49       P1  8028  1.00
      L1  H    27    62       P1  7948  2.00
      P1  H 10752 10764       L1    10  1.00

> <Gold.PLP.Chemscore.Internal.Correction>
0.7281

> <Gold.Rescore>
     Score         DG    S(hbond)    S(metal)    S(lipo)     H(rot)  DE(clash)    DE(int)     intcor
     17.39     -19.21       2.83        0.00     103.99       3.08       0.03       1.79       ----

> <Gold.Chemscore.Fitness>
17.3898

> <Gold.Chemscore.DG>
-19.2133

> <Gold.Chemscore.ZeroCoef>
-5.4800

> <Gold.Chemscore.Hbond>
2.8265

> <Gold.Chemscore.Metal>
0.0000

> <Gold.Chemscore.Lipo>
103.9918

> <Gold.Chemscore.Internal_Hbond>
0.0000

> <Gold.Chemscore.DEClash>
0.0328

> <Gold.Chemscore.DEInternal>
1.7908

> <Gold.Chemscore.Rot>
3.0758

> <Gold.Chemscore.Internal.Correction>
   9.000000E+99

> <Gold.Chemscore.Hbonds>
donor molecule, donor type, donor heavy atom, donor atom, acceptor molecule, acceptor atom, score
      L1  H    21    49       P1  8028  1.00
      L1  H    27    62       P1  7948  0.70
      P1  H 10752 10764       L1    10  0.90

> <Gold.Chemscore.Hbond.Weighted>
-9.4404

> <Gold.Chemscore.Metal.Weighted>
-0.0000

> <Gold.Chemscore.Lipo.Weighted>
-12.1670

> <Gold.Chemscore.Internal_Hbond.Weighted>
0.0000

> <Gold.Chemscore.DEClash.Weighted>
0.0328

> <Gold.Chemscore.DEInternal.Weighted>
1.7908

> <Gold.Chemscore.Rot.Weighted>
7.8741

> <Gold.Chemscore.Internal.Correction.Weighted>
   9.000000E+99

> <Gold.Protein.RotatedTorsions>
[ 6907 6896 6895 6894 ] final  125.68 input  -60.11 | X-H torsion
[ 7974 7965 7964 7962 ] final  -57.96 input  175.53 | X-H torsion
[ 8008 7997 7996 7995 ] final  -24.35 input   59.86 | X-H torsion
[ 10167 10162 10161 10158 ] final  -32.91 input  -65.29 | X-H torsion
[ 10718 10713 10712 10709 ] final  122.35 input   66.30 | X-H torsion
[ 10763 10752 10751 10750 ] final  -28.27 input  -60.55 | X-H torsion
[ 11005 11000 10999 10996 ] final  131.14 input  -57.11 | X-H torsion

> <Gold.Protein.ActiveResidues>
 VAL166  LYS551  ARG553  GLY616  TRP617  ASP618  TYR619  PRO620  LYS621  CYS622 
 ASP623  PHE694  ASN695  SER759  ASP760  ASP761  ALA762  ILE779  LEU786  VAL792 
 PHE793  MET794  SER795  GLU796  ALA797  LYS798  CYS799  TRP800  GLU811  SER814 

> <Gold.Protein.RotatedAtoms>
  152.3970  133.6762  159.6284 H   0  0  0  0  0  0  0  0  0  0  0  0  # atno 6907 bound_to 6896
  150.7868  133.8856  159.3307 H   0  0  0  0  0  0  0  0  0  0  0  0  # atno 6908 bound_to 6896
  151.6630  135.0988  160.0234 H   0  0  0  0  0  0  0  0  0  0  0  0  # atno 6909 bound_to 6896
  145.8449  140.8392  143.0015 H   0  0  0  0  0  0  0  0  0  0  0  0  # atno 7974 bound_to 7965
  154.4534  140.1956  156.0451 H   0  0  0  0  0  0  0  0  0  0  0  0  # atno 8008 bound_to 7997
  156.0696  140.3286  155.7532 H   0  0  0  0  0  0  0  0  0  0  0  0  # atno 8009 bound_to 7997
  155.5284  140.0576  157.2884 H   0  0  0  0  0  0  0  0  0  0  0  0  # atno 8010 bound_to 7997
  140.7213  143.3660  151.1871 H   0  0  0  0  0  0  0  0  0  0  0  0  # atno 10167 bound_to 10162
  157.5749  131.1080  150.8298 H   0  0  0  0  0  0  0  0  0  0  0  0  # atno 10718 bound_to 10713
  153.7456  135.6929  153.4957 H   0  0  0  0  0  0  0  0  0  0  0  0  # atno 10763 bound_to 10752
  153.2039  135.4427  155.0298 H   0  0  0  0  0  0  0  0  0  0  0  0  # atno 10764 bound_to 10752
  154.8205  135.3420  154.6979 H   0  0  0  0  0  0  0  0  0  0  0  0  # atno 10765 bound_to 10752
  139.9712  134.9577  156.9395 H   0  0  0  0  0  0  0  0  0  0  0  0  # atno 11005 bound_to 11000
  144.6731  140.0868  143.7467 LP  0  0  0  0  0  0  0  0  0  0  0  0  # atno 17320 bound_to 7965
  145.9423  139.2677  143.1261 LP  0  0  0  0  0  0  0  0  0  0  0  0  # atno 17321 bound_to 7965
  139.7221  143.9206  152.2989 LP  0  0  0  0  0  0  0  0  0  0  0  0  # atno 17342 bound_to 10162
  139.8967  144.6935  150.8710 LP  0  0  0  0  0  0  0  0  0  0  0  0  # atno 17343 bound_to 10162
  156.8759  130.5162  149.5294 LP  0  0  0  0  0  0  0  0  0  0  0  0  # atno 17370 bound_to 10713
  156.0794  130.5808  150.9534 LP  0  0  0  0  0  0  0  0  0  0  0  0  # atno 17371 bound_to 10713
  140.5289  134.0833  155.7310 LP  0  0  0  0  0  0  0  0  0  0  0  0  # atno 17394 bound_to 11000
  141.1392  133.9168  157.2365 LP  0  0  0  0  0  0  0  0  0  0  0  0  # atno 17395 bound_to 11000

$$$$
