#       Name:                AV-unprocessed.smi:3304
#       Creating user name   scv26
#       Creation time:       Fri Mar 27 19:03:13 2020


#       File generated by GOLD software.
#

@<TRIPOS>MOLECULE
AV-unprocessed.smi:3304
    47    48     1
SMALL
NO_CHARGES


@<TRIPOS>ATOM
      1 ****        -3.9948   2.4311   1.7356 C.3            1 S1                 0.0000
      2 ****        -3.6280   3.0243   0.4135 C.2            1 S1                 0.0000
      3 ****        -2.9267   2.5003  -0.6394 C.2            1 S1                 0.0000
      4 ****        -2.3018   1.1394  -0.7799 C.3            1 S1                 0.0000
      5 ****        -0.9572   1.0581  -0.0449 C.3            1 S1                 0.0000
      6 ****        -0.3481  -0.2768  -0.1986 N.4            1 S1                 1.0000
      7 ****         0.9427  -0.4324   0.5014 C.3            1 S1                 0.0000
      8 ****         1.5436  -1.8330   0.2809 C.3            1 S1                 0.0000
      9 ****         2.7429  -2.0706   1.2200 C.3            1 S1                 0.0000
     10 ****         3.3611  -3.4651   1.0166 C.3            1 S1                 0.0000
     11 ****         3.7737  -3.7197  -0.4465 C.3            1 S1                 0.0000
     12 ****         5.0406  -2.9436  -0.8474 C.3            1 S1                 0.0000
     13 ****         2.5886  -3.4495  -1.3948 C.3            1 S1                 0.0000
     14 ****         1.9711  -2.0557  -1.1857 C.3            1 S1                 0.0000
     15 ****        -2.9177   3.5547  -1.5959 C.2            1 S1                 0.0000
     16 ****        -3.5517   4.6344  -1.1757 N.2            1 S1                 0.0000
     17 ****        -3.9899   4.3101   0.0581 N.pl3          1 S1                 0.0000
     18 ****        -4.7422   5.2842   0.8250 C.3            1 S1                 0.0000
     19 ****        -3.6141   1.4146   1.8332 H              1 S1                 0.0000
     20 ****        -5.0776   2.3952   1.8569 H              1 S1                 0.0000
     21 ****        -3.5819   3.0225   2.5532 H              1 S1                 0.0000
     22 ****        -2.9724   0.3701  -0.3953 H              1 S1                 0.0000
     23 ****        -2.1504   0.8986  -1.8329 H              1 S1                 0.0000
     24 ****        -0.2718   1.8112  -0.4363 H              1 S1                 0.0000
     25 ****        -1.0969   1.2687   1.0163 H              1 S1                 0.0000
     26 ****        -0.9917  -0.9685   0.1586 H              1 S1                 0.0000
     27 ****         1.6400   0.3360   0.1643 H              1 S1                 0.0000
     28 ****         0.7753  -0.2649   1.5662 H              1 S1                 0.0000
     29 ****         0.7799  -2.5716   0.5310 H              1 S1                 0.0000
     30 ****         3.5004  -1.3031   1.0572 H              1 S1                 0.0000
     31 ****         2.4269  -1.9682   2.2588 H              1 S1                 0.0000
     32 ****         4.2182  -3.5943   1.6785 H              1 S1                 0.0000
     33 ****         2.6334  -4.2203   1.3169 H              1 S1                 0.0000
     34 ****         4.0243  -4.7778  -0.5334 H              1 S1                 0.0000
     35 ****         4.8963  -1.8648  -0.7952 H              1 S1                 0.0000
     36 ****         5.3406  -3.1865  -1.8671 H              1 S1                 0.0000
     37 ****         5.8755  -3.1960  -0.1932 H              1 S1                 0.0000
     38 ****         2.9022  -3.5669  -2.4327 H              1 S1                 0.0000
     39 ****         1.8194  -4.2046  -1.2262 H              1 S1                 0.0000
     40 ****         1.1131  -1.9461  -1.8496 H              1 S1                 0.0000
     41 ****         2.6849  -1.2877  -1.4854 H              1 S1                 0.0000
     42 ****        -2.4694   3.5666  -2.5785 H              1 S1                 0.0000
     43 ****        -5.7173   4.8721   1.0858 H              1 S1                 0.0000
     44 ****        -4.8898   6.1991   0.2492 H              1 S1                 0.0000
     45 ****        -4.2008   5.5270   1.7398 H              1 S1                 0.0000
     46 ****        -0.2010  -0.4500  -1.1828 H              1 S1                 0.0000
     47 ****        -3.6785   5.4984  -1.6629 LP             1 S1                 0.0000
@<TRIPOS>BOND
    1    1    2 1     
    2    1   19 1     
    3    1   20 1     
    4    1   21 1     
    5    2   17 1     
    6    2    3 2     
    7    3    4 1     
    8    3   15 1     
    9    4    5 1     
   10    4   22 1     
   11    4   23 1     
   12    5    6 1     
   13    5   24 1     
   14    5   25 1     
   15    6    7 1     
   16    6   26 1     
   17    6   46 1     
   18    7    8 1     
   19    7   27 1     
   20    7   28 1     
   21    8   14 1     
   22    8    9 1     
   23    8   29 1     
   24    9   10 1     
   25    9   30 1     
   26    9   31 1     
   27   10   11 1     
   28   10   32 1     
   29   10   33 1     
   30   11   12 1     
   31   11   13 1     
   32   11   34 1     
   33   12   35 1     
   34   12   36 1     
   35   12   37 1     
   36   13   14 1     
   37   13   38 1     
   38   13   39 1     
   39   14   40 1     
   40   14   41 1     
   41   15   16 2     
   42   15   42 1     
   43   16   17 1     
   44   17   18 1     
   45   18   43 1     
   46   18   44 1     
   47   18   45 1     
   48   16   47 1     
@<TRIPOS>SUBSTRUCTURE
      1 S1             1
@<TRIPOS>SET
LONE_PAIRS      STATIC     ATOMS    <user>   **** ""
1 47
DONOR_HYDROGENS      STATIC     ATOMS    <user>   **** ""
2 26 46
ATOM$BLUE        STATIC     ATOMS    COLORGROUP SYSTEM
1 47
ATOM$RED        STATIC     ATOMS    COLORGROUP SYSTEM
2 26 46
