AV-unprocessed.smi:618|AV-procd|sdf|3084|dock1
  -GOLD-   22720 0 03D 1   1.00000     0.00000
 Structure written by MMmdl.
 40 42  0  0  0  0  0  0  0  0  1 V2000
  144.7040  136.4797  152.6265 O   0  0  0  0  0  0  0  0  0  0  0  0
  145.9170  136.3521  152.4599 C   0  0  0  0  0  0  0  0  0  0  0  0
  146.8147  137.2748  152.8316 N   0  0  0  0  0  0  0  0  0  0  0  0
  146.4927  138.5419  153.4793 C   0  0  0  0  0  0  0  0  0  0  0  0
  147.3417  139.7032  152.9190 C   0  0  2  0  0  0  0  0  0  0  0  0
  148.8476  139.5525  153.2403 C   0  0  0  0  0  0  0  0  0  0  0  0
  149.1108  139.8718  154.6312 N   0  0  0  0  0  0  0  0  0  0  0  0
  150.4938  139.8657  155.0485 C   0  0  0  0  0  0  0  0  0  0  0  0
  150.4924  140.6248  156.3867 C   0  0  0  0  0  0  0  0  0  0  0  0
  149.1817  141.4417  156.3641 C   0  0  0  0  0  0  0  0  0  0  0  0
  148.6526  141.1963  154.9497 C   0  0  2  0  0  0  0  0  0  0  0  0
  147.1384  141.3133  154.7319 C   0  0  0  0  0  0  0  0  0  0  0  0
  146.8517  140.9765  153.3708 O   0  0  0  0  0  0  0  0  0  0  0  0
  146.5172  135.2808  151.9138 N   0  0  0  0  0  0  0  0  0  0  0  0
  145.9101  134.1170  151.3702 C   0  0  0  0  0  0  0  0  0  0  0  0
  144.5036  134.0819  151.2763 C   0  0  0  0  0  0  0  0  0  0  0  0
  143.8798  132.9307  150.7586 C   0  0  0  0  0  0  0  0  0  0  0  0
  144.6913  131.8496  150.3634 C   0  0  0  0  0  0  0  0  0  0  0  0
  146.0372  131.8597  150.4618 N   0  0  0  0  0  0  0  0  0  0  0  0
  146.6292  132.9682  150.9565 C   0  0  0  0  0  0  0  0  0  0  0  0
  147.7922  137.0851  152.6651 H   0  0  0  0  0  0  0  0  0  0  0  0
  145.4293  138.7355  153.3415 H   0  0  0  0  0  0  0  0  0  0  0  0
  146.6436  138.4535  154.5565 H   0  0  0  0  0  0  0  0  0  0  0  0
  147.2371  139.6966  151.8335 H   0  0  0  0  0  0  0  0  0  0  0  0
  149.1870  138.5412  153.0144 H   0  0  0  0  0  0  0  0  0  0  0  0
  149.4190  140.2238  152.5976 H   0  0  0  0  0  0  0  0  0  0  0  0
  150.8818  138.8511  155.1407 H   0  0  0  0  0  0  0  0  0  0  0  0
  151.1086  140.3991  154.3216 H   0  0  0  0  0  0  0  0  0  0  0  0
  150.4941  139.9328  157.2298 H   0  0  0  0  0  0  0  0  0  0  0  0
  151.3712  141.2641  156.4760 H   0  0  0  0  0  0  0  0  0  0  0  0
  148.4857  141.0548  157.1098 H   0  0  0  0  0  0  0  0  0  0  0  0
  149.3419  142.5012  156.5659 H   0  0  0  0  0  0  0  0  0  0  0  0
  149.1451  141.9085  154.2841 H   0  0  0  0  0  0  0  0  0  0  0  0
  146.5900  140.6582  155.4096 H   0  0  0  0  0  0  0  0  0  0  0  0
  146.8007  142.3310  154.9272 H   0  0  0  0  0  0  0  0  0  0  0  0
  147.5265  135.2763  151.9344 H   0  0  0  0  0  0  0  0  0  0  0  0
  143.9080  134.9260  151.5918 H   0  0  0  0  0  0  0  0  0  0  0  0
  142.8051  132.8763  150.6675 H   0  0  0  0  0  0  0  0  0  0  0  0
  144.2471  130.9504  149.9627 H   0  0  0  0  0  0  0  0  0  0  0  0
  147.7035  132.9087  151.0367 H   0  0  0  0  0  0  0  0  0  0  0  0
  1  2  2  0  0  0  0
  2  3  1  0  0  0  0
  2 14  1  0  0  0  0
  3  4  1  0  0  0  0
  3 21  1  0  0  0  0
  4  5  1  0  0  0  0
  4 22  1  0  0  0  0
  4 23  1  0  0  0  0
  5 13  1  0  0  0  0
  5  6  1  0  0  0  0
  5 24  1  0  0  0  0
  6  7  1  0  0  0  0
  6 25  1  0  0  0  0
  6 26  1  0  0  0  0
  7 11  1  0  0  0  0
  7  8  1  0  0  0  0
  8  9  1  0  0  0  0
  8 27  1  0  0  0  0
  8 28  1  0  0  0  0
  9 10  1  0  0  0  0
  9 29  1  0  0  0  0
  9 30  1  0  0  0  0
 10 11  1  0  0  0  0
 10 31  1  0  0  0  0
 10 32  1  0  0  0  0
 11 12  1  0  0  0  0
 11 33  1  0  0  0  0
 12 13  1  0  0  0  0
 12 34  1  0  0  0  0
 12 35  1  0  0  0  0
 14 15  1  0  0  0  0
 14 36  1  0  0  0  0
 15 20  1  0  0  0  0
 15 16  2  0  0  0  0
 16 17  1  0  0  0  0
 16 37  1  0  0  0  0
 17 18  2  0  0  0  0
 17 38  1  0  0  0  0
 18 19  1  0  0  0  0
 18 39  1  0  0  0  0
 19 20  2  0  0  0  0
 20 40  1  0  0  0  0
M  END
> <s_m_source_file>
AV-unprocessed.smi

> <i_m_source_file_index>
618

> <i_lp_mmshare_version>
43012

> <i_f3d_flags>
0

> <s_epik_input>
W2NIXTFuW2NIXVtjSF1bY0hdYzFbTkhdQyg9TylbTkhdW0NIMl1bQ0BIXShbQ0gyXTIpT1tDSDJdW0NAQEhdKE4yMylbQ0gyXVtDSDJdW0NIMl0z

> <s_epik_cmdline>
J2VwaWtfcHl0aG9uJywgJy1waCcsICc3LjAnLCAnLXRuJywgJzgnLCAnLW1hJywgJzIwMCcsICctbWV0YWxfYmluZGluZycsICctaW1hZScsICc8aW5maWxlLm1hZT4nLCAnLW9tYWUnLCAnPG91dGZpbGUubWFlPic=

> <r_epik_Ionization_Penalty>
1.07277

> <r_epik_Ionization_Penalty_Charging>
0

> <r_epik_Ionization_Penalty_Neutral>
1.07277

> <r_epik_State_Penalty>
1.13623

> <r_epik_Charging_Adjusted_Penalty>
1.13623

> <i_epik_Tot_Q>
0

> <i_epik_Tot_abs_Q>
0

> <r_epik_Metal_State_Penalty>
1.13277

> <b_epik_Metal_Only>
0

> <s_lp_Force_Field>
OPLS_2005

> <r_lp_Energy>
52.4513

> <b_lp_Chiralities_Consistent>
1

> <s_lp_Variant>
AV-unprocessed.smi:618-11

> <Gold.Version>
5.8.1

> <Gold.Id.Protein>
6NUR|6NUR_protein|mol2

> <Gold.PLP.Fitness>
36.4659

> <Gold.PLP.PLP>
-28.5569

> <Gold.PLP.part.hbond>
-2.0000

> <Gold.PLP.part.metal>
0.0000

> <Gold.PLP.part.buried>
2.0649

> <Gold.PLP.part.nonpolar>
-29.4545

> <Gold.PLP.part.repulsive>
0.6752

> <Gold.PLP.ligand.clash>
0.0000

> <Gold.PLP.ligand.torsion>
0.1783

> <Gold.PLP.Chemscore.Hbond>
1.9920

> <Gold.PLP.Chemscore.CHOScore>
0.7597

> <Gold.PLP.Chemscore.Metal>
0.0000

> <Gold.Chemscore.Hbonds>
donor molecule, donor type, donor heavy atom, donor atom, acceptor molecule, acceptor atom, score
      L1  H     3    21       P1  7948  0.98
      L1  H    14    36       P1  7948  0.93
      L1  C    20    40       P1 10747  0.84

> <Gold.PLP.Chemscore.Internal.Correction>
0.0105

> <Gold.Rescore>
     Score         DG    S(hbond)    S(metal)    S(lipo)     H(rot)  DE(clash)    DE(int)     intcor
     15.16     -18.51       1.91        0.00      83.97       1.25       1.74       1.61       ----

> <Gold.Chemscore.Fitness>
15.1583

> <Gold.Chemscore.DG>
-18.5079

> <Gold.Chemscore.ZeroCoef>
-5.4800

> <Gold.Chemscore.Hbond>
1.9142

> <Gold.Chemscore.Metal>
0.0000

> <Gold.Chemscore.Lipo>
83.9709

> <Gold.Chemscore.Internal_Hbond>
0.0000

> <Gold.Chemscore.DEClash>
1.7388

> <Gold.Chemscore.DEInternal>
1.6107

> <Gold.Chemscore.Rot>
1.2461

> <Gold.Chemscore.Internal.Correction>
   9.000000E+99

> <Gold.Chemscore.Hbonds>
donor molecule, donor type, donor heavy atom, donor atom, acceptor molecule, acceptor atom, score
      L1  H     3    21       P1  7948  0.93
      L1  H    14    36       P1  7948  0.88

> <Gold.Chemscore.Hbond.Weighted>
-6.3934

> <Gold.Chemscore.Metal.Weighted>
-0.0000

> <Gold.Chemscore.Lipo.Weighted>
-9.8246

> <Gold.Chemscore.Internal_Hbond.Weighted>
0.0000

> <Gold.Chemscore.DEClash.Weighted>
1.7388

> <Gold.Chemscore.DEInternal.Weighted>
1.6107

> <Gold.Chemscore.Rot.Weighted>
3.1901

> <Gold.Chemscore.Internal.Correction.Weighted>
   9.000000E+99

> <Gold.Protein.RotatedTorsions>
[ 6907 6896 6895 6894 ] final  162.89 input  -60.11 | X-H torsion
[ 7974 7965 7964 7962 ] final  -28.30 input  175.53 | X-H torsion
[ 8008 7997 7996 7995 ] final  -61.92 input   59.86 | X-H torsion
[ 10167 10162 10161 10158 ] final  -93.62 input  -65.29 | X-H torsion
[ 10718 10713 10712 10709 ] final  -18.95 input   66.30 | X-H torsion
[ 10763 10752 10751 10750 ] final   57.15 input  -60.55 | X-H torsion
[ 11005 11000 10999 10996 ] final  172.84 input  -57.11 | X-H torsion

> <Gold.Protein.ActiveResidues>
 VAL166  LYS551  ARG553  GLY616  TRP617  ASP618  TYR619  PRO620  LYS621  CYS622 
 ASP623  PHE694  ASN695  SER759  ASP760  ASP761  ALA762  ILE779  LEU786  VAL792 
 PHE793  MET794  SER795  GLU796  ALA797  LYS798  CYS799  TRP800  GLU811  SER814 

> <Gold.Protein.RotatedAtoms>
  151.9336  133.3618  159.3939 H   0  0  0  0  0  0  0  0  0  0  0  0  # atno 6907 bound_to 6896
  150.7012  134.4512  159.5346 H   0  0  0  0  0  0  0  0  0  0  0  0  # atno 6908 bound_to 6896
  152.2156  134.8460  160.0543 H   0  0  0  0  0  0  0  0  0  0  0  0  # atno 6909 bound_to 6896
  146.1297  140.5265  142.8698 H   0  0  0  0  0  0  0  0  0  0  0  0  # atno 7974 bound_to 7965
  154.4472  140.1007  156.6506 H   0  0  0  0  0  0  0  0  0  0  0  0  # atno 8008 bound_to 7997
  155.5402  140.3483  155.4426 H   0  0  0  0  0  0  0  0  0  0  0  0  # atno 8009 bound_to 7997
  156.0602  140.1324  156.9939 H   0  0  0  0  0  0  0  0  0  0  0  0  # atno 8010 bound_to 7997
  140.3228  143.3039  152.0028 H   0  0  0  0  0  0  0  0  0  0  0  0  # atno 10167 bound_to 10162
  156.5525  130.4705  149.6445 H   0  0  0  0  0  0  0  0  0  0  0  0  # atno 10718 bound_to 10713
  152.9844  135.5651  154.5344 H   0  0  0  0  0  0  0  0  0  0  0  0  # atno 10763 bound_to 10752
  154.4810  135.2788  155.1573 H   0  0  0  0  0  0  0  0  0  0  0  0  # atno 10764 bound_to 10752
  154.3082  135.6294  153.5507 H   0  0  0  0  0  0  0  0  0  0  0  0  # atno 10765 bound_to 10752
  140.3341  134.7333  157.4155 H   0  0  0  0  0  0  0  0  0  0  0  0  # atno 11005 bound_to 11000
  144.7678  140.5570  143.6691 LP  0  0  0  0  0  0  0  0  0  0  0  0  # atno 17320 bound_to 7965
  145.5287  139.1475  143.3512 LP  0  0  0  0  0  0  0  0  0  0  0  0  # atno 17321 bound_to 7965
  139.4871  144.6298  151.7093 LP  0  0  0  0  0  0  0  0  0  0  0  0  # atno 17342 bound_to 10162
  140.5468  144.0490  150.6110 LP  0  0  0  0  0  0  0  0  0  0  0  0  # atno 17343 bound_to 10162
  156.2872  130.7104  151.1943 LP  0  0  0  0  0  0  0  0  0  0  0  0  # atno 17370 bound_to 10713
  157.7385  131.0540  150.5293 LP  0  0  0  0  0  0  0  0  0  0  0  0  # atno 17371 bound_to 10713
  140.0836  134.5697  155.8515 LP  0  0  0  0  0  0  0  0  0  0  0  0  # atno 17394 bound_to 11000
  141.2056  133.6648  156.6190 LP  0  0  0  0  0  0  0  0  0  0  0  0  # atno 17395 bound_to 11000

$$$$
