#       Name:                AV-unprocessed.smi:885
#       Creating user name   scv26
#       Creation time:       Fri Mar 27 01:53:33 2020


#       File generated by GOLD software.
#

@<TRIPOS>MOLECULE
AV-unprocessed.smi:885
    46    48     1
SMALL
NO_CHARGES


@<TRIPOS>ATOM
      1 ****        -4.6088  -0.8740  -0.4641 C.3            1 S1                 0.0000
      2 ****        -4.8650  -0.2976   0.9396 C.3            1 S1                 0.0000
      3 ****        -3.8272   0.7070   1.4712 C.3            1 S1                 0.0000
      4 ****        -2.3605   0.3802   1.1431 C.3            1 S1                 0.0000
      5 ****        -1.9033   0.9182  -0.2307 C.3            1 S1                 0.0000
      6 ****        -0.4070   0.9706  -0.3154 C.2            1 S1                 0.0000
      7 ****         0.2367   2.1230  -0.4622 N.2            1 S1                 0.0000
      8 ****         1.5858   1.7424  -0.4851 O.3            1 S1                 0.0000
      9 ****         1.5916   0.3921  -0.3708 C.2            1 S1                 0.0000
     10 ****         2.8982  -0.3303  -0.2986 C.3            1 S1                 0.0000
     11 ****         3.5151  -0.2879   1.1121 C.3            1 S1                 0.0000
     12 ****         4.8396  -0.9392   1.1025 N.4            1 S1                 1.0000
     13 ****         5.7270  -0.3455   0.0826 C.3            1 S1                 0.0000
     14 ****         5.0427  -0.3697  -1.2960 C.3            1 S1                 0.0000
     15 ****         3.7854   0.2956  -1.2222 O.3            1 S1                 0.0000
     16 ****         0.3793  -0.1403  -0.2430 N.2            1 S1                 0.0000
     17 ****        -2.4968   0.1878  -1.4519 C.3            1 S1                 0.0000
     18 ****        -4.0336   0.1174  -1.4885 C.3            1 S1                 0.0000
     19 ****        -5.5538  -1.2663  -0.8415 H              1 S1                 0.0000
     20 ****        -3.9499  -1.7400  -0.3889 H              1 S1                 0.0000
     21 ****        -5.8411   0.1888   0.9521 H              1 S1                 0.0000
     22 ****        -4.9464  -1.1311   1.6382 H              1 S1                 0.0000
     23 ****        -4.0677   1.7076   1.1104 H              1 S1                 0.0000
     24 ****        -3.9424   0.7613   2.5544 H              1 S1                 0.0000
     25 ****        -1.7511   0.8635   1.9083 H              1 S1                 0.0000
     26 ****        -2.1620  -0.6882   1.2375 H              1 S1                 0.0000
     27 ****        -2.2499   1.9512  -0.2932 H              1 S1                 0.0000
     28 ****         2.7306  -1.3648  -0.6042 H              1 S1                 0.0000
     29 ****         3.6284   0.7442   1.4473 H              1 S1                 0.0000
     30 ****         2.8693  -0.7918   1.8316 H              1 S1                 0.0000
     31 ****         5.2663  -0.8480   2.0136 H              1 S1                 0.0000
     32 ****         5.9643   0.6804   0.3671 H              1 S1                 0.0000
     33 ****         6.6668  -0.8975   0.0557 H              1 S1                 0.0000
     34 ****         5.6665   0.1340  -2.0346 H              1 S1                 0.0000
     35 ****         4.9034  -1.3946  -1.6435 H              1 S1                 0.0000
     36 ****        -2.1590   0.7004  -2.3537 H              1 S1                 0.0000
     37 ****        -2.0883  -0.8215  -1.5178 H              1 S1                 0.0000
     38 ****        -4.3230  -0.2238  -2.4830 H              1 S1                 0.0000
     39 ****        -4.4786   1.1065  -1.3729 H              1 S1                 0.0000
     40 ****         4.7167  -1.9199   0.8939 H              1 S1                 0.0000
     41 ****        -0.1488   3.0425  -0.5382 LP             1 S1                 0.0000
     42 ****         2.0779   2.1585   0.2796 LP             1 S1                 0.0000
     43 ****         2.0114   2.0206  -1.3462 LP             1 S1                 0.0000
     44 ****         3.9377   1.2406  -0.9326 LP             1 S1                 0.0000
     45 ****         3.3638   0.2887  -2.1289 LP             1 S1                 0.0000
     46 ****         0.1159  -1.0978  -0.1254 LP             1 S1                 0.0000
@<TRIPOS>BOND
    1    1   18 1     
    2    1    2 1     
    3    1   19 1     
    4    1   20 1     
    5    2    3 1     
    6    2   21 1     
    7    2   22 1     
    8    3    4 1     
    9    3   23 1     
   10    3   24 1     
   11    4    5 1     
   12    4   25 1     
   13    4   26 1     
   14    5    6 1     
   15    5   17 1     
   16    5   27 1     
   17    6   16 1     
   18    6    7 2     
   19    7    8 1     
   20    8    9 1     
   21    9   10 1     
   22    9   16 2     
   23   10   15 1     
   24   10   11 1     
   25   10   28 1     
   26   11   12 1     
   27   11   29 1     
   28   11   30 1     
   29   12   13 1     
   30   12   31 1     
   31   12   40 1     
   32   13   14 1     
   33   13   32 1     
   34   13   33 1     
   35   14   15 1     
   36   14   34 1     
   37   14   35 1     
   38   17   18 1     
   39   17   36 1     
   40   17   37 1     
   41   18   38 1     
   42   18   39 1     
   43    7   41 1     
   44    8   42 1     
   45    8   43 1     
   46   15   44 1     
   47   15   45 1     
   48   16   46 1     
@<TRIPOS>SUBSTRUCTURE
      1 S1             1
@<TRIPOS>SET
LONE_PAIRS      STATIC     ATOMS    <user>   **** ""
6 41 42 43 44 45 46
DONOR_HYDROGENS      STATIC     ATOMS    <user>   **** ""
2 31 40
ATOM$BLUE        STATIC     ATOMS    COLORGROUP SYSTEM
6 41 42 43 44 45 46
ATOM$RED        STATIC     ATOMS    COLORGROUP SYSTEM
2 31 40
