AV-unprocessed.smi:3217|AV-procd|sdf|12290|dock7
  -GOLD-   2272018133D 1   1.00000     0.00000
 Structure written by MMmdl.
 34 35  0  0  0  0  0  0  0  0  1 V2000
  148.8661  132.7886  155.6410 C   0  0  0  0  0  0  0  0  0  0  0  0
  147.9495  133.5341  154.6602 C   0  0  1  0  0  0  0  0  0  0  0  0
  148.5571  134.8237  154.3342 N   0  0  0  0  0  0  0  0  0  0  0  0
  149.0617  135.7015  155.2134 C   0  0  0  0  0  0  0  0  0  0  0  0
  149.0614  135.5233  156.4309 O   0  0  0  0  0  0  0  0  0  0  0  0
  149.5681  136.7752  154.5828 N   0  0  0  0  0  0  0  0  0  0  0  0
  150.2187  137.9123  155.1353 C   0  0  0  0  0  0  0  0  0  0  0  0
  150.7246  137.9875  156.4563 C   0  0  0  0  0  0  0  0  0  0  0  0
  151.3400  139.1807  156.8818 C   0  0  0  0  0  0  0  0  0  0  0  0
  151.4203  140.2566  155.9769 C   0  0  0  0  0  0  0  0  0  0  0  0
  150.9313  140.2040  154.7204 N   0  0  0  0  0  0  0  0  0  0  0  0
  150.3438  139.0566  154.3191 C   0  0  0  0  0  0  0  0  0  0  0  0
  147.6953  132.7204  153.3750 C   0  0  2  0  0  0  0  0  0  0  0  0
  146.9421  133.4737  152.2751 C   0  0  0  0  0  0  0  0  0  0  0  0
  146.3032  132.3412  151.5054 C   0  0  0  0  0  0  0  0  0  0  0  0
  145.9141  131.3890  152.6307 C   0  0  0  0  0  0  0  0  0  0  0  0
  146.8841  131.5808  153.6571 O   0  0  0  0  0  0  0  0  0  0  0  0
  148.4311  131.8345  155.9395 H   0  0  0  0  0  0  0  0  0  0  0  0
  149.0264  133.3729  156.5480 H   0  0  0  0  0  0  0  0  0  0  0  0
  149.8420  132.5856  155.1988 H   0  0  0  0  0  0  0  0  0  0  0  0
  146.9909  133.6874  155.1589 H   0  0  0  0  0  0  0  0  0  0  0  0
  148.6055  135.0603  153.3541 H   0  0  0  0  0  0  0  0  0  0  0  0
  149.5394  136.7459  153.5743 H   0  0  0  0  0  0  0  0  0  0  0  0
  150.6465  137.1687  157.1536 H   0  0  0  0  0  0  0  0  0  0  0  0
  151.7388  139.2695  157.8814 H   0  0  0  0  0  0  0  0  0  0  0  0
  151.8850  141.1857  156.2723 H   0  0  0  0  0  0  0  0  0  0  0  0
  149.9640  139.0518  153.3076 H   0  0  0  0  0  0  0  0  0  0  0  0
  148.6403  132.3565  152.9679 H   0  0  0  0  0  0  0  0  0  0  0  0
  146.1694  134.1131  152.7049 H   0  0  0  0  0  0  0  0  0  0  0  0
  147.5946  134.0931  151.6592 H   0  0  0  0  0  0  0  0  0  0  0  0
  145.4531  132.6574  150.9004 H   0  0  0  0  0  0  0  0  0  0  0  0
  147.0373  131.8713  150.8492 H   0  0  0  0  0  0  0  0  0  0  0  0
  144.9334  131.6519  153.0290 H   0  0  0  0  0  0  0  0  0  0  0  0
  145.8789  130.3497  152.3036 H   0  0  0  0  0  0  0  0  0  0  0  0
  1  2  1  0  0  0  0
  1 18  1  0  0  0  0
  1 19  1  0  0  0  0
  1 20  1  0  0  0  0
  2  3  1  0  0  0  0
  2 13  1  0  0  0  0
  2 21  1  0  0  0  0
  3  4  1  0  0  0  0
  3 22  1  0  0  0  0
  4  5  2  0  0  0  0
  4  6  1  0  0  0  0
  6  7  1  0  0  0  0
  6 23  1  0  0  0  0
  7 12  1  0  0  0  0
  7  8  2  0  0  0  0
  8  9  1  0  0  0  0
  8 24  1  0  0  0  0
  9 10  2  0  0  0  0
  9 25  1  0  0  0  0
 10 11  1  0  0  0  0
 10 26  1  0  0  0  0
 11 12  2  0  0  0  0
 12 27  1  0  0  0  0
 13 17  1  0  0  0  0
 13 14  1  0  0  0  0
 13 28  1  0  0  0  0
 14 15  1  0  0  0  0
 14 29  1  0  0  0  0
 14 30  1  0  0  0  0
 15 16  1  0  0  0  0
 15 31  1  0  0  0  0
 15 32  1  0  0  0  0
 16 17  1  0  0  0  0
 16 33  1  0  0  0  0
 16 34  1  0  0  0  0
M  END
> <s_m_source_file>
AV-unprocessed.smi

> <i_m_source_file_index>
3217

> <i_lp_mmshare_version>
43012

> <i_f3d_flags>
0

> <s_epik_input>
TzFbQ0gyXVtDSDJdW0NIMl1bQ0BIXTFbQ0BIXShbQ0gzXSlbTkhdQyg9TylbTkhdYzJbY0hdW2NIXVtjSF1uW2NIXTI=

> <s_epik_cmdline>
J2VwaWtfcHl0aG9uJywgJy1waCcsICc3LjAnLCAnLXRuJywgJzgnLCAnLW1hJywgJzIwMCcsICctbWV0YWxfYmluZGluZycsICctaW1hZScsICc8aW5maWxlLm1hZT4nLCAnLW9tYWUnLCAnPG91dGZpbGUubWFlPic=

> <r_epik_Ionization_Penalty>
0.00475451

> <r_epik_Ionization_Penalty_Charging>
0

> <r_epik_Ionization_Penalty_Neutral>
0.00475451

> <r_epik_State_Penalty>
0.00341814

> <r_epik_Charging_Adjusted_Penalty>
0.00341814

> <i_epik_Tot_Q>
0

> <i_epik_Tot_abs_Q>
0

> <r_epik_Metal_State_Penalty>
-0

> <b_epik_Metal_Only>
0

> <s_lp_Force_Field>
OPLS_2005

> <r_lp_Energy>
20.7148

> <b_lp_Chiralities_Consistent>
1

> <s_lp_Variant>
AV-unprocessed.smi:3217-2

> <Gold.Version>
5.8.1

> <Gold.Id.Protein>
6NUR|6NUR_protein|mol2

> <Gold.PLP.Fitness>
41.6702

> <Gold.PLP.PLP>
-30.2084

> <Gold.PLP.part.hbond>
-3.7593

> <Gold.PLP.part.metal>
0.0000

> <Gold.PLP.part.buried>
-3.5194

> <Gold.PLP.part.nonpolar>
-23.9424

> <Gold.PLP.part.repulsive>
0.2686

> <Gold.PLP.ligand.clash>
0.0000

> <Gold.PLP.ligand.torsion>
0.2461

> <Gold.PLP.Chemscore.Hbond>
3.0000

> <Gold.PLP.Chemscore.CHOScore>
0.9817

> <Gold.PLP.Chemscore.Metal>
0.0000

> <Gold.Chemscore.Hbonds>
donor molecule, donor type, donor heavy atom, donor atom, acceptor molecule, acceptor atom, score
      L1  H     3    22       P1  7948  1.00
      L1  H     6    23       P1  7948  1.00
      P1  H  7989  7998       L1    11  1.00
      L1  C    12    27       P1  7957  1.00

> <Gold.PLP.Chemscore.Internal.Correction>
0.0088

> <Gold.Rescore>
     Score         DG    S(hbond)    S(metal)    S(lipo)     H(rot)  DE(clash)    DE(int)     intcor
     14.72     -17.10       2.26        0.00      61.59       1.22       0.09       2.28       ----

> <Gold.Chemscore.Fitness>
14.7221

> <Gold.Chemscore.DG>
-17.0976

> <Gold.Chemscore.ZeroCoef>
-5.4800

> <Gold.Chemscore.Hbond>
2.2586

> <Gold.Chemscore.Metal>
0.0000

> <Gold.Chemscore.Lipo>
61.5927

> <Gold.Chemscore.Internal_Hbond>
0.0000

> <Gold.Chemscore.DEClash>
0.0917

> <Gold.Chemscore.DEInternal>
2.2838

> <Gold.Chemscore.Rot>
1.2236

> <Gold.Chemscore.Internal.Correction>
   9.000000E+99

> <Gold.Chemscore.Hbonds>
donor molecule, donor type, donor heavy atom, donor atom, acceptor molecule, acceptor atom, score
      L1  H     3    22       P1  7948  0.73
      L1  H     6    23       P1  7948  0.78
      P1  H  7989  7998       L1    11  0.67

> <Gold.Chemscore.Hbond.Weighted>
-7.5438

> <Gold.Chemscore.Metal.Weighted>
-0.0000

> <Gold.Chemscore.Lipo.Weighted>
-7.2063

> <Gold.Chemscore.Internal_Hbond.Weighted>
0.0000

> <Gold.Chemscore.DEClash.Weighted>
0.0917

> <Gold.Chemscore.DEInternal.Weighted>
2.2838

> <Gold.Chemscore.Rot.Weighted>
3.1325

> <Gold.Chemscore.Internal.Correction.Weighted>
   9.000000E+99

> <Gold.Protein.RotatedTorsions>
[ 6907 6896 6895 6894 ] final  -75.86 input  -60.11 | X-H torsion
[ 7974 7965 7964 7962 ] final  123.89 input  175.53 | X-H torsion
[ 8008 7997 7996 7995 ] final  109.75 input   59.86 | X-H torsion
[ 10167 10162 10161 10158 ] final   57.65 input  -65.29 | X-H torsion
[ 10718 10713 10712 10709 ] final    1.31 input   66.30 | X-H torsion
[ 10763 10752 10751 10750 ] final -122.27 input  -60.55 | X-H torsion
[ 11005 11000 10999 10996 ] final  174.33 input  -57.11 | X-H torsion

> <Gold.Protein.ActiveResidues>
 VAL166  LYS551  ARG553  GLY616  TRP617  ASP618  TYR619  PRO620  LYS621  CYS622 
 ASP623  PHE694  ASN695  SER759  ASP760  ASP761  ALA762  ILE779  LEU786  VAL792 
 PHE793  MET794  SER795  GLU796  ALA797  LYS798  CYS799  TRP800  GLU811  SER814 

> <Gold.Protein.RotatedAtoms>
  150.7045  134.4658  159.5401 H   0  0  0  0  0  0  0  0  0  0  0  0  # atno 6907 bound_to 6896
  152.2324  134.8306  160.0481 H   0  0  0  0  0  0  0  0  0  0  0  0  # atno 6908 bound_to 6896
  151.9117  133.3528  159.3903 H   0  0  0  0  0  0  0  0  0  0  0  0  # atno 6909 bound_to 6896
  145.0907  139.3589  143.4862 H   0  0  0  0  0  0  0  0  0  0  0  0  # atno 7974 bound_to 7965
  156.2002  140.3052  155.9511 H   0  0  0  0  0  0  0  0  0  0  0  0  # atno 8008 bound_to 7997
  155.2972  140.0445  157.3044 H   0  0  0  0  0  0  0  0  0  0  0  0  # atno 8009 bound_to 7997
  154.5561  140.2306  155.8417 H   0  0  0  0  0  0  0  0  0  0  0  0  # atno 8010 bound_to 7997
  140.1957  144.4040  150.6551 H   0  0  0  0  0  0  0  0  0  0  0  0  # atno 10167 bound_to 10162
  156.8463  130.5538  149.5673 H   0  0  0  0  0  0  0  0  0  0  0  0  # atno 10718 bound_to 10713
  154.8686  135.4139  154.2754 H   0  0  0  0  0  0  0  0  0  0  0  0  # atno 10763 bound_to 10752
  153.3656  135.7005  153.6683 H   0  0  0  0  0  0  0  0  0  0  0  0  # atno 10764 bound_to 10752
  153.5566  135.3618  155.2754 H   0  0  0  0  0  0  0  0  0  0  0  0  # atno 10765 bound_to 10752
  140.3501  134.7202  157.4262 H   0  0  0  0  0  0  0  0  0  0  0  0  # atno 11005 bound_to 11000
  146.3531  140.0740  142.8621 LP  0  0  0  0  0  0  0  0  0  0  0  0  # atno 17320 bound_to 7965
  145.1069  140.9381  143.4679 LP  0  0  0  0  0  0  0  0  0  0  0  0  # atno 17321 bound_to 7965
  140.6425  143.2206  151.6258 LP  0  0  0  0  0  0  0  0  0  0  0  0  # atno 17342 bound_to 10162
  139.5238  144.3123  152.0982 LP  0  0  0  0  0  0  0  0  0  0  0  0  # atno 17343 bound_to 10162
  156.0853  130.5853  150.9636 LP  0  0  0  0  0  0  0  0  0  0  0  0  # atno 17370 bound_to 10713
  157.6328  131.0919  150.8408 LP  0  0  0  0  0  0  0  0  0  0  0  0  # atno 17371 bound_to 10713
  140.0710  134.5863  155.8642 LP  0  0  0  0  0  0  0  0  0  0  0  0  # atno 17394 bound_to 11000
  141.2014  133.6618  156.5950 LP  0  0  0  0  0  0  0  0  0  0  0  0  # atno 17395 bound_to 11000

$$$$
