AV-unprocessed.smi:1419|AV-procd|sdf|5784|dock8
  -GOLD-   22720 5433D 1   1.00000     0.00000
 Structure written by MMmdl.
 41 42  0  0  0  0  0  0  0  0  1 V2000
  146.3113  131.0583  152.7640 C   0  0  0  0  0  0  0  0  0  0  0  0
  146.3334  132.5929  152.7615 C   0  0  2  0  0  0  0  0  0  0  0  0
  146.7539  133.1431  151.3819 C   0  0  0  0  0  0  0  0  0  0  0  0
  145.7972  132.8341  150.3344 N   0  0  0  0  0  0  0  0  0  0  0  0
  144.4842  133.2765  150.2381 C   0  0  0  0  0  0  0  0  0  0  0  0
  143.9702  132.7345  149.0821 C   0  0  0  0  0  0  0  0  0  0  0  0
  144.9374  131.9455  148.4638 N   0  0  0  0  0  0  0  0  0  0  0  0
  145.9882  132.0473  149.2668 C   0  0  0  0  0  0  0  0  0  0  0  0
  147.2452  133.0542  153.8076 N   0  0  0  0  0  0  0  0  0  0  0  0
  148.4868  132.5916  154.0376 C   0  0  0  0  0  0  0  0  0  0  0  0
  148.9961  131.7038  153.3526 O   0  0  0  0  0  0  0  0  0  0  0  0
  149.1139  133.1609  155.0964 N   0  0  0  0  0  0  0  0  0  0  0  0
  148.4854  133.8021  156.2593 C   0  0  0  0  0  0  0  0  0  0  0  0
  148.7662  132.9529  157.5163 C   0  0  1  0  0  0  0  0  0  0  0  0
  148.0049  131.6160  157.5476 C   0  0  0  0  0  0  0  0  0  0  0  0
  150.1766  132.7546  157.6600 O   0  0  0  0  0  0  0  0  0  0  0  0
  150.8484  132.2140  156.5187 C   0  0  2  0  0  0  0  0  0  0  0  0
  152.3445  132.1402  156.8419 C   0  0  0  0  0  0  0  0  0  0  0  0
  150.5640  133.0954  155.2867 C   0  0  0  0  0  0  0  0  0  0  0  0
  145.6176  130.6758  152.0149 H   0  0  0  0  0  0  0  0  0  0  0  0
  145.9946  130.6705  153.7328 H   0  0  0  0  0  0  0  0  0  0  0  0
  147.2970  130.6456  152.5453 H   0  0  0  0  0  0  0  0  0  0  0  0
  145.3181  132.9280  152.9798 H   0  0  0  0  0  0  0  0  0  0  0  0
  146.8915  134.2247  151.4279 H   0  0  0  0  0  0  0  0  0  0  0  0
  147.7143  132.7186  151.0867 H   0  0  0  0  0  0  0  0  0  0  0  0
  144.0407  133.9315  150.9734 H   0  0  0  0  0  0  0  0  0  0  0  0
  142.9853  132.8474  148.6536 H   0  0  0  0  0  0  0  0  0  0  0  0
  146.9215  131.5407  149.0701 H   0  0  0  0  0  0  0  0  0  0  0  0
  146.8991  133.7790  154.4192 H   0  0  0  0  0  0  0  0  0  0  0  0
  148.9189  134.7954  156.3846 H   0  0  0  0  0  0  0  0  0  0  0  0
  147.4139  133.9704  156.1525 H   0  0  0  0  0  0  0  0  0  0  0  0
  148.4453  133.5258  158.3868 H   0  0  0  0  0  0  0  0  0  0  0  0
  146.9278  131.7821  157.5173 H   0  0  0  0  0  0  0  0  0  0  0  0
  148.2286  131.0636  158.4603 H   0  0  0  0  0  0  0  0  0  0  0  0
  148.2591  130.9774  156.7032 H   0  0  0  0  0  0  0  0  0  0  0  0
  150.4921  131.2004  156.3320 H   0  0  0  0  0  0  0  0  0  0  0  0
  152.9068  131.7249  156.0052 H   0  0  0  0  0  0  0  0  0  0  0  0
  152.5242  131.5058  157.7101 H   0  0  0  0  0  0  0  0  0  0  0  0
  152.7505  133.1281  157.0611 H   0  0  0  0  0  0  0  0  0  0  0  0
  151.0865  132.6960  154.4163 H   0  0  0  0  0  0  0  0  0  0  0  0
  150.9575  134.1018  155.4373 H   0  0  0  0  0  0  0  0  0  0  0  0
  1  2  1  0  0  0  0
  1 20  1  0  0  0  0
  1 21  1  0  0  0  0
  1 22  1  0  0  0  0
  2  3  1  0  0  0  0
  2  9  1  0  0  0  0
  2 23  1  0  0  0  0
  3  4  1  0  0  0  0
  3 24  1  0  0  0  0
  3 25  1  0  0  0  0
  4  8  1  0  0  0  0
  4  5  1  0  0  0  0
  5  6  2  0  0  0  0
  5 26  1  0  0  0  0
  6  7  1  0  0  0  0
  6 27  1  0  0  0  0
  7  8  2  0  0  0  0
  8 28  1  0  0  0  0
  9 10  1  0  0  0  0
  9 29  1  0  0  0  0
 10 11  2  0  0  0  0
 10 12  1  0  0  0  0
 12 19  1  0  0  0  0
 12 13  1  0  0  0  0
 13 14  1  0  0  0  0
 13 30  1  0  0  0  0
 13 31  1  0  0  0  0
 14 15  1  0  0  0  0
 14 16  1  0  0  0  0
 14 32  1  0  0  0  0
 15 33  1  0  0  0  0
 15 34  1  0  0  0  0
 15 35  1  0  0  0  0
 16 17  1  0  0  0  0
 17 18  1  0  0  0  0
 17 19  1  0  0  0  0
 17 36  1  0  0  0  0
 18 37  1  0  0  0  0
 18 38  1  0  0  0  0
 18 39  1  0  0  0  0
 19 40  1  0  0  0  0
 19 41  1  0  0  0  0
M  END
> <s_m_source_file>
AV-unprocessed.smi

> <i_m_source_file_index>
1419

> <i_lp_mmshare_version>
43012

> <i_f3d_flags>
0

> <s_epik_input>
W2NIXTFuW2NIXVtjSF1uMVtDSDJdW0NAQEhdKFtDSDNdKVtOSF1DKD1PKU4yW0NIMl1bQ0BASF0oW0NIM10pT1tDQEBIXShbQ0gzXSlbQ0gyXTI=

> <s_epik_cmdline>
J2VwaWtfcHl0aG9uJywgJy1waCcsICc3LjAnLCAnLXRuJywgJzgnLCAnLW1hJywgJzIwMCcsICctbWV0YWxfYmluZGluZycsICctaW1hZScsICc8aW5maWxlLm1hZT4nLCAnLW9tYWUnLCAnPG91dGZpbGUubWFlPic=

> <r_lp_tautomer_probability>
1

> <r_epik_Ionization_Penalty>
0.625124

> <r_epik_Ionization_Penalty_Charging>
0.625093

> <r_epik_Ionization_Penalty_Neutral>
3.17415e-05

> <r_epik_State_Penalty>
0.641455

> <r_epik_Charging_Adjusted_Penalty>
1.26655

> <i_epik_Tot_Q>
0

> <i_epik_Tot_abs_Q>
0

> <r_epik_Metal_State_Penalty>
0.307717

> <b_epik_Metal_Only>
0

> <s_lp_Force_Field>
OPLS_2005

> <r_lp_Energy>
30.2714

> <b_lp_Chiralities_Consistent>
1

> <s_lp_Variant>
AV-unprocessed.smi:1419-11

> <Gold.Version>
5.8.1

> <Gold.Id.Protein>
6NUR|6NUR_protein|mol2

> <Gold.PLP.Fitness>
39.4415

> <Gold.PLP.PLP>
-31.3211

> <Gold.PLP.part.hbond>
-3.0000

> <Gold.PLP.part.metal>
0.0000

> <Gold.PLP.part.buried>
-4.6735

> <Gold.PLP.part.nonpolar>
-24.1257

> <Gold.PLP.part.repulsive>
0.3347

> <Gold.PLP.ligand.clash>
0.0000

> <Gold.PLP.ligand.torsion>
0.4233

> <Gold.PLP.Chemscore.Hbond>
1.0000

> <Gold.PLP.Chemscore.CHOScore>
1.9835

> <Gold.PLP.Chemscore.Metal>
0.0000

> <Gold.Chemscore.Hbonds>
donor molecule, donor type, donor heavy atom, donor atom, acceptor molecule, acceptor atom, score
      P1  H  6896  6907       L1    16  1.00
      L1  C     6    27       P1 10186  0.62
      L1  C     8    28       P1 10747  1.00

> <Gold.PLP.Chemscore.Internal.Correction>
0.0165

> <Gold.Rescore>
     Score         DG    S(hbond)    S(metal)    S(lipo)     H(rot)  DE(clash)    DE(int)     intcor
      9.74     -11.63       0.96        0.00      59.56       1.58       0.13       1.76       ----

> <Gold.Chemscore.Fitness>
9.7393

> <Gold.Chemscore.DG>
-11.6322

> <Gold.Chemscore.ZeroCoef>
-5.4800

> <Gold.Chemscore.Hbond>
0.9641

> <Gold.Chemscore.Metal>
0.0000

> <Gold.Chemscore.Lipo>
59.5627

> <Gold.Chemscore.Internal_Hbond>
0.0000

> <Gold.Chemscore.DEClash>
0.1350

> <Gold.Chemscore.DEInternal>
1.7579

> <Gold.Chemscore.Rot>
1.5769

> <Gold.Chemscore.Internal.Correction>
   9.000000E+99

> <Gold.Chemscore.Hbonds>
donor molecule, donor type, donor heavy atom, donor atom, acceptor molecule, acceptor atom, score
      P1  H  6896  6907       L1    16  0.94

> <Gold.Chemscore.Hbond.Weighted>
-3.2202

> <Gold.Chemscore.Metal.Weighted>
-0.0000

> <Gold.Chemscore.Lipo.Weighted>
-6.9688

> <Gold.Chemscore.Internal_Hbond.Weighted>
0.0000

> <Gold.Chemscore.DEClash.Weighted>
0.1350

> <Gold.Chemscore.DEInternal.Weighted>
1.7579

> <Gold.Chemscore.Rot.Weighted>
4.0369

> <Gold.Chemscore.Internal.Correction.Weighted>
   9.000000E+99

> <Gold.Protein.RotatedTorsions>
[ 6907 6896 6895 6894 ] final -153.82 input  -60.11 | X-H torsion
[ 7974 7965 7964 7962 ] final  140.45 input  175.53 | X-H torsion
[ 8008 7997 7996 7995 ] final  -16.09 input   59.86 | X-H torsion
[ 10167 10162 10161 10158 ] final  143.97 input  -65.29 | X-H torsion
[ 10718 10713 10712 10709 ] final  177.71 input   66.30 | X-H torsion
[ 10763 10752 10751 10750 ] final  -32.80 input  -60.55 | X-H torsion
[ 11005 11000 10999 10996 ] final  105.50 input  -57.11 | X-H torsion

> <Gold.Protein.ActiveResidues>
 VAL166  LYS551  ARG553  GLY616  TRP617  ASP618  TYR619  PRO620  LYS621  CYS622 
 ASP623  PHE694  ASN695  SER759  ASP760  ASP761  ALA762  ILE779  LEU786  VAL792 
 PHE793  MET794  SER795  GLU796  ALA797  LYS798  CYS799  TRP800  GLU811  SER814 

> <Gold.Protein.RotatedAtoms>
  151.2482  133.4364  159.2610 H   0  0  0  0  0  0  0  0  0  0  0  0  # atno 6907 bound_to 6896
  151.0642  134.9757  159.8286 H   0  0  0  0  0  0  0  0  0  0  0  0  # atno 6908 bound_to 6896
  152.5403  134.2431  159.8922 H   0  0  0  0  0  0  0  0  0  0  0  0  # atno 6909 bound_to 6896
  144.9185  139.5198  143.5674 H   0  0  0  0  0  0  0  0  0  0  0  0  # atno 7974 bound_to 7965
  154.5080  140.2179  155.9213 H   0  0  0  0  0  0  0  0  0  0  0  0  # atno 8008 bound_to 7997
  156.1517  140.3160  155.8626 H   0  0  0  0  0  0  0  0  0  0  0  0  # atno 8009 bound_to 7997
  155.3925  140.0479  157.3031 H   0  0  0  0  0  0  0  0  0  0  0  0  # atno 8010 bound_to 7997
  139.4957  144.6004  151.6493 H   0  0  0  0  0  0  0  0  0  0  0  0  # atno 10167 bound_to 10162
  156.9013  130.9879  151.3035 H   0  0  0  0  0  0  0  0  0  0  0  0  # atno 10718 bound_to 10713
  153.8198  135.6875  153.4829 H   0  0  0  0  0  0  0  0  0  0  0  0  # atno 10763 bound_to 10752
  153.1576  135.4592  154.9725 H   0  0  0  0  0  0  0  0  0  0  0  0  # atno 10764 bound_to 10752
  154.7932  135.3309  154.7671 H   0  0  0  0  0  0  0  0  0  0  0  0  # atno 10765 bound_to 10752
  139.8803  134.9338  156.5523 H   0  0  0  0  0  0  0  0  0  0  0  0  # atno 11005 bound_to 11000
  146.3193  139.8047  142.8958 LP  0  0  0  0  0  0  0  0  0  0  0  0  # atno 17320 bound_to 7965
  145.3335  141.0272  143.3433 LP  0  0  0  0  0  0  0  0  0  0  0  0  # atno 17321 bound_to 7965
  140.5652  144.0202  150.6189 LP  0  0  0  0  0  0  0  0  0  0  0  0  # atno 17342 bound_to 10162
  140.3301  143.3083  152.0696 LP  0  0  0  0  0  0  0  0  0  0  0  0  # atno 17343 bound_to 10162
  157.6024  130.8522  149.8823 LP  0  0  0  0  0  0  0  0  0  0  0  0  # atno 17370 bound_to 10713
  156.0580  130.3705  150.1045 LP  0  0  0  0  0  0  0  0  0  0  0  0  # atno 17371 bound_to 10713
  140.8231  133.8338  155.8914 LP  0  0  0  0  0  0  0  0  0  0  0  0  # atno 17394 bound_to 11000
  140.9400  134.1913  157.4804 LP  0  0  0  0  0  0  0  0  0  0  0  0  # atno 17395 bound_to 11000

$$$$
