AV-unprocessed.smi:2784|AV-procd|sdf|10732|dock7
  -GOLD-   2272015173D 1   1.00000     0.00000
 Structure written by MMmdl.
 32 33  0  0  0  0  0  0  0  0  2 V2000
  147.1019  132.3177  152.8919 C   0  0  0  0  0  0  0  0  0  0  0  0
  146.6977  133.6096  152.4663 O   0  0  0  0  0  0  0  0  0  0  0  0
  145.2901  133.8252  152.5329 C   0  0  2  0  0  0  0  0  0  0  0  0
  144.5834  132.8388  151.5960 C   0  0  0  0  0  0  0  0  0  0  0  0
  144.7047  133.4822  150.2181 C   0  0  0  0  0  0  0  0  0  0  0  0
  144.5602  134.9845  150.4752 C   0  0  0  0  0  0  0  0  0  0  0  0
  144.9399  135.2149  151.9511 C   0  0  2  0  0  0  0  0  0  0  0  0
  146.0319  136.1792  152.0709 N   0  0  0  0  0  0  0  0  0  0  0  0
  145.9240  137.3878  152.6410 C   0  0  0  0  0  0  0  0  0  0  0  0
  144.8751  137.8291  153.1115 O   0  0  0  0  0  0  0  0  0  0  0  0
  147.0947  138.0427  152.6376 N   0  0  0  0  0  0  0  0  0  0  0  0
  147.3179  139.3331  153.1700 C   0  0  0  0  0  0  0  0  0  0  0  0
  146.4880  140.3621  153.0044 N   0  3  0  0  0  0  0  0  0  0  0  0
  147.0081  141.4559  153.6509 C   0  0  0  0  0  0  0  0  0  0  0  0
  148.1893  141.0319  154.2110 C   0  0  0  0  0  0  0  0  0  0  0  0
  148.3980  139.6994  153.9171 O   0  0  0  0  0  0  0  0  0  0  0  0
  148.1844  132.2284  152.8024 H   0  0  0  0  0  0  0  0  0  0  0  0
  146.6514  131.5304  152.2878 H   0  0  0  0  0  0  0  0  0  0  0  0
  146.8388  132.1497  153.9370 H   0  0  0  0  0  0  0  0  0  0  0  0
  144.9375  133.7419  153.5625 H   0  0  0  0  0  0  0  0  0  0  0  0
  144.9964  131.8308  151.6247 H   0  0  0  0  0  0  0  0  0  0  0  0
  143.5301  132.7678  151.8705 H   0  0  0  0  0  0  0  0  0  0  0  0
  145.6928  133.2735  149.8056 H   0  0  0  0  0  0  0  0  0  0  0  0
  143.9641  133.1045  149.5125 H   0  0  0  0  0  0  0  0  0  0  0  0
  145.1754  135.5588  149.7809 H   0  0  0  0  0  0  0  0  0  0  0  0
  143.5261  135.2909  150.3127 H   0  0  0  0  0  0  0  0  0  0  0  0
  144.0593  135.6041  152.4662 H   0  0  0  0  0  0  0  0  0  0  0  0
  146.9311  135.8914  151.7134 H   0  0  0  0  0  0  0  0  0  0  0  0
  145.6133  140.3776  152.4951 H   0  0  0  0  0  0  0  0  0  0  0  0
  146.4966  142.4079  153.6485 H   0  0  0  0  0  0  0  0  0  0  0  0
  148.9488  141.5157  154.8078 H   0  0  0  0  0  0  0  0  0  0  0  0
  147.8907  137.5792  152.2250 H   0  0  0  0  0  0  0  0  0  0  0  0
  1  2  1  0  0  0  0
  1 17  1  0  0  0  0
  1 18  1  0  0  0  0
  1 19  1  0  0  0  0
  2  3  1  0  0  0  0
  3  7  1  0  0  0  0
  3  4  1  0  0  0  0
  3 20  1  0  0  0  0
  4  5  1  0  0  0  0
  4 21  1  0  0  0  0
  4 22  1  0  0  0  0
  5  6  1  0  0  0  0
  5 23  1  0  0  0  0
  5 24  1  0  0  0  0
  6  7  1  0  0  0  0
  6 25  1  0  0  0  0
  6 26  1  0  0  0  0
  7  8  1  0  0  0  0
  7 27  1  0  0  0  0
  8 28  1  0  0  0  0
  8  9  1  0  0  0  0
  9 11  1  0  0  0  0
  9 10  2  0  0  0  0
 11 12  1  0  0  0  0
 11 32  1  0  0  0  0
 12 16  1  0  0  0  0
 12 13  2  0  0  0  0
 13 29  1  0  0  0  0
 13 14  1  0  0  0  0
 14 30  1  0  0  0  0
 14 15  2  0  0  0  0
 15 31  1  0  0  0  0
 15 16  1  0  0  0  0
M  CHG  1  13   1
M  END
> <s_m_source_file>
AV-unprocessed.smi

> <i_m_source_file_index>
2784

> <i_lp_mmshare_version>
43012

> <i_f3d_flags>
0

> <s_epik_input>
W0NIM11PW0NAQEhdMVtDSDJdW0NIMl1bQ0gyXVtDQEhdMVtOSF1DKD1PKVtOSF1jMm5bY0hdW2NIXW8y

> <s_epik_cmdline>
J2VwaWtfcHl0aG9uJywgJy1waCcsICc3LjAnLCAnLXRuJywgJzgnLCAnLW1hJywgJzIwMCcsICctbWV0YWxfYmluZGluZycsICctaW1hZScsICc8aW5maWxlLm1hZT4nLCAnLW9tYWUnLCAnPG91dGZpbGUubWFlPic=

> <r_epik_Ionization_Penalty>
6.73843

> <r_epik_Ionization_Penalty_Charging>
6.66704

> <r_epik_Ionization_Penalty_Neutral>
0.0713889

> <r_epik_State_Penalty>
1.94951

> <r_epik_Charging_Adjusted_Penalty>
8.61656

> <i_epik_Tot_Q>
1

> <i_epik_Tot_abs_Q>
1

> <r_epik_Metal_State_Penalty>
1.97013

> <b_epik_Metal_Only>
0

> <s_lp_Force_Field>
OPLS_2005

> <r_lp_Energy>
28.2598

> <b_lp_Chiralities_Consistent>
1

> <s_lp_Variant>
AV-unprocessed.smi:2784-7

> <Gold.Version>
5.8.1

> <Gold.Id.Protein>
6NUR|6NUR_protein|mol2

> <Gold.PLP.Fitness>
35.8553

> <Gold.PLP.PLP>
-24.9354

> <Gold.PLP.part.hbond>
-3.0000

> <Gold.PLP.part.metal>
0.0000

> <Gold.PLP.part.buried>
-5.0528

> <Gold.PLP.part.nonpolar>
-18.7422

> <Gold.PLP.part.repulsive>
1.9706

> <Gold.PLP.ligand.clash>
0.0000

> <Gold.PLP.ligand.torsion>
0.3895

> <Gold.PLP.Chemscore.Hbond>
3.8960

> <Gold.PLP.Chemscore.CHOScore>
0.0000

> <Gold.PLP.Chemscore.Metal>
0.0000

> <Gold.Chemscore.Hbonds>
donor molecule, donor type, donor heavy atom, donor atom, acceptor molecule, acceptor atom, score
      L1  H     8    28       P1  7948  0.90
      L1  H    11    32       P1  7948  1.00
      L1  H    13    29       P1 10175  2.00

> <Gold.PLP.Chemscore.Internal.Correction>
0.0108

> <Gold.Rescore>
     Score         DG    S(hbond)    S(metal)    S(lipo)     H(rot)  DE(clash)    DE(int)     intcor
     16.89     -17.15       2.90        0.00      46.14       1.34       0.03       0.23       ----

> <Gold.Chemscore.Fitness>
16.8889

> <Gold.Chemscore.DG>
-17.1526

> <Gold.Chemscore.ZeroCoef>
-5.4800

> <Gold.Chemscore.Hbond>
2.9019

> <Gold.Chemscore.Metal>
0.0000

> <Gold.Chemscore.Lipo>
46.1366

> <Gold.Chemscore.Internal_Hbond>
0.0000

> <Gold.Chemscore.DEClash>
0.0304

> <Gold.Chemscore.DEInternal>
0.2333

> <Gold.Chemscore.Rot>
1.3351

> <Gold.Chemscore.Internal.Correction>
   9.000000E+99

> <Gold.Chemscore.Hbonds>
donor molecule, donor type, donor heavy atom, donor atom, acceptor molecule, acceptor atom, score
      L1  H     8    28       P1  7948  0.82
      L1  H    11    32       P1  7948  0.99
      L1  H    13    29       P1 10175  0.62

> <Gold.Chemscore.Hbond.Weighted>
-9.6924

> <Gold.Chemscore.Metal.Weighted>
-0.0000

> <Gold.Chemscore.Lipo.Weighted>
-5.3980

> <Gold.Chemscore.Internal_Hbond.Weighted>
0.0000

> <Gold.Chemscore.DEClash.Weighted>
0.0304

> <Gold.Chemscore.DEInternal.Weighted>
0.2333

> <Gold.Chemscore.Rot.Weighted>
3.4177

> <Gold.Chemscore.Internal.Correction.Weighted>
   9.000000E+99

> <Gold.Protein.RotatedTorsions>
[ 6907 6896 6895 6894 ] final  -50.57 input  -60.11 | X-H torsion
[ 7974 7965 7964 7962 ] final   -3.74 input  175.53 | X-H torsion
[ 8008 7997 7996 7995 ] final  -81.04 input   59.86 | X-H torsion
[ 10167 10162 10161 10158 ] final -141.94 input  -65.29 | X-H torsion
[ 10718 10713 10712 10709 ] final  -20.65 input   66.30 | X-H torsion
[ 10763 10752 10751 10750 ] final   -7.69 input  -60.55 | X-H torsion
[ 11005 11000 10999 10996 ] final  176.63 input  -57.11 | X-H torsion

> <Gold.Protein.ActiveResidues>
 VAL166  LYS551  ARG553  GLY616  TRP617  ASP618  TYR619  PRO620  LYS621  CYS622 
 ASP623  PHE694  ASN695  SER759  ASP760  ASP761  ALA762  ILE779  LEU786  VAL792 
 PHE793  MET794  SER795  GLU796  ALA797  LYS798  CYS799  TRP800  GLU811  SER814 

> <Gold.Protein.RotatedAtoms>
  150.8694  134.8065  159.7143 H   0  0  0  0  0  0  0  0  0  0  0  0  # atno 6907 bound_to 6896
  152.4704  134.4971  159.9723 H   0  0  0  0  0  0  0  0  0  0  0  0  # atno 6908 bound_to 6896
  151.5062  133.3456  159.2913 H   0  0  0  0  0  0  0  0  0  0  0  0  # atno 6909 bound_to 6896
  146.2384  140.1766  142.8332 H   0  0  0  0  0  0  0  0  0  0  0  0  # atno 7974 bound_to 7965
  154.5943  140.0654  156.9282 H   0  0  0  0  0  0  0  0  0  0  0  0  # atno 8008 bound_to 7997
  155.2241  140.3332  155.4293 H   0  0  0  0  0  0  0  0  0  0  0  0  # atno 8009 bound_to 7997
  156.2277  140.1826  156.7306 H   0  0  0  0  0  0  0  0  0  0  0  0  # atno 8010 bound_to 7997
  139.8136  143.7669  152.2664 H   0  0  0  0  0  0  0  0  0  0  0  0  # atno 10167 bound_to 10162
  156.5290  130.4650  149.6557 H   0  0  0  0  0  0  0  0  0  0  0  0  # atno 10718 bound_to 10713
  153.4298  135.7012  153.6238 H   0  0  0  0  0  0  0  0  0  0  0  0  # atno 10763 bound_to 10752
  153.4657  135.3726  155.2363 H   0  0  0  0  0  0  0  0  0  0  0  0  # atno 10764 bound_to 10752
  154.8725  135.4031  154.3681 H   0  0  0  0  0  0  0  0  0  0  0  0  # atno 10765 bound_to 10752
  140.3752  134.6995  157.4417 H   0  0  0  0  0  0  0  0  0  0  0  0  # atno 11005 bound_to 11000
  144.9968  140.8596  143.5306 LP  0  0  0  0  0  0  0  0  0  0  0  0  # atno 17320 bound_to 7965
  145.1780  139.2367  143.5307 LP  0  0  0  0  0  0  0  0  0  0  0  0  # atno 17321 bound_to 7965
  139.7826  144.7439  151.0067 LP  0  0  0  0  0  0  0  0  0  0  0  0  # atno 17342 bound_to 10162
  140.7817  143.4526  151.0391 LP  0  0  0  0  0  0  0  0  0  0  0  0  # atno 17343 bound_to 10162
  156.3078  130.7212  151.2098 LP  0  0  0  0  0  0  0  0  0  0  0  0  # atno 17370 bound_to 10713
  157.7425  131.0489  150.5021 LP  0  0  0  0  0  0  0  0  0  0  0  0  # atno 17371 bound_to 10713
  140.0521  134.6116  155.8849 LP  0  0  0  0  0  0  0  0  0  0  0  0  # atno 17394 bound_to 11000
  141.1941  133.6582  156.5582 LP  0  0  0  0  0  0  0  0  0  0  0  0  # atno 17395 bound_to 11000

$$$$
