AV-unprocessed.smi:719|AV-procd|sdf|3494|dock6
  -GOLD-   22720 0493D 1   1.00000     0.00000
 Structure written by MMmdl.
 41 43  0  0  0  0  0  0  0  0  1 V2000
  155.7383  132.6330  161.1099 C   0  0  0  0  0  0  0  0  0  0  0  0
  155.7958  132.9019  162.6176 C   0  0  0  0  0  0  0  0  0  0  0  0
  155.4505  134.3224  162.9561 C   0  0  0  0  0  0  0  0  0  0  0  0
  155.2479  135.2430  161.9232 N   0  0  0  0  0  0  0  0  0  0  0  0
  154.9567  136.4656  162.3719 C   0  0  0  0  0  0  0  0  0  0  0  0
  154.6676  137.6243  161.4780 C   0  0  0  0  0  0  0  0  0  0  0  0
  155.6570  138.7827  161.6843 C   0  0  0  0  0  0  0  0  0  0  0  0
  155.0349  140.0785  161.4370 N   0  0  0  0  0  0  0  0  0  0  0  0
  154.6749  140.5452  160.2316 C   0  0  0  0  0  0  0  0  0  0  0  0
  154.8283  139.9042  159.1909 O   0  0  0  0  0  0  0  0  0  0  0  0
  154.0689  141.9101  160.2667 C   0  0  2  0  0  0  0  0  0  0  0  0
  152.8566  142.1123  161.1578 C   0  0  1  0  0  0  0  0  0  0  0  0
  152.4405  143.4767  161.6574 C   0  0  0  0  0  0  0  0  0  0  0  0
  152.3688  144.3746  160.4100 C   0  0  0  0  0  0  0  0  0  0  0  0
  152.1537  143.4219  159.2210 C   0  0  0  0  0  0  0  0  0  0  0  0
  152.6825  142.0790  159.6699 C   0  0  1  0  0  0  0  0  0  0  0  0
  154.8754  136.5567  164.1253 S   0  0  0  0  0  0  0  0  0  0  0  0
  155.2836  134.8620  164.2104 C   0  0  0  0  0  0  0  0  0  0  0  0
  155.4095  134.1716  165.5279 C   0  0  0  0  0  0  0  0  0  0  0  0
  155.9856  131.5941  160.8910 H   0  0  0  0  0  0  0  0  0  0  0  0
  156.4444  133.2642  160.5696 H   0  0  0  0  0  0  0  0  0  0  0  0
  154.7414  132.8288  160.7138 H   0  0  0  0  0  0  0  0  0  0  0  0
  155.1217  132.2153  163.1304 H   0  0  0  0  0  0  0  0  0  0  0  0
  156.7946  132.6638  162.9850 H   0  0  0  0  0  0  0  0  0  0  0  0
  154.6977  137.2756  160.4452 H   0  0  0  0  0  0  0  0  0  0  0  0
  153.6476  137.9629  161.6631 H   0  0  0  0  0  0  0  0  0  0  0  0
  156.0246  138.7766  162.7108 H   0  0  0  0  0  0  0  0  0  0  0  0
  156.5299  138.6598  161.0409 H   0  0  0  0  0  0  0  0  0  0  0  0
  154.8709  140.6666  162.2413 H   0  0  0  0  0  0  0  0  0  0  0  0
  154.7582  142.7479  160.1703 H   0  0  0  0  0  0  0  0  0  0  0  0
  152.5023  141.2633  161.7402 H   0  0  0  0  0  0  0  0  0  0  0  0
  151.4577  143.3946  162.1227 H   0  0  0  0  0  0  0  0  0  0  0  0
  153.1419  143.8515  162.4031 H   0  0  0  0  0  0  0  0  0  0  0  0
  151.5891  145.1330  160.4853 H   0  0  0  0  0  0  0  0  0  0  0  0
  153.3190  144.8957  160.2864 H   0  0  0  0  0  0  0  0  0  0  0  0
  151.0899  143.3237  159.0016 H   0  0  0  0  0  0  0  0  0  0  0  0
  152.6599  143.7597  158.3164 H   0  0  0  0  0  0  0  0  0  0  0  0
  152.2054  141.2076  159.2241 H   0  0  0  0  0  0  0  0  0  0  0  0
  154.7907  133.2744  165.5550 H   0  0  0  0  0  0  0  0  0  0  0  0
  155.0950  134.8198  166.3463 H   0  0  0  0  0  0  0  0  0  0  0  0
  156.4426  133.8760  165.7114 H   0  0  0  0  0  0  0  0  0  0  0  0
  1  2  1  0  0  0  0
  1 20  1  0  0  0  0
  1 21  1  0  0  0  0
  1 22  1  0  0  0  0
  2  3  1  0  0  0  0
  2 23  1  0  0  0  0
  2 24  1  0  0  0  0
  3 18  2  0  0  0  0
  3  4  1  0  0  0  0
  4  5  2  0  0  0  0
  5  6  1  0  0  0  0
  5 17  1  0  0  0  0
  6  7  1  0  0  0  0
  6 25  1  0  0  0  0
  6 26  1  0  0  0  0
  7  8  1  0  0  0  0
  7 27  1  0  0  0  0
  7 28  1  0  0  0  0
  8  9  1  0  0  0  0
  8 29  1  0  0  0  0
  9 10  2  0  0  0  0
  9 11  1  0  0  0  0
 11 16  1  0  0  0  0
 11 12  1  0  0  0  0
 11 30  1  0  0  0  0
 12 16  1  0  0  0  0
 12 13  1  0  0  0  0
 12 31  1  0  0  0  0
 13 14  1  0  0  0  0
 13 32  1  0  0  0  0
 13 33  1  0  0  0  0
 14 15  1  0  0  0  0
 14 34  1  0  0  0  0
 14 35  1  0  0  0  0
 15 16  1  0  0  0  0
 15 36  1  0  0  0  0
 15 37  1  0  0  0  0
 16 38  1  0  0  0  0
 17 18  1  0  0  0  0
 18 19  1  0  0  0  0
 19 39  1  0  0  0  0
 19 40  1  0  0  0  0
 19 41  1  0  0  0  0
M  END
> <s_m_source_file>
AV-unprocessed.smi

> <i_m_source_file_index>
719

> <i_lp_mmshare_version>
43012

> <i_f3d_flags>
0

> <s_epik_input>
W0NIM11bQ0gyXWMxbmMoc2MxW0NIM10pW0NIMl1bQ0gyXVtOSF1DKD1PKVtDQEhdMltDQEhdKFtDQEBIXTIzKVtDSDJdW0NIMl1bQ0gyXTM=

> <s_epik_cmdline>
J2VwaWtfcHl0aG9uJywgJy1waCcsICc3LjAnLCAnLXRuJywgJzgnLCAnLW1hJywgJzIwMCcsICctbWV0YWxfYmluZGluZycsICctaW1hZScsICc8aW5maWxlLm1hZT4nLCAnLW9tYWUnLCAnPG91dGZpbGUubWFlPic=

> <r_epik_Ionization_Penalty>
0.00247473

> <r_epik_Ionization_Penalty_Charging>
0

> <r_epik_Ionization_Penalty_Neutral>
0.00247473

> <r_epik_State_Penalty>
0.00171502

> <r_epik_Charging_Adjusted_Penalty>
0.00171502

> <i_epik_Tot_Q>
0

> <i_epik_Tot_abs_Q>
0

> <r_epik_Metal_State_Penalty>
-0

> <b_epik_Metal_Only>
0

> <s_lp_Force_Field>
OPLS_2005

> <r_lp_Energy>
19.4586

> <b_lp_Chiralities_Consistent>
1

> <s_lp_Variant>
AV-unprocessed.smi:719-2

> <Gold.Version>
5.8.1

> <Gold.Id.Protein>
6NUR|6NUR_protein|mol2

> <Gold.PLP.Fitness>
46.3916

> <Gold.PLP.PLP>
-43.9667

> <Gold.PLP.part.hbond>
-1.0000

> <Gold.PLP.part.metal>
0.0000

> <Gold.PLP.part.buried>
-3.4145

> <Gold.PLP.part.nonpolar>
-39.1997

> <Gold.PLP.part.repulsive>
0.0000

> <Gold.PLP.ligand.clash>
0.0000

> <Gold.PLP.ligand.torsion>
0.3299

> <Gold.PLP.Chemscore.Hbond>
1.0000

> <Gold.PLP.Chemscore.CHOScore>
0.0000

> <Gold.PLP.Chemscore.Metal>
0.0000

> <Gold.Chemscore.Hbonds>
donor molecule, donor type, donor heavy atom, donor atom, acceptor molecule, acceptor atom, score
      P1  H  7997  8010       L1    10  1.00

> <Gold.PLP.Chemscore.Internal.Correction>
0.0847

> <Gold.Rescore>
     Score         DG    S(hbond)    S(metal)    S(lipo)     H(rot)  DE(clash)    DE(int)     intcor
     19.65     -19.99       1.00        0.00     126.62       1.42       0.02       0.32       ----

> <Gold.Chemscore.Fitness>
19.6485

> <Gold.Chemscore.DG>
-19.9852

> <Gold.Chemscore.ZeroCoef>
-5.4800

> <Gold.Chemscore.Hbond>
0.9963

> <Gold.Chemscore.Metal>
0.0000

> <Gold.Chemscore.Lipo>
126.6234

> <Gold.Chemscore.Internal_Hbond>
0.0000

> <Gold.Chemscore.DEClash>
0.0178

> <Gold.Chemscore.DEInternal>
0.3189

> <Gold.Chemscore.Rot>
1.4209

> <Gold.Chemscore.Internal.Correction>
   9.000000E+99

> <Gold.Chemscore.Hbonds>
donor molecule, donor type, donor heavy atom, donor atom, acceptor molecule, acceptor atom, score
      P1  H  7997  8010       L1    10  0.96

> <Gold.Chemscore.Hbond.Weighted>
-3.3278

> <Gold.Chemscore.Metal.Weighted>
-0.0000

> <Gold.Chemscore.Lipo.Weighted>
-14.8149

> <Gold.Chemscore.Internal_Hbond.Weighted>
0.0000

> <Gold.Chemscore.DEClash.Weighted>
0.0178

> <Gold.Chemscore.DEInternal.Weighted>
0.3189

> <Gold.Chemscore.Rot.Weighted>
3.6376

> <Gold.Chemscore.Internal.Correction.Weighted>
   9.000000E+99

> <Gold.Protein.RotatedTorsions>
[ 6907 6896 6895 6894 ] final  -67.94 input  -60.11 | X-H torsion
[ 7974 7965 7964 7962 ] final -170.52 input  175.53 | X-H torsion
[ 8008 7997 7996 7995 ] final  -12.32 input   59.86 | X-H torsion
[ 10167 10162 10161 10158 ] final  160.33 input  -65.29 | X-H torsion
[ 10718 10713 10712 10709 ] final   81.55 input   66.30 | X-H torsion
[ 10763 10752 10751 10750 ] final -102.75 input  -60.55 | X-H torsion
[ 11005 11000 10999 10996 ] final   38.99 input  -57.11 | X-H torsion

> <Gold.Protein.ActiveResidues>
 VAL166  LYS551  ARG553  GLY616  TRP617  ASP618  TYR619  PRO620  LYS621  CYS622 
 ASP623  PHE694  ASN695  SER759  ASP760  ASP761  ALA762  ILE779  LEU786  VAL792 
 PHE793  MET794  SER795  GLU796  ALA797  LYS798  CYS799  TRP800  GLU811  SER814 

> <Gold.Protein.RotatedAtoms>
  150.7382  134.5810  159.5938 H   0  0  0  0  0  0  0  0  0  0  0  0  # atno 6907 bound_to 6896
  152.3224  134.7361  160.0319 H   0  0  0  0  0  0  0  0  0  0  0  0  # atno 6908 bound_to 6896
  151.7872  133.3320  159.3525 H   0  0  0  0  0  0  0  0  0  0  0  0  # atno 6909 bound_to 6896
  144.7169  140.2060  143.6333 H   0  0  0  0  0  0  0  0  0  0  0  0  # atno 7974 bound_to 7965
  154.5388  140.2279  155.8677 H   0  0  0  0  0  0  0  0  0  0  0  0  # atno 8008 bound_to 7997
  156.1837  140.3094  155.9160 H   0  0  0  0  0  0  0  0  0  0  0  0  # atno 8009 bound_to 7997
  155.3301  140.0445  157.3033 H   0  0  0  0  0  0  0  0  0  0  0  0  # atno 8010 bound_to 7997
  139.4839  144.4645  151.8660 H   0  0  0  0  0  0  0  0  0  0  0  0  # atno 10167 bound_to 10162
  157.6836  131.0009  150.2244 H   0  0  0  0  0  0  0  0  0  0  0  0  # atno 10718 bound_to 10713
  154.7757  135.4849  153.9740 H   0  0  0  0  0  0  0  0  0  0  0  0  # atno 10763 bound_to 10752
  153.1426  135.6775  153.9011 H   0  0  0  0  0  0  0  0  0  0  0  0  # atno 10764 bound_to 10752
  153.8681  135.3147  155.3419 H   0  0  0  0  0  0  0  0  0  0  0  0  # atno 10765 bound_to 10752
  140.2072  134.3799  155.8067 H   0  0  0  0  0  0  0  0  0  0  0  0  # atno 11005 bound_to 11000
  145.8635  139.2235  143.1702 LP  0  0  0  0  0  0  0  0  0  0  0  0  # atno 17320 bound_to 7965
  146.0151  140.8400  142.9951 LP  0  0  0  0  0  0  0  0  0  0  0  0  # atno 17321 bound_to 7965
  140.4109  144.2370  150.5889 LP  0  0  0  0  0  0  0  0  0  0  0  0  # atno 17342 bound_to 10162
  140.4967  143.2330  151.8739 LP  0  0  0  0  0  0  0  0  0  0  0  0  # atno 17343 bound_to 10162
  156.2889  130.3743  149.7861 LP  0  0  0  0  0  0  0  0  0  0  0  0  # atno 17370 bound_to 10713
  156.5527  130.8349  151.3304 LP  0  0  0  0  0  0  0  0  0  0  0  0  # atno 17371 bound_to 10713
  141.2227  133.7124  156.8356 LP  0  0  0  0  0  0  0  0  0  0  0  0  # atno 17394 bound_to 11000
  140.1990  134.8910  157.3148 LP  0  0  0  0  0  0  0  0  0  0  0  0  # atno 17395 bound_to 11000

$$$$
