AV-unprocessed.smi:1424|AV-procd|sdf|5799|dock6
  -GOLD-   22720 5453D 1   1.00000     0.00000
 Structure written by MMmdl.
 45 47  0  0  0  0  0  0  0  0  1 V2000
  146.4459  138.8711  154.6085 O   0  0  0  0  0  0  0  0  0  0  0  0
  147.0400  138.0920  153.8637 C   0  0  0  0  0  0  0  0  0  0  0  0
  148.3586  138.1520  153.6288 N   0  0  0  0  0  0  0  0  0  0  0  0
  149.2756  139.1423  154.1858 C   0  0  0  0  0  0  0  0  0  0  0  0
  150.2598  138.5258  155.1994 C   0  0  2  0  0  0  0  0  0  0  0  0
  150.8836  139.5492  156.1729 C   0  0  0  0  0  0  0  0  0  0  0  0
  152.0455  138.8784  156.9122 C   0  0  0  0  0  0  0  0  0  0  0  0
  152.7951  137.7238  155.7061 S   0  0  0  0  0  0  0  0  0  0  0  0
  153.9799  138.3495  155.0997 O   0  0  0  0  0  0  0  0  0  0  0  0
  152.8702  136.3836  156.3071 O   0  0  0  0  0  0  0  0  0  0  0  0
  151.4121  137.7820  154.5040 C   0  0  0  0  0  0  0  0  0  0  0  0
  146.4712  137.0904  153.1717 N   0  0  0  0  0  0  0  0  0  0  0  0
  145.0991  136.7094  153.1214 C   0  0  0  0  0  0  0  0  0  0  0  0
  144.0878  137.3950  153.8383 C   0  0  0  0  0  0  0  0  0  0  0  0
  142.7571  136.9495  153.7460 C   0  0  0  0  0  0  0  0  0  0  0  0
  142.4834  135.8263  152.9468 C   0  0  0  0  0  0  0  0  0  0  0  0
  143.4360  135.1522  152.2719 N   0  0  0  0  0  0  0  0  0  0  0  0
  144.7208  135.5770  152.3502 C   0  0  0  0  0  0  0  0  0  0  0  0
  145.6985  134.8298  151.6613 N   0  0  0  0  0  0  0  0  0  0  0  0
  146.0608  133.5866  152.3358 C   0  0  0  0  0  0  0  0  0  0  0  0
  146.3479  132.5666  151.2330 C   0  0  0  0  0  0  0  0  0  0  0  0
  145.4575  133.0413  150.0917 C   0  0  0  0  0  0  0  0  0  0  0  0
  145.5163  134.5617  150.2351 C   0  0  0  0  0  0  0  0  0  0  0  0
  148.7576  137.4699  153.0006 H   0  0  0  0  0  0  0  0  0  0  0  0
  149.8345  139.5713  153.3536 H   0  0  0  0  0  0  0  0  0  0  0  0
  148.7281  139.9706  154.6394 H   0  0  0  0  0  0  0  0  0  0  0  0
  149.7206  137.7932  155.8023 H   0  0  0  0  0  0  0  0  0  0  0  0
  151.2687  140.3967  155.6042 H   0  0  0  0  0  0  0  0  0  0  0  0
  150.1501  139.9447  156.8757 H   0  0  0  0  0  0  0  0  0  0  0  0
  152.7917  139.5867  157.2728 H   0  0  0  0  0  0  0  0  0  0  0  0
  151.6801  138.2936  157.7566 H   0  0  0  0  0  0  0  0  0  0  0  0
  151.1399  136.7723  154.1960 H   0  0  0  0  0  0  0  0  0  0  0  0
  151.7606  138.3284  153.6269 H   0  0  0  0  0  0  0  0  0  0  0  0
  147.0763  136.5943  152.5337 H   0  0  0  0  0  0  0  0  0  0  0  0
  144.3077  138.2432  154.4677 H   0  0  0  0  0  0  0  0  0  0  0  0
  141.9662  137.4548  154.2802 H   0  0  0  0  0  0  0  0  0  0  0  0
  141.4743  135.4533  152.8529 H   0  0  0  0  0  0  0  0  0  0  0  0
  146.9268  133.7266  152.9830 H   0  0  0  0  0  0  0  0  0  0  0  0
  145.2320  133.2402  152.9563 H   0  0  0  0  0  0  0  0  0  0  0  0
  147.3954  132.6274  150.9337 H   0  0  0  0  0  0  0  0  0  0  0  0
  146.1414  131.5408  151.5390 H   0  0  0  0  0  0  0  0  0  0  0  0
  145.7908  132.6932  149.1138 H   0  0  0  0  0  0  0  0  0  0  0  0
  144.4357  132.6923  150.2478 H   0  0  0  0  0  0  0  0  0  0  0  0
  144.6442  135.0434  149.7924 H   0  0  0  0  0  0  0  0  0  0  0  0
  146.3908  134.9496  149.7116 H   0  0  0  0  0  0  0  0  0  0  0  0
  1  2  2  0  0  0  0
  2  3  1  0  0  0  0
  2 12  1  0  0  0  0
  3  4  1  0  0  0  0
  3 24  1  0  0  0  0
  4  5  1  0  0  0  0
  4 25  1  0  0  0  0
  4 26  1  0  0  0  0
  5 11  1  0  0  0  0
  5  6  1  0  0  0  0
  5 27  1  0  0  0  0
  6  7  1  0  0  0  0
  6 28  1  0  0  0  0
  6 29  1  0  0  0  0
  7  8  1  0  0  0  0
  7 30  1  0  0  0  0
  7 31  1  0  0  0  0
  8  9  2  0  0  0  0
  8 10  2  0  0  0  0
  8 11  1  0  0  0  0
 11 32  1  0  0  0  0
 11 33  1  0  0  0  0
 12 13  1  0  0  0  0
 12 34  1  0  0  0  0
 13 18  1  0  0  0  0
 13 14  2  0  0  0  0
 14 15  1  0  0  0  0
 14 35  1  0  0  0  0
 15 16  2  0  0  0  0
 15 36  1  0  0  0  0
 16 17  1  0  0  0  0
 16 37  1  0  0  0  0
 17 18  2  0  0  0  0
 18 19  1  0  0  0  0
 19 23  1  0  0  0  0
 19 20  1  0  0  0  0
 20 21  1  0  0  0  0
 20 38  1  0  0  0  0
 20 39  1  0  0  0  0
 21 22  1  0  0  0  0
 21 40  1  0  0  0  0
 21 41  1  0  0  0  0
 22 23  1  0  0  0  0
 22 42  1  0  0  0  0
 22 43  1  0  0  0  0
 23 44  1  0  0  0  0
 23 45  1  0  0  0  0
M  END
> <s_m_source_file>
AV-unprocessed.smi

> <i_m_source_file_index>
1424

> <i_lp_mmshare_version>
43012

> <i_f3d_flags>
0

> <s_epik_input>
Tz1TMSg9TylbQ0gyXVtDSDJdW0NASF0oW0NIMl0xKVtDSDJdW05IXUMoPU8pW05IXWMyW2NIXVtjSF1bY0hdbmMyTjNbQ0gyXVtDSDJdW0NIMl1bQ0gyXTM=

> <s_epik_cmdline>
J2VwaWtfcHl0aG9uJywgJy1waCcsICc3LjAnLCAnLXRuJywgJzgnLCAnLW1hJywgJzIwMCcsICctbWV0YWxfYmluZGluZycsICctaW1hZScsICc8aW5maWxlLm1hZT4nLCAnLW9tYWUnLCAnPG91dGZpbGUubWFlPic=

> <r_lp_tautomer_probability>
1

> <r_epik_Ionization_Penalty>
0.0965651

> <r_epik_Ionization_Penalty_Charging>
0

> <r_epik_Ionization_Penalty_Neutral>
0.0965651

> <r_epik_State_Penalty>
0.0861592

> <r_epik_Charging_Adjusted_Penalty>
0.0861592

> <i_epik_Tot_Q>
0

> <i_epik_Tot_abs_Q>
0

> <r_epik_Metal_State_Penalty>
0.0740444

> <b_epik_Metal_Only>
0

> <s_lp_Force_Field>
OPLS_2005

> <r_lp_Energy>
33.9356

> <b_lp_Chiralities_Consistent>
1

> <s_lp_Variant>
AV-unprocessed.smi:1424-1

> <Gold.Version>
5.8.1

> <Gold.Id.Protein>
6NUR|6NUR_protein|mol2

> <Gold.PLP.Fitness>
43.7668

> <Gold.PLP.PLP>
-33.7135

> <Gold.PLP.part.hbond>
-5.0000

> <Gold.PLP.part.metal>
0.0000

> <Gold.PLP.part.buried>
-1.5328

> <Gold.PLP.part.nonpolar>
-28.3253

> <Gold.PLP.part.repulsive>
0.4703

> <Gold.PLP.ligand.clash>
0.0000

> <Gold.PLP.ligand.torsion>
0.5036

> <Gold.PLP.Chemscore.Hbond>
3.6480

> <Gold.PLP.Chemscore.CHOScore>
0.0000

> <Gold.PLP.Chemscore.Metal>
0.0000

> <Gold.Chemscore.Hbonds>
donor molecule, donor type, donor heavy atom, donor atom, acceptor molecule, acceptor atom, score
      L1  H     3    24       P1  7948  1.00
      L1  H    12    34       P1  7948  0.99
      P1  H  7997  8008       L1     9  0.61
      P1  H 10752 10764       L1    10  0.90

> <Gold.PLP.Chemscore.Internal.Correction>
0.1165

> <Gold.Rescore>
     Score         DG    S(hbond)    S(metal)    S(lipo)     H(rot)  DE(clash)    DE(int)     intcor
     17.51     -20.63       3.13        0.00      72.36       1.47       1.37       1.75       ----

> <Gold.Chemscore.Fitness>
17.5082

> <Gold.Chemscore.DG>
-20.6267

> <Gold.Chemscore.ZeroCoef>
-5.4800

> <Gold.Chemscore.Hbond>
3.1303

> <Gold.Chemscore.Metal>
0.0000

> <Gold.Chemscore.Lipo>
72.3578

> <Gold.Chemscore.Internal_Hbond>
0.0000

> <Gold.Chemscore.DEClash>
1.3707

> <Gold.Chemscore.DEInternal>
1.7478

> <Gold.Chemscore.Rot>
1.4744

> <Gold.Chemscore.Internal.Correction>
   9.000000E+99

> <Gold.Chemscore.Hbonds>
donor molecule, donor type, donor heavy atom, donor atom, acceptor molecule, acceptor atom, score
      L1  H     3    24       P1  7948  1.00
      L1  H    12    34       P1  7948  0.88
      P1  H  7997  8008       L1     9  0.56
      P1  H 10752 10764       L1    10  0.29

> <Gold.Chemscore.Hbond.Weighted>
-10.4553

> <Gold.Chemscore.Metal.Weighted>
-0.0000

> <Gold.Chemscore.Lipo.Weighted>
-8.4659

> <Gold.Chemscore.Internal_Hbond.Weighted>
0.0000

> <Gold.Chemscore.DEClash.Weighted>
1.3707

> <Gold.Chemscore.DEInternal.Weighted>
1.7478

> <Gold.Chemscore.Rot.Weighted>
3.7744

> <Gold.Chemscore.Internal.Correction.Weighted>
   9.000000E+99

> <Gold.Protein.RotatedTorsions>
[ 6907 6896 6895 6894 ] final -122.88 input  -60.11 | X-H torsion
[ 7974 7965 7964 7962 ] final   70.54 input  175.53 | X-H torsion
[ 8008 7997 7996 7995 ] final   -2.27 input   59.86 | X-H torsion
[ 10167 10162 10161 10158 ] final   90.55 input  -65.29 | X-H torsion
[ 10718 10713 10712 10709 ] final -140.76 input   66.30 | X-H torsion
[ 10763 10752 10751 10750 ] final  -30.24 input  -60.55 | X-H torsion
[ 11005 11000 10999 10996 ] final  163.72 input  -57.11 | X-H torsion

> <Gold.Protein.ActiveResidues>
 VAL166  LYS551  ARG553  GLY616  TRP617  ASP618  TYR619  PRO620  LYS621  CYS622 
 ASP623  PHE694  ASN695  SER759  ASP760  ASP761  ALA762  ILE779  LEU786  VAL792 
 PHE793  MET794  SER795  GLU796  ALA797  LYS798  CYS799  TRP800  GLU811  SER814 

> <Gold.Protein.RotatedAtoms>
  150.8617  133.7633  159.2989 H   0  0  0  0  0  0  0  0  0  0  0  0  # atno 6907 bound_to 6896
  151.5273  135.1066  159.9903 H   0  0  0  0  0  0  0  0  0  0  0  0  # atno 6908 bound_to 6896
  152.4631  133.7821  159.6912 H   0  0  0  0  0  0  0  0  0  0  0  0  # atno 6909 bound_to 6896
  145.7769  139.2869  143.1288 H   0  0  0  0  0  0  0  0  0  0  0  0  # atno 7974 bound_to 7965
  154.6376  140.2538  155.7359 H   0  0  0  0  0  0  0  0  0  0  0  0  # atno 8008 bound_to 7997
  156.2512  140.2894  156.0676 H   0  0  0  0  0  0  0  0  0  0  0  0  # atno 8009 bound_to 7997
  155.1646  140.0385  157.2840 H   0  0  0  0  0  0  0  0  0  0  0  0  # atno 8010 bound_to 7997
  139.8462  144.6616  150.9224 H   0  0  0  0  0  0  0  0  0  0  0  0  # atno 10167 bound_to 10162
  156.3261  130.7561  151.1669 H   0  0  0  0  0  0  0  0  0  0  0  0  # atno 10718 bound_to 10713
  153.7777  135.6907  153.4894 H   0  0  0  0  0  0  0  0  0  0  0  0  # atno 10763 bound_to 10752
  153.1832  135.4498  155.0053 H   0  0  0  0  0  0  0  0  0  0  0  0  # atno 10764 bound_to 10752
  154.8093  135.3370  154.7282 H   0  0  0  0  0  0  0  0  0  0  0  0  # atno 10765 bound_to 10752
  140.2386  134.8068  157.3388 H   0  0  0  0  0  0  0  0  0  0  0  0  # atno 11005 bound_to 11000
  146.0114  140.8432  142.9969 LP  0  0  0  0  0  0  0  0  0  0  0  0  # atno 17320 bound_to 7965
  144.6803  140.2495  143.7333 LP  0  0  0  0  0  0  0  0  0  0  0  0  # atno 17321 bound_to 7965
  140.7793  143.3868  151.1380 LP  0  0  0  0  0  0  0  0  0  0  0  0  # atno 17342 bound_to 10162
  139.7510  143.8779  152.3076 LP  0  0  0  0  0  0  0  0  0  0  0  0  # atno 17343 bound_to 10162
  157.7421  131.0494  150.5046 LP  0  0  0  0  0  0  0  0  0  0  0  0  # atno 17370 bound_to 10713
  156.5205  130.4161  149.6253 LP  0  0  0  0  0  0  0  0  0  0  0  0  # atno 17371 bound_to 10713
  140.1676  134.4649  155.7852 LP  0  0  0  0  0  0  0  0  0  0  0  0  # atno 17394 bound_to 11000
  141.2212  133.6928  156.7653 LP  0  0  0  0  0  0  0  0  0  0  0  0  # atno 17395 bound_to 11000

$$$$
