AV-unprocessed.smi:560|AV-procd|sdf|2930|dock1
  -GOLD-   2262023423D 1   1.00000     0.00000
 Structure written by MMmdl.
 42 43  0  0  0  0  0  0  0  0  2 V2000
  151.5078  139.0463  154.9817 C   0  0  0  0  0  0  0  0  0  0  0  0
  150.4392  139.8147  155.7855 C   0  0  2  0  0  0  0  0  0  0  0  0
  149.4031  140.5172  154.8919 C   0  0  0  0  0  0  0  0  0  0  0  0
  149.7554  141.3062  154.0145 O   0  0  0  0  0  0  0  0  0  0  0  0
  148.1161  140.2127  155.1265 N   0  0  0  0  0  0  0  0  0  0  0  0
  146.9677  140.7828  154.4241 C   0  0  2  0  0  0  0  0  0  0  0  0
  145.6561  140.2226  155.0008 C   0  0  0  0  0  0  0  0  0  0  0  0
  145.4377  138.7477  154.6161 C   0  0  0  0  0  0  0  0  0  0  0  0
  145.4891  138.5615  153.1437 N   0  3  2  0  0  0  0  0  0  0  0  0
  145.1389  137.1769  152.7344 C   0  0  0  0  0  0  0  0  0  0  0  0
  143.6303  136.9095  152.7563 C   0  0  0  0  0  0  0  0  0  0  0  0
  142.8283  137.9761  152.7199 N   0  0  0  0  0  0  0  0  0  0  0  0
  143.1922  135.7610  152.7897 O   0  0  0  0  0  0  0  0  0  0  0  0
  146.7832  139.0284  152.5786 C   0  0  0  0  0  0  0  0  0  0  0  0
  147.0274  140.5112  152.9076 C   0  0  0  0  0  0  0  0  0  0  0  0
  151.0376  140.7630  156.7184 N   0  0  0  0  0  0  0  0  0  0  0  0
  150.8757  142.1331  156.7565 C   0  0  0  0  0  0  0  0  0  0  0  0
  151.6499  142.6101  157.7748 C   0  0  0  0  0  0  0  0  0  0  0  0
  152.2654  141.4433  158.3068 C   0  0  0  0  0  0  0  0  0  0  0  0
  151.9040  140.3421  157.6692 N   0  0  0  0  0  0  0  0  0  0  0  0
  151.0513  138.2920  154.3400 H   0  0  0  0  0  0  0  0  0  0  0  0
  152.1988  138.5303  155.6489 H   0  0  0  0  0  0  0  0  0  0  0  0
  152.0974  139.7088  154.3465 H   0  0  0  0  0  0  0  0  0  0  0  0
  149.8948  139.0795  156.3807 H   0  0  0  0  0  0  0  0  0  0  0  0
  147.9186  139.5595  155.8707 H   0  0  0  0  0  0  0  0  0  0  0  0
  146.9758  141.8618  154.5901 H   0  0  0  0  0  0  0  0  0  0  0  0
  145.6415  140.3336  156.0859 H   0  0  0  0  0  0  0  0  0  0  0  0
  144.8201  140.8145  154.6255 H   0  0  0  0  0  0  0  0  0  0  0  0
  146.1885  138.1140  155.0909 H   0  0  0  0  0  0  0  0  0  0  0  0
  144.4672  138.4236  154.9935 H   0  0  0  0  0  0  0  0  0  0  0  0
  145.5539  136.9614  151.7484 H   0  0  0  0  0  0  0  0  0  0  0  0
  145.5897  136.4647  153.4269 H   0  0  0  0  0  0  0  0  0  0  0  0
  141.8252  137.8604  152.7369 H   0  0  0  0  0  0  0  0  0  0  0  0
  143.2296  138.9025  152.6801 H   0  0  0  0  0  0  0  0  0  0  0  0
  147.5970  138.4156  152.9695 H   0  0  0  0  0  0  0  0  0  0  0  0
  146.7885  138.9002  151.4959 H   0  0  0  0  0  0  0  0  0  0  0  0
  146.2684  141.1144  152.4077 H   0  0  0  0  0  0  0  0  0  0  0  0
  147.9841  140.8332  152.4948 H   0  0  0  0  0  0  0  0  0  0  0  0
  150.2287  142.6501  156.0633 H   0  0  0  0  0  0  0  0  0  0  0  0
  151.7615  143.6366  158.0907 H   0  0  0  0  0  0  0  0  0  0  0  0
  152.9616  141.3645  159.1287 H   0  0  0  0  0  0  0  0  0  0  0  0
  144.7691  139.1559  152.7569 H   0  0  0  0  0  0  0  0  0  0  0  0
  1  2  1  0  0  0  0
  1 21  1  0  0  0  0
  1 22  1  0  0  0  0
  1 23  1  0  0  0  0
  2  3  1  0  0  0  0
  2 16  1  0  0  0  0
  2 24  1  0  0  0  0
  3  4  2  0  0  0  0
  3  5  1  0  0  0  0
  5  6  1  0  0  0  0
  5 25  1  0  0  0  0
  6 15  1  0  0  0  0
  6  7  1  0  0  0  0
  6 26  1  0  0  0  0
  7  8  1  0  0  0  0
  7 27  1  0  0  0  0
  7 28  1  0  0  0  0
  8  9  1  0  0  0  0
  8 29  1  0  0  0  0
  8 30  1  0  0  0  0
  9 10  1  0  0  0  0
  9 14  1  0  0  0  0
  9 42  1  0  0  0  0
 10 11  1  0  0  0  0
 10 31  1  0  0  0  0
 10 32  1  0  0  0  0
 11 12  1  0  0  0  0
 11 13  2  0  0  0  0
 12 33  1  0  0  0  0
 12 34  1  0  0  0  0
 14 15  1  0  0  0  0
 14 35  1  0  0  0  0
 14 36  1  0  0  0  0
 15 37  1  0  0  0  0
 15 38  1  0  0  0  0
 16 20  1  0  0  0  0
 16 17  1  0  0  0  0
 17 18  2  0  0  0  0
 17 39  1  0  0  0  0
 18 19  1  0  0  0  0
 18 40  1  0  0  0  0
 19 20  2  0  0  0  0
 19 41  1  0  0  0  0
M  CHG  1   9   1
M  END
> <s_m_source_file>
AV-unprocessed.smi

> <i_m_source_file_index>
560

> <i_lp_mmshare_version>
43012

> <i_f3d_flags>
0

> <s_epik_input>
bjFbY0hdW2NIXVtjSF1uMVtDQEhdKFtDSDNdKUMoPU8pW05IXVtDSF0yW0NIMl1bQ0gyXU4oW0NIMl1bQ0gyXTIpW0NIMl1DKD1PKVtOSDJd

> <s_epik_cmdline>
J2VwaWtfcHl0aG9uJywgJy1waCcsICc3LjAnLCAnLXRuJywgJzgnLCAnLW1hJywgJzIwMCcsICctbWV0YWxfYmluZGluZycsICctaW1hZScsICc8aW5maWxlLm1hZT4nLCAnLW9tYWUnLCAnPG91dGZpbGUubWFlPic=

> <r_lp_tautomer_probability>
1

> <r_epik_Ionization_Penalty>
1.02943

> <r_epik_Ionization_Penalty_Charging>
1.02936

> <r_epik_Ionization_Penalty_Neutral>
7.4537e-05

> <r_epik_State_Penalty>
1.08036

> <r_epik_Charging_Adjusted_Penalty>
2.10972

> <i_epik_Tot_Q>
1

> <i_epik_Tot_abs_Q>
1

> <r_epik_Metal_State_Penalty>
1.09347

> <b_epik_Metal_Only>
0

> <s_lp_Force_Field>
OPLS_2005

> <r_lp_Energy>
16.2494

> <b_lp_Chiralities_Consistent>
1

> <s_lp_Variant>
AV-unprocessed.smi:560-5

> <Gold.Version>
5.8.1

> <Gold.Id.Protein>
6NUR|6NUR_protein|mol2

> <Gold.PLP.Fitness>
45.0351

> <Gold.PLP.PLP>
-31.1334

> <Gold.PLP.part.hbond>
-5.0000

> <Gold.PLP.part.metal>
0.0000

> <Gold.PLP.part.buried>
-0.5755

> <Gold.PLP.part.nonpolar>
-25.9410

> <Gold.PLP.part.repulsive>
0.4328

> <Gold.PLP.ligand.clash>
0.0000

> <Gold.PLP.ligand.torsion>
0.6744

> <Gold.PLP.Chemscore.Hbond>
3.9920

> <Gold.PLP.Chemscore.CHOScore>
1.0000

> <Gold.PLP.Chemscore.Metal>
0.0000

> <Gold.Chemscore.Hbonds>
donor molecule, donor type, donor heavy atom, donor atom, acceptor molecule, acceptor atom, score
      L1  H     9    42       P1 10175  2.00
      L1  H    12    34       P1 10175  1.00
      P1  H  7989  7998       L1     4  0.30
      P1  H  8011  8017       L1     4  0.74
      L1  C    17    39       P1  8028  1.00

> <Gold.PLP.Chemscore.Internal.Correction>
0.2744

> <Gold.Rescore>
     Score         DG    S(hbond)    S(metal)    S(lipo)     H(rot)  DE(clash)    DE(int)     intcor
     14.85     -17.04       3.01        0.00      68.11       2.52       0.47       1.72       ----

> <Gold.Chemscore.Fitness>
14.8513

> <Gold.Chemscore.DG>
-17.0431

> <Gold.Chemscore.ZeroCoef>
-5.4800

> <Gold.Chemscore.Hbond>
3.0110

> <Gold.Chemscore.Metal>
0.0000

> <Gold.Chemscore.Lipo>
68.1080

> <Gold.Chemscore.Internal_Hbond>
0.0000

> <Gold.Chemscore.DEClash>
0.4710

> <Gold.Chemscore.DEInternal>
1.7208

> <Gold.Chemscore.Rot>
2.5243

> <Gold.Chemscore.Internal.Correction>
   9.000000E+99

> <Gold.Chemscore.Hbonds>
donor molecule, donor type, donor heavy atom, donor atom, acceptor molecule, acceptor atom, score
      L1  H     9    42       P1 10175  1.00
      L1  H    12    34       P1 10175  0.98
      P1  H  7989  7998       L1     4  0.22
      P1  H  8011  8017       L1     4  0.69

> <Gold.Chemscore.Hbond.Weighted>
-10.0567

> <Gold.Chemscore.Metal.Weighted>
-0.0000

> <Gold.Chemscore.Lipo.Weighted>
-7.9686

> <Gold.Chemscore.Internal_Hbond.Weighted>
0.0000

> <Gold.Chemscore.DEClash.Weighted>
0.4710

> <Gold.Chemscore.DEInternal.Weighted>
1.7208

> <Gold.Chemscore.Rot.Weighted>
6.4622

> <Gold.Chemscore.Internal.Correction.Weighted>
   9.000000E+99

> <Gold.Protein.RotatedTorsions>
[ 6907 6896 6895 6894 ] final -123.04 input  -60.11 | X-H torsion
[ 7974 7965 7964 7962 ] final  103.55 input  175.53 | X-H torsion
[ 8008 7997 7996 7995 ] final -167.85 input   59.86 | X-H torsion
[ 10167 10162 10161 10158 ] final    2.85 input  -65.29 | X-H torsion
[ 10718 10713 10712 10709 ] final  -85.88 input   66.30 | X-H torsion
[ 10763 10752 10751 10750 ] final  -16.22 input  -60.55 | X-H torsion
[ 11005 11000 10999 10996 ] final  -59.17 input  -57.11 | X-H torsion

> <Gold.Protein.ActiveResidues>
 VAL166  LYS551  ARG553  GLY616  TRP617  ASP618  TYR619  PRO620  LYS621  CYS622 
 ASP623  PHE694  ASN695  SER759  ASP760  ASP761  ALA762  ILE779  LEU786  VAL792 
 PHE793  MET794  SER795  GLU796  ALA797  LYS798  CYS799  TRP800  GLU811  SER814 

> <Gold.Protein.RotatedAtoms>
  150.8633  133.7612  159.2985 H   0  0  0  0  0  0  0  0  0  0  0  0  # atno 6907 bound_to 6896
  151.5248  135.1066  159.9897 H   0  0  0  0  0  0  0  0  0  0  0  0  # atno 6908 bound_to 6896
  152.4642  133.7843  159.6923 H   0  0  0  0  0  0  0  0  0  0  0  0  # atno 6909 bound_to 6896
  145.3445  139.2454  143.3592 H   0  0  0  0  0  0  0  0  0  0  0  0  # atno 7974 bound_to 7965
  155.8834  140.1013  157.1469 H   0  0  0  0  0  0  0  0  0  0  0  0  # atno 8008 bound_to 7997
  154.4007  140.1324  156.4289 H   0  0  0  0  0  0  0  0  0  0  0  0  # atno 8009 bound_to 7997
  155.7617  140.3463  155.5203 H   0  0  0  0  0  0  0  0  0  0  0  0  # atno 8010 bound_to 7997
  140.6615  143.7291  150.7747 H   0  0  0  0  0  0  0  0  0  0  0  0  # atno 10167 bound_to 10162
  155.9993  130.4746  150.4630 H   0  0  0  0  0  0  0  0  0  0  0  0  # atno 10718 bound_to 10713
  153.5553  135.7011  153.5572 H   0  0  0  0  0  0  0  0  0  0  0  0  # atno 10763 bound_to 10752
  153.3478  135.4003  155.1622 H   0  0  0  0  0  0  0  0  0  0  0  0  # atno 10764 bound_to 10752
  154.8655  135.3758  154.5067 H   0  0  0  0  0  0  0  0  0  0  0  0  # atno 10765 bound_to 10752
  141.1237  133.6615  156.5031 H   0  0  0  0  0  0  0  0  0  0  0  0  # atno 11005 bound_to 11000
  146.2994  140.4048  142.8710 LP  0  0  0  0  0  0  0  0  0  0  0  0  # atno 17320 bound_to 7965
  144.8765  140.7343  143.6014 LP  0  0  0  0  0  0  0  0  0  0  0  0  # atno 17321 bound_to 7965
  140.0961  143.4832  152.2451 LP  0  0  0  0  0  0  0  0  0  0  0  0  # atno 17342 bound_to 10162
  139.5850  144.7527  151.3542 LP  0  0  0  0  0  0  0  0  0  0  0  0  # atno 17343 bound_to 10162
  157.2652  131.0575  151.2295 LP  0  0  0  0  0  0  0  0  0  0  0  0  # atno 17370 bound_to 10713
  157.3395  130.7026  149.6373 LP  0  0  0  0  0  0  0  0  0  0  0  0  # atno 17371 bound_to 10713
  140.4430  134.6998  157.5001 LP  0  0  0  0  0  0  0  0  0  0  0  0  # atno 17394 bound_to 11000
  140.0217  134.6538  155.9231 LP  0  0  0  0  0  0  0  0  0  0  0  0  # atno 17395 bound_to 11000

$$$$
