AV-unprocessed.smi:283|AV-procd|sdf|2151|dock7
  -GOLD-   2262021493D 1   1.00000     0.00000
 Structure written by MMmdl.
 48 51  0  0  0  0  0  0  0  0  1 V2000
  153.4413  139.6487  158.5927 C   0  0  0  0  0  0  0  0  0  0  0  0
  152.1336  140.3489  158.1801 C   0  0  2  0  0  0  0  0  0  0  0  0
  151.9369  140.2972  156.7316 N   0  0  0  0  0  0  0  0  0  0  0  0
  151.6877  139.1365  156.0854 C   0  0  0  0  0  0  0  0  0  0  0  0
  151.8824  139.0153  154.7466 N   0  0  0  0  0  0  0  0  0  0  0  0
  151.6277  137.8544  154.1370 C   0  0  0  0  0  0  0  0  0  0  0  0
  151.1864  136.7127  154.6689 N   0  0  0  0  0  0  0  0  0  0  0  0
  150.9959  136.8234  156.0155 C   0  0  0  0  0  0  0  0  0  0  0  0
  151.2231  137.9959  156.7899 C   0  0  0  0  0  0  0  0  0  0  0  0
  150.9243  137.7461  158.1222 N   0  0  0  0  0  0  0  0  0  0  0  0
  150.5424  136.4977  158.1301 C   0  0  0  0  0  0  0  0  0  0  0  0
  150.5593  135.8622  156.9077 N   0  0  0  0  0  0  0  0  0  0  0  0
  150.1566  134.4473  156.6256 C   0  0  1  0  0  0  0  0  0  0  0  0
  149.2363  134.4589  155.5734 O   0  0  0  0  0  0  0  0  0  0  0  0
  149.7487  133.7454  154.4510 C   0  0  2  0  0  0  0  0  0  0  0  0
  148.6034  133.1533  153.6100 C   0  0  0  0  0  0  0  0  0  0  0  0
  147.7815  134.1837  153.1037 O   0  0  0  0  0  0  0  0  0  0  0  0
  150.7546  132.7591  155.0599 C   0  0  2  0  0  0  0  0  0  0  0  0
  150.0944  131.5906  155.5226 O   0  0  0  0  0  0  0  0  0  0  0  0
  151.3529  133.5820  156.1973 C   0  0  2  0  0  0  0  0  0  0  0  0
  151.8493  132.7547  157.2320 O   0  0  0  0  0  0  0  0  0  0  0  0
  152.1157  141.7768  158.7232 C   0  0  0  0  0  0  0  0  0  0  0  0
  152.6651  142.0547  159.9973 C   0  0  0  0  0  0  0  0  0  0  0  0
  152.6492  143.3625  160.5174 C   0  0  0  0  0  0  0  0  0  0  0  0
  152.0773  144.4085  159.7717 C   0  0  0  0  0  0  0  0  0  0  0  0
  151.5168  144.1427  158.5091 C   0  0  0  0  0  0  0  0  0  0  0  0
  151.5289  142.8350  157.9832 C   0  0  0  0  0  0  0  0  0  0  0  0
  150.8084  142.5669  156.4340 Cl  0  0  0  0  0  0  0  0  0  0  0  0
  149.6662  134.0983  157.5353 H   0  0  0  0  0  0  0  0  0  0  0  0
  150.2962  134.4570  153.8335 H   0  0  0  0  0  0  0  0  0  0  0  0
  151.5144  132.4584  154.3375 H   0  0  0  0  0  0  0  0  0  0  0  0
  152.1551  134.2129  155.8143 H   0  0  0  0  0  0  0  0  0  0  0  0
  153.5559  139.6466  159.6770 H   0  0  0  0  0  0  0  0  0  0  0  0
  154.3105  140.1530  158.1692 H   0  0  0  0  0  0  0  0  0  0  0  0
  153.4692  138.6100  158.2643 H   0  0  0  0  0  0  0  0  0  0  0  0
  151.2961  139.8165  158.6293 H   0  0  0  0  0  0  0  0  0  0  0  0
  152.0365  141.1784  156.2485 H   0  0  0  0  0  0  0  0  0  0  0  0
  151.8034  137.8375  153.0715 H   0  0  0  0  0  0  0  0  0  0  0  0
  150.2352  136.0006  159.0390 H   0  0  0  0  0  0  0  0  0  0  0  0
  148.9805  132.5445  152.7881 H   0  0  0  0  0  0  0  0  0  0  0  0
  147.9904  132.4989  154.2302 H   0  0  0  0  0  0  0  0  0  0  0  0
  148.3308  134.9113  152.8535 H   0  0  0  0  0  0  0  0  0  0  0  0
  150.0055  130.9921  154.7964 H   0  0  0  0  0  0  0  0  0  0  0  0
  151.2813  132.0025  157.3062 H   0  0  0  0  0  0  0  0  0  0  0  0
  153.1005  141.2645  160.5911 H   0  0  0  0  0  0  0  0  0  0  0  0
  153.0739  143.5620  161.4903 H   0  0  0  0  0  0  0  0  0  0  0  0
  152.0637  145.4123  160.1698 H   0  0  0  0  0  0  0  0  0  0  0  0
  151.0713  144.9471  157.9427 H   0  0  0  0  0  0  0  0  0  0  0  0
  1  2  1  0  0  0  0
  1 33  1  0  0  0  0
  1 34  1  0  0  0  0
  1 35  1  0  0  0  0
  2  3  1  0  0  0  0
  2 22  1  0  0  0  0
  2 36  1  0  0  0  0
  3  4  1  0  0  0  0
  3 37  1  0  0  0  0
  4  9  1  0  0  0  0
  4  5  2  0  0  0  0
  5  6  1  0  0  0  0
  6  7  2  0  0  0  0
  6 38  1  0  0  0  0
  7  8  1  0  0  0  0
  8 12  1  0  0  0  0
  8  9  2  0  0  0  0
  9 10  1  0  0  0  0
 10 11  2  0  0  0  0
 11 12  1  0  0  0  0
 11 39  1  0  0  0  0
 12 13  1  0  0  0  0
 13 29  1  0  0  0  0
 13 20  1  0  0  0  0
 13 14  1  0  0  0  0
 14 15  1  0  0  0  0
 15 30  1  0  0  0  0
 15 16  1  0  0  0  0
 15 18  1  0  0  0  0
 16 17  1  0  0  0  0
 16 40  1  0  0  0  0
 16 41  1  0  0  0  0
 17 42  1  0  0  0  0
 18 31  1  0  0  0  0
 18 19  1  0  0  0  0
 18 20  1  0  0  0  0
 19 43  1  0  0  0  0
 20 32  1  0  0  0  0
 20 21  1  0  0  0  0
 21 44  1  0  0  0  0
 22 27  1  0  0  0  0
 22 23  2  0  0  0  0
 23 24  1  0  0  0  0
 23 45  1  0  0  0  0
 24 25  2  0  0  0  0
 24 46  1  0  0  0  0
 25 26  1  0  0  0  0
 25 47  1  0  0  0  0
 26 27  2  0  0  0  0
 26 48  1  0  0  0  0
 27 28  1  0  0  0  0
M  END
> <s_m_source_file>
AV-unprocessed.smi

> <i_m_source_file_index>
283

> <i_lp_mmshare_version>
43012

> <i_f3d_flags>
0

> <s_epik_input>
Q2xjMVtjSF1bY0hdW2NIXVtjSF1jMVtDQEhdKFtDSDNdKVtOSF1jKG5bY0hdbjIpYyhjMjMpbltjSF1uM1tDQEBIXTRPW0NASF0oW0NIMl1bT0hdKVtDQEBIXShbT0hdKVtDQEhdNFtPSF0=

> <s_epik_cmdline>
J2VwaWtfcHl0aG9uJywgJy1waCcsICc3LjAnLCAnLXRuJywgJzgnLCAnLW1hJywgJzIwMCcsICctbWV0YWxfYmluZGluZycsICctaW1hZScsICc8aW5maWxlLm1hZT4nLCAnLW9tYWUnLCAnPG91dGZpbGUubWFlPic=

> <r_lp_tautomer_probability>
1

> <r_epik_Ionization_Penalty>
0.000266407

> <r_epik_Ionization_Penalty_Charging>
0

> <r_epik_Ionization_Penalty_Neutral>
0.000266407

> <r_epik_State_Penalty>
-0

> <r_epik_Charging_Adjusted_Penalty>
0

> <i_epik_Tot_Q>
0

> <i_epik_Tot_abs_Q>
0

> <r_epik_Metal_State_Penalty>
-0

> <b_epik_Metal_Only>
0

> <s_epik_Chemistry_Notes>
This compound contains an acetal/aminal-like group ( X-CH(R)-Y where X, Y are N, S, or O) that may be acid/base labile, releasing an aldehyde.

> <s_lp_Force_Field>
OPLS_2005

> <r_lp_Energy>
49.1948

> <b_lp_Chiralities_Consistent>
1

> <s_lp_Variant>
AV-unprocessed.smi:283-27

> <Gold.Version>
5.8.1

> <Gold.Id.Protein>
6NUR|6NUR_protein|mol2

> <Gold.PLP.Fitness>
54.8452

> <Gold.PLP.PLP>
-45.2513

> <Gold.PLP.part.hbond>
-2.9395

> <Gold.PLP.part.metal>
0.0000

> <Gold.PLP.part.buried>
-4.7522

> <Gold.PLP.part.nonpolar>
-37.3683

> <Gold.PLP.part.repulsive>
0.4203

> <Gold.PLP.ligand.clash>
0.0000

> <Gold.PLP.ligand.torsion>
0.9057

> <Gold.PLP.Chemscore.Hbond>
2.8223

> <Gold.PLP.Chemscore.CHOScore>
0.9479

> <Gold.PLP.Chemscore.Metal>
0.0000

> <Gold.Chemscore.Hbonds>
donor molecule, donor type, donor heavy atom, donor atom, acceptor molecule, acceptor atom, score
      L1  H    17    42       P1  7948  1.00
      P1  H  6896  6907       L1    21  0.50
      P1  H  7989  7998       L1     5  0.48
      P1  H 10752 10764       L1     7  0.84
      L1  C     6    38       P1  7949  0.94

> <Gold.PLP.Chemscore.Internal.Correction>
0.0949

> <Gold.Rescore>
     Score         DG    S(hbond)    S(metal)    S(lipo)     H(rot)  DE(clash)    DE(int)     intcor
     11.00     -15.21       2.11        0.00     112.49       4.10       0.25       3.95       ----

> <Gold.Chemscore.Fitness>
11.0041

> <Gold.Chemscore.DG>
-15.2058

> <Gold.Chemscore.ZeroCoef>
-5.4800

> <Gold.Chemscore.Hbond>
2.1114

> <Gold.Chemscore.Metal>
0.0000

> <Gold.Chemscore.Lipo>
112.4931

> <Gold.Chemscore.Internal_Hbond>
0.0000

> <Gold.Chemscore.DEClash>
0.2475

> <Gold.Chemscore.DEInternal>
3.9542

> <Gold.Chemscore.Rot>
4.0968

> <Gold.Chemscore.Internal.Correction>
   9.000000E+99

> <Gold.Chemscore.Hbonds>
donor molecule, donor type, donor heavy atom, donor atom, acceptor molecule, acceptor atom, score
      L1  H    17    42       P1  7948  0.69
      P1  H  6896  6907       L1    21  0.04
      P1  H  7989  7998       L1     5  0.41
      P1  H 10752 10764       L1     7  0.05

> <Gold.Chemscore.Hbond.Weighted>
-7.0520

> <Gold.Chemscore.Metal.Weighted>
-0.0000

> <Gold.Chemscore.Lipo.Weighted>
-13.1617

> <Gold.Chemscore.Internal_Hbond.Weighted>
0.0000

> <Gold.Chemscore.DEClash.Weighted>
0.2475

> <Gold.Chemscore.DEInternal.Weighted>
3.9542

> <Gold.Chemscore.Rot.Weighted>
10.4879

> <Gold.Chemscore.Internal.Correction.Weighted>
   9.000000E+99

> <Gold.Protein.RotatedTorsions>
[ 6907 6896 6895 6894 ] final -170.13 input  -60.11 | X-H torsion
[ 7974 7965 7964 7962 ] final   29.70 input  175.53 | X-H torsion
[ 8008 7997 7996 7995 ] final   41.57 input   59.86 | X-H torsion
[ 10167 10162 10161 10158 ] final  168.01 input  -65.29 | X-H torsion
[ 10718 10713 10712 10709 ] final  149.11 input   66.30 | X-H torsion
[ 10763 10752 10751 10750 ] final  -55.11 input  -60.55 | X-H torsion
[ 11005 11000 10999 10996 ] final    0.42 input  -57.11 | X-H torsion

> <Gold.Protein.ActiveResidues>
 VAL166  LYS551  ARG553  GLY616  TRP617  ASP618  TYR619  PRO620  LYS621  CYS622 
 ASP623  PHE694  ASN695  SER759  ASP760  ASP761  ALA762  ILE779  LEU786  VAL792 
 PHE793  MET794  SER795  GLU796  ALA797  LYS798  CYS799  TRP800  GLU811  SER814 

> <Gold.Protein.RotatedAtoms>
  151.5027  133.3501  159.2871 H   0  0  0  0  0  0  0  0  0  0  0  0  # atno 6907 bound_to 6896
  150.8762  134.8148  159.7202 H   0  0  0  0  0  0  0  0  0  0  0  0  # atno 6908 bound_to 6896
  152.4732  134.4919  159.9749 H   0  0  0  0  0  0  0  0  0  0  0  0  # atno 6909 bound_to 6896
  146.1656  139.6886  142.9003 H   0  0  0  0  0  0  0  0  0  0  0  0  # atno 7974 bound_to 7965
  155.2719  140.3366  155.4264 H   0  0  0  0  0  0  0  0  0  0  0  0  # atno 8008 bound_to 7997
  156.2129  140.1777  156.7696 H   0  0  0  0  0  0  0  0  0  0  0  0  # atno 8009 bound_to 7997
  154.5712  140.0670  156.8951 H   0  0  0  0  0  0  0  0  0  0  0  0  # atno 8010 bound_to 7997
  139.4958  144.3860  151.9570 H   0  0  0  0  0  0  0  0  0  0  0  0  # atno 10167 bound_to 10162
  157.3002  131.0869  151.1396 H   0  0  0  0  0  0  0  0  0  0  0  0  # atno 10718 bound_to 10713
  154.1855  135.6436  153.5045 H   0  0  0  0  0  0  0  0  0  0  0  0  # atno 10763 bound_to 10752
  153.0048  135.5416  154.6470 H   0  0  0  0  0  0  0  0  0  0  0  0  # atno 10764 bound_to 10752
  154.5845  135.2928  155.0672 H   0  0  0  0  0  0  0  0  0  0  0  0  # atno 10765 bound_to 10752
  140.6267  133.9612  155.8253 H   0  0  0  0  0  0  0  0  0  0  0  0  # atno 11005 bound_to 11000
  145.4477  141.0426  143.2822 LP  0  0  0  0  0  0  0  0  0  0  0  0  # atno 17320 bound_to 7965
  144.8087  139.6002  143.7039 LP  0  0  0  0  0  0  0  0  0  0  0  0  # atno 17321 bound_to 7965
  140.3297  144.3331  150.5990 LP  0  0  0  0  0  0  0  0  0  0  0  0  # atno 17342 bound_to 10162
  140.5655  143.2186  151.7690 LP  0  0  0  0  0  0  0  0  0  0  0  0  # atno 17343 bound_to 10162
  157.2757  130.6726  149.6041 LP  0  0  0  0  0  0  0  0  0  0  0  0  # atno 17370 bound_to 10713
  155.9671  130.4465  150.5544 LP  0  0  0  0  0  0  0  0  0  0  0  0  # atno 17371 bound_to 10713
  141.0704  134.0214  157.3534 LP  0  0  0  0  0  0  0  0  0  0  0  0  # atno 17394 bound_to 11000
  139.9132  135.0193  156.7775 LP  0  0  0  0  0  0  0  0  0  0  0  0  # atno 17395 bound_to 11000

$$$$
