AV-unprocessed.smi:69|AV-procd|sdf|643|dock4
  -GOLD-   2262016533D 1   1.00000     0.00000
 Structure written by MMmdl.
 32 34  0  0  0  0  0  0  0  0  1 V2000
  143.8329  141.3746  155.2542 N   0  0  0  0  0  0  0  0  0  0  0  0
  145.0317  141.6202  155.8010 C   0  0  0  0  0  0  0  0  0  0  0  0
  145.0774  142.0579  157.0812 N   0  0  0  0  0  0  0  0  0  0  0  0
  146.2612  142.3119  157.6481 C   0  0  0  0  0  0  0  0  0  0  0  0
  147.4825  142.1976  157.1196 N   0  0  0  0  0  0  0  0  0  0  0  0
  147.4348  141.7556  155.8285 C   0  0  0  0  0  0  0  0  0  0  0  0
  146.2524  141.4444  155.1014 C   0  0  0  0  0  0  0  0  0  0  0  0
  146.5816  141.0234  153.8202 N   0  0  0  0  0  0  0  0  0  0  0  0
  147.8860  141.0849  153.7953 C   0  0  0  0  0  0  0  0  0  0  0  0
  148.4812  141.5202  154.9594 N   0  0  0  0  0  0  0  0  0  0  0  0
  149.9416  141.6981  155.2259 C   0  0  2  0  0  0  0  0  0  0  0  0
  150.5890  140.5051  154.9070 O   0  0  0  0  0  0  0  0  0  0  0  0
  151.5701  140.2132  155.8951 C   0  0  2  0  0  0  0  0  0  0  0  0
  151.8604  138.7047  155.9100 C   0  0  0  0  0  0  0  0  0  0  0  0
  153.1281  138.4604  156.4813 O   0  0  0  0  0  0  0  0  0  0  0  0
  150.9081  140.7222  157.1766 C   0  0  1  0  0  0  0  0  0  0  0  0
  151.8358  140.9461  158.2228 O   0  0  0  0  0  0  0  0  0  0  0  0
  150.1947  141.9915  156.7150 C   0  0  1  0  0  0  0  0  0  0  0  0
  150.9996  143.1464  156.8739 O   0  0  0  0  0  0  0  0  0  0  0  0
  150.2550  142.5003  154.5554 H   0  0  0  0  0  0  0  0  0  0  0  0
  152.4732  140.7924  155.6909 H   0  0  0  0  0  0  0  0  0  0  0  0
  150.1679  139.9991  157.5198 H   0  0  0  0  0  0  0  0  0  0  0  0
  149.2575  142.1439  157.2524 H   0  0  0  0  0  0  0  0  0  0  0  0
  143.7734  141.0482  154.3004 H   0  0  0  0  0  0  0  0  0  0  0  0
  142.9927  141.5175  155.7957 H   0  0  0  0  0  0  0  0  0  0  0  0
  146.2252  142.6565  158.6710 H   0  0  0  0  0  0  0  0  0  0  0  0
  148.4544  140.8164  152.9165 H   0  0  0  0  0  0  0  0  0  0  0  0
  151.1221  138.1857  156.5219 H   0  0  0  0  0  0  0  0  0  0  0  0
  151.8054  138.2803  154.9070 H   0  0  0  0  0  0  0  0  0  0  0  0
  153.0047  138.1524  157.3661 H   0  0  0  0  0  0  0  0  0  0  0  0
  152.6866  140.6512  157.9358 H   0  0  0  0  0  0  0  0  0  0  0  0
  150.5439  143.8817  156.4933 H   0  0  0  0  0  0  0  0  0  0  0  0
  1  2  1  0  0  0  0
  1 24  1  0  0  0  0
  1 25  1  0  0  0  0
  2  7  1  0  0  0  0
  2  3  2  0  0  0  0
  3  4  1  0  0  0  0
  4  5  2  0  0  0  0
  4 26  1  0  0  0  0
  5  6  1  0  0  0  0
  6 10  1  0  0  0  0
  6  7  2  0  0  0  0
  7  8  1  0  0  0  0
  8  9  2  0  0  0  0
  9 10  1  0  0  0  0
  9 27  1  0  0  0  0
 10 11  1  0  0  0  0
 11 20  1  0  0  0  0
 11 18  1  0  0  0  0
 11 12  1  0  0  0  0
 12 13  1  0  0  0  0
 13 21  1  0  0  0  0
 13 14  1  0  0  0  0
 13 16  1  0  0  0  0
 14 15  1  0  0  0  0
 14 28  1  0  0  0  0
 14 29  1  0  0  0  0
 15 30  1  0  0  0  0
 16 22  1  0  0  0  0
 16 17  1  0  0  0  0
 16 18  1  0  0  0  0
 17 31  1  0  0  0  0
 18 23  1  0  0  0  0
 18 19  1  0  0  0  0
 19 32  1  0  0  0  0
M  END
> <s_m_source_file>
AV-unprocessed.smi

> <i_m_source_file_index>
69

> <i_lp_mmshare_version>
43012

> <i_f3d_flags>
0

> <s_epik_input>
bjFbY0hdbmMoW05IMl0pYyhjMTIpbltjSF1uMltDQEBIXTNPW0NASF0oW0NIMl1bT0hdKVtDQEBIXShbT0hdKVtDQEhdM1tPSF0=

> <s_epik_cmdline>
J2VwaWtfcHl0aG9uJywgJy1waCcsICc3LjAnLCAnLXRuJywgJzgnLCAnLW1hJywgJzIwMCcsICctbWV0YWxfYmluZGluZycsICctaW1hZScsICc8aW5maWxlLm1hZT4nLCAnLW9tYWUnLCAnPG91dGZpbGUubWFlPic=

> <r_lp_tautomer_probability>
1

> <r_epik_Ionization_Penalty>
0.000428445

> <r_epik_Ionization_Penalty_Charging>
0

> <r_epik_Ionization_Penalty_Neutral>
0.000428445

> <r_epik_State_Penalty>
-0

> <r_epik_Charging_Adjusted_Penalty>
0

> <i_epik_Tot_Q>
0

> <i_epik_Tot_abs_Q>
0

> <r_epik_Metal_State_Penalty>
-0

> <b_epik_Metal_Only>
0

> <s_epik_Chemistry_Notes>
This compound contains an acetal/aminal-like group ( X-CH(R)-Y where X, Y are N, S, or O) that may be acid/base labile, releasing an aldehyde.

> <s_lp_Force_Field>
OPLS_2005

> <r_lp_Energy>
38.6476

> <b_lp_Chiralities_Consistent>
1

> <s_lp_Variant>
AV-unprocessed.smi:69-1

> <Gold.Version>
5.8.1

> <Gold.Id.Protein>
6NUR|6NUR_protein|mol2

> <Gold.PLP.Fitness>
39.9621

> <Gold.PLP.PLP>
-25.7537

> <Gold.PLP.part.hbond>
-4.0000

> <Gold.PLP.part.metal>
0.0000

> <Gold.PLP.part.buried>
-3.5718

> <Gold.PLP.part.nonpolar>
-18.9805

> <Gold.PLP.part.repulsive>
0.4295

> <Gold.PLP.ligand.clash>
0.0025

> <Gold.PLP.ligand.torsion>
0.4009

> <Gold.PLP.Chemscore.Hbond>
4.0000

> <Gold.PLP.Chemscore.CHOScore>
1.0000

> <Gold.PLP.Chemscore.Metal>
0.0000

> <Gold.Chemscore.Hbonds>
donor molecule, donor type, donor heavy atom, donor atom, acceptor molecule, acceptor atom, score
      L1  H     1    24       P1 10175  1.00
      L1  H    19    32       P1  8028  1.00
      P1  H  7989  7998       L1    12  1.00
      P1  H  7997  8009       L1    15  1.00
      L1  C     9    27       P1  7957  1.00

> <Gold.PLP.Chemscore.Internal.Correction>
0.0128

> <Gold.Rescore>
     Score         DG    S(hbond)    S(metal)    S(lipo)     H(rot)  DE(clash)    DE(int)     intcor
      7.41      -9.33       3.29        0.00      27.02       4.03       0.10       1.82       ----

> <Gold.Chemscore.Fitness>
7.4114

> <Gold.Chemscore.DG>
-9.3271

> <Gold.Chemscore.ZeroCoef>
-5.4800

> <Gold.Chemscore.Hbond>
3.2924

> <Gold.Chemscore.Metal>
0.0000

> <Gold.Chemscore.Lipo>
27.0217

> <Gold.Chemscore.Internal_Hbond>
0.0000

> <Gold.Chemscore.DEClash>
0.0987

> <Gold.Chemscore.DEInternal>
1.8170

> <Gold.Chemscore.Rot>
4.0277

> <Gold.Chemscore.Internal.Correction>
   9.000000E+99

> <Gold.Chemscore.Hbonds>
donor molecule, donor type, donor heavy atom, donor atom, acceptor molecule, acceptor atom, score
      L1  H     1    24       P1 10175  0.78
      L1  H    19    32       P1  8028  0.92
      P1  H  7989  7998       L1    12  0.14
      P1  H  7997  8009       L1    15  0.62

> <Gold.Chemscore.Hbond.Weighted>
-10.9965

> <Gold.Chemscore.Metal.Weighted>
-0.0000

> <Gold.Chemscore.Lipo.Weighted>
-3.1615

> <Gold.Chemscore.Internal_Hbond.Weighted>
0.0000

> <Gold.Chemscore.DEClash.Weighted>
0.0987

> <Gold.Chemscore.DEInternal.Weighted>
1.8170

> <Gold.Chemscore.Rot.Weighted>
10.3110

> <Gold.Chemscore.Internal.Correction.Weighted>
   9.000000E+99

> <Gold.Protein.RotatedTorsions>
[ 6907 6896 6895 6894 ] final   71.52 input  -60.11 | X-H torsion
[ 7974 7965 7964 7962 ] final  -21.04 input  175.53 | X-H torsion
[ 8008 7997 7996 7995 ] final -169.42 input   59.86 | X-H torsion
[ 10167 10162 10161 10158 ] final    4.62 input  -65.29 | X-H torsion
[ 10718 10713 10712 10709 ] final -119.09 input   66.30 | X-H torsion
[ 10763 10752 10751 10750 ] final -169.74 input  -60.55 | X-H torsion
[ 11005 11000 10999 10996 ] final  -74.36 input  -57.11 | X-H torsion

> <Gold.Protein.ActiveResidues>
 VAL166  LYS551  ARG553  GLY616  TRP617  ASP618  TYR619  PRO620  LYS621  CYS622 
 ASP623  PHE694  ASN695  SER759  ASP760  ASP761  ALA762  ILE779  LEU786  VAL792 
 PHE793  MET794  SER795  GLU796  ALA797  LYS798  CYS799  TRP800  GLU811  SER814 

> <Gold.Protein.RotatedAtoms>
  152.4815  134.4708  159.9634 H   0  0  0  0  0  0  0  0  0  0  0  0  # atno 6907 bound_to 6896
  151.4713  133.3562  159.2832 H   0  0  0  0  0  0  0  0  0  0  0  0  # atno 6908 bound_to 6896
  150.8890  134.8317  159.7341 H   0  0  0  0  0  0  0  0  0  0  0  0  # atno 6909 bound_to 6896
  146.1755  140.4285  142.8515 H   0  0  0  0  0  0  0  0  0  0  0  0  # atno 7974 bound_to 7965
  155.9047  140.1047  157.1324 H   0  0  0  0  0  0  0  0  0  0  0  0  # atno 8008 bound_to 7997
  154.4031  140.1286  156.4545 H   0  0  0  0  0  0  0  0  0  0  0  0  # atno 8009 bound_to 7997
  155.7382  140.3467  155.5094 H   0  0  0  0  0  0  0  0  0  0  0  0  # atno 8010 bound_to 7997
  140.6525  143.7509  150.7598 H   0  0  0  0  0  0  0  0  0  0  0  0  # atno 10167 bound_to 10162
  156.1155  130.6282  150.9373 H   0  0  0  0  0  0  0  0  0  0  0  0  # atno 10718 bound_to 10713
  154.6490  135.2909  155.0011 H   0  0  0  0  0  0  0  0  0  0  0  0  # atno 10763 bound_to 10752
  154.1110  135.6562  153.4889 H   0  0  0  0  0  0  0  0  0  0  0  0  # atno 10764 bound_to 10752
  153.0366  135.5265  154.7389 H   0  0  0  0  0  0  0  0  0  0  0  0  # atno 10765 bound_to 10752
  141.1634  133.6909  156.7352 H   0  0  0  0  0  0  0  0  0  0  0  0  # atno 11005 bound_to 11000
  144.8229  140.6581  143.6341 LP  0  0  0  0  0  0  0  0  0  0  0  0  # atno 17320 bound_to 7965
  145.4223  139.1562  143.4067 LP  0  0  0  0  0  0  0  0  0  0  0  0  # atno 17321 bound_to 7965
  140.1163  143.4653  152.2340 LP  0  0  0  0  0  0  0  0  0  0  0  0  # atno 17342 bound_to 10162
  139.5742  144.7479  151.3809 LP  0  0  0  0  0  0  0  0  0  0  0  0  # atno 17343 bound_to 10162
  157.6338  131.0918  150.8389 LP  0  0  0  0  0  0  0  0  0  0  0  0  # atno 17370 bound_to 10713
  156.8493  130.5075  149.5313 LP  0  0  0  0  0  0  0  0  0  0  0  0  # atno 17371 bound_to 10713
  140.2715  134.8388  157.3851 LP  0  0  0  0  0  0  0  0  0  0  0  0  # atno 17394 bound_to 11000
  140.1517  134.4841  155.7956 LP  0  0  0  0  0  0  0  0  0  0  0  0  # atno 17395 bound_to 11000

$$$$
