#       Name:                AV-unprocessed.smi:51
#       Creating user name   scv26
#       Creation time:       Thu Mar 26 16:37:40 2020


#       File generated by GOLD software.
#

@<TRIPOS>MOLECULE
AV-unprocessed.smi:51
    33    34     1
SMALL
NO_CHARGES


@<TRIPOS>ATOM
      1 ****        -3.0501  -1.1478  -0.6766 O.co2          1 S1                 0.0000
      2 ****        -1.8453  -1.4611  -0.7881 C.2            1 S1                 0.0000
      3 ****        -1.3751  -2.6074  -0.6145 O.co2          1 S1                -1.0000
      4 ****        -0.8699  -0.3305  -1.1505 C.3            1 S1                 0.0000
      5 ****        -0.1345  -0.5913  -2.4779 C.3            1 S1                 0.0000
      6 ****         1.2059  -1.1904  -2.0448 C.3            1 S1                 0.0000
      7 ****         2.2219  -0.9958  -3.0055 O.3            1 S1                 0.0000
      8 ****         1.5007  -0.4670  -0.7300 C.3            1 S1                 0.0000
      9 ****         0.1894  -0.2087  -0.1509 N.pl3          1 S1                 0.0000
     10 ****         0.0324   0.4858   1.0658 C.ar           1 S1                 0.0000
     11 ****        -1.2196   0.9709   1.5014 C.ar           1 S1                 0.0000
     12 ****        -1.2592   1.6409   2.7374 C.ar           1 S1                 0.0000
     13 ****        -0.1281   1.8068   3.4636 N.pl3          1 S1                 1.0000
     14 ****         1.0320   1.3261   2.9948 C.ar           1 S1                 0.0000
     15 ****         1.1334   0.6795   1.8281 N.ar           1 S1                 0.0000
     16 ****        -1.4245   0.6054  -1.2307 H              1 S1                 0.0000
     17 ****        -0.6812  -1.2391  -3.1650 H              1 S1                 0.0000
     18 ****         0.0276   0.3601  -2.9868 H              1 S1                 0.0000
     19 ****         1.0871  -2.2587  -1.8585 H              1 S1                 0.0000
     20 ****         1.9752  -1.4513  -3.7959 H              1 S1                 0.0000
     21 ****         2.1277  -1.0725  -0.0743 H              1 S1                 0.0000
     22 ****         2.0034   0.4851  -0.9079 H              1 S1                 0.0000
     23 ****        -2.1251   0.8371   0.9288 H              1 S1                 0.0000
     24 ****        -2.1611   2.0486   3.1696 H              1 S1                 0.0000
     25 ****         1.9067   1.4813   3.6089 H              1 S1                 0.0000
     26 ****        -0.1687   2.2930   4.3593 H              1 S1                 0.0000
     27 ****        -3.7264  -1.8417  -0.4296 LP             1 S1                 0.0000
     28 ****        -3.3378  -0.2031  -0.8344 LP             1 S1                 0.0000
     29 ****        -1.9801  -3.3634  -0.3648 LP             1 S1                 0.0000
     30 ****        -0.3943  -2.7675  -0.7254 LP             1 S1                 0.0000
     31 ****         3.0869  -1.3607  -2.6612 LP             1 S1                 0.0000
     32 ****         2.3242  -0.0194  -3.1961 LP             1 S1                 0.0000
     33 ****         2.0219   0.3397   1.5197 LP             1 S1                 0.0000
@<TRIPOS>BOND
    1    1    2 ar    
    2    2    3 ar    
    3    2    4 1     
    4    4    9 1     
    5    4    5 1     
    6    4   16 1     
    7    5    6 1     
    8    5   17 1     
    9    5   18 1     
   10    6    7 1     
   11    6    8 1     
   12    6   19 1     
   13    7   20 1     
   14    8    9 1     
   15    8   21 1     
   16    8   22 1     
   17    9   10 1     
   18   10   15 ar    
   19   10   11 ar    
   20   11   12 ar    
   21   11   23 1     
   22   12   13 ar    
   23   12   24 1     
   24   13   14 ar    
   25   13   26 1     
   26   14   15 ar    
   27   14   25 1     
   28    1   27 1     
   29    1   28 1     
   30    3   29 1     
   31    3   30 1     
   32    7   31 1     
   33    7   32 1     
   34   15   33 1     
@<TRIPOS>SUBSTRUCTURE
      1 S1             1
@<TRIPOS>SET
LONE_PAIRS      STATIC     ATOMS    <user>   **** ""
7 27 28 29 30 31 32 33
DONOR_HYDROGENS      STATIC     ATOMS    <user>   **** ""
2 20 26
ATOM$BLUE        STATIC     ATOMS    COLORGROUP SYSTEM
7 27 28 29 30 31 32 33
ATOM$RED        STATIC     ATOMS    COLORGROUP SYSTEM
2 20 26
