AV-unprocessed.smi:3248|AV-procd|sdf|12415|dock4
  -GOLD-   2272018293D 1   1.00000     0.00000
 Structure written by MMmdl.
 38 39  0  0  0  0  0  0  0  0  1 V2000
  151.9639  139.2554  155.1972 C   0  0  0  0  0  0  0  0  0  0  0  0
  151.0859  139.0214  156.4355 C   0  0  2  0  0  0  0  0  0  0  0  0
  149.6558  138.6014  156.0453 C   0  0  0  0  0  0  0  0  0  0  0  0
  149.0237  139.5612  155.1564 N   0  0  0  0  0  0  0  0  0  0  0  0
  148.4395  139.3344  153.9281 C   0  0  0  0  0  0  0  0  0  0  0  0
  147.9708  140.5338  153.4737 C   0  0  0  0  0  0  0  0  0  0  0  0
  148.3195  141.4470  154.5078 C   0  0  0  0  0  0  0  0  0  0  0  0
  148.9504  140.8622  155.5135 N   0  0  0  0  0  0  0  0  0  0  0  0
  151.0456  140.2338  157.2500 N   0  0  0  0  0  0  0  0  0  0  0  0
  152.0371  140.6869  158.0352 C   0  0  0  0  0  0  0  0  0  0  0  0
  153.1112  140.0965  158.1493 O   0  0  0  0  0  0  0  0  0  0  0  0
  151.6815  141.7679  158.7723 N   0  0  0  0  0  0  0  0  0  0  0  0
  150.7635  142.7843  158.2368 C   0  0  0  0  0  0  0  0  0  0  0  0
  151.6040  143.9267  157.6328 C   0  0  0  0  0  0  0  0  0  0  0  0
  152.4685  144.4727  158.6268 O   0  0  0  0  0  0  0  0  0  0  0  0
  153.3393  143.5073  159.2137 C   0  0  0  0  0  0  0  0  0  0  0  0
  152.4980  142.3773  159.8402 C   0  0  2  0  0  0  0  0  0  0  0  0
  153.3460  141.3941  160.6745 C   0  0  0  0  0  0  0  0  0  0  0  0
  152.0192  138.3576  154.5811 H   0  0  0  0  0  0  0  0  0  0  0  0
  152.9828  139.5216  155.4805 H   0  0  0  0  0  0  0  0  0  0  0  0
  151.5689  140.0607  154.5770 H   0  0  0  0  0  0  0  0  0  0  0  0
  151.5270  138.2082  157.0152 H   0  0  0  0  0  0  0  0  0  0  0  0
  149.6575  137.6187  155.5703 H   0  0  0  0  0  0  0  0  0  0  0  0
  149.0350  138.5135  156.9378 H   0  0  0  0  0  0  0  0  0  0  0  0
  148.4041  138.3491  153.4868 H   0  0  0  0  0  0  0  0  0  0  0  0
  147.4558  140.7293  152.5447 H   0  0  0  0  0  0  0  0  0  0  0  0
  148.1343  142.5099  154.5574 H   0  0  0  0  0  0  0  0  0  0  0  0
  150.1768  140.7484  157.2502 H   0  0  0  0  0  0  0  0  0  0  0  0
  150.0831  142.3951  157.4783 H   0  0  0  0  0  0  0  0  0  0  0  0
  150.1263  143.1652  159.0362 H   0  0  0  0  0  0  0  0  0  0  0  0
  152.1924  143.5708  156.7854 H   0  0  0  0  0  0  0  0  0  0  0  0
  150.9529  144.7173  157.2595 H   0  0  0  0  0  0  0  0  0  0  0  0
  154.0297  143.1176  158.4639 H   0  0  0  0  0  0  0  0  0  0  0  0
  153.9407  144.0026  159.9764 H   0  0  0  0  0  0  0  0  0  0  0  0
  151.8051  142.8326  160.5503 H   0  0  0  0  0  0  0  0  0  0  0  0
  153.7438  141.8923  161.5590 H   0  0  0  0  0  0  0  0  0  0  0  0
  154.2021  141.0072  160.1228 H   0  0  0  0  0  0  0  0  0  0  0  0
  152.7487  140.5491  161.0186 H   0  0  0  0  0  0  0  0  0  0  0  0
  1  2  1  0  0  0  0
  1 19  1  0  0  0  0
  1 20  1  0  0  0  0
  1 21  1  0  0  0  0
  2  3  1  0  0  0  0
  2  9  1  0  0  0  0
  2 22  1  0  0  0  0
  3  4  1  0  0  0  0
  3 23  1  0  0  0  0
  3 24  1  0  0  0  0
  4  8  1  0  0  0  0
  4  5  1  0  0  0  0
  5  6  2  0  0  0  0
  5 25  1  0  0  0  0
  6  7  1  0  0  0  0
  6 26  1  0  0  0  0
  7  8  2  0  0  0  0
  7 27  1  0  0  0  0
  9 10  1  0  0  0  0
  9 28  1  0  0  0  0
 10 11  2  0  0  0  0
 10 12  1  0  0  0  0
 12 17  1  0  0  0  0
 12 13  1  0  0  0  0
 13 14  1  0  0  0  0
 13 29  1  0  0  0  0
 13 30  1  0  0  0  0
 14 15  1  0  0  0  0
 14 31  1  0  0  0  0
 14 32  1  0  0  0  0
 15 16  1  0  0  0  0
 16 17  1  0  0  0  0
 16 33  1  0  0  0  0
 16 34  1  0  0  0  0
 17 18  1  0  0  0  0
 17 35  1  0  0  0  0
 18 36  1  0  0  0  0
 18 37  1  0  0  0  0
 18 38  1  0  0  0  0
M  END
> <s_m_source_file>
AV-unprocessed.smi

> <i_m_source_file_index>
3248

> <i_lp_mmshare_version>
43012

> <i_f3d_flags>
0

> <s_epik_input>
bjFbY0hdW2NIXVtjSF1uMVtDSDJdW0NAQEhdKFtDSDNdKVtOSF1DKD1PKU4yW0NIMl1bQ0gyXU9bQ0gyXVtDQEhdMltDSDNd

> <s_epik_cmdline>
J2VwaWtfcHl0aG9uJywgJy1waCcsICc3LjAnLCAnLXRuJywgJzgnLCAnLW1hJywgJzIwMCcsICctbWV0YWxfYmluZGluZycsICctaW1hZScsICc8aW5maWxlLm1hZT4nLCAnLW9tYWUnLCAnPG91dGZpbGUubWFlPic=

> <r_lp_tautomer_probability>
1

> <r_epik_Ionization_Penalty>
4.45233e-05

> <r_epik_Ionization_Penalty_Charging>
0

> <r_epik_Ionization_Penalty_Neutral>
4.45233e-05

> <r_epik_State_Penalty>
-0

> <r_epik_Charging_Adjusted_Penalty>
0

> <i_epik_Tot_Q>
0

> <i_epik_Tot_abs_Q>
0

> <r_epik_Metal_State_Penalty>
-0

> <b_epik_Metal_Only>
0

> <s_lp_Force_Field>
OPLS_2005

> <r_lp_Energy>
31.9687

> <b_lp_Chiralities_Consistent>
1

> <s_lp_Variant>
AV-unprocessed.smi:3248-3

> <Gold.Version>
5.8.1

> <Gold.Id.Protein>
6NUR|6NUR_protein|mol2

> <Gold.PLP.Fitness>
40.6620

> <Gold.PLP.PLP>
-33.2089

> <Gold.PLP.part.hbond>
-1.0000

> <Gold.PLP.part.metal>
0.0000

> <Gold.PLP.part.buried>
0.7325

> <Gold.PLP.part.nonpolar>
-32.9190

> <Gold.PLP.part.repulsive>
0.1619

> <Gold.PLP.ligand.clash>
0.0267

> <Gold.PLP.ligand.torsion>
0.4828

> <Gold.PLP.Chemscore.Hbond>
1.0000

> <Gold.PLP.Chemscore.CHOScore>
1.6537

> <Gold.PLP.Chemscore.Metal>
0.0000

> <Gold.Chemscore.Hbonds>
donor molecule, donor type, donor heavy atom, donor atom, acceptor molecule, acceptor atom, score
      P1  H  7997  8008       L1    11  1.00
      L1  C     5    25       P1  7948  0.56
      L1  C     7    27       P1  8028  0.94

> <Gold.PLP.Chemscore.Internal.Correction>
0.4842

> <Gold.Rescore>
     Score         DG    S(hbond)    S(metal)    S(lipo)     H(rot)  DE(clash)    DE(int)     intcor
     13.96     -15.89       0.97        0.00      92.23       1.42       0.10       1.83       ----

> <Gold.Chemscore.Fitness>
13.9618

> <Gold.Chemscore.DG>
-15.8937

> <Gold.Chemscore.ZeroCoef>
-5.4800

> <Gold.Chemscore.Hbond>
0.9747

> <Gold.Chemscore.Metal>
0.0000

> <Gold.Chemscore.Lipo>
92.2322

> <Gold.Chemscore.Internal_Hbond>
0.0000

> <Gold.Chemscore.DEClash>
0.1046

> <Gold.Chemscore.DEInternal>
1.8272

> <Gold.Chemscore.Rot>
1.4191

> <Gold.Chemscore.Internal.Correction>
   9.000000E+99

> <Gold.Chemscore.Hbonds>
donor molecule, donor type, donor heavy atom, donor atom, acceptor molecule, acceptor atom, score
      P1  H  7997  8008       L1    11  0.96

> <Gold.Chemscore.Hbond.Weighted>
-3.2555

> <Gold.Chemscore.Metal.Weighted>
-0.0000

> <Gold.Chemscore.Lipo.Weighted>
-10.7912

> <Gold.Chemscore.Internal_Hbond.Weighted>
0.0000

> <Gold.Chemscore.DEClash.Weighted>
0.1046

> <Gold.Chemscore.DEInternal.Weighted>
1.8272

> <Gold.Chemscore.Rot.Weighted>
3.6330

> <Gold.Chemscore.Internal.Correction.Weighted>
   9.000000E+99

> <Gold.Protein.RotatedTorsions>
[ 6907 6896 6895 6894 ] final  -81.16 input  -60.11 | X-H torsion
[ 7974 7965 7964 7962 ] final -158.87 input  175.53 | X-H torsion
[ 8008 7997 7996 7995 ] final  -80.95 input   59.86 | X-H torsion
[ 10167 10162 10161 10158 ] final  174.24 input  -65.29 | X-H torsion
[ 10718 10713 10712 10709 ] final   21.45 input   66.30 | X-H torsion
[ 10763 10752 10751 10750 ] final   76.13 input  -60.55 | X-H torsion
[ 11005 11000 10999 10996 ] final  145.49 input  -57.11 | X-H torsion

> <Gold.Protein.ActiveResidues>
 VAL166  LYS551  ARG553  GLY616  TRP617  ASP618  TYR619  PRO620  LYS621  CYS622 
 ASP623  PHE694  ASN695  SER759  ASP760  ASP761  ALA762  ILE779  LEU786  VAL792 
 PHE793  MET794  SER795  GLU796  ALA797  LYS798  CYS799  TRP800  GLU811  SER814 

> <Gold.Protein.RotatedAtoms>
  150.6917  134.3860  159.5055 H   0  0  0  0  0  0  0  0  0  0  0  0  # atno 6907 bound_to 6896
  152.1656  134.8874  160.0547 H   0  0  0  0  0  0  0  0  0  0  0  0  # atno 6908 bound_to 6896
  151.9919  133.3759  159.4185 H   0  0  0  0  0  0  0  0  0  0  0  0  # atno 6909 bound_to 6896
  144.7488  140.3766  143.6064 H   0  0  0  0  0  0  0  0  0  0  0  0  # atno 7974 bound_to 7965
  154.5934  140.0655  156.9270 H   0  0  0  0  0  0  0  0  0  0  0  0  # atno 8008 bound_to 7997
  155.2256  140.3333  155.4291 H   0  0  0  0  0  0  0  0  0  0  0  0  # atno 8009 bound_to 7997
  156.2271  140.1824  156.7320 H   0  0  0  0  0  0  0  0  0  0  0  0  # atno 8010 bound_to 7997
  139.5135  144.3169  152.0239 H   0  0  0  0  0  0  0  0  0  0  0  0  # atno 10167 bound_to 10162
  157.1386  130.6622  149.5974 H   0  0  0  0  0  0  0  0  0  0  0  0  # atno 10718 bound_to 10713
  153.0703  135.4963  154.8290 H   0  0  0  0  0  0  0  0  0  0  0  0  # atno 10763 bound_to 10752
  154.7013  135.3002  154.9339 H   0  0  0  0  0  0  0  0  0  0  0  0  # atno 10764 bound_to 10752
  154.0062  135.6760  153.4815 H   0  0  0  0  0  0  0  0  0  0  0  0  # atno 10765 bound_to 10752
  140.0717  134.9148  157.1355 H   0  0  0  0  0  0  0  0  0  0  0  0  # atno 11005 bound_to 11000
  145.7022  139.1664  143.2586 LP  0  0  0  0  0  0  0  0  0  0  0  0  # atno 17320 bound_to 7965
  146.1407  140.7061  142.9368 LP  0  0  0  0  0  0  0  0  0  0  0  0  # atno 17321 bound_to 7965
  140.2612  144.4065  150.6185 LP  0  0  0  0  0  0  0  0  0  0  0  0  # atno 17342 bound_to 10162
  140.6156  143.2172  151.6799 LP  0  0  0  0  0  0  0  0  0  0  0  0  # atno 17343 bound_to 10162
  155.9793  130.4785  150.6707 LP  0  0  0  0  0  0  0  0  0  0  0  0  # atno 17370 bound_to 10713
  157.4327  131.0851  151.1022 LP  0  0  0  0  0  0  0  0  0  0  0  0  # atno 17371 bound_to 10713
  140.3618  134.2486  155.7186 LP  0  0  0  0  0  0  0  0  0  0  0  0  # atno 17394 bound_to 11000
  141.2014  133.7963  157.0442 LP  0  0  0  0  0  0  0  0  0  0  0  0  # atno 17395 bound_to 11000

$$$$
