#       Name:                AV-unprocessed.smi:2948
#       Creating user name   scv26
#       Creation time:       Fri Mar 27 16:17:30 2020


#       File generated by GOLD software.
#

@<TRIPOS>MOLECULE
AV-unprocessed.smi:2948
    37    38     1
SMALL
NO_CHARGES


@<TRIPOS>ATOM
      1 ****        -3.3755   1.7114  -1.3664 C.3            1 S1                 0.0000
      2 ****        -2.9506   0.2414  -1.3624 C.3            1 S1                 0.0000
      3 ****        -1.5358   0.1789  -1.3811 O.3            1 S1                 0.0000
      4 ****        -1.0372  -1.1483  -1.3568 C.3            1 S1                 0.0000
      5 ****         0.4985  -1.1277  -1.3534 C.3            1 S1                 0.0000
      6 ****         1.0330  -0.3751  -0.2265 N.pl3          1 S1                 0.0000
      7 ****         1.3712   0.9400  -0.1605 C.2            1 S1                 0.0000
      8 ****         1.2332   1.8798  -1.3249 C.3            1 S1                 0.0000
      9 ****         0.6607   3.1206  -0.9678 O.3            1 S1                 0.0000
     10 ****         1.8506   1.3520   1.0151 N.2            1 S1                 0.0000
     11 ****         1.8026   0.2082   1.7858 C.ar           1 S1                 0.0000
     12 ****         2.1679  -0.0067   3.1341 C.ar           1 S1                 0.0000
     13 ****         2.0261  -1.2829   3.7171 C.ar           1 S1                 0.0000
     14 ****         1.5186  -2.3599   2.9619 C.ar           1 S1                 0.0000
     15 ****         1.1492  -2.1670   1.6168 C.ar           1 S1                 0.0000
     16 ****         1.2936  -0.8910   1.0393 C.ar           1 S1                 0.0000
     17 ****        -4.4616   1.8036  -1.3496 H              1 S1                 0.0000
     18 ****        -3.0092   2.2223  -2.2572 H              1 S1                 0.0000
     19 ****        -2.9810   2.2342  -0.4946 H              1 S1                 0.0000
     20 ****        -3.3395  -0.2556  -0.4724 H              1 S1                 0.0000
     21 ****        -3.3613  -0.2690  -2.2347 H              1 S1                 0.0000
     22 ****        -1.4018  -1.6657  -0.4678 H              1 S1                 0.0000
     23 ****        -1.3979  -1.7000  -2.2259 H              1 S1                 0.0000
     24 ****         0.8793  -2.1481  -1.3000 H              1 S1                 0.0000
     25 ****         0.8848  -0.7178  -2.2858 H              1 S1                 0.0000
     26 ****         2.2209   2.0545  -1.7520 H              1 S1                 0.0000
     27 ****         0.6153   1.4516  -2.1112 H              1 S1                 0.0000
     28 ****         0.6118   3.6617  -1.7407 H              1 S1                 0.0000
     29 ****         2.5564   0.8123   3.7210 H              1 S1                 0.0000
     30 ****         2.3073  -1.4355   4.7487 H              1 S1                 0.0000
     31 ****         1.4123  -3.3340   3.4163 H              1 S1                 0.0000
     32 ****         0.7586  -2.9896   1.0366 H              1 S1                 0.0000
     33 ****        -1.1852   0.6653  -0.5808 LP             1 S1                 0.0000
     34 ****        -1.2084   0.6267  -2.2132 LP             1 S1                 0.0000
     35 ****         1.2294   3.5685  -0.2780 LP             1 S1                 0.0000
     36 ****        -0.2575   2.9749  -0.5994 LP             1 S1                 0.0000
     37 ****         2.1667   2.2648   1.2737 LP             1 S1                 0.0000
@<TRIPOS>BOND
    1    1    2 1     
    2    1   17 1     
    3    1   18 1     
    4    1   19 1     
    5    2    3 1     
    6    2   20 1     
    7    2   21 1     
    8    3    4 1     
    9    4    5 1     
   10    4   22 1     
   11    4   23 1     
   12    5    6 1     
   13    5   24 1     
   14    5   25 1     
   15    6   16 1     
   16    6    7 1     
   17    7    8 1     
   18    7   10 2     
   19    8    9 1     
   20    8   26 1     
   21    8   27 1     
   22    9   28 1     
   23   10   11 1     
   24   11   16 ar    
   25   11   12 ar    
   26   12   13 ar    
   27   12   29 1     
   28   13   14 ar    
   29   13   30 1     
   30   14   15 ar    
   31   14   31 1     
   32   15   16 ar    
   33   15   32 1     
   34    3   33 1     
   35    3   34 1     
   36    9   35 1     
   37    9   36 1     
   38   10   37 1     
@<TRIPOS>SUBSTRUCTURE
      1 S1             1
@<TRIPOS>SET
LONE_PAIRS      STATIC     ATOMS    <user>   **** ""
5 33 34 35 36 37
DONOR_HYDROGENS      STATIC     ATOMS    <user>   **** ""
1 28
ATOM$BLUE        STATIC     ATOMS    COLORGROUP SYSTEM
5 33 34 35 36 37
ATOM$RED        STATIC     ATOMS    COLORGROUP SYSTEM
1 28
