AV-unprocessed.smi:2448|AV-procd|sdf|9655|dock1
  -GOLD-   2272013283D 1   1.00000     0.00000
 Structure written by MMmdl.
 38 39  0  0  0  0  0  0  0  0  2 V2000
  148.0748  138.6811  152.4907 O   0  0  0  0  0  0  0  0  0  0  0  0
  147.6071  138.7872  153.8251 C   0  0  1  0  0  0  0  0  0  0  0  0
  146.7294  137.5580  154.1358 C   0  0  0  0  0  0  0  0  0  0  0  0
  147.4442  136.2857  153.8874 N   0  3  0  0  0  0  0  0  0  0  0  0
  146.6140  135.0623  153.9948 C   0  0  2  0  0  0  0  0  0  0  0  0
  145.3150  135.1990  153.1681 C   0  0  0  0  0  0  0  0  0  0  0  0
  145.2628  134.2817  151.9600 C   0  0  0  0  0  0  0  0  0  0  0  0
  144.1481  134.2895  151.0957 C   0  0  0  0  0  0  0  0  0  0  0  0
  144.1621  133.4363  149.9739 C   0  0  0  0  0  0  0  0  0  0  0  0
  145.1902  132.6103  149.6847 N   0  0  0  0  0  0  0  0  0  0  0  0
  146.2511  132.6031  150.5198 C   0  0  0  0  0  0  0  0  0  0  0  0
  146.3377  133.4176  151.6670 C   0  0  0  0  0  0  0  0  0  0  0  0
  146.3126  134.7702  155.4774 C   0  0  0  0  0  0  0  0  0  0  0  0
  145.3349  135.5708  155.9023 F   0  0  0  0  0  0  0  0  0  0  0  0
  145.9307  133.5028  155.6382 F   0  0  0  0  0  0  0  0  0  0  0  0
  147.3942  134.9969  156.2225 F   0  0  0  0  0  0  0  0  0  0  0  0
  148.8391  138.8534  154.7428 C   0  0  0  0  0  0  0  0  0  0  0  0
  149.4655  140.2429  154.5880 C   0  0  0  0  0  0  0  0  0  0  0  0
  148.1194  141.4188  154.3001 S   0  0  0  0  0  0  0  0  0  0  0  0
  146.8780  140.1294  154.0156 C   0  0  0  0  0  0  0  0  0  0  0  0
  148.5689  137.8810  152.3998 H   0  0  0  0  0  0  0  0  0  0  0  0
  146.3937  137.6024  155.1718 H   0  0  0  0  0  0  0  0  0  0  0  0
  145.8310  137.5762  153.5173 H   0  0  0  0  0  0  0  0  0  0  0  0
  147.8153  136.3262  152.9486 H   0  0  0  0  0  0  0  0  0  0  0  0
  147.1852  134.2144  153.6120 H   0  0  0  0  0  0  0  0  0  0  0  0
  144.4515  134.9732  153.7947 H   0  0  0  0  0  0  0  0  0  0  0  0
  145.1851  136.2313  152.8397 H   0  0  0  0  0  0  0  0  0  0  0  0
  143.3022  134.9359  151.2789 H   0  0  0  0  0  0  0  0  0  0  0  0
  143.3271  133.4203  149.2891 H   0  0  0  0  0  0  0  0  0  0  0  0
  147.0575  131.9318  150.2641 H   0  0  0  0  0  0  0  0  0  0  0  0
  147.2112  133.3791  152.3015 H   0  0  0  0  0  0  0  0  0  0  0  0
  148.5251  138.7267  155.7799 H   0  0  0  0  0  0  0  0  0  0  0  0
  149.5584  138.0606  154.5319 H   0  0  0  0  0  0  0  0  0  0  0  0
  150.0553  140.5272  155.4597 H   0  0  0  0  0  0  0  0  0  0  0  0
  150.1260  140.2626  153.7204 H   0  0  0  0  0  0  0  0  0  0  0  0
  146.2357  140.3854  153.1721 H   0  0  0  0  0  0  0  0  0  0  0  0
  146.2465  140.0894  154.9041 H   0  0  0  0  0  0  0  0  0  0  0  0
  148.2161  136.2061  154.5338 H   0  0  0  0  0  0  0  0  0  0  0  0
  1  2  1  0  0  0  0
  1 21  1  0  0  0  0
  2 20  1  0  0  0  0
  2  3  1  0  0  0  0
  2 17  1  0  0  0  0
  3  4  1  0  0  0  0
  3 22  1  0  0  0  0
  3 23  1  0  0  0  0
  4  5  1  0  0  0  0
  4 24  1  0  0  0  0
  4 38  1  0  0  0  0
  5  6  1  0  0  0  0
  5 13  1  0  0  0  0
  5 25  1  0  0  0  0
  6  7  1  0  0  0  0
  6 26  1  0  0  0  0
  6 27  1  0  0  0  0
  7 12  1  0  0  0  0
  7  8  2  0  0  0  0
  8  9  1  0  0  0  0
  8 28  1  0  0  0  0
  9 10  2  0  0  0  0
  9 29  1  0  0  0  0
 10 11  1  0  0  0  0
 11 12  2  0  0  0  0
 11 30  1  0  0  0  0
 12 31  1  0  0  0  0
 13 14  1  0  0  0  0
 13 15  1  0  0  0  0
 13 16  1  0  0  0  0
 17 18  1  0  0  0  0
 17 32  1  0  0  0  0
 17 33  1  0  0  0  0
 18 19  1  0  0  0  0
 18 34  1  0  0  0  0
 18 35  1  0  0  0  0
 19 20  1  0  0  0  0
 20 36  1  0  0  0  0
 20 37  1  0  0  0  0
M  CHG  1   4   1
M  END
> <s_m_source_file>
AV-unprocessed.smi

> <i_m_source_file_index>
2448

> <i_lp_mmshare_version>
43012

> <i_f3d_flags>
0

> <s_epik_input>
W0NIMl0xU1tDSDJdW0NIMl1bQ0BAXTEoW09IXSlbQ0gyXVtOSF1bQ0BASF0oQyhGKShGKUYpW0NIMl1jMltjSF1bY0hdbltjSF1bY0hdMg==

> <s_epik_cmdline>
J2VwaWtfcHl0aG9uJywgJy1waCcsICc3LjAnLCAnLXRuJywgJzgnLCAnLW1hJywgJzIwMCcsICctbWV0YWxfYmluZGluZycsICctaW1hZScsICc8aW5maWxlLm1hZT4nLCAnLW9tYWUnLCAnPG91dGZpbGUubWFlPic=

> <r_epik_Ionization_Penalty>
1.19945

> <r_epik_Ionization_Penalty_Charging>
1.19892

> <r_epik_Ionization_Penalty_Neutral>
0.000532129

> <r_epik_State_Penalty>
0.752927

> <r_epik_Charging_Adjusted_Penalty>
1.95185

> <i_epik_Tot_Q>
1

> <i_epik_Tot_abs_Q>
1

> <r_epik_Metal_State_Penalty>
0.804507

> <b_epik_Metal_Only>
0

> <s_lp_Force_Field>
OPLS_2005

> <r_lp_Energy>
24.3965

> <b_lp_Chiralities_Consistent>
1

> <s_lp_Variant>
AV-unprocessed.smi:2448-5

> <Gold.Version>
5.8.1

> <Gold.Id.Protein>
6NUR|6NUR_protein|mol2

> <Gold.PLP.Fitness>
40.6893

> <Gold.PLP.PLP>
-27.4328

> <Gold.PLP.part.hbond>
-2.3269

> <Gold.PLP.part.metal>
0.0000

> <Gold.PLP.part.buried>
-4.6775

> <Gold.PLP.part.nonpolar>
-20.6059

> <Gold.PLP.part.repulsive>
0.1611

> <Gold.PLP.ligand.clash>
0.0000

> <Gold.PLP.ligand.torsion>
1.2500

> <Gold.PLP.Chemscore.Hbond>
3.0000

> <Gold.PLP.Chemscore.CHOScore>
1.9955

> <Gold.PLP.Chemscore.Metal>
0.0000

> <Gold.Chemscore.Hbonds>
donor molecule, donor type, donor heavy atom, donor atom, acceptor molecule, acceptor atom, score
      L1  H     1    21       P1  7948  1.00
      L1  H     4    24       P1  7948  2.00
      L1  C     9    29       P1 10186  0.98
      L1  C    11    30       P1 10747  1.00

> <Gold.PLP.Chemscore.Internal.Correction>
0.7700

> <Gold.Rescore>
     Score         DG    S(hbond)    S(metal)    S(lipo)     H(rot)  DE(clash)    DE(int)     intcor
     12.53     -14.10       1.95        0.00      70.12       2.39       0.00       1.56       ----

> <Gold.Chemscore.Fitness>
12.5340

> <Gold.Chemscore.DG>
-14.0985

> <Gold.Chemscore.ZeroCoef>
-5.4800

> <Gold.Chemscore.Hbond>
1.9534

> <Gold.Chemscore.Metal>
0.0000

> <Gold.Chemscore.Lipo>
70.1166

> <Gold.Chemscore.Internal_Hbond>
0.0000

> <Gold.Chemscore.DEClash>
0.0000

> <Gold.Chemscore.DEInternal>
1.5644

> <Gold.Chemscore.Rot>
2.3866

> <Gold.Chemscore.Internal.Correction>
   9.000000E+99

> <Gold.Chemscore.Hbonds>
donor molecule, donor type, donor heavy atom, donor atom, acceptor molecule, acceptor atom, score
      L1  H     1    21       P1  7948  0.99
      L1  H     4    24       P1  7948  0.95

> <Gold.Chemscore.Hbond.Weighted>
-6.5245

> <Gold.Chemscore.Metal.Weighted>
-0.0000

> <Gold.Chemscore.Lipo.Weighted>
-8.2036

> <Gold.Chemscore.Internal_Hbond.Weighted>
0.0000

> <Gold.Chemscore.DEClash.Weighted>
0.0000

> <Gold.Chemscore.DEInternal.Weighted>
1.5644

> <Gold.Chemscore.Rot.Weighted>
6.1096

> <Gold.Chemscore.Internal.Correction.Weighted>
   9.000000E+99

> <Gold.Protein.RotatedTorsions>
[ 6907 6896 6895 6894 ] final  -23.79 input  -60.11 | X-H torsion
[ 7974 7965 7964 7962 ] final  -25.07 input  175.53 | X-H torsion
[ 8008 7997 7996 7995 ] final -150.11 input   59.86 | X-H torsion
[ 10167 10162 10161 10158 ] final  141.45 input  -65.29 | X-H torsion
[ 10718 10713 10712 10709 ] final  138.08 input   66.30 | X-H torsion
[ 10763 10752 10751 10750 ] final -173.31 input  -60.55 | X-H torsion
[ 11005 11000 10999 10996 ] final -164.07 input  -57.11 | X-H torsion

> <Gold.Protein.ActiveResidues>
 VAL166  LYS551  ARG553  GLY616  TRP617  ASP618  TYR619  PRO620  LYS621  CYS622 
 ASP623  PHE694  ASN695  SER759  ASP760  ASP761  ALA762  ILE779  LEU786  VAL792 
 PHE793  MET794  SER795  GLU796  ALA797  LYS798  CYS799  TRP800  GLU811  SER814 

> <Gold.Protein.RotatedAtoms>
  151.1989  135.0434  159.8863 H   0  0  0  0  0  0  0  0  0  0  0  0  # atno 6907 bound_to 6896
  152.5434  134.0872  159.8271 H   0  0  0  0  0  0  0  0  0  0  0  0  # atno 6908 bound_to 6896
  151.1010  133.5196  159.2642 H   0  0  0  0  0  0  0  0  0  0  0  0  # atno 6909 bound_to 6896
  146.1514  140.4837  142.8609 H   0  0  0  0  0  0  0  0  0  0  0  0  # atno 7974 bound_to 7965
  155.6183  140.0679  157.2686 H   0  0  0  0  0  0  0  0  0  0  0  0  # atno 8008 bound_to 7997
  154.4236  140.1789  156.1393 H   0  0  0  0  0  0  0  0  0  0  0  0  # atno 8009 bound_to 7997
  156.0030  140.3334  155.6868 H   0  0  0  0  0  0  0  0  0  0  0  0  # atno 8010 bound_to 7997
  139.5020  144.6171  151.6139 H   0  0  0  0  0  0  0  0  0  0  0  0  # atno 10167 bound_to 10162
  157.4291  131.1046  151.0269 H   0  0  0  0  0  0  0  0  0  0  0  0  # atno 10718 bound_to 10713
  154.6093  135.2863  155.0449 H   0  0  0  0  0  0  0  0  0  0  0  0  # atno 10763 bound_to 10752
  154.1685  135.6476  153.5007 H   0  0  0  0  0  0  0  0  0  0  0  0  # atno 10764 bound_to 10752
  153.0188  135.5395  154.6841 H   0  0  0  0  0  0  0  0  0  0  0  0  # atno 10765 bound_to 10752
  140.5910  134.5045  157.5193 H   0  0  0  0  0  0  0  0  0  0  0  0  # atno 11005 bound_to 11000
  144.7909  140.6030  143.6542 LP  0  0  0  0  0  0  0  0  0  0  0  0  # atno 17320 bound_to 7965
  145.4813  139.1495  143.3760 LP  0  0  0  0  0  0  0  0  0  0  0  0  # atno 17321 bound_to 7965
  140.5862  143.9860  150.6297 LP  0  0  0  0  0  0  0  0  0  0  0  0  # atno 17342 bound_to 10162
  140.3025  143.3251  152.0957 LP  0  0  0  0  0  0  0  0  0  0  0  0  # atno 17343 bound_to 10162
  157.1172  130.6046  149.5496 LP  0  0  0  0  0  0  0  0  0  0  0  0  # atno 17370 bound_to 10713
  155.9907  130.4959  150.7268 LP  0  0  0  0  0  0  0  0  0  0  0  0  # atno 17371 bound_to 10713
  139.9274  134.8029  156.1028 LP  0  0  0  0  0  0  0  0  0  0  0  0  # atno 17394 bound_to 11000
  141.0935  133.6705  156.2593 LP  0  0  0  0  0  0  0  0  0  0  0  0  # atno 17395 bound_to 11000

$$$$
