AV-unprocessed.smi:783|AV-procd|sdf|3717|dock4
  -GOLD-   22720 1143D 1   1.00000     0.00000
 Structure written by MMmdl.
 45 46  0  0  0  0  0  0  0  0  1 V2000
  144.3885  136.2074  151.4976 C   0  0  0  0  0  0  0  0  0  0  0  0
  145.5970  135.2958  151.7938 C   0  0  1  0  0  0  0  0  0  0  0  0
  145.9155  135.2038  153.2941 C   0  0  0  0  0  0  0  0  0  0  0  0
  145.0202  135.0043  154.1159 O   0  0  0  0  0  0  0  0  0  0  0  0
  147.2050  135.3580  153.6340 N   0  0  0  0  0  0  0  0  0  0  0  0
  147.7439  135.3317  154.9940 C   0  0  0  0  0  0  0  0  0  0  0  0
  148.7119  134.1364  155.2551 C   0  0  0  0  0  0  0  0  0  0  0  0
  149.7571  134.4686  156.3753 C   0  0  0  0  0  0  0  0  0  0  0  0
  149.7020  133.8192  157.4229 O   0  0  0  0  0  0  0  0  0  0  0  0
  150.7037  135.4365  156.2357 N   0  0  0  0  0  0  0  0  0  0  0  0
  150.7235  136.2535  155.0172 C   0  0  0  0  0  0  0  0  0  0  0  0
  151.7726  135.7985  157.1705 C   0  0  0  0  0  0  0  0  0  0  0  0
  147.8706  132.8866  155.6393 C   0  0  0  0  0  0  0  0  0  0  0  0
  148.7295  131.6553  155.3330 C   0  0  0  0  0  0  0  0  0  0  0  0
  149.6967  132.1031  154.2349 C   0  0  0  0  0  0  0  0  0  0  0  0
  149.3733  133.5793  153.9681 C   0  0  0  0  0  0  0  0  0  0  0  0
  145.4404  133.9608  151.2278 N   0  0  0  0  0  0  0  0  0  0  0  0
  144.3596  133.4578  150.5319 C   0  0  0  0  0  0  0  0  0  0  0  0
  144.6693  132.1821  150.1561 C   0  0  0  0  0  0  0  0  0  0  0  0
  145.9851  131.9916  150.6614 C   0  0  0  0  0  0  0  0  0  0  0  0
  146.4473  133.0582  151.2925 N   0  0  0  0  0  0  0  0  0  0  0  0
  144.5499  137.2120  151.8901 H   0  0  0  0  0  0  0  0  0  0  0  0
  143.4664  135.8262  151.9383 H   0  0  0  0  0  0  0  0  0  0  0  0
  144.2272  136.2995  150.4232 H   0  0  0  0  0  0  0  0  0  0  0  0
  146.4623  135.7488  151.3066 H   0  0  0  0  0  0  0  0  0  0  0  0
  147.8680  135.5188  152.8898 H   0  0  0  0  0  0  0  0  0  0  0  0
  148.2457  136.2756  155.2140 H   0  0  0  0  0  0  0  0  0  0  0  0
  146.8910  135.3223  155.6662 H   0  0  0  0  0  0  0  0  0  0  0  0
  149.7577  136.7355  154.8571 H   0  0  0  0  0  0  0  0  0  0  0  0
  150.9462  135.6364  154.1458 H   0  0  0  0  0  0  0  0  0  0  0  0
  151.4719  137.0463  155.0573 H   0  0  0  0  0  0  0  0  0  0  0  0
  151.9394  135.1001  157.9822 H   0  0  0  0  0  0  0  0  0  0  0  0
  151.5557  136.7699  157.6159 H   0  0  0  0  0  0  0  0  0  0  0  0
  152.7231  135.8822  156.6420 H   0  0  0  0  0  0  0  0  0  0  0  0
  147.5056  132.8866  156.6671 H   0  0  0  0  0  0  0  0  0  0  0  0
  146.9790  132.8395  155.0119 H   0  0  0  0  0  0  0  0  0  0  0  0
  149.2872  131.3497  156.2192 H   0  0  0  0  0  0  0  0  0  0  0  0
  148.1179  130.8078  155.0222 H   0  0  0  0  0  0  0  0  0  0  0  0
  150.7252  131.9972  154.5828 H   0  0  0  0  0  0  0  0  0  0  0  0
  149.5942  131.5042  153.3294 H   0  0  0  0  0  0  0  0  0  0  0  0
  148.6607  133.6395  153.1442 H   0  0  0  0  0  0  0  0  0  0  0  0
  150.2650  134.1011  153.6320 H   0  0  0  0  0  0  0  0  0  0  0  0
  143.4686  134.0443  150.3632 H   0  0  0  0  0  0  0  0  0  0  0  0
  144.0523  131.4920  149.6000 H   0  0  0  0  0  0  0  0  0  0  0  0
  146.6158  131.1183  150.5848 H   0  0  0  0  0  0  0  0  0  0  0  0
  1  2  1  0  0  0  0
  1 22  1  0  0  0  0
  1 23  1  0  0  0  0
  1 24  1  0  0  0  0
  2  3  1  0  0  0  0
  2 17  1  0  0  0  0
  2 25  1  0  0  0  0
  3  4  2  0  0  0  0
  3  5  1  0  0  0  0
  5  6  1  0  0  0  0
  5 26  1  0  0  0  0
  6  7  1  0  0  0  0
  6 27  1  0  0  0  0
  6 28  1  0  0  0  0
  7 16  1  0  0  0  0
  7  8  1  0  0  0  0
  7 13  1  0  0  0  0
  8  9  2  0  0  0  0
  8 10  1  0  0  0  0
 10 11  1  0  0  0  0
 10 12  1  0  0  0  0
 11 29  1  0  0  0  0
 11 30  1  0  0  0  0
 11 31  1  0  0  0  0
 12 32  1  0  0  0  0
 12 33  1  0  0  0  0
 12 34  1  0  0  0  0
 13 14  1  0  0  0  0
 13 35  1  0  0  0  0
 13 36  1  0  0  0  0
 14 15  1  0  0  0  0
 14 37  1  0  0  0  0
 14 38  1  0  0  0  0
 15 16  1  0  0  0  0
 15 39  1  0  0  0  0
 15 40  1  0  0  0  0
 16 41  1  0  0  0  0
 16 42  1  0  0  0  0
 17 21  1  0  0  0  0
 17 18  1  0  0  0  0
 18 19  2  0  0  0  0
 18 43  1  0  0  0  0
 19 20  1  0  0  0  0
 19 44  1  0  0  0  0
 20 21  2  0  0  0  0
 20 45  1  0  0  0  0
M  END
> <s_m_source_file>
AV-unprocessed.smi

> <i_m_source_file_index>
783

> <i_lp_mmshare_version>
43012

> <i_f3d_flags>
0

> <s_epik_input>
bjFbY0hdW2NIXVtjSF1uMVtDQEhdKFtDSDNdKUMoPU8pW05IXVtDSDJdQzIoQyg9TylOKFtDSDNdKVtDSDNdKVtDSDJdW0NIMl1bQ0gyXVtDSDJdMg==

> <s_epik_cmdline>
J2VwaWtfcHl0aG9uJywgJy1waCcsICc3LjAnLCAnLXRuJywgJzgnLCAnLW1hJywgJzIwMCcsICctbWV0YWxfYmluZGluZycsICctaW1hZScsICc8aW5maWxlLm1hZT4nLCAnLW9tYWUnLCAnPG91dGZpbGUubWFlPic=

> <r_lp_tautomer_probability>
1

> <r_epik_Ionization_Penalty>
3.31274e-05

> <r_epik_Ionization_Penalty_Charging>
0

> <r_epik_Ionization_Penalty_Neutral>
3.31274e-05

> <r_epik_State_Penalty>
-0

> <r_epik_Charging_Adjusted_Penalty>
0

> <i_epik_Tot_Q>
0

> <i_epik_Tot_abs_Q>
0

> <r_epik_Metal_State_Penalty>
-0

> <b_epik_Metal_Only>
0

> <s_lp_Force_Field>
OPLS_2005

> <r_lp_Energy>
40.1786

> <b_lp_Chiralities_Consistent>
1

> <s_lp_Variant>
AV-unprocessed.smi:783-2

> <Gold.Version>
5.8.1

> <Gold.Id.Protein>
6NUR|6NUR_protein|mol2

> <Gold.PLP.Fitness>
39.0902

> <Gold.PLP.PLP>
-29.9486

> <Gold.PLP.part.hbond>
-1.9947

> <Gold.PLP.part.metal>
0.0000

> <Gold.PLP.part.buried>
-4.7764

> <Gold.PLP.part.nonpolar>
-23.6861

> <Gold.PLP.part.repulsive>
0.2162

> <Gold.PLP.ligand.clash>
0.0000

> <Gold.PLP.ligand.torsion>
1.0898

> <Gold.PLP.Chemscore.Hbond>
1.8125

> <Gold.PLP.Chemscore.CHOScore>
1.8592

> <Gold.PLP.Chemscore.Metal>
0.0000

> <Gold.Chemscore.Hbonds>
donor molecule, donor type, donor heavy atom, donor atom, acceptor molecule, acceptor atom, score
      L1  H     5    26       P1  7948  1.00
      P1  H  6896  6908       L1     9  0.76
      L1  C    18    43       P1 10186  0.79
      L1  C    20    45       P1 10747  1.00

> <Gold.PLP.Chemscore.Internal.Correction>
0.3061

> <Gold.Rescore>
     Score         DG    S(hbond)    S(metal)    S(lipo)     H(rot)  DE(clash)    DE(int)     intcor
     14.15     -15.25       1.90        0.00      69.73       1.84       0.03       1.08       ----

> <Gold.Chemscore.Fitness>
14.1482

> <Gold.Chemscore.DG>
-15.2533

> <Gold.Chemscore.ZeroCoef>
-5.4800

> <Gold.Chemscore.Hbond>
1.8975

> <Gold.Chemscore.Metal>
0.0000

> <Gold.Chemscore.Lipo>
69.7316

> <Gold.Chemscore.Internal_Hbond>
0.0000

> <Gold.Chemscore.DEClash>
0.0270

> <Gold.Chemscore.DEInternal>
1.0781

> <Gold.Chemscore.Rot>
1.8449

> <Gold.Chemscore.Internal.Correction>
   9.000000E+99

> <Gold.Chemscore.Hbonds>
donor molecule, donor type, donor heavy atom, donor atom, acceptor molecule, acceptor atom, score
      L1  H     5    26       P1  7948  1.00
      P1  H  6896  6908       L1     9  0.74

> <Gold.Chemscore.Hbond.Weighted>
-6.3376

> <Gold.Chemscore.Metal.Weighted>
-0.0000

> <Gold.Chemscore.Lipo.Weighted>
-8.1586

> <Gold.Chemscore.Internal_Hbond.Weighted>
0.0000

> <Gold.Chemscore.DEClash.Weighted>
0.0270

> <Gold.Chemscore.DEInternal.Weighted>
1.0781

> <Gold.Chemscore.Rot.Weighted>
4.7229

> <Gold.Chemscore.Internal.Correction.Weighted>
   9.000000E+99

> <Gold.Protein.RotatedTorsions>
[ 6907 6896 6895 6894 ] final  125.62 input  -60.11 | X-H torsion
[ 7974 7965 7964 7962 ] final  -64.55 input  175.53 | X-H torsion
[ 8008 7997 7996 7995 ] final    8.50 input   59.86 | X-H torsion
[ 10167 10162 10161 10158 ] final  -51.65 input  -65.29 | X-H torsion
[ 10718 10713 10712 10709 ] final -144.06 input   66.30 | X-H torsion
[ 10763 10752 10751 10750 ] final  167.44 input  -60.55 | X-H torsion
[ 11005 11000 10999 10996 ] final  122.25 input  -57.11 | X-H torsion

> <Gold.Protein.ActiveResidues>
 VAL166  LYS551  ARG553  GLY616  TRP617  ASP618  TYR619  PRO620  LYS621  CYS622 
 ASP623  PHE694  ASN695  SER759  ASP760  ASP761  ALA762  ILE779  LEU786  VAL792 
 PHE793  MET794  SER795  GLU796  ALA797  LYS798  CYS799  TRP800  GLU811  SER814 

> <Gold.Protein.RotatedAtoms>
  152.3975  133.6769  159.6288 H   0  0  0  0  0  0  0  0  0  0  0  0  # atno 6907 bound_to 6896
  150.7872  133.8848  159.3305 H   0  0  0  0  0  0  0  0  0  0  0  0  # atno 6908 bound_to 6896
  151.6621  135.0989  160.0233 H   0  0  0  0  0  0  0  0  0  0  0  0  # atno 6909 bound_to 6896
  145.7653  140.8840  143.0408 H   0  0  0  0  0  0  0  0  0  0  0  0  # atno 7974 bound_to 7965
  154.7676  140.2796  155.6164 H   0  0  0  0  0  0  0  0  0  0  0  0  # atno 8008 bound_to 7997
  156.2927  140.2648  156.2398 H   0  0  0  0  0  0  0  0  0  0  0  0  # atno 8009 bound_to 7997
  154.9940  140.0373  157.2321 H   0  0  0  0  0  0  0  0  0  0  0  0  # atno 8010 bound_to 7997
  140.6578  143.2612  151.4534 H   0  0  0  0  0  0  0  0  0  0  0  0  # atno 10167 bound_to 10162
  156.3655  130.7761  151.1934 H   0  0  0  0  0  0  0  0  0  0  0  0  # atno 10718 bound_to 10713
  154.3538  135.2753  155.2357 H   0  0  0  0  0  0  0  0  0  0  0  0  # atno 10763 bound_to 10752
  154.4575  135.5915  153.6236 H   0  0  0  0  0  0  0  0  0  0  0  0  # atno 10764 bound_to 10752
  152.9848  135.6057  154.3751 H   0  0  0  0  0  0  0  0  0  0  0  0  # atno 10765 bound_to 10752
  139.9260  134.9641  156.8080 H   0  0  0  0  0  0  0  0  0  0  0  0  # atno 11005 bound_to 11000
  144.6822  139.9780  143.7483 LP  0  0  0  0  0  0  0  0  0  0  0  0  # atno 17320 bound_to 7965
  146.0223  139.3262  143.0805 LP  0  0  0  0  0  0  0  0  0  0  0  0  # atno 17321 bound_to 7965
  139.5804  144.1723  152.1960 LP  0  0  0  0  0  0  0  0  0  0  0  0  # atno 17342 bound_to 10162
  140.1046  144.5510  150.6965 LP  0  0  0  0  0  0  0  0  0  0  0  0  # atno 17343 bound_to 10162
  157.7478  131.0387  150.4517 LP  0  0  0  0  0  0  0  0  0  0  0  0  # atno 17370 bound_to 10713
  156.4736  130.4058  149.6503 LP  0  0  0  0  0  0  0  0  0  0  0  0  # atno 17371 bound_to 10713
  140.6335  133.9884  155.7673 LP  0  0  0  0  0  0  0  0  0  0  0  0  # atno 17394 bound_to 11000
  141.0818  134.0051  157.3375 LP  0  0  0  0  0  0  0  0  0  0  0  0  # atno 17395 bound_to 11000

$$$$
