#       Name:                AV-unprocessed.smi:1831
#       Creating user name   scv26
#       Creation time:       Fri Mar 27 09:15:07 2020


#       File generated by GOLD software.
#

@<TRIPOS>MOLECULE
AV-unprocessed.smi:1831
    45    46     1
SMALL
NO_CHARGES


@<TRIPOS>ATOM
      1 ****        -2.9757   5.3293   5.1039 C.3            1 S1                 0.0000
      2 ****        -2.5787   4.9560   3.7168 C.2            1 S1                 0.0000
      3 ****        -2.2446   5.8666   2.7939 N.2            1 S1                 0.0000
      4 ****        -1.9079   5.2878   1.5774 N.2            1 S1                 0.0000
      5 ****        -1.9990   3.9555   1.6165 C.2            1 S1                 0.0000
      6 ****        -1.6777   3.2303   0.4420 N.am           1 S1                 0.0000
      7 ****        -1.7093   1.9004   0.2580 C.2            1 S1                 0.0000
      8 ****        -2.0678   1.0735   1.0963 O.2            1 S1                 0.0000
      9 ****        -1.2923   1.5710  -0.9733 N.am           1 S1                 0.0000
     10 ****        -1.2025   0.2137  -1.5036 C.3            1 S1                 0.0000
     11 ****         0.1995  -0.3951  -1.3062 C.3            1 S1                 0.0000
     12 ****         0.6124  -0.6325   0.1448 C.3            1 S1                 0.0000
     13 ****         1.7197  -1.6700   0.0064 C.3            1 S1                 0.0000
     14 ****         1.2761  -2.5694  -1.0823 N.4            1 S1                 1.0000
     15 ****         2.3605  -3.3083  -1.7898 C.3            1 S1                 0.0000
     16 ****         1.7776  -4.3298  -2.7851 C.3            1 S1                 0.0000
     17 ****         3.2975  -4.0342  -0.8045 C.3            1 S1                 0.0000
     18 ****         0.3724  -1.7770  -1.9570 C.3            1 S1                 0.0000
     19 ****        -2.5087   3.2863   3.1666 S.3            1 S1                 0.0000
     20 ****        -3.7648   6.0812   5.0796 H              1 S1                 0.0000
     21 ****        -2.1186   5.7360   5.6406 H              1 S1                 0.0000
     22 ****        -3.3435   4.4557   5.6422 H              1 S1                 0.0000
     23 ****        -1.3771   3.7895  -0.3428 H              1 S1                 0.0000
     24 ****        -1.0192   2.3182  -1.5953 H              1 S1                 0.0000
     25 ****        -1.9674  -0.4265  -1.0603 H              1 S1                 0.0000
     26 ****        -1.4293   0.2635  -2.5689 H              1 S1                 0.0000
     27 ****         0.9366   0.2744  -1.7536 H              1 S1                 0.0000
     28 ****         0.9470   0.2754   0.6473 H              1 S1                 0.0000
     29 ****        -0.2187  -1.0502   0.7154 H              1 S1                 0.0000
     30 ****         2.6486  -1.1727  -0.2782 H              1 S1                 0.0000
     31 ****         1.8940  -2.2132   0.9356 H              1 S1                 0.0000
     32 ****         2.9547  -2.5828  -2.3477 H              1 S1                 0.0000
     33 ****         2.5726  -4.8804  -3.2886 H              1 S1                 0.0000
     34 ****         1.1808  -3.8560  -3.5640 H              1 S1                 0.0000
     35 ****         1.1437  -5.0578  -2.2780 H              1 S1                 0.0000
     36 ****         4.0595  -4.6019  -1.3393 H              1 S1                 0.0000
     37 ****         2.7473  -4.7347  -0.1756 H              1 S1                 0.0000
     38 ****         3.8260  -3.3403  -0.1510 H              1 S1                 0.0000
     39 ****        -0.5786  -2.3060  -2.0299 H              1 S1                 0.0000
     40 ****         0.7636  -1.6621  -2.9686 H              1 S1                 0.0000
     41 ****         0.6909  -3.2642  -0.6407 H              1 S1                 0.0000
     42 ****        -2.2382   6.8524   2.9617 LP             1 S1                 0.0000
     43 ****        -1.6304   5.8063   0.7687 LP             1 S1                 0.0000
     44 ****        -2.3675   1.3764   2.0010 LP             1 S1                 0.0000
     45 ****        -2.0594   0.0989   0.8727 LP             1 S1                 0.0000
@<TRIPOS>BOND
    1    1    2 1     
    2    1   20 1     
    3    1   21 1     
    4    1   22 1     
    5    2   19 1     
    6    2    3 2     
    7    3    4 1     
    8    4    5 2     
    9    5    6 1     
   10    5   19 1     
   11    6    7 am    
   12    6   23 1     
   13    7    8 2     
   14    7    9 am    
   15    9   10 1     
   16    9   24 1     
   17   10   11 1     
   18   10   25 1     
   19   10   26 1     
   20   11   18 1     
   21   11   12 1     
   22   11   27 1     
   23   12   13 1     
   24   12   28 1     
   25   12   29 1     
   26   13   14 1     
   27   13   30 1     
   28   13   31 1     
   29   14   15 1     
   30   14   18 1     
   31   14   41 1     
   32   15   16 1     
   33   15   17 1     
   34   15   32 1     
   35   16   33 1     
   36   16   34 1     
   37   16   35 1     
   38   17   36 1     
   39   17   37 1     
   40   17   38 1     
   41   18   39 1     
   42   18   40 1     
   43    3   42 1     
   44    4   43 1     
   45    8   44 1     
   46    8   45 1     
@<TRIPOS>SUBSTRUCTURE
      1 S1             1
@<TRIPOS>SET
LONE_PAIRS      STATIC     ATOMS    <user>   **** ""
4 42 43 44 45
DONOR_HYDROGENS      STATIC     ATOMS    <user>   **** ""
3 23 24 41
ATOM$BLUE        STATIC     ATOMS    COLORGROUP SYSTEM
4 42 43 44 45
ATOM$RED        STATIC     ATOMS    COLORGROUP SYSTEM
3 23 24 41
