AV-unprocessed.smi:528|AV-procd|sdf|2835|dock9
  -GOLD-   2262023323D 1   1.00000     0.00000
 Structure written by MMmdl.
 45 47  0  0  0  0  0  0  0  0  1 V2000
  150.7452  138.3305  154.5500 C   0  0  0  0  0  0  0  0  0  0  0  0
  150.2982  139.6232  155.2540 C   0  0  2  0  0  0  0  0  0  0  0  0
  150.6575  139.5297  156.6682 N   0  0  0  0  0  0  0  0  0  0  0  0
  151.8949  139.3551  157.1574 C   0  0  0  0  0  0  0  0  0  0  0  0
  152.8993  139.2729  156.4489 O   0  0  0  0  0  0  0  0  0  0  0  0
  152.0005  139.2761  158.6875 C   0  0  0  0  0  0  0  0  0  0  0  0
  152.5323  140.5028  159.3048 N   0  0  0  0  0  0  0  0  0  0  0  0
  151.9454  141.7232  158.9162 C   0  0  0  0  0  0  0  0  0  0  0  0
  152.3305  142.9136  159.4147 C   0  0  0  0  0  0  0  0  0  0  0  0
  151.7185  144.2193  158.9315 C   0  0  0  0  0  0  0  0  0  0  0  0
  150.3953  144.2179  159.0939 F   0  0  0  0  0  0  0  0  0  0  0  0
  152.2206  145.2619  159.5942 F   0  0  0  0  0  0  0  0  0  0  0  0
  151.9773  144.3881  157.6355 F   0  0  0  0  0  0  0  0  0  0  0  0
  153.4234  142.8910  160.3670 C   0  0  0  0  0  0  0  0  0  0  0  0
  154.0047  141.7339  160.7397 C   0  0  0  0  0  0  0  0  0  0  0  0
  153.5606  140.4452  160.2036 C   0  0  0  0  0  0  0  0  0  0  0  0
  154.0804  139.3811  160.5403 O   0  0  0  0  0  0  0  0  0  0  0  0
  148.7777  139.8788  155.1108 C   0  0  2  0  0  0  0  0  0  0  0  0
  148.2655  139.7802  153.6526 C   0  0  0  0  0  0  0  0  0  0  0  0
  147.5415  141.1209  153.4380 C   0  0  1  0  0  0  0  0  0  0  0  0
  146.2549  141.1536  154.2825 C   0  0  0  0  0  0  0  0  0  0  0  0
  146.7969  141.3112  155.7152 C   0  0  0  0  0  0  0  0  0  0  0  0
  148.3233  141.3088  155.5043 C   0  0  2  0  0  0  0  0  0  0  0  0
  148.4474  142.0818  154.1957 C   0  0  0  0  0  0  0  0  0  0  0  0
  150.5536  138.3676  153.4780 H   0  0  0  0  0  0  0  0  0  0  0  0
  150.2236  137.4601  154.9498 H   0  0  0  0  0  0  0  0  0  0  0  0
  151.8152  138.1640  154.6792 H   0  0  0  0  0  0  0  0  0  0  0  0
  150.8302  140.4573  154.7940 H   0  0  0  0  0  0  0  0  0  0  0  0
  149.8975  139.5922  157.3301 H   0  0  0  0  0  0  0  0  0  0  0  0
  151.0113  139.0451  159.0847 H   0  0  0  0  0  0  0  0  0  0  0  0
  152.6232  138.4221  158.9609 H   0  0  0  0  0  0  0  0  0  0  0  0
  151.1637  141.6301  158.1762 H   0  0  0  0  0  0  0  0  0  0  0  0
  153.7811  143.8174  160.7916 H   0  0  0  0  0  0  0  0  0  0  0  0
  154.8164  141.7549  161.4521 H   0  0  0  0  0  0  0  0  0  0  0  0
  148.2544  139.1510  155.7334 H   0  0  0  0  0  0  0  0  0  0  0  0
  149.0888  139.6917  152.9425 H   0  0  0  0  0  0  0  0  0  0  0  0
  147.6071  138.9240  153.5018 H   0  0  0  0  0  0  0  0  0  0  0  0
  147.3824  141.3681  152.3881 H   0  0  0  0  0  0  0  0  0  0  0  0
  145.6312  142.0066  154.0118 H   0  0  0  0  0  0  0  0  0  0  0  0
  145.6585  140.2489  154.1592 H   0  0  0  0  0  0  0  0  0  0  0  0
  146.4683  142.2586  156.1447 H   0  0  0  0  0  0  0  0  0  0  0  0
  146.4640  140.5127  156.3791 H   0  0  0  0  0  0  0  0  0  0  0  0
  148.8652  141.7452  156.3433 H   0  0  0  0  0  0  0  0  0  0  0  0
  149.4651  142.1198  153.8041 H   0  0  0  0  0  0  0  0  0  0  0  0
  148.0495  143.0965  154.2532 H   0  0  0  0  0  0  0  0  0  0  0  0
  1  2  1  0  0  0  0
  1 25  1  0  0  0  0
  1 26  1  0  0  0  0
  1 27  1  0  0  0  0
  2  3  1  0  0  0  0
  2 18  1  0  0  0  0
  2 28  1  0  0  0  0
  3  4  1  0  0  0  0
  3 29  1  0  0  0  0
  4  5  2  0  0  0  0
  4  6  1  0  0  0  0
  6  7  1  0  0  0  0
  6 30  1  0  0  0  0
  6 31  1  0  0  0  0
  7 16  1  0  0  0  0
  7  8  1  0  0  0  0
  8  9  2  0  0  0  0
  8 32  1  0  0  0  0
  9 10  1  0  0  0  0
  9 14  1  0  0  0  0
 10 11  1  0  0  0  0
 10 12  1  0  0  0  0
 10 13  1  0  0  0  0
 14 15  2  0  0  0  0
 14 33  1  0  0  0  0
 15 16  1  0  0  0  0
 15 34  1  0  0  0  0
 16 17  2  0  0  0  0
 18 23  1  0  0  0  0
 18 19  1  0  0  0  0
 18 35  1  0  0  0  0
 19 20  1  0  0  0  0
 19 36  1  0  0  0  0
 19 37  1  0  0  0  0
 20 24  1  0  0  0  0
 20 21  1  0  0  0  0
 20 38  1  0  0  0  0
 21 22  1  0  0  0  0
 21 39  1  0  0  0  0
 21 40  1  0  0  0  0
 22 23  1  0  0  0  0
 22 41  1  0  0  0  0
 22 42  1  0  0  0  0
 23 24  1  0  0  0  0
 23 43  1  0  0  0  0
 24 44  1  0  0  0  0
 24 45  1  0  0  0  0
M  END
> <s_m_source_file>
AV-unprocessed.smi

> <i_m_source_file_index>
528

> <i_lp_mmshare_version>
43012

> <i_f3d_flags>
0

> <s_epik_input>
W0NIMl0xW0NIMl1bQ0BASF0oW0NIMl0yKVtDQEBIXShbQ0gyXVtDQEhdMTIpW0NASF0oW0NIM10pW05IXUMoPU8pW0NIMl1uM1tjSF1jKEMoRikoRilGKVtjSF1bY0hdYzM9Tw==

> <s_epik_cmdline>
J2VwaWtfcHl0aG9uJywgJy1waCcsICc3LjAnLCAnLXRuJywgJzgnLCAnLW1hJywgJzIwMCcsICctbWV0YWxfYmluZGluZycsICctaW1hZScsICc8aW5maWxlLm1hZT4nLCAnLW9tYWUnLCAnPG91dGZpbGUubWFlPic=

> <r_lp_tautomer_probability>
1

> <r_epik_Ionization_Penalty>
4.09479e-08

> <r_epik_Ionization_Penalty_Charging>
1.9321e-08

> <r_epik_Ionization_Penalty_Neutral>
2.16269e-08

> <r_epik_State_Penalty>
-0

> <r_epik_Charging_Adjusted_Penalty>
1.9321e-08

> <i_epik_Tot_Q>
0

> <i_epik_Tot_abs_Q>
0

> <r_epik_Metal_State_Penalty>
-0

> <b_epik_Metal_Only>
0

> <s_lp_Force_Field>
OPLS_2005

> <r_lp_Energy>
63.0094

> <b_lp_Chiralities_Consistent>
1

> <s_lp_Variant>
AV-unprocessed.smi:528-5

> <Gold.Version>
5.8.1

> <Gold.Id.Protein>
6NUR|6NUR_protein|mol2

> <Gold.PLP.Fitness>
51.7630

> <Gold.PLP.PLP>
-49.6669

> <Gold.PLP.part.hbond>
-1.0000

> <Gold.PLP.part.metal>
0.0000

> <Gold.PLP.part.buried>
-1.6731

> <Gold.PLP.part.nonpolar>
-47.4186

> <Gold.PLP.part.repulsive>
0.0371

> <Gold.PLP.ligand.clash>
0.0000

> <Gold.PLP.ligand.torsion>
0.4973

> <Gold.PLP.Chemscore.Hbond>
1.0000

> <Gold.PLP.Chemscore.CHOScore>
0.0000

> <Gold.PLP.Chemscore.Metal>
0.0000

> <Gold.Chemscore.Hbonds>
donor molecule, donor type, donor heavy atom, donor atom, acceptor molecule, acceptor atom, score
      P1  H  7997  8010       L1     5  1.00

> <Gold.PLP.Chemscore.Internal.Correction>
0.0907

> <Gold.Rescore>
     Score         DG    S(hbond)    S(metal)    S(lipo)     H(rot)  DE(clash)    DE(int)     intcor
     16.42     -17.16       1.00        0.00     108.75       1.71       0.28       0.47       ----

> <Gold.Chemscore.Fitness>
16.4174

> <Gold.Chemscore.DG>
-17.1597

> <Gold.Chemscore.ZeroCoef>
-5.4800

> <Gold.Chemscore.Hbond>
1.0000

> <Gold.Chemscore.Metal>
0.0000

> <Gold.Chemscore.Lipo>
108.7497

> <Gold.Chemscore.Internal_Hbond>
0.0000

> <Gold.Chemscore.DEClash>
0.2770

> <Gold.Chemscore.DEInternal>
0.4653

> <Gold.Chemscore.Rot>
1.7125

> <Gold.Chemscore.Internal.Correction>
   9.000000E+99

> <Gold.Chemscore.Hbonds>
donor molecule, donor type, donor heavy atom, donor atom, acceptor molecule, acceptor atom, score
      P1  H  7997  8010       L1     5  1.00

> <Gold.Chemscore.Hbond.Weighted>
-3.3399

> <Gold.Chemscore.Metal.Weighted>
-0.0000

> <Gold.Chemscore.Lipo.Weighted>
-12.7237

> <Gold.Chemscore.Internal_Hbond.Weighted>
0.0000

> <Gold.Chemscore.DEClash.Weighted>
0.2770

> <Gold.Chemscore.DEInternal.Weighted>
0.4653

> <Gold.Chemscore.Rot.Weighted>
4.3840

> <Gold.Chemscore.Internal.Correction.Weighted>
   9.000000E+99

> <Gold.Protein.RotatedTorsions>
[ 6907 6896 6895 6894 ] final  -69.07 input  -60.11 | X-H torsion
[ 7974 7965 7964 7962 ] final   43.57 input  175.53 | X-H torsion
[ 8008 7997 7996 7995 ] final   70.52 input   59.86 | X-H torsion
[ 10167 10162 10161 10158 ] final  154.30 input  -65.29 | X-H torsion
[ 10718 10713 10712 10709 ] final  169.01 input   66.30 | X-H torsion
[ 10763 10752 10751 10750 ] final  132.84 input  -60.55 | X-H torsion
[ 11005 11000 10999 10996 ] final   90.76 input  -57.11 | X-H torsion

> <Gold.Protein.ActiveResidues>
 VAL166  LYS551  ARG553  GLY616  TRP617  ASP618  TYR619  PRO620  LYS621  CYS622 
 ASP623  PHE694  ASN695  SER759  ASP760  ASP761  ALA762  ILE779  LEU786  VAL792 
 PHE793  MET794  SER795  GLU796  ALA797  LYS798  CYS799  TRP800  GLU811  SER814 

> <Gold.Protein.RotatedAtoms>
  150.7324  134.5649  159.5860 H   0  0  0  0  0  0  0  0  0  0  0  0  # atno 6907 bound_to 6896
  152.3103  134.7502  160.0347 H   0  0  0  0  0  0  0  0  0  0  0  0  # atno 6908 bound_to 6896
  151.8053  133.3339  159.3575 H   0  0  0  0  0  0  0  0  0  0  0  0  # atno 6909 bound_to 6896
  146.0644  139.5172  142.9637 H   0  0  0  0  0  0  0  0  0  0  0  0  # atno 7974 bound_to 7965
  155.7401  140.3490  155.5100 H   0  0  0  0  0  0  0  0  0  0  0  0  # atno 8008 bound_to 7997
  155.9102  140.1049  157.1306 H   0  0  0  0  0  0  0  0  0  0  0  0  # atno 8009 bound_to 7997
  154.4055  140.1269  156.4535 H   0  0  0  0  0  0  0  0  0  0  0  0  # atno 8010 bound_to 7997
  139.4824  144.5198  151.7894 H   0  0  0  0  0  0  0  0  0  0  0  0  # atno 10167 bound_to 10162
  157.0289  131.0253  151.2751 H   0  0  0  0  0  0  0  0  0  0  0  0  # atno 10718 bound_to 10713
  153.7972  135.3147  155.3386 H   0  0  0  0  0  0  0  0  0  0  0  0  # atno 10763 bound_to 10752
  154.8103  135.4671  154.0501 H   0  0  0  0  0  0  0  0  0  0  0  0  # atno 10764 bound_to 10752
  153.1838  135.6898  153.8530 H   0  0  0  0  0  0  0  0  0  0  0  0  # atno 10765 bound_to 10752
  139.8850  134.8633  156.3331 H   0  0  0  0  0  0  0  0  0  0  0  0  # atno 11005 bound_to 11000
  145.6503  141.0264  143.1764 LP  0  0  0  0  0  0  0  0  0  0  0  0  # atno 17320 bound_to 7965
  144.7194  139.8083  143.7387 LP  0  0  0  0  0  0  0  0  0  0  0  0  # atno 17321 bound_to 7965
  140.4711  144.1585  150.5918 LP  0  0  0  0  0  0  0  0  0  0  0  0  # atno 17342 bound_to 10162
  140.4381  143.2538  151.9508 LP  0  0  0  0  0  0  0  0  0  0  0  0  # atno 17343 bound_to 10162
  157.5193  130.7988  149.7791 LP  0  0  0  0  0  0  0  0  0  0  0  0  # atno 17370 bound_to 10713
  156.0076  130.3848  150.2375 LP  0  0  0  0  0  0  0  0  0  0  0  0  # atno 17371 bound_to 10713
  140.9709  133.7328  156.0533 LP  0  0  0  0  0  0  0  0  0  0  0  0  # atno 17394 bound_to 11000
  140.7872  134.3659  157.5473 LP  0  0  0  0  0  0  0  0  0  0  0  0  # atno 17395 bound_to 11000

$$$$
