AV-unprocessed.smi:3097|AV-procd|sdf|11798|dock8
  -GOLD-   2272017173D 1   1.00000     0.00000
 Structure written by MMmdl.
 35 35  0  0  0  0  0  0  0  0  2 V2000
  147.9066  133.0874  152.7928 C   0  0  0  0  0  0  0  0  0  0  0  0
  146.4837  133.6580  152.8470 C   0  0  0  0  0  0  0  0  0  0  0  0
  146.0932  134.4306  151.5783 C   0  0  0  0  0  0  0  0  0  0  0  0
  146.2100  135.8844  151.7666 N   0  0  0  0  0  0  0  0  0  0  0  0
  145.2121  136.7279  152.0971 C   0  0  0  0  0  0  0  0  0  0  0  0
  145.4587  138.0479  152.2090 N   0  3  0  0  0  0  0  0  0  0  0  0
  146.7596  138.6950  152.0005 C   0  0  0  0  0  0  0  0  0  0  0  0
  143.9690  136.2553  152.3138 N   0  0  0  0  0  0  0  0  0  0  0  0
  142.7947  137.0625  152.6691 C   0  0  0  0  0  0  0  0  0  0  0  0
  142.1210  136.5314  153.9410 C   0  0  0  0  0  0  0  0  0  0  0  0
  140.7033  136.8339  153.9601 N   0  0  0  0  0  0  0  0  0  0  0  0
  139.9975  137.6965  153.1477 C   0  0  0  0  0  0  0  0  0  0  0  0
  138.6913  137.6488  153.5429 C   0  0  0  0  0  0  0  0  0  0  0  0
  138.6974  136.7183  154.6196 C   0  0  0  0  0  0  0  0  0  0  0  0
  139.9032  136.2313  154.8662 N   0  0  0  0  0  0  0  0  0  0  0  0
  148.1498  132.5658  153.7187 H   0  0  0  0  0  0  0  0  0  0  0  0
  148.6435  133.8792  152.6542 H   0  0  0  0  0  0  0  0  0  0  0  0
  148.0193  132.3765  151.9738 H   0  0  0  0  0  0  0  0  0  0  0  0
  145.7748  132.8477  153.0212 H   0  0  0  0  0  0  0  0  0  0  0  0
  146.3985  134.3225  153.7074 H   0  0  0  0  0  0  0  0  0  0  0  0
  146.7253  134.1286  150.7429 H   0  0  0  0  0  0  0  0  0  0  0  0
  145.0681  134.1917  151.2940 H   0  0  0  0  0  0  0  0  0  0  0  0
  147.1204  136.2818  151.5831 H   0  0  0  0  0  0  0  0  0  0  0  0
  146.6708  139.7721  152.1415 H   0  0  0  0  0  0  0  0  0  0  0  0
  147.1212  138.5076  150.9894 H   0  0  0  0  0  0  0  0  0  0  0  0
  147.4931  138.3133  152.7109 H   0  0  0  0  0  0  0  0  0  0  0  0
  143.8149  135.2625  152.2107 H   0  0  0  0  0  0  0  0  0  0  0  0
  143.1060  138.0975  152.8149 H   0  0  0  0  0  0  0  0  0  0  0  0
  142.0938  137.0491  151.8337 H   0  0  0  0  0  0  0  0  0  0  0  0
  142.2472  135.4504  154.0197 H   0  0  0  0  0  0  0  0  0  0  0  0
  142.5819  136.9704  154.8270 H   0  0  0  0  0  0  0  0  0  0  0  0
  140.4767  138.2658  152.3646 H   0  0  0  0  0  0  0  0  0  0  0  0
  137.8582  138.1961  153.1272 H   0  0  0  0  0  0  0  0  0  0  0  0
  137.8673  136.3834  155.2242 H   0  0  0  0  0  0  0  0  0  0  0  0
  144.6906  138.6561  152.4548 H   0  0  0  0  0  0  0  0  0  0  0  0
  1  2  1  0  0  0  0
  1 16  1  0  0  0  0
  1 17  1  0  0  0  0
  1 18  1  0  0  0  0
  2  3  1  0  0  0  0
  2 19  1  0  0  0  0
  2 20  1  0  0  0  0
  3  4  1  0  0  0  0
  3 21  1  0  0  0  0
  3 22  1  0  0  0  0
  4  5  1  0  0  0  0
  4 23  1  0  0  0  0
  5  6  2  0  0  0  0
  5  8  1  0  0  0  0
  6  7  1  0  0  0  0
  6 35  1  0  0  0  0
  7 24  1  0  0  0  0
  7 25  1  0  0  0  0
  7 26  1  0  0  0  0
  8  9  1  0  0  0  0
  8 27  1  0  0  0  0
  9 10  1  0  0  0  0
  9 28  1  0  0  0  0
  9 29  1  0  0  0  0
 10 11  1  0  0  0  0
 10 30  1  0  0  0  0
 10 31  1  0  0  0  0
 11 15  1  0  0  0  0
 11 12  1  0  0  0  0
 12 13  2  0  0  0  0
 12 32  1  0  0  0  0
 13 14  1  0  0  0  0
 13 33  1  0  0  0  0
 14 15  2  0  0  0  0
 14 34  1  0  0  0  0
M  CHG  1   6   1
M  END
> <s_m_source_file>
AV-unprocessed.smi

> <i_m_source_file_index>
3097

> <i_lp_mmshare_version>
43012

> <i_f3d_flags>
0

> <s_epik_input>
W0NIM11bQ0gyXVtDSDJdW05IXS9DKD1OXFtDSDNdKVtOSF1bQ0gyXVtDSDJdbjFbY0hdW2NIXVtjSF1uMQ==

> <s_epik_cmdline>
J2VwaWtfcHl0aG9uJywgJy1waCcsICc3LjAnLCAnLXRuJywgJzgnLCAnLW1hJywgJzIwMCcsICctbWV0YWxfYmluZGluZycsICctaW1hZScsICc8aW5maWxlLm1hZT4nLCAnLW9tYWUnLCAnPG91dGZpbGUubWFlPic=

> <r_lp_tautomer_probability>
1

> <r_epik_Ionization_Penalty>
4.40305e-05

> <r_epik_Ionization_Penalty_Charging>
1.64417e-07

> <r_epik_Ionization_Penalty_Neutral>
4.38661e-05

> <r_epik_State_Penalty>
-0

> <r_epik_Charging_Adjusted_Penalty>
1.64417e-07

> <i_epik_Tot_Q>
1

> <i_epik_Tot_abs_Q>
1

> <r_epik_Metal_State_Penalty>
-0

> <b_epik_Metal_Only>
0

> <s_epik_Chemistry_Notes>
This compound has an imine and may undergo hydrolysis.

> <s_lp_Force_Field>
OPLS_2005

> <r_lp_Energy>
7.72145

> <b_lp_Chiralities_Consistent>
1

> <s_lp_Variant>
AV-unprocessed.smi:3097-1

> <Gold.Version>
5.8.1

> <Gold.Id.Protein>
6NUR|6NUR_protein|mol2

> <Gold.PLP.Fitness>
47.7047

> <Gold.PLP.PLP>
-31.2931

> <Gold.PLP.part.hbond>
-4.1382

> <Gold.PLP.part.metal>
0.0000

> <Gold.PLP.part.buried>
-4.0206

> <Gold.PLP.part.nonpolar>
-23.1724

> <Gold.PLP.part.repulsive>
0.1735

> <Gold.PLP.ligand.clash>
0.0000

> <Gold.PLP.ligand.torsion>
0.7806

> <Gold.PLP.Chemscore.Hbond>
4.9840

> <Gold.PLP.Chemscore.CHOScore>
1.0000

> <Gold.PLP.Chemscore.Metal>
0.0000

> <Gold.Chemscore.Hbonds>
donor molecule, donor type, donor heavy atom, donor atom, acceptor molecule, acceptor atom, score
      L1  H     4    23       P1  7948  1.95
      L1  H     6    35       P1 10175  1.85
      P1  H 11000 11005       L1    15  1.00
      L1  C    12    32       P1 10160  0.60

> <Gold.PLP.Chemscore.Internal.Correction>
0.0208

> <Gold.Rescore>
     Score         DG    S(hbond)    S(metal)    S(lipo)     H(rot)  DE(clash)    DE(int)     intcor
     15.79     -16.63       2.78        0.00      56.41       1.86       0.03       0.81       ----

> <Gold.Chemscore.Fitness>
15.7876

> <Gold.Chemscore.DG>
-16.6262

> <Gold.Chemscore.ZeroCoef>
-5.4800

> <Gold.Chemscore.Hbond>
2.7837

> <Gold.Chemscore.Metal>
0.0000

> <Gold.Chemscore.Lipo>
56.4118

> <Gold.Chemscore.Internal_Hbond>
0.0000

> <Gold.Chemscore.DEClash>
0.0323

> <Gold.Chemscore.DEInternal>
0.8063

> <Gold.Chemscore.Rot>
1.8561

> <Gold.Chemscore.Internal.Correction>
   9.000000E+99

> <Gold.Chemscore.Hbonds>
donor molecule, donor type, donor heavy atom, donor atom, acceptor molecule, acceptor atom, score
      L1  H     4    23       P1  7948  0.93
      L1  H     6    35       P1 10175  0.86
      P1  H 11000 11005       L1    15  0.92

> <Gold.Chemscore.Hbond.Weighted>
-9.2977

> <Gold.Chemscore.Metal.Weighted>
-0.0000

> <Gold.Chemscore.Lipo.Weighted>
-6.6002

> <Gold.Chemscore.Internal_Hbond.Weighted>
0.0000

> <Gold.Chemscore.DEClash.Weighted>
0.0323

> <Gold.Chemscore.DEInternal.Weighted>
0.8063

> <Gold.Chemscore.Rot.Weighted>
4.7517

> <Gold.Chemscore.Internal.Correction.Weighted>
   9.000000E+99

> <Gold.Protein.RotatedTorsions>
[ 6907 6896 6895 6894 ] final -162.26 input  -60.11 | X-H torsion
[ 7974 7965 7964 7962 ] final  112.36 input  175.53 | X-H torsion
[ 8008 7997 7996 7995 ] final   91.23 input   59.86 | X-H torsion
[ 10167 10162 10161 10158 ] final  121.69 input  -65.29 | X-H torsion
[ 10718 10713 10712 10709 ] final  125.03 input   66.30 | X-H torsion
[ 10763 10752 10751 10750 ] final  -23.28 input  -60.55 | X-H torsion
[ 11005 11000 10999 10996 ] final   68.97 input  -57.11 | X-H torsion

> <Gold.Protein.ActiveResidues>
 VAL166  LYS551  ARG553  GLY616  TRP617  ASP618  TYR619  PRO620  LYS621  CYS622 
 ASP623  PHE694  ASN695  SER759  ASP760  ASP761  ALA762  ILE779  LEU786  VAL792 
 PHE793  MET794  SER795  GLU796  ALA797  LYS798  CYS799  TRP800  GLU811  SER814 

> <Gold.Protein.RotatedAtoms>
  151.3775  133.3833  159.2706 H   0  0  0  0  0  0  0  0  0  0  0  0  # atno 6907 bound_to 6896
  150.9603  134.8993  159.7737 H   0  0  0  0  0  0  0  0  0  0  0  0  # atno 6908 bound_to 6896
  152.5147  134.3734  159.9378 H   0  0  0  0  0  0  0  0  0  0  0  0  # atno 6909 bound_to 6896
  145.2305  139.2821  143.4170 H   0  0  0  0  0  0  0  0  0  0  0  0  # atno 7974 bound_to 7965
  156.0214  140.3340  155.7042 H   0  0  0  0  0  0  0  0  0  0  0  0  # atno 8008 bound_to 7997
  155.6017  140.0656  157.2748 H   0  0  0  0  0  0  0  0  0  0  0  0  # atno 8009 bound_to 7997
  154.4317  140.1809  156.1168 H   0  0  0  0  0  0  0  0  0  0  0  0  # atno 8010 bound_to 7997
  139.5904  144.7023  151.3304 H   0  0  0  0  0  0  0  0  0  0  0  0  # atno 10167 bound_to 10162
  157.5536  131.1093  150.8659 H   0  0  0  0  0  0  0  0  0  0  0  0  # atno 10718 bound_to 10713
  153.6653  135.6974  153.5164 H   0  0  0  0  0  0  0  0  0  0  0  0  # atno 10763 bound_to 10752
  153.2599  135.4248  155.0883 H   0  0  0  0  0  0  0  0  0  0  0  0  # atno 10764 bound_to 10752
  154.8441  135.3552  154.6198 H   0  0  0  0  0  0  0  0  0  0  0  0  # atno 10765 bound_to 10752
  139.9680  134.6947  156.0504 H   0  0  0  0  0  0  0  0  0  0  0  0  # atno 11005 bound_to 11000
  146.3354  140.2639  142.8603 LP  0  0  0  0  0  0  0  0  0  0  0  0  # atno 17320 bound_to 7965
  144.9681  140.8341  143.5472 LP  0  0  0  0  0  0  0  0  0  0  0  0  # atno 17321 bound_to 7965
  140.7168  143.7244  150.7671 LP  0  0  0  0  0  0  0  0  0  0  0  0  # atno 17342 bound_to 10162
  140.0798  143.4979  152.2536 LP  0  0  0  0  0  0  0  0  0  0  0  0  # atno 17343 bound_to 10162
  156.9177  130.5304  149.5279 LP  0  0  0  0  0  0  0  0  0  0  0  0  # atno 17370 bound_to 10713
  156.0599  130.5653  150.9170 LP  0  0  0  0  0  0  0  0  0  0  0  0  # atno 17371 bound_to 10713
  141.1360  133.6575  156.3595 LP  0  0  0  0  0  0  0  0  0  0  0  0  # atno 17394 bound_to 11000
  140.5354  134.6172  157.5363 LP  0  0  0  0  0  0  0  0  0  0  0  0  # atno 17395 bound_to 11000

$$$$
