AV-unprocessed.smi:160|AV-procd|sdf|1358|dock5
  -GOLD-   2262019 63D 1   1.00000     0.00000
 Structure written by MMmdl.
 29 30  0  0  0  0  0  0  0  0  1 V2000
  146.2232  144.0097  158.4504 N   0  0  0  0  0  0  0  0  0  0  0  0
  146.5402  142.7657  158.8243 C   0  0  0  0  0  0  0  0  0  0  0  0
  145.8656  142.1289  159.6319 O   0  0  0  0  0  0  0  0  0  0  0  0
  147.7781  142.1804  158.2029 C   0  0  0  0  0  0  0  0  0  0  0  0
  148.6725  141.4666  158.9489 N   0  0  0  0  0  0  0  0  0  0  0  0
  149.5470  141.1677  157.9966 C   0  0  0  0  0  0  0  0  0  0  0  0
  149.2324  141.6557  156.7926 N   0  0  0  0  0  0  0  0  0  0  0  0
  149.9353  141.5064  155.4827 C   0  0  1  0  0  0  0  0  0  0  0  0
  151.1118  140.7926  155.7251 O   0  0  0  0  0  0  0  0  0  0  0  0
  151.1904  139.6418  154.8871 C   0  0  1  0  0  0  0  0  0  0  0  0
  151.9384  138.5193  155.6230 C   0  0  0  0  0  0  0  0  0  0  0  0
  153.2926  138.8739  155.8027 O   0  0  0  0  0  0  0  0  0  0  0  0
  149.7249  139.3117  154.5996 C   0  0  2  0  0  0  0  0  0  0  0  0
  149.5422  138.5303  153.4334 O   0  0  0  0  0  0  0  0  0  0  0  0
  149.0865  140.6913  154.4956 C   0  0  2  0  0  0  0  0  0  0  0  0
  149.1724  141.2364  153.1917 O   0  0  0  0  0  0  0  0  0  0  0  0
  148.0556  142.3209  156.9054 N   0  0  0  0  0  0  0  0  0  0  0  0
  150.1372  142.5289  155.1597 H   0  0  0  0  0  0  0  0  0  0  0  0
  151.6924  139.9134  153.9563 H   0  0  0  0  0  0  0  0  0  0  0  0
  149.2958  138.7782  155.4489 H   0  0  0  0  0  0  0  0  0  0  0  0
  148.0359  140.6809  154.7901 H   0  0  0  0  0  0  0  0  0  0  0  0
  145.4017  144.4559  158.8313 H   0  0  0  0  0  0  0  0  0  0  0  0
  146.8086  144.4943  157.7857 H   0  0  0  0  0  0  0  0  0  0  0  0
  150.4341  140.5794  158.1806 H   0  0  0  0  0  0  0  0  0  0  0  0
  151.4721  138.2966  156.5835 H   0  0  0  0  0  0  0  0  0  0  0  0
  151.9174  137.6029  155.0326 H   0  0  0  0  0  0  0  0  0  0  0  0
  153.8251  138.3158  155.2565 H   0  0  0  0  0  0  0  0  0  0  0  0
  149.4566  139.1109  152.6927 H   0  0  0  0  0  0  0  0  0  0  0  0
  149.2602  140.5226  152.5781 H   0  0  0  0  0  0  0  0  0  0  0  0
  1  2  1  0  0  0  0
  1 22  1  0  0  0  0
  1 23  1  0  0  0  0
  2  3  2  0  0  0  0
  2  4  1  0  0  0  0
  4 17  2  0  0  0  0
  4  5  1  0  0  0  0
  5  6  2  0  0  0  0
  6  7  1  0  0  0  0
  6 24  1  0  0  0  0
  7  8  1  0  0  0  0
  7 17  1  0  0  0  0
  8 18  1  0  0  0  0
  8 15  1  0  0  0  0
  8  9  1  0  0  0  0
  9 10  1  0  0  0  0
 10 19  1  0  0  0  0
 10 11  1  0  0  0  0
 10 13  1  0  0  0  0
 11 12  1  0  0  0  0
 11 25  1  0  0  0  0
 11 26  1  0  0  0  0
 12 27  1  0  0  0  0
 13 20  1  0  0  0  0
 13 14  1  0  0  0  0
 13 15  1  0  0  0  0
 14 28  1  0  0  0  0
 15 21  1  0  0  0  0
 15 16  1  0  0  0  0
 16 29  1  0  0  0  0
M  END
> <s_m_source_file>
AV-unprocessed.smi

> <i_m_source_file_index>
160

> <i_lp_mmshare_version>
43012

> <i_f3d_flags>
0

> <s_epik_input>
W05IMl1DKD1PKWMxbltjSF1uKG4xKVtDQEBIXTJPW0NASF0oW0NIMl1bT0hdKVtDQEBIXShbT0hdKVtDQEhdMltPSF0=

> <s_epik_cmdline>
J2VwaWtfcHl0aG9uJywgJy1waCcsICc3LjAnLCAnLXRuJywgJzgnLCAnLW1hJywgJzIwMCcsICctbWV0YWxfYmluZGluZycsICctaW1hZScsICc8aW5maWxlLm1hZT4nLCAnLW9tYWUnLCAnPG91dGZpbGUubWFlPic=

> <r_lp_tautomer_probability>
1

> <r_epik_Ionization_Penalty>
1.06932e-05

> <r_epik_Ionization_Penalty_Charging>
0

> <r_epik_Ionization_Penalty_Neutral>
1.06932e-05

> <r_epik_State_Penalty>
-0

> <r_epik_Charging_Adjusted_Penalty>
0

> <i_epik_Tot_Q>
0

> <i_epik_Tot_abs_Q>
0

> <r_epik_Metal_State_Penalty>
0.0142097

> <b_epik_Metal_Only>
0

> <s_epik_Chemistry_Notes>
This compound contains an acetal/aminal-like group ( X-CH(R)-Y where X, Y are N, S, or O) that may be acid/base labile, releasing an aldehyde.

> <s_lp_Force_Field>
OPLS_2005

> <r_lp_Energy>
39.0504

> <b_lp_Chiralities_Consistent>
1

> <s_lp_Variant>
AV-unprocessed.smi:160-16

> <Gold.Version>
5.8.1

> <Gold.Id.Protein>
6NUR|6NUR_protein|mol2

> <Gold.PLP.Fitness>
41.1206

> <Gold.PLP.PLP>
-24.8447

> <Gold.PLP.part.hbond>
-10.2386

> <Gold.PLP.part.metal>
0.0000

> <Gold.PLP.part.buried>
-0.6946

> <Gold.PLP.part.nonpolar>
-16.9313

> <Gold.PLP.part.repulsive>
2.1266

> <Gold.PLP.ligand.clash>
0.0000

> <Gold.PLP.ligand.torsion>
0.7380

> <Gold.PLP.Chemscore.Hbond>
5.9095

> <Gold.PLP.Chemscore.CHOScore>
0.0000

> <Gold.PLP.Chemscore.Metal>
0.0000

> <Gold.Chemscore.Hbonds>
donor molecule, donor type, donor heavy atom, donor atom, acceptor molecule, acceptor atom, score
      L1  H     1    23       P1  8029  0.95
      L1  H    14    28       P1  7957  1.00
      L1  H    16    29       P1  7957  0.96
      P1  H  6934  6946       L1     3  1.00
      P1  H  7997  8008       L1    12  0.98
      P1  H  8011  8017       L1    16  1.00

> <Gold.PLP.Chemscore.Internal.Correction>
0.0236

> <Gold.Rescore>
     Score         DG    S(hbond)    S(metal)    S(lipo)     H(rot)  DE(clash)    DE(int)     intcor
     10.28     -13.27       4.47        0.00      27.80       4.06       2.16       0.84       ----

> <Gold.Chemscore.Fitness>
10.2769

> <Gold.Chemscore.DG>
-13.2733

> <Gold.Chemscore.ZeroCoef>
-5.4800

> <Gold.Chemscore.Hbond>
4.4715

> <Gold.Chemscore.Metal>
0.0000

> <Gold.Chemscore.Lipo>
27.7956

> <Gold.Chemscore.Internal_Hbond>
0.0000

> <Gold.Chemscore.DEClash>
2.1562

> <Gold.Chemscore.DEInternal>
0.8402

> <Gold.Chemscore.Rot>
4.0600

> <Gold.Chemscore.Internal.Correction>
   9.000000E+99

> <Gold.Chemscore.Hbonds>
donor molecule, donor type, donor heavy atom, donor atom, acceptor molecule, acceptor atom, score
      L1  H     1    23       P1  8029  0.21
      L1  H    14    28       P1  7957  0.98
      L1  H    16    29       P1  7957  0.86
      P1  H  6934  6946       L1     3  0.87
      P1  H  7997  8008       L1    12  0.47
      P1  H  8011  8017       L1    16  0.25

> <Gold.Chemscore.Hbond.Weighted>
-14.9348

> <Gold.Chemscore.Metal.Weighted>
-0.0000

> <Gold.Chemscore.Lipo.Weighted>
-3.2521

> <Gold.Chemscore.Internal_Hbond.Weighted>
0.0000

> <Gold.Chemscore.DEClash.Weighted>
2.1562

> <Gold.Chemscore.DEInternal.Weighted>
0.8402

> <Gold.Chemscore.Rot.Weighted>
10.3936

> <Gold.Chemscore.Internal.Correction.Weighted>
   9.000000E+99

> <Gold.Protein.RotatedTorsions>
[ 6907 6896 6895 6894 ] final  -83.84 input  -60.11 | X-H torsion
[ 7974 7965 7964 7962 ] final  -20.99 input  175.53 | X-H torsion
[ 8008 7997 7996 7995 ] final  -45.17 input   59.86 | X-H torsion
[ 10167 10162 10161 10158 ] final -158.27 input  -65.29 | X-H torsion
[ 10718 10713 10712 10709 ] final -145.47 input   66.30 | X-H torsion
[ 10763 10752 10751 10750 ] final   47.36 input  -60.55 | X-H torsion
[ 11005 11000 10999 10996 ] final -151.01 input  -57.11 | X-H torsion

> <Gold.Protein.ActiveResidues>
 VAL166  LYS551  ARG553  GLY616  TRP617  ASP618  TYR619  PRO620  LYS621  CYS622 
 ASP623  PHE694  ASN695  SER759  ASP760  ASP761  ALA762  ILE779  LEU786  VAL792 
 PHE793  MET794  SER795  GLU796  ALA797  LYS798  CYS799  TRP800  GLU811  SER814 

> <Gold.Protein.RotatedAtoms>
  150.6881  134.3450  159.4884 H   0  0  0  0  0  0  0  0  0  0  0  0  # atno 6907 bound_to 6896
  152.1299  134.9140  160.0568 H   0  0  0  0  0  0  0  0  0  0  0  0  # atno 6908 bound_to 6896
  152.0314  133.3904  159.4336 H   0  0  0  0  0  0  0  0  0  0  0  0  # atno 6909 bound_to 6896
  146.1758  140.4279  142.8514 H   0  0  0  0  0  0  0  0  0  0  0  0  # atno 7974 bound_to 7965
  154.4000  140.1403  156.3803 H   0  0  0  0  0  0  0  0  0  0  0  0  # atno 8008 bound_to 7997
  155.8010  140.3476  155.5382 H   0  0  0  0  0  0  0  0  0  0  0  0  # atno 8009 bound_to 7997
  155.8484  140.0937  157.1681 H   0  0  0  0  0  0  0  0  0  0  0  0  # atno 8010 bound_to 7997
  139.6705  143.9753  152.2281 H   0  0  0  0  0  0  0  0  0  0  0  0  # atno 10167 bound_to 10162
  156.3828  130.7846  151.2040 H   0  0  0  0  0  0  0  0  0  0  0  0  # atno 10718 bound_to 10713
  152.9801  135.5978  154.3750 H   0  0  0  0  0  0  0  0  0  0  0  0  # atno 10763 bound_to 10752
  154.3420  135.2767  155.2419 H   0  0  0  0  0  0  0  0  0  0  0  0  # atno 10764 bound_to 10752
  154.4496  135.5993  153.6238 H   0  0  0  0  0  0  0  0  0  0  0  0  # atno 10765 bound_to 10752
  140.7341  134.3588  157.5161 H   0  0  0  0  0  0  0  0  0  0  0  0  # atno 11005 bound_to 11000
  144.8233  140.6587  143.6338 LP  0  0  0  0  0  0  0  0  0  0  0  0  # atno 17320 bound_to 7965
  145.4216  139.1563  143.4071 LP  0  0  0  0  0  0  0  0  0  0  0  0  # atno 17321 bound_to 7965
  139.9516  144.6616  150.8166 LP  0  0  0  0  0  0  0  0  0  0  0  0  # atno 17342 bound_to 10162
  140.7616  143.3179  151.2691 LP  0  0  0  0  0  0  0  0  0  0  0  0  # atno 17343 bound_to 10162
  157.7493  131.0339  150.4292 LP  0  0  0  0  0  0  0  0  0  0  0  0  # atno 17370 bound_to 10713
  156.4539  130.4017  149.6618 LP  0  0  0  0  0  0  0  0  0  0  0  0  # atno 17371 bound_to 10713
  139.8820  134.9038  156.2862 LP  0  0  0  0  0  0  0  0  0  0  0  0  # atno 17394 bound_to 11000
  140.9895  133.7217  156.0792 LP  0  0  0  0  0  0  0  0  0  0  0  0  # atno 17395 bound_to 11000

$$$$
