AV-unprocessed.smi:2045|AV-procd|sdf|8309|dock2
  -GOLD-   2272010573D 1   1.00000     0.00000
 Structure written by MMmdl.
 38 39  0  0  0  0  0  0  0  0  3 V2000
  151.1731  141.2928  154.9741 C   0  0  0  0  0  0  0  0  0  0  0  0
  151.5363  139.8680  154.7325 C   0  0  0  0  0  0  0  0  0  0  0  0
  150.7952  138.7279  154.5985 C   0  0  0  0  0  0  0  0  0  0  0  0
  151.7791  137.7252  154.3805 C   0  0  0  0  0  0  0  0  0  0  0  0
  151.5437  136.4160  154.2017 N   0  5  0  0  0  0  0  0  0  0  0  0
  150.6139  135.7832  154.9522 C   0  0  0  0  0  0  0  0  0  0  0  0
  150.7291  135.4487  156.1338 O   0  0  0  0  0  0  0  0  0  0  0  0
  149.4787  135.5154  154.2909 N   0  0  0  0  0  0  0  0  0  0  0  0
  148.3129  134.8387  154.8464 C   0  0  0  0  0  0  0  0  0  0  0  0
  147.7534  133.7918  153.8653 C   0  0  0  0  0  0  0  0  0  0  0  0
  146.8034  134.3836  152.8910 N   0  3  0  0  0  0  0  0  0  0  0  0
  145.8469  135.3382  153.5139 C   0  0  0  0  0  0  0  0  0  0  0  0
  144.9704  136.0193  152.4493 C   0  0  0  0  0  0  0  0  0  0  0  0
  144.2251  134.9791  151.6031 C   0  0  0  0  0  0  0  0  0  0  0  0
  145.2233  133.9822  151.0005 C   0  0  0  0  0  0  0  0  0  0  0  0
  146.0968  133.3460  152.0952 C   0  0  0  0  0  0  0  0  0  0  0  0
  153.0089  138.2112  154.3962 N   0  0  0  0  0  0  0  0  0  0  0  0
  152.8615  139.5862  154.6149 O   0  0  0  0  0  0  0  0  0  0  0  0
  150.1062  141.3949  155.1724 H   0  0  0  0  0  0  0  0  0  0  0  0
  151.4162  141.9045  154.1053 H   0  0  0  0  0  0  0  0  0  0  0  0
  151.7159  141.6904  155.8319 H   0  0  0  0  0  0  0  0  0  0  0  0
  149.7214  138.6269  154.6465 H   0  0  0  0  0  0  0  0  0  0  0  0
  149.4236  135.8104  153.3267 H   0  0  0  0  0  0  0  0  0  0  0  0
  148.5827  134.3930  155.8041 H   0  0  0  0  0  0  0  0  0  0  0  0
  147.5539  135.5919  155.0582 H   0  0  0  0  0  0  0  0  0  0  0  0
  148.5962  133.3543  153.3282 H   0  0  0  0  0  0  0  0  0  0  0  0
  147.2683  132.9701  154.3944 H   0  0  0  0  0  0  0  0  0  0  0  0
  145.2192  134.8086  154.2324 H   0  0  0  0  0  0  0  0  0  0  0  0
  146.3818  136.1059  154.0718 H   0  0  0  0  0  0  0  0  0  0  0  0
  144.2567  136.6906  152.9281 H   0  0  0  0  0  0  0  0  0  0  0  0
  145.5936  136.6399  151.8040 H   0  0  0  0  0  0  0  0  0  0  0  0
  143.5025  134.4476  152.2237 H   0  0  0  0  0  0  0  0  0  0  0  0
  143.6577  135.4711  150.8122 H   0  0  0  0  0  0  0  0  0  0  0  0
  144.6891  133.2057  150.4523 H   0  0  0  0  0  0  0  0  0  0  0  0
  145.8587  134.4922  150.2752 H   0  0  0  0  0  0  0  0  0  0  0  0
  146.8234  132.6806  151.6273 H   0  0  0  0  0  0  0  0  0  0  0  0
  145.4844  132.7320  152.7577 H   0  0  0  0  0  0  0  0  0  0  0  0
  147.3622  134.9098  152.2347 H   0  0  0  0  0  0  0  0  0  0  0  0
  1  2  1  0  0  0  0
  1 19  1  0  0  0  0
  1 20  1  0  0  0  0
  1 21  1  0  0  0  0
  2 18  1  0  0  0  0
  2  3  2  0  0  0  0
  3  4  1  0  0  0  0
  3 22  1  0  0  0  0
  4  5  1  0  0  0  0
  4 17  2  0  0  0  0
  5  6  1  0  0  0  0
  6  7  2  0  0  0  0
  6  8  1  0  0  0  0
  8  9  1  0  0  0  0
  8 23  1  0  0  0  0
  9 10  1  0  0  0  0
  9 24  1  0  0  0  0
  9 25  1  0  0  0  0
 10 11  1  0  0  0  0
 10 26  1  0  0  0  0
 10 27  1  0  0  0  0
 11 16  1  0  0  0  0
 11 12  1  0  0  0  0
 11 38  1  0  0  0  0
 12 13  1  0  0  0  0
 12 28  1  0  0  0  0
 12 29  1  0  0  0  0
 13 14  1  0  0  0  0
 13 30  1  0  0  0  0
 13 31  1  0  0  0  0
 14 15  1  0  0  0  0
 14 32  1  0  0  0  0
 14 33  1  0  0  0  0
 15 16  1  0  0  0  0
 15 34  1  0  0  0  0
 15 35  1  0  0  0  0
 16 36  1  0  0  0  0
 16 37  1  0  0  0  0
 17 18  1  0  0  0  0
M  CHG  1   5  -1
M  CHG  1  11   1
M  END
> <s_m_source_file>
AV-unprocessed.smi

> <i_m_source_file_index>
2045

> <i_lp_mmshare_version>
43012

> <i_f3d_flags>
0

> <s_epik_input>
W0NIM11jMVtjSF1jKG5vMSlbTkhdQyg9TylbTkhdW0NIMl1bQ0gyXU4yW0NIMl1bQ0gyXVtDSDJdW0NIMl1bQ0gyXTI=

> <s_epik_cmdline>
J2VwaWtfcHl0aG9uJywgJy1waCcsICc3LjAnLCAnLXRuJywgJzgnLCAnLW1hJywgJzIwMCcsICctbWV0YWxfYmluZGluZycsICctaW1hZScsICc8aW5maWxlLm1hZT4nLCAnLW9tYWUnLCAnPG91dGZpbGUubWFlPic=

> <r_epik_Ionization_Penalty>
6.22371

> <r_epik_Ionization_Penalty_Charging>
6.22362

> <r_epik_Ionization_Penalty_Neutral>
9.36972e-05

> <r_epik_State_Penalty>
6.22363

> <r_epik_Charging_Adjusted_Penalty>
12.4472

> <i_epik_Tot_Q>
0

> <i_epik_Tot_abs_Q>
2

> <r_epik_Metal_State_Penalty>
2.16675

> <b_epik_Metal_Only>
1

> <s_lp_Force_Field>
OPLS_2005

> <r_lp_Energy>
2.90895

> <b_lp_Chiralities_Consistent>
1

> <s_lp_Variant>
AV-unprocessed.smi:2045-2

> <Gold.Version>
5.8.1

> <Gold.Id.Protein>
6NUR|6NUR_protein|mol2

> <Gold.PLP.Fitness>
44.4672

> <Gold.PLP.PLP>
-29.1177

> <Gold.PLP.part.hbond>
-4.5771

> <Gold.PLP.part.metal>
0.0000

> <Gold.PLP.part.buried>
-2.0505

> <Gold.PLP.part.nonpolar>
-21.9567

> <Gold.PLP.part.repulsive>
0.2195

> <Gold.PLP.ligand.clash>
0.0000

> <Gold.PLP.ligand.torsion>
1.3734

> <Gold.PLP.Chemscore.Hbond>
6.0000

> <Gold.PLP.Chemscore.CHOScore>
0.0000

> <Gold.PLP.Chemscore.Metal>
0.0000

> <Gold.Chemscore.Hbonds>
donor molecule, donor type, donor heavy atom, donor atom, acceptor molecule, acceptor atom, score
      L1  H     8    23       P1  7948  1.00
      L1  H    11    38       P1  7948  1.82
      P1  H  7997  8008       L1    18  0.09
      P1  H 10752 10763       L1     5  1.37

> <Gold.PLP.Chemscore.Internal.Correction>
0.0963

> <Gold.Rescore>
     Score         DG    S(hbond)    S(metal)    S(lipo)     H(rot)  DE(clash)    DE(int)     intcor
     14.99     -16.93       2.94        0.00      48.00       1.55       0.11       1.83       ----

> <Gold.Chemscore.Fitness>
14.9913

> <Gold.Chemscore.DG>
-16.9319

> <Gold.Chemscore.ZeroCoef>
-5.4800

> <Gold.Chemscore.Hbond>
2.9388

> <Gold.Chemscore.Metal>
0.0000

> <Gold.Chemscore.Lipo>
47.9977

> <Gold.Chemscore.Internal_Hbond>
0.0000

> <Gold.Chemscore.DEClash>
0.1095

> <Gold.Chemscore.DEInternal>
1.8311

> <Gold.Chemscore.Rot>
1.5544

> <Gold.Chemscore.Internal.Correction>
   9.000000E+99

> <Gold.Chemscore.Hbonds>
donor molecule, donor type, donor heavy atom, donor atom, acceptor molecule, acceptor atom, score
      L1  H     8    23       P1  7948  0.29
      L1  H    11    38       P1  7948  0.81
      P1  H  7997  8008       L1    18  0.05
      P1  H 10752 10763       L1     5  0.09

> <Gold.Chemscore.Hbond.Weighted>
-9.8155

> <Gold.Chemscore.Metal.Weighted>
-0.0000

> <Gold.Chemscore.Lipo.Weighted>
-5.6157

> <Gold.Chemscore.Internal_Hbond.Weighted>
0.0000

> <Gold.Chemscore.DEClash.Weighted>
0.1095

> <Gold.Chemscore.DEInternal.Weighted>
1.8311

> <Gold.Chemscore.Rot.Weighted>
3.9794

> <Gold.Chemscore.Internal.Correction.Weighted>
   9.000000E+99

> <Gold.Protein.RotatedTorsions>
[ 6907 6896 6895 6894 ] final  130.42 input  -60.11 | X-H torsion
[ 7974 7965 7964 7962 ] final -127.27 input  175.53 | X-H torsion
[ 8008 7997 7996 7995 ] final  -48.03 input   59.86 | X-H torsion
[ 10167 10162 10161 10158 ] final  105.71 input  -65.29 | X-H torsion
[ 10718 10713 10712 10709 ] final  -63.26 input   66.30 | X-H torsion
[ 10763 10752 10751 10750 ] final   72.45 input  -60.55 | X-H torsion
[ 11005 11000 10999 10996 ] final  149.22 input  -57.11 | X-H torsion

> <Gold.Protein.ActiveResidues>
 VAL166  LYS551  ARG553  GLY616  TRP617  ASP618  TYR619  PRO620  LYS621  CYS622 
 ASP623  PHE694  ASN695  SER759  ASP760  ASP761  ALA762  ILE779  LEU786  VAL792 
 PHE793  MET794  SER795  GLU796  ALA797  LYS798  CYS799  TRP800  GLU811  SER814 

> <Gold.Protein.RotatedAtoms>
  152.3528  133.6200  159.5956 H   0  0  0  0  0  0  0  0  0  0  0  0  # atno 6907 bound_to 6896
  150.7549  133.9548  159.3506 H   0  0  0  0  0  0  0  0  0  0  0  0  # atno 6908 bound_to 6896
  151.7397  135.0858  160.0365 H   0  0  0  0  0  0  0  0  0  0  0  0  # atno 6909 bound_to 6896
  144.9787  140.7619  143.4625 H   0  0  0  0  0  0  0  0  0  0  0  0  # atno 7974 bound_to 7965
  154.4024  140.1331  156.4272 H   0  0  0  0  0  0  0  0  0  0  0  0  # atno 8008 bound_to 7997
  155.7585  140.3486  155.5166 H   0  0  0  0  0  0  0  0  0  0  0  0  # atno 8009 bound_to 7997
  155.8881  140.0998  157.1428 H   0  0  0  0  0  0  0  0  0  0  0  0  # atno 8010 bound_to 7997
  139.7070  144.7084  151.1090 H   0  0  0  0  0  0  0  0  0  0  0  0  # atno 10167 bound_to 10162
  156.0802  130.4218  150.1251 H   0  0  0  0  0  0  0  0  0  0  0  0  # atno 10718 bound_to 10713
  153.0460  135.5099  154.7746 H   0  0  0  0  0  0  0  0  0  0  0  0  # atno 10763 bound_to 10752
  154.6646  135.2943  154.9825 H   0  0  0  0  0  0  0  0  0  0  0  0  # atno 10764 bound_to 10752
  154.0664  135.6683  153.4871 H   0  0  0  0  0  0  0  0  0  0  0  0  # atno 10765 bound_to 10752
  140.1026  134.8974  157.1819 H   0  0  0  0  0  0  0  0  0  0  0  0  # atno 11005 bound_to 11000
  145.2452  139.2055  143.4972 LP  0  0  0  0  0  0  0  0  0  0  0  0  # atno 17320 bound_to 7965
  146.3402  140.2355  142.8594 LP  0  0  0  0  0  0  0  0  0  0  0  0  # atno 17321 bound_to 7965
  140.7724  143.5345  150.9384 LP  0  0  0  0  0  0  0  0  0  0  0  0  # atno 17342 bound_to 10162
  139.9029  143.6814  152.3128 LP  0  0  0  0  0  0  0  0  0  0  0  0  # atno 17343 bound_to 10162
  156.9284  130.9706  151.3537 LP  0  0  0  0  0  0  0  0  0  0  0  0  # atno 17370 bound_to 10713
  157.5916  130.8448  149.8668 LP  0  0  0  0  0  0  0  0  0  0  0  0  # atno 17371 bound_to 10713
  140.3199  134.2928  155.7248 LP  0  0  0  0  0  0  0  0  0  0  0  0  # atno 17394 bound_to 11000
  141.2110  133.7703  156.9896 LP  0  0  0  0  0  0  0  0  0  0  0  0  # atno 17395 bound_to 11000

$$$$
