AV-unprocessed.smi:21|AV-procd|sdf|125|dock5
  -GOLD-   2262015303D 1   1.00000     0.00000
 Structure written by MMmdl.
 62 65  0  0  0  0  0  0  0  0  2 V2000
  143.0809  133.5129  151.9932 C   0  0  0  0  0  0  0  0  0  0  0  0
  144.2563  134.0365  151.3961 O   0  0  0  0  0  0  0  0  0  0  0  0
  144.4805  135.4065  151.6942 C   0  0  1  0  0  0  0  0  0  0  0  0
  145.0691  135.5605  153.0901 C   0  0  0  0  0  0  0  0  0  0  0  0
  145.7530  136.9292  153.0267 C   0  0  1  0  0  0  0  0  0  0  0  0
  146.8830  137.0962  154.0648 C   0  0  0  0  0  0  0  0  0  0  0  0
  146.4274  137.6397  155.3430 N   0  0  0  0  0  0  0  0  0  0  0  0
  145.6787  136.7232  156.1907 C   0  0  0  0  0  0  0  0  0  0  0  0
  147.3604  138.3169  156.0473 C   0  0  0  0  0  0  0  0  0  0  0  0
  147.5542  137.9438  157.3356 N   0  0  0  0  0  0  0  0  0  0  0  0
  148.4596  138.5801  158.0853 C   0  0  0  0  0  0  0  0  0  0  0  0
  149.2607  139.5933  157.7472 N   0  0  0  0  0  0  0  0  0  0  0  0
  149.0705  139.9651  156.4488 C   0  0  0  0  0  0  0  0  0  0  0  0
  148.1457  139.3877  155.5345 C   0  0  0  0  0  0  0  0  0  0  0  0
  148.2303  140.0297  154.3047 N   0  0  0  0  0  0  0  0  0  0  0  0
  149.1561  140.9329  154.4807 C   0  0  0  0  0  0  0  0  0  0  0  0
  149.7191  140.9584  155.7369 N   0  0  0  0  0  0  0  0  0  0  0  0
  150.7642  141.8524  156.2055 C   0  0  0  0  0  0  0  0  0  0  0  0
  151.0856  141.6821  157.7145 C   0  0  1  0  0  0  0  0  0  0  0  0
  152.3703  140.8490  157.9446 C   0  0  0  0  0  0  0  0  0  0  0  0
  152.5147  139.8440  156.9627 O   0  0  0  0  0  0  0  0  0  0  0  0
  151.1261  143.0234  158.5005 C   0  0  2  0  0  0  0  0  0  0  0  0
  151.7955  144.1991  157.8121 C   0  0  0  0  0  0  0  0  0  0  0  0
  151.9415  145.1776  158.9725 C   0  0  0  0  0  0  0  0  0  0  0  0
  152.2013  144.3697  160.1167 O   0  0  0  0  0  0  0  0  0  0  0  0
  151.8429  143.0144  159.8550 C   0  0  0  0  0  0  0  0  0  0  0  0
  146.2704  137.0368  151.6423 N   0  3  2  0  0  0  0  0  0  0  0  0
  146.2609  138.4131  151.0997 C   0  0  0  0  0  0  0  0  0  0  0  0
  145.5458  136.0551  150.8005 C   0  0  0  0  0  0  0  0  0  0  0  0
  143.5495  135.9744  151.6421 H   0  0  0  0  0  0  0  0  0  0  0  0
  144.9895  137.6979  153.1609 H   0  0  0  0  0  0  0  0  0  0  0  0
  142.9809  132.4582  151.7375 H   0  0  0  0  0  0  0  0  0  0  0  0
  142.1870  134.0276  151.6395 H   0  0  0  0  0  0  0  0  0  0  0  0
  143.1226  133.5911  153.0802 H   0  0  0  0  0  0  0  0  0  0  0  0
  144.3154  135.4978  153.8758 H   0  0  0  0  0  0  0  0  0  0  0  0
  145.8076  134.7776  153.2701 H   0  0  0  0  0  0  0  0  0  0  0  0
  147.3502  136.1279  154.2482 H   0  0  0  0  0  0  0  0  0  0  0  0
  147.6690  137.7349  153.6623 H   0  0  0  0  0  0  0  0  0  0  0  0
  145.3414  137.2183  157.1026 H   0  0  0  0  0  0  0  0  0  0  0  0
  146.2879  135.8628  156.4709 H   0  0  0  0  0  0  0  0  0  0  0  0
  144.7960  136.3587  155.6644 H   0  0  0  0  0  0  0  0  0  0  0  0
  148.5576  138.2260  159.1010 H   0  0  0  0  0  0  0  0  0  0  0  0
  149.4609  141.6051  153.6917 H   0  0  0  0  0  0  0  0  0  0  0  0
  151.6520  141.6765  155.5990 H   0  0  0  0  0  0  0  0  0  0  0  0
  150.4342  142.8672  155.9880 H   0  0  0  0  0  0  0  0  0  0  0  0
  150.2625  141.1056  158.1394 H   0  0  0  0  0  0  0  0  0  0  0  0
  153.2624  141.4718  157.8882 H   0  0  0  0  0  0  0  0  0  0  0  0
  152.3664  140.3908  158.9339 H   0  0  0  0  0  0  0  0  0  0  0  0
  152.1327  139.0446  157.2918 H   0  0  0  0  0  0  0  0  0  0  0  0
  150.0963  143.3331  158.6862 H   0  0  0  0  0  0  0  0  0  0  0  0
  152.7854  143.9411  157.4386 H   0  0  0  0  0  0  0  0  0  0  0  0
  151.2105  144.6036  156.9858 H   0  0  0  0  0  0  0  0  0  0  0  0
  152.7350  145.9072  158.8091 H   0  0  0  0  0  0  0  0  0  0  0  0
  151.0089  145.7203  159.1325 H   0  0  0  0  0  0  0  0  0  0  0  0
  151.2133  142.6157  160.6508 H   0  0  0  0  0  0  0  0  0  0  0  0
  152.7598  142.4275  159.8277 H   0  0  0  0  0  0  0  0  0  0  0  0
  145.2435  138.8003  151.0257 H   0  0  0  0  0  0  0  0  0  0  0  0
  146.7080  138.4329  150.1056 H   0  0  0  0  0  0  0  0  0  0  0  0
  146.8370  139.0822  151.7397 H   0  0  0  0  0  0  0  0  0  0  0  0
  146.2691  135.3087  150.4694 H   0  0  0  0  0  0  0  0  0  0  0  0
  145.1041  136.5010  149.9080 H   0  0  0  0  0  0  0  0  0  0  0  0
  147.2325  136.7300  151.6654 H   0  0  0  0  0  0  0  0  0  0  0  0
  1  2  1  0  0  0  0
  1 32  1  0  0  0  0
  1 33  1  0  0  0  0
  1 34  1  0  0  0  0
  2  3  1  0  0  0  0
  3 30  1  0  0  0  0
  3 29  1  0  0  0  0
  3  4  1  0  0  0  0
  4  5  1  0  0  0  0
  4 35  1  0  0  0  0
  4 36  1  0  0  0  0
  5 31  1  0  0  0  0
  5  6  1  0  0  0  0
  5 27  1  0  0  0  0
  6  7  1  0  0  0  0
  6 37  1  0  0  0  0
  6 38  1  0  0  0  0
  7  8  1  0  0  0  0
  7  9  1  0  0  0  0
  8 39  1  0  0  0  0
  8 40  1  0  0  0  0
  8 41  1  0  0  0  0
  9 14  1  0  0  0  0
  9 10  2  0  0  0  0
 10 11  1  0  0  0  0
 11 12  2  0  0  0  0
 11 42  1  0  0  0  0
 12 13  1  0  0  0  0
 13 17  1  0  0  0  0
 13 14  2  0  0  0  0
 14 15  1  0  0  0  0
 15 16  2  0  0  0  0
 16 17  1  0  0  0  0
 16 43  1  0  0  0  0
 17 18  1  0  0  0  0
 18 19  1  0  0  0  0
 18 44  1  0  0  0  0
 18 45  1  0  0  0  0
 19 20  1  0  0  0  0
 19 22  1  0  0  0  0
 19 46  1  0  0  0  0
 20 21  1  0  0  0  0
 20 47  1  0  0  0  0
 20 48  1  0  0  0  0
 21 49  1  0  0  0  0
 22 26  1  0  0  0  0
 22 23  1  0  0  0  0
 22 50  1  0  0  0  0
 23 24  1  0  0  0  0
 23 51  1  0  0  0  0
 23 52  1  0  0  0  0
 24 25  1  0  0  0  0
 24 53  1  0  0  0  0
 24 54  1  0  0  0  0
 25 26  1  0  0  0  0
 26 55  1  0  0  0  0
 26 56  1  0  0  0  0
 27 28  1  0  0  0  0
 27 29  1  0  0  0  0
 27 62  1  0  0  0  0
 28 57  1  0  0  0  0
 28 58  1  0  0  0  0
 28 59  1  0  0  0  0
 29 60  1  0  0  0  0
 29 61  1  0  0  0  0
M  CHG  1  27   1
M  END
> <s_m_source_file>
AV-unprocessed.smi

> <i_m_source_file_index>
21

> <i_lp_mmshare_version>
43012

> <i_f3d_flags>
0

> <s_epik_input>
W0NIM11PW0NASF0xW0NIMl1bQ0BIXShOKFtDSDNdKVtDSDJdMSlbQ0gyXU4oW0NIM10pYyhuW2NIXW4yKWMoYzIzKW5bY0hdbjNbQ0gyXVtDQEhdKFtDSDJdW09IXSlbQ0BASF00W0NIMl1bQ0gyXU9bQ0gyXTQ=

> <s_epik_cmdline>
J2VwaWtfcHl0aG9uJywgJy1waCcsICc3LjAnLCAnLXRuJywgJzgnLCAnLW1hJywgJzIwMCcsICctbWV0YWxfYmluZGluZycsICctaW1hZScsICc8aW5maWxlLm1hZT4nLCAnLW9tYWUnLCAnPG91dGZpbGUubWFlPic=

> <r_lp_tautomer_probability>
1

> <r_epik_Ionization_Penalty>
0.0157465

> <r_epik_Ionization_Penalty_Charging>
0.015354

> <r_epik_Ionization_Penalty_Neutral>
0.000392529

> <r_epik_State_Penalty>
0.0120612

> <r_epik_Charging_Adjusted_Penalty>
0.0274152

> <i_epik_Tot_Q>
1

> <i_epik_Tot_abs_Q>
1

> <r_epik_Metal_State_Penalty>
0.0121253

> <b_epik_Metal_Only>
0

> <s_lp_Force_Field>
OPLS_2005

> <r_lp_Energy>
61.1599

> <b_lp_Chiralities_Consistent>
1

> <s_lp_Variant>
AV-unprocessed.smi:21-5

> <Gold.Version>
5.8.1

> <Gold.Id.Protein>
6NUR|6NUR_protein|mol2

> <Gold.PLP.Fitness>
46.7063

> <Gold.PLP.PLP>
-40.7287

> <Gold.PLP.part.hbond>
-2.0000

> <Gold.PLP.part.metal>
0.0000

> <Gold.PLP.part.buried>
-1.9511

> <Gold.PLP.part.nonpolar>
-37.9876

> <Gold.PLP.part.repulsive>
0.4000

> <Gold.PLP.ligand.clash>
0.0000

> <Gold.PLP.ligand.torsion>
2.1338

> <Gold.PLP.Chemscore.Hbond>
3.0000

> <Gold.PLP.Chemscore.CHOScore>
0.0594

> <Gold.PLP.Chemscore.Metal>
0.0000

> <Gold.Chemscore.Hbonds>
donor molecule, donor type, donor heavy atom, donor atom, acceptor molecule, acceptor atom, score
      L1  H    27    62       P1  7948  2.00
      P1  H  7997  8010       L1    21  1.00

> <Gold.PLP.Chemscore.Internal.Correction>
1.0670

> <Gold.Rescore>
     Score         DG    S(hbond)    S(metal)    S(lipo)     H(rot)  DE(clash)    DE(int)     intcor
     11.40     -15.57       1.80        0.00     108.14       3.35       0.62       3.54       ----

> <Gold.Chemscore.Fitness>
11.4038

> <Gold.Chemscore.DG>
-15.5690

> <Gold.Chemscore.ZeroCoef>
-5.4800

> <Gold.Chemscore.Hbond>
1.7964

> <Gold.Chemscore.Metal>
0.0000

> <Gold.Chemscore.Lipo>
108.1431

> <Gold.Chemscore.Internal_Hbond>
0.0000

> <Gold.Chemscore.DEClash>
0.6246

> <Gold.Chemscore.DEInternal>
3.5405

> <Gold.Chemscore.Rot>
3.3452

> <Gold.Chemscore.Internal.Correction>
   9.000000E+99

> <Gold.Chemscore.Hbonds>
donor molecule, donor type, donor heavy atom, donor atom, acceptor molecule, acceptor atom, score
      L1  H    27    62       P1  7948  1.00
      P1  H  7997  8010       L1    21  0.34

> <Gold.Chemscore.Hbond.Weighted>
-5.9999

> <Gold.Chemscore.Metal.Weighted>
-0.0000

> <Gold.Chemscore.Lipo.Weighted>
-12.6527

> <Gold.Chemscore.Internal_Hbond.Weighted>
0.0000

> <Gold.Chemscore.DEClash.Weighted>
0.6246

> <Gold.Chemscore.DEInternal.Weighted>
3.5405

> <Gold.Chemscore.Rot.Weighted>
8.5636

> <Gold.Chemscore.Internal.Correction.Weighted>
   9.000000E+99

> <Gold.Protein.RotatedTorsions>
[ 6907 6896 6895 6894 ] final -108.12 input  -60.11 | X-H torsion
[ 7974 7965 7964 7962 ] final -178.33 input  175.53 | X-H torsion
[ 8008 7997 7996 7995 ] final   77.31 input   59.86 | X-H torsion
[ 10167 10162 10161 10158 ] final  105.99 input  -65.29 | X-H torsion
[ 10718 10713 10712 10709 ] final   -7.49 input   66.30 | X-H torsion
[ 10763 10752 10751 10750 ] final -174.66 input  -60.55 | X-H torsion
[ 11005 11000 10999 10996 ] final -111.61 input  -57.11 | X-H torsion

> <Gold.Protein.ActiveResidues>
 VAL166  LYS551  ARG553  GLY616  TRP617  ASP618  TYR619  PRO620  LYS621  CYS622 
 ASP623  PHE694  ASN695  SER759  ASP760  ASP761  ALA762  ILE779  LEU786  VAL792 
 PHE793  MET794  SER795  GLU796  ALA797  LYS798  CYS799  TRP800  GLU811  SER814 

> <Gold.Protein.RotatedAtoms>
  150.7483  133.9724  159.3549 H   0  0  0  0  0  0  0  0  0  0  0  0  # atno 6907 bound_to 6896
  151.7659  135.0796  160.0362 H   0  0  0  0  0  0  0  0  0  0  0  0  # atno 6908 bound_to 6896
  152.3372  133.5988  159.5887 H   0  0  0  0  0  0  0  0  0  0  0  0  # atno 6909 bound_to 6896
  144.7130  140.0884  143.6422 H   0  0  0  0  0  0  0  0  0  0  0  0  # atno 7974 bound_to 7965
  155.8398  140.3463  155.5625 H   0  0  0  0  0  0  0  0  0  0  0  0  # atno 8008 bound_to 7997
  155.8153  140.0905  157.1900 H   0  0  0  0  0  0  0  0  0  0  0  0  # atno 8009 bound_to 7997
  154.4005  140.1440  156.3422 H   0  0  0  0  0  0  0  0  0  0  0  0  # atno 8010 bound_to 7997
  139.7047  144.7088  151.1127 H   0  0  0  0  0  0  0  0  0  0  0  0  # atno 10167 bound_to 10162
  156.7165  130.5138  149.5879 H   0  0  0  0  0  0  0  0  0  0  0  0  # atno 10718 bound_to 10713
  154.5936  135.2847  155.0609 H   0  0  0  0  0  0  0  0  0  0  0  0  # atno 10763 bound_to 10752
  154.1901  135.6442  153.5061 H   0  0  0  0  0  0  0  0  0  0  0  0  # atno 10764 bound_to 10752
  153.0130  135.5444  154.6630 H   0  0  0  0  0  0  0  0  0  0  0  0  # atno 10765 bound_to 10752
  141.0724  133.9357  157.2458 H   0  0  0  0  0  0  0  0  0  0  0  0  # atno 11005 bound_to 11000
  145.9641  139.2822  143.1138 LP  0  0  0  0  0  0  0  0  0  0  0  0  # atno 17320 bound_to 7965
  145.9188  140.9129  143.0416 LP  0  0  0  0  0  0  0  0  0  0  0  0  # atno 17321 bound_to 7965
  140.7718  143.5376  150.9350 LP  0  0  0  0  0  0  0  0  0  0  0  0  # atno 17342 bound_to 10162
  139.9058  143.6780  152.3123 LP  0  0  0  0  0  0  0  0  0  0  0  0  # atno 17343 bound_to 10162
  156.1624  130.6383  151.0736 LP  0  0  0  0  0  0  0  0  0  0  0  0  # atno 17370 bound_to 10713
  157.6915  131.0808  150.7093 LP  0  0  0  0  0  0  0  0  0  0  0  0  # atno 17371 bound_to 10713
  139.9537  135.0170  156.9068 LP  0  0  0  0  0  0  0  0  0  0  0  0  # atno 17394 bound_to 11000
  140.5645  134.0503  155.7409 LP  0  0  0  0  0  0  0  0  0  0  0  0  # atno 17395 bound_to 11000

$$$$
