AV-unprocessed.smi:910|AV-procd|sdf|4123|dock7
  -GOLD-   22720 2 23D 1   1.00000     0.00000
 Structure written by MMmdl.
 46 47  0  0  0  0  0  0  0  0  1 V2000
  146.4455  134.3692  162.5073 C   0  0  0  0  0  0  0  0  0  0  0  0
  147.3913  135.3257  161.8148 C   0  0  0  0  0  0  0  0  0  0  0  0
  147.9557  135.0367  160.6022 N   0  0  0  0  0  0  0  0  0  0  0  0
  148.7717  136.0972  160.2397 C   0  0  0  0  0  0  0  0  0  0  0  0
  149.4847  136.2154  159.1626 N   0  0  0  0  0  0  0  0  0  0  0  0
  150.2573  137.3522  158.9758 C   0  0  0  0  0  0  0  0  0  0  0  0
  150.7966  138.0638  159.8292 O   0  0  0  0  0  0  0  0  0  0  0  0
  150.3502  137.6344  157.6678 N   0  0  0  0  0  0  0  0  0  0  0  0
  151.0477  138.7805  157.0932 C   0  0  0  0  0  0  0  0  0  0  0  0
  150.3739  140.1046  157.4814 C   0  0  0  0  0  0  0  0  0  0  0  0
  151.0797  140.6706  158.5759 O   0  0  0  0  0  0  0  0  0  0  0  0
  151.8484  141.8226  158.2541 C   0  0  1  0  0  0  0  0  0  0  0  0
  150.9473  142.8755  157.5757 C   0  0  0  0  0  0  0  0  0  0  0  0
  151.6997  144.1932  157.3386 C   0  0  0  0  0  0  0  0  0  0  0  0
  152.2863  144.7365  158.6488 C   0  0  0  0  0  0  0  0  0  0  0  0
  153.1931  143.6943  159.3210 C   0  0  0  0  0  0  0  0  0  0  0  0
  152.4513  142.3653  159.5694 C   0  0  2  0  0  0  0  0  0  0  0  0
  153.3840  141.3379  160.2329 C   0  0  0  0  0  0  0  0  0  0  0  0
  148.6783  137.0226  161.2540 O   0  0  0  0  0  0  0  0  0  0  0  0
  147.8323  136.5221  162.1962 C   0  0  0  0  0  0  0  0  0  0  0  0
  147.5579  137.3456  163.4344 C   0  0  0  0  0  0  0  0  0  0  0  0
  146.8449  134.0829  163.4805 H   0  0  0  0  0  0  0  0  0  0  0  0
  146.2995  133.4650  161.9157 H   0  0  0  0  0  0  0  0  0  0  0  0
  145.4750  134.8422  162.6586 H   0  0  0  0  0  0  0  0  0  0  0  0
  147.7818  134.1808  160.0958 H   0  0  0  0  0  0  0  0  0  0  0  0
  149.8807  137.0189  157.0195 H   0  0  0  0  0  0  0  0  0  0  0  0
  152.0913  138.7795  157.4117 H   0  0  0  0  0  0  0  0  0  0  0  0
  151.0542  138.6717  156.0086 H   0  0  0  0  0  0  0  0  0  0  0  0
  150.3698  140.7882  156.6310 H   0  0  0  0  0  0  0  0  0  0  0  0
  149.3351  139.9214  157.7556 H   0  0  0  0  0  0  0  0  0  0  0  0
  152.6692  141.5570  157.5850 H   0  0  0  0  0  0  0  0  0  0  0  0
  150.5712  142.5011  156.6241 H   0  0  0  0  0  0  0  0  0  0  0  0
  150.0729  143.0648  158.1998 H   0  0  0  0  0  0  0  0  0  0  0  0
  152.5011  144.0320  156.6163 H   0  0  0  0  0  0  0  0  0  0  0  0
  151.0287  144.9309  156.8975 H   0  0  0  0  0  0  0  0  0  0  0  0
  152.8497  145.6495  158.4539 H   0  0  0  0  0  0  0  0  0  0  0  0
  151.4773  145.0106  159.3272 H   0  0  0  0  0  0  0  0  0  0  0  0
  154.0671  143.5167  158.6925 H   0  0  0  0  0  0  0  0  0  0  0  0
  153.5687  144.0933  160.2639 H   0  0  0  0  0  0  0  0  0  0  0  0
  151.6315  142.5646  160.2614 H   0  0  0  0  0  0  0  0  0  0  0  0
  154.2209  141.0832  159.5819 H   0  0  0  0  0  0  0  0  0  0  0  0
  152.8555  140.4139  160.4690 H   0  0  0  0  0  0  0  0  0  0  0  0
  153.7942  141.7257  161.1657 H   0  0  0  0  0  0  0  0  0  0  0  0
  146.6649  136.9880  163.9476 H   0  0  0  0  0  0  0  0  0  0  0  0
  147.4066  138.3913  163.1665 H   0  0  0  0  0  0  0  0  0  0  0  0
  148.4015  137.2825  164.1216 H   0  0  0  0  0  0  0  0  0  0  0  0
  1 22  1  0  0  0  0
  1 23  1  0  0  0  0
  1 24  1  0  0  0  0
  1  2  1  0  0  0  0
  2  3  1  0  0  0  0
  2 20  2  0  0  0  0
  3 25  1  0  0  0  0
  3  4  1  0  0  0  0
  4 19  1  0  0  0  0
  4  5  2  0  0  0  0
  5  6  1  0  0  0  0
  6  8  1  0  0  0  0
  6  7  2  0  0  0  0
  8  9  1  0  0  0  0
  8 26  1  0  0  0  0
  9 10  1  0  0  0  0
  9 27  1  0  0  0  0
  9 28  1  0  0  0  0
 10 11  1  0  0  0  0
 10 29  1  0  0  0  0
 10 30  1  0  0  0  0
 11 12  1  0  0  0  0
 12 17  1  0  0  0  0
 12 13  1  0  0  0  0
 12 31  1  0  0  0  0
 13 14  1  0  0  0  0
 13 32  1  0  0  0  0
 13 33  1  0  0  0  0
 14 15  1  0  0  0  0
 14 34  1  0  0  0  0
 14 35  1  0  0  0  0
 15 16  1  0  0  0  0
 15 36  1  0  0  0  0
 15 37  1  0  0  0  0
 16 17  1  0  0  0  0
 16 38  1  0  0  0  0
 16 39  1  0  0  0  0
 17 18  1  0  0  0  0
 17 40  1  0  0  0  0
 18 41  1  0  0  0  0
 18 42  1  0  0  0  0
 18 43  1  0  0  0  0
 19 20  1  0  0  0  0
 20 21  1  0  0  0  0
 21 44  1  0  0  0  0
 21 45  1  0  0  0  0
 21 46  1  0  0  0  0
M  END
> <s_m_source_file>
AV-unprocessed.smi

> <i_m_source_file_index>
910

> <i_lp_mmshare_version>
43012

> <i_f3d_flags>
0

> <s_epik_input>
W0NIM11jMW5jKG9jMVtDSDNdKVtOSF1DKD1PKVtOSF1bQ0gyXVtDSDJdT1tDQEBIXTJbQ0gyXVtDSDJdW0NIMl1bQ0gyXVtDQEhdMltDSDNd

> <s_epik_cmdline>
J2VwaWtfcHl0aG9uJywgJy1waCcsICc3LjAnLCAnLXRuJywgJzgnLCAnLW1hJywgJzIwMCcsICctbWV0YWxfYmluZGluZycsICctaW1hZScsICc8aW5maWxlLm1hZT4nLCAnLW9tYWUnLCAnPG91dGZpbGUubWFlPic=

> <r_lp_tautomer_probability>
0.107061

> <r_epik_Ionization_Penalty>
0.727192

> <r_epik_Ionization_Penalty_Charging>
0.726719

> <r_epik_Ionization_Penalty_Neutral>
0.000473387

> <r_epik_State_Penalty>
2.53712

> <r_epik_Charging_Adjusted_Penalty>
3.26383

> <i_epik_Tot_Q>
0

> <i_epik_Tot_abs_Q>
0

> <r_epik_Metal_State_Penalty>
3.71015

> <b_epik_Metal_Only>
0

> <s_lp_Force_Field>
OPLS_2005

> <r_lp_Energy>
30.8064

> <b_lp_Chiralities_Consistent>
1

> <s_lp_Variant>
AV-unprocessed.smi:910-8

> <Gold.Version>
5.8.1

> <Gold.Id.Protein>
6NUR|6NUR_protein|mol2

> <Gold.PLP.Fitness>
47.8295

> <Gold.PLP.PLP>
-44.3560

> <Gold.PLP.part.hbond>
-3.2847

> <Gold.PLP.part.metal>
0.0000

> <Gold.PLP.part.buried>
-3.1664

> <Gold.PLP.part.nonpolar>
-39.6513

> <Gold.PLP.part.repulsive>
0.1228

> <Gold.PLP.ligand.clash>
0.0000

> <Gold.PLP.ligand.torsion>
0.8355

> <Gold.PLP.Chemscore.Hbond>
1.7000

> <Gold.PLP.Chemscore.CHOScore>
0.0000

> <Gold.PLP.Chemscore.Metal>
0.0000

> <Gold.Chemscore.Hbonds>
donor molecule, donor type, donor heavy atom, donor atom, acceptor molecule, acceptor atom, score
      P1  H  6896  6907       L1     5  0.75
      P1  H  6931  6943       L1    19  0.75

> <Gold.PLP.Chemscore.Internal.Correction>
0.0445

> <Gold.Rescore>
     Score         DG    S(hbond)    S(metal)    S(lipo)     H(rot)  DE(clash)    DE(int)     intcor
     14.97     -17.55       0.46        0.00     126.35       1.66       0.21       2.37       ----

> <Gold.Chemscore.Fitness>
14.9670

> <Gold.Chemscore.DG>
-17.5461

> <Gold.Chemscore.ZeroCoef>
-5.4800

> <Gold.Chemscore.Hbond>
0.4570

> <Gold.Chemscore.Metal>
0.0000

> <Gold.Chemscore.Lipo>
126.3535

> <Gold.Chemscore.Internal_Hbond>
0.0000

> <Gold.Chemscore.DEClash>
0.2073

> <Gold.Chemscore.DEInternal>
2.3717

> <Gold.Chemscore.Rot>
1.6576

> <Gold.Chemscore.Internal.Correction>
   9.000000E+99

> <Gold.Chemscore.Hbonds>
donor molecule, donor type, donor heavy atom, donor atom, acceptor molecule, acceptor atom, score
      P1  H  6896  6907       L1     5  0.05
      P1  H  6931  6943       L1    19  0.19

> <Gold.Chemscore.Hbond.Weighted>
-1.5263

> <Gold.Chemscore.Metal.Weighted>
-0.0000

> <Gold.Chemscore.Lipo.Weighted>
-14.7834

> <Gold.Chemscore.Internal_Hbond.Weighted>
0.0000

> <Gold.Chemscore.DEClash.Weighted>
0.2073

> <Gold.Chemscore.DEInternal.Weighted>
2.3717

> <Gold.Chemscore.Rot.Weighted>
4.2436

> <Gold.Chemscore.Internal.Correction.Weighted>
   9.000000E+99

> <Gold.Protein.RotatedTorsions>
[ 6907 6896 6895 6894 ] final  -55.11 input  -60.11 | X-H torsion
[ 7974 7965 7964 7962 ] final   97.71 input  175.53 | X-H torsion
[ 8008 7997 7996 7995 ] final   75.98 input   59.86 | X-H torsion
[ 10167 10162 10161 10158 ] final   20.22 input  -65.29 | X-H torsion
[ 10718 10713 10712 10709 ] final   58.03 input   66.30 | X-H torsion
[ 10763 10752 10751 10750 ] final  -52.38 input  -60.55 | X-H torsion
[ 11005 11000 10999 10996 ] final  -96.77 input  -57.11 | X-H torsion

> <Gold.Protein.ActiveResidues>
 VAL166  LYS551  ARG553  GLY616  TRP617  ASP618  TYR619  PRO620  LYS621  CYS622 
 ASP623  PHE694  ASN695  SER759  ASP760  ASP761  ALA762  ILE779  LEU786  VAL792 
 PHE793  MET794  SER795  GLU796  ALA797  LYS798  CYS799  TRP800  GLU811  SER814 

> <Gold.Protein.RotatedAtoms>
  150.8280  134.7520  159.6829 H   0  0  0  0  0  0  0  0  0  0  0  0  # atno 6907 bound_to 6896
  152.4388  134.5629  159.9909 H   0  0  0  0  0  0  0  0  0  0  0  0  # atno 6908 bound_to 6896
  151.5796  133.3342  159.3041 H   0  0  0  0  0  0  0  0  0  0  0  0  # atno 6909 bound_to 6896
  145.4218  139.2320  143.3192 H   0  0  0  0  0  0  0  0  0  0  0  0  # atno 7974 bound_to 7965
  155.8208  140.3470  155.5513 H   0  0  0  0  0  0  0  0  0  0  0  0  # atno 8008 bound_to 7997
  155.8344  140.0932  157.1793 H   0  0  0  0  0  0  0  0  0  0  0  0  # atno 8009 bound_to 7997
  154.4004  140.1406  156.3641 H   0  0  0  0  0  0  0  0  0  0  0  0  # atno 8010 bound_to 7997
  140.5520  143.9492  150.6584 H   0  0  0  0  0  0  0  0  0  0  0  0  # atno 10167 bound_to 10162
  157.5563  130.8802  149.9041 H   0  0  0  0  0  0  0  0  0  0  0  0  # atno 10718 bound_to 10713
  154.1418  135.6504  153.4944 H   0  0  0  0  0  0  0  0  0  0  0  0  # atno 10763 bound_to 10752
  153.0164  135.5317  154.6897 H   0  0  0  0  0  0  0  0  0  0  0  0  # atno 10764 bound_to 10752
  154.6161  135.2959  155.0349 H   0  0  0  0  0  0  0  0  0  0  0  0  # atno 10765 bound_to 10752
  141.1401  133.8121  157.0616 H   0  0  0  0  0  0  0  0  0  0  0  0  # atno 11005 bound_to 11000
  146.2652  140.4944  142.8837 LP  0  0  0  0  0  0  0  0  0  0  0  0  # atno 17320 bound_to 7965
  144.8240  140.6598  143.6334 LP  0  0  0  0  0  0  0  0  0  0  0  0  # atno 17321 bound_to 7965
  140.2920  143.3317  152.1053 LP  0  0  0  0  0  0  0  0  0  0  0  0  # atno 17342 bound_to 10162
  139.5031  144.6749  151.6152 LP  0  0  0  0  0  0  0  0  0  0  0  0  # atno 17343 bound_to 10162
  156.0621  130.3698  150.0958 LP  0  0  0  0  0  0  0  0  0  0  0  0  # atno 17370 bound_to 10713
  156.9127  130.9657  151.3560 LP  0  0  0  0  0  0  0  0  0  0  0  0  # atno 17371 bound_to 10713
  140.0568  134.9776  157.1234 LP  0  0  0  0  0  0  0  0  0  0  0  0  # atno 17394 bound_to 11000
  140.3907  134.2187  155.7166 LP  0  0  0  0  0  0  0  0  0  0  0  0  # atno 17395 bound_to 11000

$$$$
