AV-unprocessed.smi:2293|AV-procd|sdf|9215|dock10
  -GOLD-   2272012433D 1   1.00000     0.00000
 Structure written by MMmdl.
 34 35  0  0  0  0  0  0  0  0  1 V2000
  152.0312  145.0580  160.4249 C   0  0  0  0  0  0  0  0  0  0  0  0
  151.6927  143.8103  159.6286 C   0  0  0  0  0  0  0  0  0  0  0  0
  150.7145  143.9702  158.6432 N   0  0  0  0  0  0  0  0  0  0  0  0
  150.3628  142.9618  157.9147 C   0  0  0  0  0  0  0  0  0  0  0  0
  150.9377  141.6909  158.0847 N   0  0  0  0  0  0  0  0  0  0  0  0
  150.4527  140.6291  157.1857 C   0  0  0  0  0  0  0  0  0  0  0  0
  150.6840  140.9686  155.6956 C   0  0  1  0  0  0  0  0  0  0  0  0
  151.7503  140.1815  155.2038 O   0  0  0  0  0  0  0  0  0  0  0  0
  149.4184  140.7430  154.8824 C   0  0  0  0  0  0  0  0  0  0  0  0
  149.1236  139.4680  154.3503 C   0  0  0  0  0  0  0  0  0  0  0  0
  147.9473  139.2648  153.6028 C   0  0  0  0  0  0  0  0  0  0  0  0
  147.0575  140.3340  153.3849 C   0  0  0  0  0  0  0  0  0  0  0  0
  147.3434  141.6059  153.9169 C   0  0  0  0  0  0  0  0  0  0  0  0
  146.4866  142.6339  153.7106 F   0  0  0  0  0  0  0  0  0  0  0  0
  148.5198  141.8097  154.6643 C   0  0  0  0  0  0  0  0  0  0  0  0
  151.8987  141.4484  159.0225 C   0  0  0  0  0  0  0  0  0  0  0  0
  152.3989  140.3312  159.1652 O   0  0  0  0  0  0  0  0  0  0  0  0
  152.2907  142.6064  159.8424 C   0  0  0  0  0  0  0  0  0  0  0  0
  153.3624  142.3737  160.9001 C   0  0  0  0  0  0  0  0  0  0  0  0
  153.0824  145.3177  160.2991 H   0  0  0  0  0  0  0  0  0  0  0  0
  151.8347  144.8995  161.4854 H   0  0  0  0  0  0  0  0  0  0  0  0
  151.4353  145.9114  160.0989 H   0  0  0  0  0  0  0  0  0  0  0  0
  149.6095  143.0342  157.1284 H   0  0  0  0  0  0  0  0  0  0  0  0
  150.8812  139.6552  157.4304 H   0  0  0  0  0  0  0  0  0  0  0  0
  149.3821  140.4983  157.3576 H   0  0  0  0  0  0  0  0  0  0  0  0
  150.9743  142.0151  155.5925 H   0  0  0  0  0  0  0  0  0  0  0  0
  152.4393  140.1712  155.8507 H   0  0  0  0  0  0  0  0  0  0  0  0
  149.7991  138.6412  154.5158 H   0  0  0  0  0  0  0  0  0  0  0  0
  147.7273  138.2881  153.1975 H   0  0  0  0  0  0  0  0  0  0  0  0
  146.1556  140.1783  152.8113 H   0  0  0  0  0  0  0  0  0  0  0  0
  148.7285  142.7891  155.0693 H   0  0  0  0  0  0  0  0  0  0  0  0
  153.0253  141.6254  161.6181 H   0  0  0  0  0  0  0  0  0  0  0  0
  153.6174  143.2724  161.4588 H   0  0  0  0  0  0  0  0  0  0  0  0
  154.2779  142.0080  160.4340 H   0  0  0  0  0  0  0  0  0  0  0  0
  1  2  1  0  0  0  0
  1 20  1  0  0  0  0
  1 21  1  0  0  0  0
  1 22  1  0  0  0  0
  2 18  2  0  0  0  0
  2  3  1  0  0  0  0
  3  4  2  0  0  0  0
  4  5  1  0  0  0  0
  4 23  1  0  0  0  0
  5  6  1  0  0  0  0
  5 16  1  0  0  0  0
  6  7  1  0  0  0  0
  6 24  1  0  0  0  0
  6 25  1  0  0  0  0
  7  8  1  0  0  0  0
  7  9  1  0  0  0  0
  7 26  1  0  0  0  0
  8 27  1  0  0  0  0
  9 15  1  0  0  0  0
  9 10  2  0  0  0  0
 10 11  1  0  0  0  0
 10 28  1  0  0  0  0
 11 12  2  0  0  0  0
 11 29  1  0  0  0  0
 12 13  1  0  0  0  0
 12 30  1  0  0  0  0
 13 14  1  0  0  0  0
 13 15  2  0  0  0  0
 15 31  1  0  0  0  0
 16 17  2  0  0  0  0
 16 18  1  0  0  0  0
 18 19  1  0  0  0  0
 19 32  1  0  0  0  0
 19 33  1  0  0  0  0
 19 34  1  0  0  0  0
M  END
> <s_m_source_file>
AV-unprocessed.smi

> <i_m_source_file_index>
2293

> <i_lp_mmshare_version>
43012

> <i_f3d_flags>
0

> <s_epik_input>
W0NIM11jMW5bY0hdbihjKD1PKWMxW0NIM10pW0NIMl1bQ0BIXShbT0hdKWMyW2NIXVtjSF1bY0hdYyhGKVtjSF0y

> <s_epik_cmdline>
J2VwaWtfcHl0aG9uJywgJy1waCcsICc3LjAnLCAnLXRuJywgJzgnLCAnLW1hJywgJzIwMCcsICctbWV0YWxfYmluZGluZycsICctaW1hZScsICc8aW5maWxlLm1hZT4nLCAnLW9tYWUnLCAnPG91dGZpbGUubWFlPic=

> <r_lp_tautomer_probability>
1

> <r_epik_Ionization_Penalty>
5.08222e-05

> <r_epik_Ionization_Penalty_Charging>
7.56727e-08

> <r_epik_Ionization_Penalty_Neutral>
5.07465e-05

> <r_epik_State_Penalty>
-0

> <r_epik_Charging_Adjusted_Penalty>
7.56727e-08

> <i_epik_Tot_Q>
0

> <i_epik_Tot_abs_Q>
0

> <r_epik_Metal_State_Penalty>
-0

> <b_epik_Metal_Only>
0

> <s_lp_Force_Field>
OPLS_2005

> <r_lp_Energy>
19.6901

> <b_lp_Chiralities_Consistent>
1

> <s_lp_Variant>
AV-unprocessed.smi:2293-2

> <Gold.Version>
5.8.1

> <Gold.Id.Protein>
6NUR|6NUR_protein|mol2

> <Gold.PLP.Fitness>
46.2680

> <Gold.PLP.PLP>
-44.0539

> <Gold.PLP.part.hbond>
-1.0000

> <Gold.PLP.part.metal>
0.0000

> <Gold.PLP.part.buried>
-4.4494

> <Gold.PLP.part.nonpolar>
-38.7001

> <Gold.PLP.part.repulsive>
0.1448

> <Gold.PLP.ligand.clash>
0.0000

> <Gold.PLP.ligand.torsion>
1.3878

> <Gold.PLP.Chemscore.Hbond>
0.6600

> <Gold.PLP.Chemscore.CHOScore>
1.0000

> <Gold.PLP.Chemscore.Metal>
0.0000

> <Gold.Chemscore.Hbonds>
donor molecule, donor type, donor heavy atom, donor atom, acceptor molecule, acceptor atom, score
      P1  H  7989  7998       L1     8  0.63
      L1  C     4    23       P1  8028  1.00

> <Gold.PLP.Chemscore.Internal.Correction>
0.0097

> <Gold.Rescore>
     Score         DG    S(hbond)    S(metal)    S(lipo)     H(rot)  DE(clash)    DE(int)     intcor
     11.54     -13.13       0.60        0.00      92.36       2.02       0.19       1.40       ----

> <Gold.Chemscore.Fitness>
11.5426

> <Gold.Chemscore.DG>
-13.1300

> <Gold.Chemscore.ZeroCoef>
-5.4800

> <Gold.Chemscore.Hbond>
0.6019

> <Gold.Chemscore.Metal>
0.0000

> <Gold.Chemscore.Lipo>
92.3596

> <Gold.Chemscore.Internal_Hbond>
0.0000

> <Gold.Chemscore.DEClash>
0.1912

> <Gold.Chemscore.DEInternal>
1.3963

> <Gold.Chemscore.Rot>
2.0181

> <Gold.Chemscore.Internal.Correction>
   9.000000E+99

> <Gold.Chemscore.Hbonds>
donor molecule, donor type, donor heavy atom, donor atom, acceptor molecule, acceptor atom, score
      P1  H  7989  7998       L1     8  0.06

> <Gold.Chemscore.Hbond.Weighted>
-2.0103

> <Gold.Chemscore.Metal.Weighted>
-0.0000

> <Gold.Chemscore.Lipo.Weighted>
-10.8061

> <Gold.Chemscore.Internal_Hbond.Weighted>
0.0000

> <Gold.Chemscore.DEClash.Weighted>
0.1912

> <Gold.Chemscore.DEInternal.Weighted>
1.3963

> <Gold.Chemscore.Rot.Weighted>
5.1663

> <Gold.Chemscore.Internal.Correction.Weighted>
   9.000000E+99

> <Gold.Protein.RotatedTorsions>
[ 6907 6896 6895 6894 ] final   74.46 input  -60.11 | X-H torsion
[ 7974 7965 7964 7962 ] final    5.96 input  175.53 | X-H torsion
[ 8008 7997 7996 7995 ] final  135.16 input   59.86 | X-H torsion
[ 10167 10162 10161 10158 ] final  148.20 input  -65.29 | X-H torsion
[ 10718 10713 10712 10709 ] final -154.52 input   66.30 | X-H torsion
[ 10763 10752 10751 10750 ] final  146.45 input  -60.55 | X-H torsion
[ 11005 11000 10999 10996 ] final  141.14 input  -57.11 | X-H torsion

> <Gold.Protein.ActiveResidues>
 VAL166  LYS551  ARG553  GLY616  TRP617  ASP618  TYR619  PRO620  LYS621  CYS622 
 ASP623  PHE694  ASN695  SER759  ASP760  ASP761  ALA762  ILE779  LEU786  VAL792 
 PHE793  MET794  SER795  GLU796  ALA797  LYS798  CYS799  TRP800  GLU811  SER814 

> <Gold.Protein.RotatedAtoms>
  152.4977  134.4268  159.9498 H   0  0  0  0  0  0  0  0  0  0  0  0  # atno 6907 bound_to 6896
  151.4244  133.3682  159.2768 H   0  0  0  0  0  0  0  0  0  0  0  0  # atno 6908 bound_to 6896
  150.9199  134.8640  159.7542 H   0  0  0  0  0  0  0  0  0  0  0  0  # atno 6909 bound_to 6896
  146.2438  140.0306  142.8390 H   0  0  0  0  0  0  0  0  0  0  0  0  # atno 7974 bound_to 7965
  156.3002  140.2477  156.3536 H   0  0  0  0  0  0  0  0  0  0  0  0  # atno 8008 bound_to 7997
  154.8942  140.0408  157.1875 H   0  0  0  0  0  0  0  0  0  0  0  0  # atno 8009 bound_to 7997
  154.8566  140.2914  155.5569 H   0  0  0  0  0  0  0  0  0  0  0  0  # atno 8010 bound_to 7997
  139.4878  144.5697  151.7077 H   0  0  0  0  0  0  0  0  0  0  0  0  # atno 10167 bound_to 10162
  156.5003  130.8388  151.2606 H   0  0  0  0  0  0  0  0  0  0  0  0  # atno 10718 bound_to 10713
  154.0221  135.2905  155.3379 H   0  0  0  0  0  0  0  0  0  0  0  0  # atno 10763 bound_to 10752
  154.7040  135.5177  153.8571 H   0  0  0  0  0  0  0  0  0  0  0  0  # atno 10764 bound_to 10752
  153.0677  135.6636  154.0442 H   0  0  0  0  0  0  0  0  0  0  0  0  # atno 10765 bound_to 10752
  140.0379  134.9319  157.0788 H   0  0  0  0  0  0  0  0  0  0  0  0  # atno 11005 bound_to 11000
  145.1159  140.9433  143.4629 LP  0  0  0  0  0  0  0  0  0  0  0  0  # atno 17320 bound_to 7965
  145.0530  139.3166  143.5919 LP  0  0  0  0  0  0  0  0  0  0  0  0  # atno 17321 bound_to 7965
  140.5282  144.0772  150.6045 LP  0  0  0  0  0  0  0  0  0  0  0  0  # atno 17342 bound_to 10162
  140.3753  143.2832  152.0232 LP  0  0  0  0  0  0  0  0  0  0  0  0  # atno 17343 bound_to 10162
  157.7463  130.9984  150.2850 LP  0  0  0  0  0  0  0  0  0  0  0  0  # atno 17370 bound_to 10713
  156.3339  130.3804  149.7467 LP  0  0  0  0  0  0  0  0  0  0  0  0  # atno 17371 bound_to 10713
  140.4116  134.1975  155.7163 LP  0  0  0  0  0  0  0  0  0  0  0  0  # atno 17394 bound_to 11000
  141.1867  133.8296  157.1057 LP  0  0  0  0  0  0  0  0  0  0  0  0  # atno 17395 bound_to 11000

$$$$
