AV-unprocessed.smi:1047|AV-procd|sdf|4564|dock5
  -GOLD-   22720 3 13D 1   1.00000     0.00000
 Structure written by MMmdl.
 57 59  0  0  0  0  0  0  0  0  3 V2000
  145.1644  134.1882  150.8256 C   0  0  0  0  0  0  0  0  0  0  0  0
  144.4386  135.4708  150.3943 C   0  0  0  0  0  0  0  0  0  0  0  0
  144.3462  136.4737  151.4852 N   0  3  1  0  0  0  0  0  0  0  0  0
  143.4574  136.0253  152.5839 C   0  0  0  0  0  0  0  0  0  0  0  0
  143.3408  137.1126  153.6651 C   0  0  0  0  0  0  0  0  0  0  0  0
  144.6349  137.4437  154.1552 O   0  0  0  0  0  0  0  0  0  0  0  0
  145.4840  137.9522  153.1320 C   0  0  1  0  0  0  0  0  0  0  0  0
  146.8092  138.4116  153.7639 C   0  0  0  0  0  0  0  0  0  0  0  0
  147.4426  139.5061  152.9991 N   0  3  0  0  0  0  0  0  0  0  0  0
  147.8946  140.6371  153.8329 C   0  0  0  0  0  0  0  0  0  0  0  0
  149.2047  140.3033  154.5718 C   0  0  1  0  0  0  0  0  0  0  0  0
  150.1782  139.9293  153.6158 O   0  0  0  0  0  0  0  0  0  0  0  0
  149.7492  141.4748  155.4186 C   0  0  0  0  0  0  0  0  0  0  0  0
  150.7862  141.0792  156.3583 N   0  0  0  0  0  0  0  0  0  0  0  0
  151.5780  139.9916  156.2843 C   0  0  0  0  0  0  0  0  0  0  0  0
  152.4747  139.8235  157.2512 N   0  0  0  0  0  0  0  0  0  0  0  0
  152.2313  140.9256  158.0521 C   0  0  0  0  0  0  0  0  0  0  0  0
  152.8495  141.3412  159.2514 C   0  0  0  0  0  0  0  0  0  0  0  0
  152.4331  142.5194  159.9110 C   0  0  0  0  0  0  0  0  0  0  0  0
  153.1237  142.9263  161.2007 C   0  0  0  0  0  0  0  0  0  0  0  0
  151.3811  143.3021  159.3713 C   0  0  0  0  0  0  0  0  0  0  0  0
  150.9139  144.5691  160.0654 C   0  0  0  0  0  0  0  0  0  0  0  0
  150.7539  142.9023  158.1728 C   0  0  0  0  0  0  0  0  0  0  0  0
  151.1780  141.7284  157.5248 C   0  0  0  0  0  0  0  0  0  0  0  0
  145.6642  136.8911  152.0258 C   0  0  0  0  0  0  0  0  0  0  0  0
  145.3059  133.5252  149.9717 H   0  0  0  0  0  0  0  0  0  0  0  0
  144.6015  133.6303  151.5737 H   0  0  0  0  0  0  0  0  0  0  0  0
  146.1494  134.4091  151.2376 H   0  0  0  0  0  0  0  0  0  0  0  0
  144.9948  135.9052  149.5625 H   0  0  0  0  0  0  0  0  0  0  0  0
  143.4432  135.2382  150.0129 H   0  0  0  0  0  0  0  0  0  0  0  0
  142.4666  135.7959  152.1894 H   0  0  0  0  0  0  0  0  0  0  0  0
  143.8491  135.1049  153.0200 H   0  0  0  0  0  0  0  0  0  0  0  0
  142.8477  138.0030  153.2717 H   0  0  0  0  0  0  0  0  0  0  0  0
  142.7314  136.7524  154.4942 H   0  0  0  0  0  0  0  0  0  0  0  0
  145.0078  138.8328  152.6963 H   0  0  0  0  0  0  0  0  0  0  0  0
  146.6316  138.7431  154.7879 H   0  0  0  0  0  0  0  0  0  0  0  0
  147.5023  137.5713  153.8181 H   0  0  0  0  0  0  0  0  0  0  0  0
  148.2377  139.1356  152.4982 H   0  0  0  0  0  0  0  0  0  0  0  0
  148.0199  141.5193  153.2035 H   0  0  0  0  0  0  0  0  0  0  0  0
  147.1126  140.8678  154.5576 H   0  0  0  0  0  0  0  0  0  0  0  0
  149.0412  139.4508  155.2323 H   0  0  0  0  0  0  0  0  0  0  0  0
  149.7474  139.7920  152.7851 H   0  0  0  0  0  0  0  0  0  0  0  0
  150.1584  142.2445  154.7634 H   0  0  0  0  0  0  0  0  0  0  0  0
  148.9403  141.9498  155.9757 H   0  0  0  0  0  0  0  0  0  0  0  0
  151.4965  139.2868  155.4696 H   0  0  0  0  0  0  0  0  0  0  0  0
  153.6490  140.7435  159.6641 H   0  0  0  0  0  0  0  0  0  0  0  0
  152.4176  142.9092  162.0311 H   0  0  0  0  0  0  0  0  0  0  0  0
  153.5361  143.9320  161.1162 H   0  0  0  0  0  0  0  0  0  0  0  0
  153.9433  142.2495  161.4437 H   0  0  0  0  0  0  0  0  0  0  0  0
  150.0719  145.0228  159.5421 H   0  0  0  0  0  0  0  0  0  0  0  0
  151.7199  145.3021  160.1034 H   0  0  0  0  0  0  0  0  0  0  0  0
  150.5950  144.3519  161.0848 H   0  0  0  0  0  0  0  0  0  0  0  0
  149.9509  143.4897  157.7532 H   0  0  0  0  0  0  0  0  0  0  0  0
  146.1849  136.0147  152.4150 H   0  0  0  0  0  0  0  0  0  0  0  0
  146.2847  137.3054  151.2316 H   0  0  0  0  0  0  0  0  0  0  0  0
  146.7762  139.8638  152.3293 H   0  0  0  0  0  0  0  0  0  0  0  0
  143.9132  137.2948  151.0861 H   0  0  0  0  0  0  0  0  0  0  0  0
  1  2  1  0  0  0  0
  1 26  1  0  0  0  0
  1 27  1  0  0  0  0
  1 28  1  0  0  0  0
  2  3  1  0  0  0  0
  2 29  1  0  0  0  0
  2 30  1  0  0  0  0
  3 25  1  0  0  0  0
  3  4  1  0  0  0  0
  3 57  1  0  0  0  0
  4  5  1  0  0  0  0
  4 31  1  0  0  0  0
  4 32  1  0  0  0  0
  5  6  1  0  0  0  0
  5 33  1  0  0  0  0
  5 34  1  0  0  0  0
  6  7  1  0  0  0  0
  7  8  1  0  0  0  0
  7 25  1  0  0  0  0
  7 35  1  0  0  0  0
  8  9  1  0  0  0  0
  8 36  1  0  0  0  0
  8 37  1  0  0  0  0
  9 10  1  0  0  0  0
  9 38  1  0  0  0  0
  9 56  1  0  0  0  0
 10 11  1  0  0  0  0
 10 39  1  0  0  0  0
 10 40  1  0  0  0  0
 11 12  1  0  0  0  0
 11 13  1  0  0  0  0
 11 41  1  0  0  0  0
 12 42  1  0  0  0  0
 13 14  1  0  0  0  0
 13 43  1  0  0  0  0
 13 44  1  0  0  0  0
 14 24  1  0  0  0  0
 14 15  1  0  0  0  0
 15 16  2  0  0  0  0
 15 45  1  0  0  0  0
 16 17  1  0  0  0  0
 17 24  2  0  0  0  0
 17 18  1  0  0  0  0
 18 19  2  0  0  0  0
 18 46  1  0  0  0  0
 19 20  1  0  0  0  0
 19 21  1  0  0  0  0
 20 47  1  0  0  0  0
 20 48  1  0  0  0  0
 20 49  1  0  0  0  0
 21 22  1  0  0  0  0
 21 23  2  0  0  0  0
 22 50  1  0  0  0  0
 22 51  1  0  0  0  0
 22 52  1  0  0  0  0
 23 24  1  0  0  0  0
 23 53  1  0  0  0  0
 25 54  1  0  0  0  0
 25 55  1  0  0  0  0
M  CHG  1   3   1
M  CHG  1   9   1
M  END
> <s_m_source_file>
AV-unprocessed.smi

> <i_m_source_file_index>
1047

> <i_lp_mmshare_version>
43012

> <i_f3d_flags>
0

> <s_epik_input>
W0NIM11bQ0gyXU4xW0NIMl1bQ0gyXU9bQ0BIXShbQ0gyXTEpW0NIMl1bTkhdW0NIMl1bQ0BIXShbT0hdKVtDSDJdbihbY0hdbjIpYyhjMjMpW2NIXWMoW0NIM10pYyhbY0hdMylbQ0gzXQ==

> <s_epik_cmdline>
J2VwaWtfcHl0aG9uJywgJy1waCcsICc3LjAnLCAnLXRuJywgJzgnLCAnLW1hJywgJzIwMCcsICctbWV0YWxfYmluZGluZycsICctaW1hZScsICc8aW5maWxlLm1hZT4nLCAnLW9tYWUnLCAnPG91dGZpbGUubWFlPic=

> <r_epik_Ionization_Penalty>
0.528991

> <r_epik_Ionization_Penalty_Charging>
0.438567

> <r_epik_Ionization_Penalty_Neutral>
0.0904237

> <r_epik_State_Penalty>
0.533036

> <r_epik_Charging_Adjusted_Penalty>
0.971603

> <i_epik_Tot_Q>
2

> <i_epik_Tot_abs_Q>
2

> <r_epik_Metal_State_Penalty>
0.448985

> <b_epik_Metal_Only>
0

> <s_lp_Force_Field>
OPLS_2005

> <r_lp_Energy>
29.0334

> <b_lp_Chiralities_Consistent>
1

> <s_lp_Variant>
AV-unprocessed.smi:1047-5

> <Gold.Version>
5.8.1

> <Gold.Id.Protein>
6NUR|6NUR_protein|mol2

> <Gold.PLP.Fitness>
60.8889

> <Gold.PLP.PLP>
-49.6297

> <Gold.PLP.part.hbond>
-4.9031

> <Gold.PLP.part.metal>
0.0000

> <Gold.PLP.part.buried>
-3.6840

> <Gold.PLP.part.nonpolar>
-40.8763

> <Gold.PLP.part.repulsive>
0.1793

> <Gold.PLP.ligand.clash>
0.0000

> <Gold.PLP.ligand.torsion>
1.1529

> <Gold.PLP.Chemscore.Hbond>
4.3676

> <Gold.PLP.Chemscore.CHOScore>
0.0000

> <Gold.PLP.Chemscore.Metal>
0.0000

> <Gold.Chemscore.Hbonds>
donor molecule, donor type, donor heavy atom, donor atom, acceptor molecule, acceptor atom, score
      L1  H     3    57       P1 10171  1.00
      L1  H     9    38       P1  7957  0.53
      L1  H    12    42       P1  7957  1.00
      P1  H  7989  7998       L1    12  0.78
      P1  H  7997  8009       L1    16  0.98

> <Gold.PLP.Chemscore.Internal.Correction>
0.4623

> <Gold.Rescore>
     Score         DG    S(hbond)    S(metal)    S(lipo)     H(rot)  DE(clash)    DE(int)     intcor
     24.05     -27.18       4.06        0.00     128.52       2.70       0.82       2.31       ----

> <Gold.Chemscore.Fitness>
24.0549

> <Gold.Chemscore.DG>
-27.1825

> <Gold.Chemscore.ZeroCoef>
-5.4800

> <Gold.Chemscore.Hbond>
4.0642

> <Gold.Chemscore.Metal>
0.0000

> <Gold.Chemscore.Lipo>
128.5153

> <Gold.Chemscore.Internal_Hbond>
0.0000

> <Gold.Chemscore.DEClash>
0.8202

> <Gold.Chemscore.DEInternal>
2.3074

> <Gold.Chemscore.Rot>
2.6985

> <Gold.Chemscore.Internal.Correction>
   9.000000E+99

> <Gold.Chemscore.Hbonds>
donor molecule, donor type, donor heavy atom, donor atom, acceptor molecule, acceptor atom, score
      L1  H     3    57       P1 10171  0.95
      L1  H     9    38       P1  7957  0.51
      L1  H    12    42       P1  7957  0.95
      P1  H  7989  7998       L1    12  0.62
      P1  H  7997  8009       L1    16  0.31

> <Gold.Chemscore.Hbond.Weighted>
-13.5744

> <Gold.Chemscore.Metal.Weighted>
-0.0000

> <Gold.Chemscore.Lipo.Weighted>
-15.0363

> <Gold.Chemscore.Internal_Hbond.Weighted>
0.0000

> <Gold.Chemscore.DEClash.Weighted>
0.8202

> <Gold.Chemscore.DEInternal.Weighted>
2.3074

> <Gold.Chemscore.Rot.Weighted>
6.9081

> <Gold.Chemscore.Internal.Correction.Weighted>
   9.000000E+99

> <Gold.Protein.RotatedTorsions>
[ 6907 6896 6895 6894 ] final  -15.69 input  -60.11 | X-H torsion
[ 7974 7965 7964 7962 ] final -178.24 input  175.53 | X-H torsion
[ 8008 7997 7996 7995 ] final -169.16 input   59.86 | X-H torsion
[ 10167 10162 10161 10158 ] final -165.44 input  -65.29 | X-H torsion
[ 10718 10713 10712 10709 ] final  131.17 input   66.30 | X-H torsion
[ 10763 10752 10751 10750 ] final -143.29 input  -60.55 | X-H torsion
[ 11005 11000 10999 10996 ] final  145.91 input  -57.11 | X-H torsion

> <Gold.Protein.ActiveResidues>
 VAL166  LYS551  ARG553  GLY616  TRP617  ASP618  TYR619  PRO620  LYS621  CYS622 
 ASP623  PHE694  ASN695  SER759  ASP760  ASP761  ALA762  ILE779  LEU786  VAL792 
 PHE793  MET794  SER795  GLU796  ALA797  LYS798  CYS799  TRP800  GLU811  SER814 

> <Gold.Protein.RotatedAtoms>
  151.3201  135.0816  159.9302 H   0  0  0  0  0  0  0  0  0  0  0  0  # atno 6907 bound_to 6896
  152.5259  133.9648  159.7744 H   0  0  0  0  0  0  0  0  0  0  0  0  # atno 6908 bound_to 6896
  150.9967  133.6043  159.2730 H   0  0  0  0  0  0  0  0  0  0  0  0  # atno 6909 bound_to 6896
  144.7130  140.0898  143.6422 H   0  0  0  0  0  0  0  0  0  0  0  0  # atno 7974 bound_to 7965
  155.9011  140.1041  157.1349 H   0  0  0  0  0  0  0  0  0  0  0  0  # atno 8008 bound_to 7997
  154.4026  140.1292  156.4502 H   0  0  0  0  0  0  0  0  0  0  0  0  # atno 8009 bound_to 7997
  155.7421  140.3466  155.5111 H   0  0  0  0  0  0  0  0  0  0  0  0  # atno 8010 bound_to 7997
  139.6182  144.0678  152.1908 H   0  0  0  0  0  0  0  0  0  0  0  0  # atno 10167 bound_to 10162
  157.4993  131.1093  150.9450 H   0  0  0  0  0  0  0  0  0  0  0  0  # atno 10718 bound_to 10713
  154.8476  135.3472  154.6164 H   0  0  0  0  0  0  0  0  0  0  0  0  # atno 10763 bound_to 10752
  153.6772  135.6982  153.5133 H   0  0  0  0  0  0  0  0  0  0  0  0  # atno 10764 bound_to 10752
  153.2696  135.4297  155.0931 H   0  0  0  0  0  0  0  0  0  0  0  0  # atno 10765 bound_to 10752
  140.0750  134.9130  157.1408 H   0  0  0  0  0  0  0  0  0  0  0  0  # atno 11005 bound_to 11000
  145.9630  139.2814  143.1144 LP  0  0  0  0  0  0  0  0  0  0  0  0  # atno 17320 bound_to 7965
  145.9200  140.9121  143.0410 LP  0  0  0  0  0  0  0  0  0  0  0  0  # atno 17321 bound_to 7965
  140.0313  144.6079  150.7486 LP  0  0  0  0  0  0  0  0  0  0  0  0  # atno 17342 bound_to 10162
  140.7365  143.2753  151.3760 LP  0  0  0  0  0  0  0  0  0  0  0  0  # atno 17343 bound_to 10162
  157.0126  130.5642  149.5322 LP  0  0  0  0  0  0  0  0  0  0  0  0  # atno 17370 bound_to 10713
  156.0219  130.5314  150.8300 LP  0  0  0  0  0  0  0  0  0  0  0  0  # atno 17371 bound_to 10713
  140.3571  134.2535  155.7191 LP  0  0  0  0  0  0  0  0  0  0  0  0  # atno 17394 bound_to 11000
  141.2026  133.7933  157.0382 LP  0  0  0  0  0  0  0  0  0  0  0  0  # atno 17395 bound_to 11000

$$$$
