AV-unprocessed.smi:3032|AV-procd|sdf|11559|dock5
  -GOLD-   2272016523D 1   1.00000     0.00000
 Structure written by MMmdl.
 37 38  0  0  0  0  0  0  0  0  1 V2000
  153.5604  141.8850  160.8111 C   0  0  0  0  0  0  0  0  0  0  0  0
  152.9468  142.5300  159.5602 C   0  0  2  0  0  0  0  0  0  0  0  0
  152.6191  144.0171  159.7964 C   0  0  0  0  0  0  0  0  0  0  0  0
  152.0001  144.6635  158.5473 C   0  0  0  0  0  0  0  0  0  0  0  0
  150.7515  143.8972  158.0841 C   0  0  0  0  0  0  0  0  0  0  0  0
  151.0718  142.4095  157.8308 C   0  0  2  0  0  0  0  0  0  0  0  0
  149.8138  141.6523  157.3857 C   0  0  0  0  0  0  0  0  0  0  0  0
  148.8274  141.5972  158.1207 O   0  0  0  0  0  0  0  0  0  0  0  0
  149.8559  141.0859  156.1702 N   0  0  0  0  0  0  0  0  0  0  0  0
  148.7508  140.3733  155.5352 C   0  0  0  0  0  0  0  0  0  0  0  0
  149.2015  139.4994  154.3468 C   0  0  0  0  0  0  0  0  0  0  0  0
  150.4403  138.7045  154.6167 C   0  0  0  0  0  0  0  0  0  0  0  0
  150.5130  137.3937  154.3760 N   0  0  0  0  0  0  0  0  0  0  0  0
  151.7487  136.9509  154.6890 N   0  0  0  0  0  0  0  0  0  0  0  0
  152.3450  138.0648  155.1101 C   0  0  0  0  0  0  0  0  0  0  0  0
  151.5804  139.1979  155.0876 N   0  0  0  0  0  0  0  0  0  0  0  0
  151.6896  141.7699  159.0929 C   0  0  0  0  0  0  0  0  0  0  0  0
  149.7862  136.7936  154.0120 H   0  0  0  0  0  0  0  0  0  0  0  0
  152.8667  141.9113  161.6520 H   0  0  0  0  0  0  0  0  0  0  0  0
  154.4703  142.4038  161.1140 H   0  0  0  0  0  0  0  0  0  0  0  0
  153.8218  140.8425  160.6273 H   0  0  0  0  0  0  0  0  0  0  0  0
  153.6904  142.4720  158.7640 H   0  0  0  0  0  0  0  0  0  0  0  0
  151.9281  144.1137  160.6352 H   0  0  0  0  0  0  0  0  0  0  0  0
  153.5228  144.5589  160.0775 H   0  0  0  0  0  0  0  0  0  0  0  0
  151.7418  145.7020  158.7562 H   0  0  0  0  0  0  0  0  0  0  0  0
  152.7364  144.6841  157.7430 H   0  0  0  0  0  0  0  0  0  0  0  0
  149.9710  143.9919  158.8408 H   0  0  0  0  0  0  0  0  0  0  0  0
  150.3582  144.3577  157.1765 H   0  0  0  0  0  0  0  0  0  0  0  0
  151.8085  142.3536  157.0270 H   0  0  0  0  0  0  0  0  0  0  0  0
  150.7060  141.1791  155.6328 H   0  0  0  0  0  0  0  0  0  0  0  0
  148.2976  139.7383  156.2970 H   0  0  0  0  0  0  0  0  0  0  0  0
  147.9785  141.0767  155.2209 H   0  0  0  0  0  0  0  0  0  0  0  0
  148.4000  138.8132  154.0714 H   0  0  0  0  0  0  0  0  0  0  0  0
  149.3746  140.1269  153.4714 H   0  0  0  0  0  0  0  0  0  0  0  0
  153.3718  138.0624  155.4452 H   0  0  0  0  0  0  0  0  0  0  0  0
  151.9468  140.7290  158.8903 H   0  0  0  0  0  0  0  0  0  0  0  0
  150.9570  141.7531  159.9020 H   0  0  0  0  0  0  0  0  0  0  0  0
  1  2  1  0  0  0  0
  1 19  1  0  0  0  0
  1 20  1  0  0  0  0
  1 21  1  0  0  0  0
  2 17  1  0  0  0  0
  2  3  1  0  0  0  0
  2 22  1  0  0  0  0
  3  4  1  0  0  0  0
  3 23  1  0  0  0  0
  3 24  1  0  0  0  0
  4  5  1  0  0  0  0
  4 25  1  0  0  0  0
  4 26  1  0  0  0  0
  5  6  1  0  0  0  0
  5 27  1  0  0  0  0
  5 28  1  0  0  0  0
  6  7  1  0  0  0  0
  6 17  1  0  0  0  0
  6 29  1  0  0  0  0
  7  8  2  0  0  0  0
  7  9  1  0  0  0  0
  9 10  1  0  0  0  0
  9 30  1  0  0  0  0
 10 11  1  0  0  0  0
 10 31  1  0  0  0  0
 10 32  1  0  0  0  0
 11 33  1  0  0  0  0
 11 34  1  0  0  0  0
 11 12  1  0  0  0  0
 12 16  2  0  0  0  0
 12 13  1  0  0  0  0
 13 18  1  0  0  0  0
 13 14  1  0  0  0  0
 14 15  2  0  0  0  0
 15 16  1  0  0  0  0
 15 35  1  0  0  0  0
 17 36  1  0  0  0  0
 17 37  1  0  0  0  0
M  END
> <s_m_source_file>
AV-unprocessed.smi

> <i_m_source_file_index>
3032

> <i_lp_mmshare_version>
43012

> <i_f3d_flags>
0

> <s_epik_input>
W0NIM11bQ0BASF0xW0NIMl1bQ0gyXVtDSDJdW0NASF0oW0NIMl0xKUMoPU8pW05IXVtDSDJdW0NIMl1jMm5uW2NIXVtuSF0y

> <s_epik_cmdline>
J2VwaWtfcHl0aG9uJywgJy1waCcsICc3LjAnLCAnLXRuJywgJzgnLCAnLW1hJywgJzIwMCcsICctbWV0YWxfYmluZGluZycsICctaW1hZScsICc8aW5maWxlLm1hZT4nLCAnLW9tYWUnLCAnPG91dGZpbGUubWFlPic=

> <r_lp_tautomer_probability>
0.948284

> <r_epik_Ionization_Penalty>
0.000474052

> <r_epik_Ionization_Penalty_Charging>
0

> <r_epik_Ionization_Penalty_Neutral>
0.000474052

> <r_epik_State_Penalty>
0.271807

> <r_epik_Charging_Adjusted_Penalty>
0.271807

> <i_epik_Tot_Q>
0

> <i_epik_Tot_abs_Q>
0

> <r_epik_Metal_State_Penalty>
0.397201

> <b_epik_Metal_Only>
0

> <s_lp_Force_Field>
OPLS_2005

> <r_lp_Energy>
10.6887

> <b_lp_Chiralities_Consistent>
1

> <s_lp_Variant>
AV-unprocessed.smi:3032-3

> <Gold.Version>
5.8.1

> <Gold.Id.Protein>
6NUR|6NUR_protein|mol2

> <Gold.PLP.Fitness>
46.1572

> <Gold.PLP.PLP>
-38.3472

> <Gold.PLP.part.hbond>
-4.0000

> <Gold.PLP.part.metal>
0.0000

> <Gold.PLP.part.buried>
-5.6221

> <Gold.PLP.part.nonpolar>
-30.7175

> <Gold.PLP.part.repulsive>
1.4334

> <Gold.PLP.ligand.clash>
0.0000

> <Gold.PLP.ligand.torsion>
0.2555

> <Gold.PLP.Chemscore.Hbond>
2.7675

> <Gold.PLP.Chemscore.CHOScore>
0.0000

> <Gold.PLP.Chemscore.Metal>
0.0000

> <Gold.Chemscore.Hbonds>
donor molecule, donor type, donor heavy atom, donor atom, acceptor molecule, acceptor atom, score
      L1  H    13    18       P1  7948  0.16
      P1  H  7989  7998       L1    16  0.21
      P1  H 10752 10765       L1    14  1.00

> <Gold.PLP.Chemscore.Internal.Correction>
0.0186

> <Gold.Rescore>
     Score         DG    S(hbond)    S(metal)    S(lipo)     H(rot)  DE(clash)    DE(int)     intcor
     14.18     -15.77       1.90        0.00      83.08       2.25       0.02       1.58       ----

> <Gold.Chemscore.Fitness>
14.1784

> <Gold.Chemscore.DG>
-15.7743

> <Gold.Chemscore.ZeroCoef>
-5.4800

> <Gold.Chemscore.Hbond>
1.8965

> <Gold.Chemscore.Metal>
0.0000

> <Gold.Chemscore.Lipo>
83.0783

> <Gold.Chemscore.Internal_Hbond>
0.0000

> <Gold.Chemscore.DEClash>
0.0174

> <Gold.Chemscore.DEInternal>
1.5785

> <Gold.Chemscore.Rot>
2.2501

> <Gold.Chemscore.Internal.Correction>
   9.000000E+99

> <Gold.Chemscore.Hbonds>
donor molecule, donor type, donor heavy atom, donor atom, acceptor molecule, acceptor atom, score
      L1  H    13    18       P1  7948  0.11
      P1  H  7989  7998       L1    16  0.02
      P1  H 10752 10765       L1    14  0.76

> <Gold.Chemscore.Hbond.Weighted>
-6.3345

> <Gold.Chemscore.Metal.Weighted>
-0.0000

> <Gold.Chemscore.Lipo.Weighted>
-9.7202

> <Gold.Chemscore.Internal_Hbond.Weighted>
0.0000

> <Gold.Chemscore.DEClash.Weighted>
0.0174

> <Gold.Chemscore.DEInternal.Weighted>
1.5785

> <Gold.Chemscore.Rot.Weighted>
5.7603

> <Gold.Chemscore.Internal.Correction.Weighted>
   9.000000E+99

> <Gold.Protein.RotatedTorsions>
[ 6907 6896 6895 6894 ] final   62.67 input  -60.11 | X-H torsion
[ 7974 7965 7964 7962 ] final  138.47 input  175.53 | X-H torsion
[ 8008 7997 7996 7995 ] final    1.08 input   59.86 | X-H torsion
[ 10167 10162 10161 10158 ] final  -64.74 input  -65.29 | X-H torsion
[ 10718 10713 10712 10709 ] final -120.87 input   66.30 | X-H torsion
[ 10763 10752 10751 10750 ] final  158.69 input  -60.55 | X-H torsion
[ 11005 11000 10999 10996 ] final   43.38 input  -57.11 | X-H torsion

> <Gold.Protein.ActiveResidues>
 VAL166  LYS551  ARG553  GLY616  TRP617  ASP618  TYR619  PRO620  LYS621  CYS622 
 ASP623  PHE694  ASN695  SER759  ASP760  ASP761  ALA762  ILE779  LEU786  VAL792 
 PHE793  MET794  SER795  GLU796  ALA797  LYS798  CYS799  TRP800  GLU811  SER814 

> <Gold.Protein.RotatedAtoms>
  152.4191  134.5988  159.9994 H   0  0  0  0  0  0  0  0  0  0  0  0  # atno 6907 bound_to 6896
  151.6143  133.3339  159.3082 H   0  0  0  0  0  0  0  0  0  0  0  0  # atno 6908 bound_to 6896
  150.8079  134.7254  159.6727 H   0  0  0  0  0  0  0  0  0  0  0  0  # atno 6909 bound_to 6896
  144.9369  139.4978  143.5591 H   0  0  0  0  0  0  0  0  0  0  0  0  # atno 7974 bound_to 7965
  154.6756  140.2621  155.6962 H   0  0  0  0  0  0  0  0  0  0  0  0  # atno 8008 bound_to 7997
  156.2676  140.2820  156.1203 H   0  0  0  0  0  0  0  0  0  0  0  0  # atno 8009 bound_to 7997
  155.1105  140.0375  157.2713 H   0  0  0  0  0  0  0  0  0  0  0  0  # atno 8010 bound_to 7997
  140.5779  143.2324  151.6404 H   0  0  0  0  0  0  0  0  0  0  0  0  # atno 10167 bound_to 10162
  156.1292  130.6382  150.9593 H   0  0  0  0  0  0  0  0  0  0  0  0  # atno 10718 bound_to 10713
  154.2200  135.2782  155.2928 H   0  0  0  0  0  0  0  0  0  0  0  0  # atno 10763 bound_to 10752
  154.5709  135.5618  153.7098 H   0  0  0  0  0  0  0  0  0  0  0  0  # atno 10764 bound_to 10752
  153.0044  135.6321  154.2340 H   0  0  0  0  0  0  0  0  0  0  0  0  # atno 10765 bound_to 10752
  140.1650  134.4293  155.8293 H   0  0  0  0  0  0  0  0  0  0  0  0  # atno 11005 bound_to 11000
  146.3270  139.8360  142.8899 LP  0  0  0  0  0  0  0  0  0  0  0  0  # atno 17320 bound_to 7965
  145.3053  141.0205  143.3585 LP  0  0  0  0  0  0  0  0  0  0  0  0  # atno 17321 bound_to 7965
  139.5153  144.3383  152.0764 LP  0  0  0  0  0  0  0  0  0  0  0  0  # atno 17342 bound_to 10162
  140.2529  144.4150  150.6215 LP  0  0  0  0  0  0  0  0  0  0  0  0  # atno 17343 bound_to 10162
  157.6471  131.0902  150.8130 LP  0  0  0  0  0  0  0  0  0  0  0  0  # atno 17370 bound_to 10713
  156.8216  130.4986  149.5342 LP  0  0  0  0  0  0  0  0  0  0  0  0  # atno 17371 bound_to 10713
  141.2213  133.6930  156.7662 LP  0  0  0  0  0  0  0  0  0  0  0  0  # atno 17394 bound_to 11000
  140.2444  134.8589  157.3605 LP  0  0  0  0  0  0  0  0  0  0  0  0  # atno 17395 bound_to 11000

$$$$
