AV-unprocessed.smi:2061|AV-procd|sdf|8360|dock8
  -GOLD-   2272011 33D 1   1.00000     0.00000
 Structure written by MMmdl.
 45 46  0  0  0  0  0  0  0  0  1 V2000
  144.3117  133.1427  150.4324 C   0  0  0  0  0  0  0  0  0  0  0  0
  144.2038  134.4346  151.1673 C   0  0  0  0  0  0  0  0  0  0  0  0
  144.9261  135.5941  151.1237 C   0  0  0  0  0  0  0  0  0  0  0  0
  144.2780  136.4113  152.0879 C   0  0  0  0  0  0  0  0  0  0  0  0
  144.7346  137.7282  152.3518 N   0  0  0  0  0  0  0  0  0  0  0  0
  145.8646  138.0919  152.9823 C   0  0  0  0  0  0  0  0  0  0  0  0
  146.7021  137.3127  153.4377 O   0  0  0  0  0  0  0  0  0  0  0  0
  145.9748  139.4274  153.0520 N   0  0  0  0  0  0  0  0  0  0  0  0
  147.0814  140.1571  153.6684 C   0  0  0  0  0  0  0  0  0  0  0  0
  147.1884  139.9226  155.2022 C   0  0  2  0  0  0  0  0  0  0  0  0
  146.3552  141.0013  155.9407 C   0  0  0  0  0  0  0  0  0  0  0  0
  148.5894  139.8524  155.6815 N   0  0  0  0  0  0  0  0  0  0  0  0
  149.1789  141.1760  155.9122 C   0  0  0  0  0  0  0  0  0  0  0  0
  150.6420  141.1084  156.3914 C   0  0  2  0  0  0  0  0  0  0  0  0
  151.2663  142.4993  156.5447 C   0  0  0  0  0  0  0  0  0  0  0  0
  151.4119  140.3785  155.4448 O   0  0  0  0  0  0  0  0  0  0  0  0
  150.9269  139.0566  155.2492 C   0  0  2  0  0  0  0  0  0  0  0  0
  151.8444  138.3509  154.2450 C   0  0  0  0  0  0  0  0  0  0  0  0
  149.4676  139.1227  154.7604 C   0  0  0  0  0  0  0  0  0  0  0  0
  143.2526  135.8056  152.6669 N   0  0  0  0  0  0  0  0  0  0  0  0
  143.1998  134.5360  152.0799 O   0  0  0  0  0  0  0  0  0  0  0  0
  145.1693  133.1472  149.7596 H   0  0  0  0  0  0  0  0  0  0  0  0
  143.4165  132.9608  149.8377 H   0  0  0  0  0  0  0  0  0  0  0  0
  144.4313  132.3114  151.1274 H   0  0  0  0  0  0  0  0  0  0  0  0
  145.7802  135.8181  150.5019 H   0  0  0  0  0  0  0  0  0  0  0  0
  144.1371  138.4723  152.0244 H   0  0  0  0  0  0  0  0  0  0  0  0
  145.2375  139.9855  152.6474 H   0  0  0  0  0  0  0  0  0  0  0  0
  147.9679  139.7945  153.1516 H   0  0  0  0  0  0  0  0  0  0  0  0
  147.0222  141.2268  153.4606 H   0  0  0  0  0  0  0  0  0  0  0  0
  146.7151  138.9617  155.4099 H   0  0  0  0  0  0  0  0  0  0  0  0
  145.3345  141.0665  155.5668 H   0  0  0  0  0  0  0  0  0  0  0  0
  146.8069  141.9883  155.8358 H   0  0  0  0  0  0  0  0  0  0  0  0
  146.2483  140.7895  157.0036 H   0  0  0  0  0  0  0  0  0  0  0  0
  149.1215  141.7685  154.9977 H   0  0  0  0  0  0  0  0  0  0  0  0
  148.6227  141.7156  156.6758 H   0  0  0  0  0  0  0  0  0  0  0  0
  150.6868  140.5976  157.3550 H   0  0  0  0  0  0  0  0  0  0  0  0
  150.7195  143.0967  157.2747 H   0  0  0  0  0  0  0  0  0  0  0  0
  151.2622  143.0405  155.5980 H   0  0  0  0  0  0  0  0  0  0  0  0
  152.3003  142.4268  156.8828 H   0  0  0  0  0  0  0  0  0  0  0  0
  150.9703  138.5184  156.1978 H   0  0  0  0  0  0  0  0  0  0  0  0
  151.5192  137.3249  154.0706 H   0  0  0  0  0  0  0  0  0  0  0  0
  152.8701  138.3154  154.6127 H   0  0  0  0  0  0  0  0  0  0  0  0
  151.8521  138.8678  153.2852 H   0  0  0  0  0  0  0  0  0  0  0  0
  149.1278  138.0959  154.6409 H   0  0  0  0  0  0  0  0  0  0  0  0
  149.4326  139.5862  153.7732 H   0  0  0  0  0  0  0  0  0  0  0  0
  1  2  1  0  0  0  0
  1 22  1  0  0  0  0
  1 23  1  0  0  0  0
  1 24  1  0  0  0  0
  2 21  1  0  0  0  0
  2  3  2  0  0  0  0
  3  4  1  0  0  0  0
  3 25  1  0  0  0  0
  4  5  1  0  0  0  0
  4 20  2  0  0  0  0
  5  6  1  0  0  0  0
  5 26  1  0  0  0  0
  6  7  2  0  0  0  0
  6  8  1  0  0  0  0
  8  9  1  0  0  0  0
  8 27  1  0  0  0  0
  9 10  1  0  0  0  0
  9 28  1  0  0  0  0
  9 29  1  0  0  0  0
 10 11  1  0  0  0  0
 10 12  1  0  0  0  0
 10 30  1  0  0  0  0
 11 31  1  0  0  0  0
 11 32  1  0  0  0  0
 11 33  1  0  0  0  0
 12 19  1  0  0  0  0
 12 13  1  0  0  0  0
 13 14  1  0  0  0  0
 13 34  1  0  0  0  0
 13 35  1  0  0  0  0
 14 15  1  0  0  0  0
 14 16  1  0  0  0  0
 14 36  1  0  0  0  0
 15 37  1  0  0  0  0
 15 38  1  0  0  0  0
 15 39  1  0  0  0  0
 16 17  1  0  0  0  0
 17 18  1  0  0  0  0
 17 19  1  0  0  0  0
 17 40  1  0  0  0  0
 18 41  1  0  0  0  0
 18 42  1  0  0  0  0
 18 43  1  0  0  0  0
 19 44  1  0  0  0  0
 19 45  1  0  0  0  0
 20 21  1  0  0  0  0
M  END
> <s_m_source_file>
AV-unprocessed.smi

> <i_m_source_file_index>
2061

> <i_lp_mmshare_version>
43012

> <i_f3d_flags>
0

> <s_epik_input>
W0NIM11jMVtjSF1jKG5vMSlbTkhdQyg9TylbTkhdW0NIMl1bQ0BIXShbQ0gzXSlOMltDSDJdW0NAQEhdKFtDSDNdKU9bQ0BASF0oW0NIM10pW0NIMl0y

> <s_epik_cmdline>
J2VwaWtfcHl0aG9uJywgJy1waCcsICc3LjAnLCAnLXRuJywgJzgnLCAnLW1hJywgJzIwMCcsICctbWV0YWxfYmluZGluZycsICctaW1hZScsICc8aW5maWxlLm1hZT4nLCAnLW9tYWUnLCAnPG91dGZpbGUubWFlPic=

> <r_epik_Ionization_Penalty>
0.214073

> <r_epik_Ionization_Penalty_Charging>
0

> <r_epik_Ionization_Penalty_Neutral>
0.214073

> <r_epik_State_Penalty>
0.204211

> <r_epik_Charging_Adjusted_Penalty>
0.204211

> <i_epik_Tot_Q>
0

> <i_epik_Tot_abs_Q>
0

> <r_epik_Metal_State_Penalty>
0.217067

> <b_epik_Metal_Only>
0

> <s_lp_Force_Field>
OPLS_2005

> <r_lp_Energy>
26.137

> <b_lp_Chiralities_Consistent>
1

> <s_lp_Variant>
AV-unprocessed.smi:2061-1

> <Gold.Version>
5.8.1

> <Gold.Id.Protein>
6NUR|6NUR_protein|mol2

> <Gold.PLP.Fitness>
35.2377

> <Gold.PLP.PLP>
-29.9685

> <Gold.PLP.part.hbond>
-4.0000

> <Gold.PLP.part.metal>
0.0000

> <Gold.PLP.part.buried>
-7.1447

> <Gold.PLP.part.nonpolar>
-20.6190

> <Gold.PLP.part.repulsive>
1.2817

> <Gold.PLP.ligand.clash>
0.0000

> <Gold.PLP.ligand.torsion>
1.4871

> <Gold.PLP.Chemscore.Hbond>
2.7369

> <Gold.PLP.Chemscore.CHOScore>
0.0000

> <Gold.PLP.Chemscore.Metal>
0.0000

> <Gold.Chemscore.Hbonds>
donor molecule, donor type, donor heavy atom, donor atom, acceptor molecule, acceptor atom, score
      L1  H     5    26       P1 10175  0.76
      L1  H     8    27       P1 10175  1.00
      P1  H  7989  7998       L1    16  0.82

> <Gold.PLP.Chemscore.Internal.Correction>
0.0328

> <Gold.Rescore>
     Score         DG    S(hbond)    S(metal)    S(lipo)     H(rot)  DE(clash)    DE(int)     intcor
     15.11     -17.35       2.23        0.00      71.51       1.55       0.83       1.41       ----

> <Gold.Chemscore.Fitness>
15.1064

> <Gold.Chemscore.DG>
-17.3498

> <Gold.Chemscore.ZeroCoef>
-5.4800

> <Gold.Chemscore.Hbond>
2.2347

> <Gold.Chemscore.Metal>
0.0000

> <Gold.Chemscore.Lipo>
71.5138

> <Gold.Chemscore.Internal_Hbond>
0.0000

> <Gold.Chemscore.DEClash>
0.8294

> <Gold.Chemscore.DEInternal>
1.4140

> <Gold.Chemscore.Rot>
1.5474

> <Gold.Chemscore.Internal.Correction>
   9.000000E+99

> <Gold.Chemscore.Hbonds>
donor molecule, donor type, donor heavy atom, donor atom, acceptor molecule, acceptor atom, score
      L1  H     5    26       P1 10175  0.72
      L1  H     8    27       P1 10175  0.97
      P1  H  7989  7998       L1    16  0.15

> <Gold.Chemscore.Hbond.Weighted>
-7.4639

> <Gold.Chemscore.Metal.Weighted>
-0.0000

> <Gold.Chemscore.Lipo.Weighted>
-8.3671

> <Gold.Chemscore.Internal_Hbond.Weighted>
0.0000

> <Gold.Chemscore.DEClash.Weighted>
0.8294

> <Gold.Chemscore.DEInternal.Weighted>
1.4140

> <Gold.Chemscore.Rot.Weighted>
3.9612

> <Gold.Chemscore.Internal.Correction.Weighted>
   9.000000E+99

> <Gold.Protein.RotatedTorsions>
[ 6907 6896 6895 6894 ] final  -33.44 input  -60.11 | X-H torsion
[ 7974 7965 7964 7962 ] final   20.33 input  175.53 | X-H torsion
[ 8008 7997 7996 7995 ] final   31.14 input   59.86 | X-H torsion
[ 10167 10162 10161 10158 ] final   18.50 input  -65.29 | X-H torsion
[ 10718 10713 10712 10709 ] final   93.62 input   66.30 | X-H torsion
[ 10763 10752 10751 10750 ] final -131.23 input  -60.55 | X-H torsion
[ 11005 11000 10999 10996 ] final  132.17 input  -57.11 | X-H torsion

> <Gold.Protein.ActiveResidues>
 VAL166  LYS551  ARG553  GLY616  TRP617  ASP618  TYR619  PRO620  LYS621  CYS622 
 ASP623  PHE694  ASN695  SER759  ASP760  ASP761  ALA762  ILE779  LEU786  VAL792 
 PHE793  MET794  SER795  GLU796  ALA797  LYS798  CYS799  TRP800  GLU811  SER814 

> <Gold.Protein.RotatedAtoms>
  151.0655  134.9765  159.8282 H   0  0  0  0  0  0  0  0  0  0  0  0  # atno 6907 bound_to 6896
  152.5401  134.2364  159.8855 H   0  0  0  0  0  0  0  0  0  0  0  0  # atno 6908 bound_to 6896
  151.2386  133.4368  159.2640 H   0  0  0  0  0  0  0  0  0  0  0  0  # atno 6909 bound_to 6896
  146.2115  139.8185  142.8685 H   0  0  0  0  0  0  0  0  0  0  0  0  # atno 7974 bound_to 7965
  155.1016  140.3230  155.4545 H   0  0  0  0  0  0  0  0  0  0  0  0  # atno 8008 bound_to 7997
  156.2715  140.2060  156.6089 H   0  0  0  0  0  0  0  0  0  0  0  0  # atno 8009 bound_to 7997
  154.6825  140.0525  157.0267 H   0  0  0  0  0  0  0  0  0  0  0  0  # atno 8010 bound_to 7997
  140.5648  143.9270  150.6669 H   0  0  0  0  0  0  0  0  0  0  0  0  # atno 10167 bound_to 10162
  157.6953  131.0484  150.4062 H   0  0  0  0  0  0  0  0  0  0  0  0  # atno 10718 bound_to 10713
  154.8752  135.3837  154.4212 H   0  0  0  0  0  0  0  0  0  0  0  0  # atno 10763 bound_to 10752
  153.4916  135.7030  153.5886 H   0  0  0  0  0  0  0  0  0  0  0  0  # atno 10764 bound_to 10752
  153.4257  135.3890  155.2106 H   0  0  0  0  0  0  0  0  0  0  0  0  # atno 10765 bound_to 10752
  139.9774  134.9559  156.9543 H   0  0  0  0  0  0  0  0  0  0  0  0  # atno 11005 bound_to 11000
  145.3121  141.0222  143.3548 LP  0  0  0  0  0  0  0  0  0  0  0  0  # atno 17320 bound_to 7965
  144.8928  139.4752  143.6670 LP  0  0  0  0  0  0  0  0  0  0  0  0  # atno 17321 bound_to 7965
  140.2730  143.3442  152.1220 LP  0  0  0  0  0  0  0  0  0  0  0  0  # atno 17342 bound_to 10162
  139.5088  144.6856  151.5897 LP  0  0  0  0  0  0  0  0  0  0  0  0  # atno 17343 bound_to 10162
  156.4451  130.3999  149.6672 LP  0  0  0  0  0  0  0  0  0  0  0  0  # atno 17370 bound_to 10713
  156.3842  130.7594  151.2590 LP  0  0  0  0  0  0  0  0  0  0  0  0  # atno 17371 bound_to 10713
  140.5167  134.0948  155.7282 LP  0  0  0  0  0  0  0  0  0  0  0  0  # atno 17394 bound_to 11000
  141.1450  133.9072  157.2238 LP  0  0  0  0  0  0  0  0  0  0  0  0  # atno 17395 bound_to 11000

$$$$
