AV-unprocessed.smi:3083|AV-procd|sdf|11747|dock4
  -GOLD-   2272017143D 1   1.00000     0.00000
 Structure written by MMmdl.
 28 29  0  0  0  0  0  0  0  0  2 V2000
  148.7878  138.4495  153.0768 N   0  3  0  0  0  0  0  0  0  0  0  0
  149.5883  138.7628  154.2749 C   0  0  1  0  0  0  0  0  0  0  0  0
  150.9623  138.0720  154.1898 C   0  0  0  0  0  0  0  0  0  0  0  0
  151.8289  138.3919  155.4176 C   0  0  0  0  0  0  0  0  0  0  0  0
  151.9947  139.9081  155.5999 C   0  0  0  0  0  0  0  0  0  0  0  0
  150.6303  140.6097  155.6858 C   0  0  0  0  0  0  0  0  0  0  0  0
  149.7520  140.2943  154.4573 C   0  0  2  0  0  0  0  0  0  0  0  0
  148.4740  140.9902  154.5529 N   0  0  0  0  0  0  0  0  0  0  0  0
  147.5162  141.1454  153.5719 C   0  0  0  0  0  0  0  0  0  0  0  0
  146.5035  141.8919  154.1022 C   0  0  0  0  0  0  0  0  0  0  0  0
  146.9436  142.1664  155.4266 C   0  0  0  0  0  0  0  0  0  0  0  0
  148.1242  141.6310  155.6914 N   0  0  0  0  0  0  0  0  0  0  0  0
  148.9176  137.4801  152.8256 H   0  0  0  0  0  0  0  0  0  0  0  0
  149.0888  139.0389  152.3134 H   0  0  0  0  0  0  0  0  0  0  0  0
  149.0556  138.3504  155.1332 H   0  0  0  0  0  0  0  0  0  0  0  0
  150.8346  136.9919  154.1054 H   0  0  0  0  0  0  0  0  0  0  0  0
  151.4836  138.3926  153.2864 H   0  0  0  0  0  0  0  0  0  0  0  0
  151.3716  137.9638  156.3105 H   0  0  0  0  0  0  0  0  0  0  0  0
  152.8071  137.9210  155.3149 H   0  0  0  0  0  0  0  0  0  0  0  0
  152.5749  140.1128  156.5004 H   0  0  0  0  0  0  0  0  0  0  0  0
  152.5654  140.3176  154.7654 H   0  0  0  0  0  0  0  0  0  0  0  0
  150.1209  140.2957  156.5983 H   0  0  0  0  0  0  0  0  0  0  0  0
  150.7789  141.6867  155.7723 H   0  0  0  0  0  0  0  0  0  0  0  0
  150.2613  140.6867  153.5751 H   0  0  0  0  0  0  0  0  0  0  0  0
  147.6327  140.7168  152.5872 H   0  0  0  0  0  0  0  0  0  0  0  0
  145.5908  142.2024  153.6152 H   0  0  0  0  0  0  0  0  0  0  0  0
  146.4455  142.7368  156.1970 H   0  0  0  0  0  0  0  0  0  0  0  0
  147.8115  138.6215  153.2691 H   0  0  0  0  0  0  0  0  0  0  0  0
  1  2  1  0  0  0  0
  1 13  1  0  0  0  0
  1 14  1  0  0  0  0
  1 28  1  0  0  0  0
  2  7  1  0  0  0  0
  2  3  1  0  0  0  0
  2 15  1  0  0  0  0
  3  4  1  0  0  0  0
  3 16  1  0  0  0  0
  3 17  1  0  0  0  0
  4  5  1  0  0  0  0
  4 18  1  0  0  0  0
  4 19  1  0  0  0  0
  5  6  1  0  0  0  0
  5 20  1  0  0  0  0
  5 21  1  0  0  0  0
  6  7  1  0  0  0  0
  6 22  1  0  0  0  0
  6 23  1  0  0  0  0
  7  8  1  0  0  0  0
  7 24  1  0  0  0  0
  8 12  1  0  0  0  0
  8  9  1  0  0  0  0
  9 10  2  0  0  0  0
  9 25  1  0  0  0  0
 10 11  1  0  0  0  0
 10 26  1  0  0  0  0
 11 12  2  0  0  0  0
 11 27  1  0  0  0  0
M  CHG  1   1   1
M  END
> <s_m_source_file>
AV-unprocessed.smi

> <i_m_source_file_index>
3083

> <i_lp_mmshare_version>
43012

> <i_f3d_flags>
0

> <s_epik_input>
W05IMl1bQ0BASF0xW0NIMl1bQ0gyXVtDSDJdW0NIMl1bQ0BIXTFuMltjSF1bY0hdW2NIXW4y

> <s_epik_cmdline>
J2VwaWtfcHl0aG9uJywgJy1waCcsICc3LjAnLCAnLXRuJywgJzgnLCAnLW1hJywgJzIwMCcsICctbWV0YWxfYmluZGluZycsICctaW1hZScsICc8aW5maWxlLm1hZT4nLCAnLW9tYWUnLCAnPG91dGZpbGUubWFlPic=

> <r_lp_tautomer_probability>
1

> <r_epik_Ionization_Penalty>
0.00385053

> <r_epik_Ionization_Penalty_Charging>
0.0038389

> <r_epik_Ionization_Penalty_Neutral>
1.16305e-05

> <r_epik_State_Penalty>
-0

> <r_epik_Charging_Adjusted_Penalty>
0.0038389

> <i_epik_Tot_Q>
1

> <i_epik_Tot_abs_Q>
1

> <r_epik_Metal_State_Penalty>
-0

> <b_epik_Metal_Only>
0

> <s_lp_Force_Field>
OPLS_2005

> <r_lp_Energy>
13.574

> <b_lp_Chiralities_Consistent>
1

> <s_lp_Variant>
AV-unprocessed.smi:3083-4

> <Gold.Version>
5.8.1

> <Gold.Id.Protein>
6NUR|6NUR_protein|mol2

> <Gold.PLP.Fitness>
39.9610

> <Gold.PLP.PLP>
-28.2006

> <Gold.PLP.part.hbond>
-1.8023

> <Gold.PLP.part.metal>
0.0000

> <Gold.PLP.part.buried>
-0.6964

> <Gold.PLP.part.nonpolar>
-25.7168

> <Gold.PLP.part.repulsive>
0.1949

> <Gold.PLP.ligand.clash>
0.0000

> <Gold.PLP.ligand.torsion>
0.1340

> <Gold.PLP.Chemscore.Hbond>
3.0000

> <Gold.PLP.Chemscore.CHOScore>
1.0000

> <Gold.PLP.Chemscore.Metal>
0.0000

> <Gold.Chemscore.Hbonds>
donor molecule, donor type, donor heavy atom, donor atom, acceptor molecule, acceptor atom, score
      L1  H     1    13       P1  7948  2.00
      L1  H     1    14       P1  7957  1.00
      L1  C     9    25       P1  7957  1.00

> <Gold.PLP.Chemscore.Internal.Correction>
0.0283

> <Gold.Rescore>
     Score         DG    S(hbond)    S(metal)    S(lipo)     H(rot)  DE(clash)    DE(int)     intcor
     16.27     -16.73       1.98        0.00      61.51       1.00       0.04       0.43       ----

> <Gold.Chemscore.Fitness>
16.2677

> <Gold.Chemscore.DG>
-16.7317

> <Gold.Chemscore.ZeroCoef>
-5.4800

> <Gold.Chemscore.Hbond>
1.9807

> <Gold.Chemscore.Metal>
0.0000

> <Gold.Chemscore.Lipo>
61.5057

> <Gold.Chemscore.Internal_Hbond>
0.0000

> <Gold.Chemscore.DEClash>
0.0358

> <Gold.Chemscore.DEInternal>
0.4283

> <Gold.Chemscore.Rot>
1.0000

> <Gold.Chemscore.Internal.Correction>
   9.000000E+99

> <Gold.Chemscore.Hbonds>
donor molecule, donor type, donor heavy atom, donor atom, acceptor molecule, acceptor atom, score
      L1  H     1    13       P1  7948  0.93
      L1  H     1    14       P1  7957  0.96

> <Gold.Chemscore.Hbond.Weighted>
-6.6156

> <Gold.Chemscore.Metal.Weighted>
-0.0000

> <Gold.Chemscore.Lipo.Weighted>
-7.1962

> <Gold.Chemscore.Internal_Hbond.Weighted>
0.0000

> <Gold.Chemscore.DEClash.Weighted>
0.0358

> <Gold.Chemscore.DEInternal.Weighted>
0.4283

> <Gold.Chemscore.Rot.Weighted>
2.5600

> <Gold.Chemscore.Internal.Correction.Weighted>
   9.000000E+99

> <Gold.Protein.RotatedTorsions>
[ 6907 6896 6895 6894 ] final   75.31 input  -60.11 | X-H torsion
[ 7974 7965 7964 7962 ] final   -9.68 input  175.53 | X-H torsion
[ 8008 7997 7996 7995 ] final   85.96 input   59.86 | X-H torsion
[ 10167 10162 10161 10158 ] final  -62.16 input  -65.29 | X-H torsion
[ 10718 10713 10712 10709 ] final   92.51 input   66.30 | X-H torsion
[ 10763 10752 10751 10750 ] final   94.54 input  -60.55 | X-H torsion
[ 11005 11000 10999 10996 ] final -136.35 input  -57.11 | X-H torsion

> <Gold.Protein.ActiveResidues>
 VAL166  LYS551  ARG553  GLY616  TRP617  ASP618  TYR619  PRO620  LYS621  CYS622 
 ASP623  PHE694  ASN695  SER759  ASP760  ASP761  ALA762  ILE779  LEU786  VAL792 
 PHE793  MET794  SER795  GLU796  ALA797  LYS798  CYS799  TRP800  GLU811  SER814 

> <Gold.Protein.RotatedAtoms>
  152.5020  134.4139  159.9457 H   0  0  0  0  0  0  0  0  0  0  0  0  # atno 6907 bound_to 6896
  151.4108  133.3722  159.2751 H   0  0  0  0  0  0  0  0  0  0  0  0  # atno 6908 bound_to 6896
  150.9293  134.8730  159.7600 H   0  0  0  0  0  0  0  0  0  0  0  0  # atno 6909 bound_to 6896
  146.2244  140.2652  142.8354 H   0  0  0  0  0  0  0  0  0  0  0  0  # atno 7974 bound_to 7965
  155.9566  140.3396  155.6454 H   0  0  0  0  0  0  0  0  0  0  0  0  # atno 8008 bound_to 7997
  155.6851  140.0742  157.2488 H   0  0  0  0  0  0  0  0  0  0  0  0  # atno 8009 bound_to 7997
  154.4133  140.1667  156.2013 H   0  0  0  0  0  0  0  0  0  0  0  0  # atno 8010 bound_to 7997
  140.5957  143.2350  151.6040 H   0  0  0  0  0  0  0  0  0  0  0  0  # atno 10167 bound_to 10162
  157.6958  131.0445  150.3892 H   0  0  0  0  0  0  0  0  0  0  0  0  # atno 10718 bound_to 10713
  153.2429  135.4286  155.0716 H   0  0  0  0  0  0  0  0  0  0  0  0  # atno 10763 bound_to 10752
  154.8348  135.3407  154.6624 H   0  0  0  0  0  0  0  0  0  0  0  0  # atno 10764 bound_to 10752
  153.7047  135.7026  153.5110 H   0  0  0  0  0  0  0  0  0  0  0  0  # atno 10765 bound_to 10752
  140.8813  134.1928  157.4589 H   0  0  0  0  0  0  0  0  0  0  0  0  # atno 11005 bound_to 11000
  144.9309  140.7974  143.5690 LP  0  0  0  0  0  0  0  0  0  0  0  0  # atno 17320 bound_to 7965
  145.2596  139.1998  143.4899 LP  0  0  0  0  0  0  0  0  0  0  0  0  # atno 17321 bound_to 7965
  139.5257  144.3067  152.1027 LP  0  0  0  0  0  0  0  0  0  0  0  0  # atno 17342 bound_to 10162
  140.2239  144.4438  150.6329 LP  0  0  0  0  0  0  0  0  0  0  0  0  # atno 17343 bound_to 10162
  156.4297  130.3969  149.6768 LP  0  0  0  0  0  0  0  0  0  0  0  0  # atno 17370 bound_to 10713
  156.3990  130.7665  151.2672 LP  0  0  0  0  0  0  0  0  0  0  0  0  # atno 17371 bound_to 10713
  139.8720  134.9818  156.5132 LP  0  0  0  0  0  0  0  0  0  0  0  0  # atno 17394 bound_to 11000
  140.8457  133.8170  155.9119 LP  0  0  0  0  0  0  0  0  0  0  0  0  # atno 17395 bound_to 11000

$$$$
