AV-unprocessed.smi:697|AV-procd|sdf|3396|dock3
  -GOLD-   22720 0373D 1   1.00000     0.00000
 Structure written by MMmdl.
 43 44  0  0  0  0  0  0  0  0  2 V2000
  147.6558  142.1745  157.2271 C   0  0  0  0  0  0  0  0  0  0  0  0
  148.0105  140.9132  156.6751 O   0  0  0  0  0  0  0  0  0  0  0  0
  148.1763  140.8665  155.2570 C   0  0  2  0  0  0  0  0  0  0  0  0
  149.4781  141.5776  154.8558 C   0  0  0  0  0  0  0  0  0  0  0  0
  146.8861  141.2501  154.5098 C   0  0  0  0  0  0  0  0  0  0  0  0
  147.1706  140.0658  153.5890 C   0  0  2  0  0  0  0  0  0  0  0  0
  145.9564  139.3712  153.1751 N   0  0  0  0  0  0  0  0  0  0  0  0
  145.8592  138.0446  153.0166 C   0  0  0  0  0  0  0  0  0  0  0  0
  146.8080  137.2779  153.1808 O   0  0  0  0  0  0  0  0  0  0  0  0
  144.6090  137.6976  152.6606 N   0  0  0  0  0  0  0  0  0  0  0  0
  144.0574  136.4240  152.4373 C   0  0  0  0  0  0  0  0  0  0  0  0
  144.6757  135.4086  151.7723 C   0  0  0  0  0  0  0  0  0  0  0  0
  144.0536  134.1037  151.5873 C   0  0  0  0  0  0  0  0  0  0  0  0
  144.6747  132.9834  150.7719 C   0  0  0  0  0  0  0  0  0  0  0  0
  144.7767  131.8652  151.4905 F   0  0  0  0  0  0  0  0  0  0  0  0
  143.9454  132.7214  149.6872 F   0  0  0  0  0  0  0  0  0  0  0  0
  145.8967  133.3354  150.3754 F   0  0  0  0  0  0  0  0  0  0  0  0
  142.7920  134.0402  152.1461 C   0  0  0  0  0  0  0  0  0  0  0  0
  142.1202  134.9854  152.8390 N   0  5  0  0  0  0  0  0  0  0  0  0
  142.7129  136.2009  153.0092 C   0  0  0  0  0  0  0  0  0  0  0  0
  142.1541  137.1081  153.6268 O   0  0  0  0  0  0  0  0  0  0  0  0
  147.9320  139.4025  154.7656 C   0  0  0  0  0  0  0  0  0  0  0  0
  149.1709  138.5865  154.3822 C   0  0  0  0  0  0  0  0  0  0  0  0
  147.1084  138.4994  155.7064 C   0  0  0  0  0  0  0  0  0  0  0  0
  147.4549  142.0535  158.2914 H   0  0  0  0  0  0  0  0  0  0  0  0
  146.7565  142.5843  156.7671 H   0  0  0  0  0  0  0  0  0  0  0  0
  148.4620  142.9011  157.1311 H   0  0  0  0  0  0  0  0  0  0  0  0
  149.7086  141.4380  153.8000 H   0  0  0  0  0  0  0  0  0  0  0  0
  150.3271  141.2025  155.4277 H   0  0  0  0  0  0  0  0  0  0  0  0
  149.4192  142.6538  155.0162 H   0  0  0  0  0  0  0  0  0  0  0  0
  145.9806  141.1334  155.1086 H   0  0  0  0  0  0  0  0  0  0  0  0
  146.9152  142.2220  154.0165 H   0  0  0  0  0  0  0  0  0  0  0  0
  147.8241  140.3457  152.7597 H   0  0  0  0  0  0  0  0  0  0  0  0
  145.1344  139.9351  153.0164 H   0  0  0  0  0  0  0  0  0  0  0  0
  143.9595  138.4570  152.5165 H   0  0  0  0  0  0  0  0  0  0  0  0
  145.6670  135.5286  151.3691 H   0  0  0  0  0  0  0  0  0  0  0  0
  142.2373  133.0870  152.0140 H   0  0  0  0  0  0  0  0  0  0  0  0
  148.8999  137.6033  153.9958 H   0  0  0  0  0  0  0  0  0  0  0  0
  149.8285  138.4341  155.2385 H   0  0  0  0  0  0  0  0  0  0  0  0
  149.7567  139.0749  153.6042 H   0  0  0  0  0  0  0  0  0  0  0  0
  146.8164  137.5689  155.2183 H   0  0  0  0  0  0  0  0  0  0  0  0
  146.1919  138.9815  156.0462 H   0  0  0  0  0  0  0  0  0  0  0  0
  147.6764  138.2298  156.5973 H   0  0  0  0  0  0  0  0  0  0  0  0
  1  2  1  0  0  0  0
  1 25  1  0  0  0  0
  1 26  1  0  0  0  0
  1 27  1  0  0  0  0
  2  3  1  0  0  0  0
  3 22  1  0  0  0  0
  3  4  1  0  0  0  0
  3  5  1  0  0  0  0
  4 28  1  0  0  0  0
  4 29  1  0  0  0  0
  4 30  1  0  0  0  0
  5  6  1  0  0  0  0
  5 31  1  0  0  0  0
  5 32  1  0  0  0  0
  6  7  1  0  0  0  0
  6 22  1  0  0  0  0
  6 33  1  0  0  0  0
  7  8  1  0  0  0  0
  7 34  1  0  0  0  0
  8  9  2  0  0  0  0
  8 10  1  0  0  0  0
 10 11  1  0  0  0  0
 10 35  1  0  0  0  0
 11 20  1  0  0  0  0
 11 12  2  0  0  0  0
 12 13  1  0  0  0  0
 12 36  1  0  0  0  0
 13 14  1  0  0  0  0
 13 18  2  0  0  0  0
 14 15  1  0  0  0  0
 14 16  1  0  0  0  0
 14 17  1  0  0  0  0
 18 19  1  0  0  0  0
 18 37  1  0  0  0  0
 19 20  1  0  0  0  0
 20 21  2  0  0  0  0
 22 23  1  0  0  0  0
 22 24  1  0  0  0  0
 23 38  1  0  0  0  0
 23 39  1  0  0  0  0
 23 40  1  0  0  0  0
 24 41  1  0  0  0  0
 24 42  1  0  0  0  0
 24 43  1  0  0  0  0
M  CHG  1  19  -1
M  END
> <s_m_source_file>
AV-unprocessed.smi

> <i_m_source_file_index>
697

> <i_lp_mmshare_version>
43012

> <i_f3d_flags>
0

> <s_epik_input>
W0NIM11PW0NAQF0xKFtDSDNdKVtDSDJdW0NASF0oQzEoW0NIM10pW0NIM10pW05IXUMoPU8pW05IXWMyW2NIXWMoQyhGKShGKUYpW2NIXVtuSF1jMj1P

> <s_epik_cmdline>
J2VwaWtfcHl0aG9uJywgJy1waCcsICc3LjAnLCAnLXRuJywgJzgnLCAnLW1hJywgJzIwMCcsICctbWV0YWxfYmluZGluZycsICctaW1hZScsICc8aW5maWxlLm1hZT4nLCAnLW9tYWUnLCAnPG91dGZpbGUubWFlPic=

> <r_lp_tautomer_probability>
1

> <r_epik_Ionization_Penalty>
3.20094

> <r_epik_Ionization_Penalty_Charging>
0.180017

> <r_epik_Ionization_Penalty_Neutral>
3.02092

> <r_epik_State_Penalty>
3.01726

> <r_epik_Charging_Adjusted_Penalty>
3.19727

> <i_epik_Tot_Q>
-1

> <i_epik_Tot_abs_Q>
1

> <r_epik_Metal_State_Penalty>
0.455096

> <b_epik_Metal_Only>
1

> <s_lp_Force_Field>
OPLS_2005

> <r_lp_Energy>
36.1222

> <b_lp_Chiralities_Consistent>
1

> <s_lp_Variant>
AV-unprocessed.smi:697-8

> <Gold.Version>
5.8.1

> <Gold.Id.Protein>
6NUR|6NUR_protein|mol2

> <Gold.PLP.Fitness>
38.7017

> <Gold.PLP.PLP>
-34.0237

> <Gold.PLP.part.hbond>
-2.8075

> <Gold.PLP.part.metal>
0.0000

> <Gold.PLP.part.buried>
-5.7504

> <Gold.PLP.part.nonpolar>
-28.9185

> <Gold.PLP.part.repulsive>
2.9229

> <Gold.PLP.ligand.clash>
0.0000

> <Gold.PLP.ligand.torsion>
0.8344

> <Gold.PLP.Chemscore.Hbond>
1.9760

> <Gold.PLP.Chemscore.CHOScore>
0.0000

> <Gold.PLP.Chemscore.Metal>
0.0000

> <Gold.Chemscore.Hbonds>
donor molecule, donor type, donor heavy atom, donor atom, acceptor molecule, acceptor atom, score
      L1  H     7    34       P1 10175  1.00
      L1  H    10    35       P1 10175  0.96

> <Gold.PLP.Chemscore.Internal.Correction>
0.4188

> <Gold.Rescore>
     Score         DG    S(hbond)    S(metal)    S(lipo)     H(rot)  DE(clash)    DE(int)     intcor
      8.90     -15.91       1.88        0.00      63.84       1.30       1.92       5.10       ----

> <Gold.Chemscore.Fitness>
8.9013

> <Gold.Chemscore.DG>
-15.9145

> <Gold.Chemscore.ZeroCoef>
-5.4800

> <Gold.Chemscore.Hbond>
1.8820

> <Gold.Chemscore.Metal>
0.0000

> <Gold.Chemscore.Lipo>
63.8427

> <Gold.Chemscore.Internal_Hbond>
0.0000

> <Gold.Chemscore.DEClash>
1.9161

> <Gold.Chemscore.DEInternal>
5.0970

> <Gold.Chemscore.Rot>
1.2973

> <Gold.Chemscore.Internal.Correction>
   9.000000E+99

> <Gold.Chemscore.Hbonds>
donor molecule, donor type, donor heavy atom, donor atom, acceptor molecule, acceptor atom, score
      L1  H     7    34       P1 10175  1.00
      L1  H    10    35       P1 10175  0.89

> <Gold.Chemscore.Hbond.Weighted>
-6.2859

> <Gold.Chemscore.Metal.Weighted>
-0.0000

> <Gold.Chemscore.Lipo.Weighted>
-7.4696

> <Gold.Chemscore.Internal_Hbond.Weighted>
0.0000

> <Gold.Chemscore.DEClash.Weighted>
1.9161

> <Gold.Chemscore.DEInternal.Weighted>
5.0970

> <Gold.Chemscore.Rot.Weighted>
3.3210

> <Gold.Chemscore.Internal.Correction.Weighted>
   9.000000E+99

> <Gold.Protein.RotatedTorsions>
[ 6907 6896 6895 6894 ] final  113.84 input  -60.11 | X-H torsion
[ 7974 7965 7964 7962 ] final  -93.88 input  175.53 | X-H torsion
[ 8008 7997 7996 7995 ] final  -60.77 input   59.86 | X-H torsion
[ 10167 10162 10161 10158 ] final   53.93 input  -65.29 | X-H torsion
[ 10718 10713 10712 10709 ] final   73.40 input   66.30 | X-H torsion
[ 10763 10752 10751 10750 ] final   16.41 input  -60.55 | X-H torsion
[ 11005 11000 10999 10996 ] final -105.47 input  -57.11 | X-H torsion

> <Gold.Protein.ActiveResidues>
 VAL166  LYS551  ARG553  GLY616  TRP617  ASP618  TYR619  PRO620  LYS621  CYS622 
 ASP623  PHE694  ASN695  SER759  ASP760  ASP761  ALA762  ILE779  LEU786  VAL792 
 PHE793  MET794  SER795  GLU796  ALA797  LYS798  CYS799  TRP800  GLU811  SER814 

> <Gold.Protein.RotatedAtoms>
  152.4837  133.8320  159.7107 H   0  0  0  0  0  0  0  0  0  0  0  0  # atno 6907 bound_to 6896
  150.8907  133.7237  159.2912 H   0  0  0  0  0  0  0  0  0  0  0  0  # atno 6908 bound_to 6896
  151.4711  135.1049  159.9804 H   0  0  0  0  0  0  0  0  0  0  0  0  # atno 6909 bound_to 6896
  145.3807  140.9517  143.2395 H   0  0  0  0  0  0  0  0  0  0  0  0  # atno 7974 bound_to 7965
  154.4415  140.1032  156.6327 H   0  0  0  0  0  0  0  0  0  0  0  0  # atno 8008 bound_to 7997
  155.5588  140.3487  155.4467 H   0  0  0  0  0  0  0  0  0  0  0  0  # atno 8009 bound_to 7997
  156.0475  140.1296  157.0076 H   0  0  0  0  0  0  0  0  0  0  0  0  # atno 8010 bound_to 7997
  140.2355  144.3640  150.6399 H   0  0  0  0  0  0  0  0  0  0  0  0  # atno 10167 bound_to 10162
  157.6546  130.9626  150.1064 H   0  0  0  0  0  0  0  0  0  0  0  0  # atno 10718 bound_to 10713
  153.1433  135.6764  153.8993 H   0  0  0  0  0  0  0  0  0  0  0  0  # atno 10763 bound_to 10752
  153.8442  135.3101  155.3429 H   0  0  0  0  0  0  0  0  0  0  0  0  # atno 10764 bound_to 10752
  154.7805  135.4891  153.9919 H   0  0  0  0  0  0  0  0  0  0  0  0  # atno 10765 bound_to 10752
  141.1052  133.8810  157.1738 H   0  0  0  0  0  0  0  0  0  0  0  0  # atno 11005 bound_to 11000
  144.8510  139.5322  143.6856 LP  0  0  0  0  0  0  0  0  0  0  0  0  # atno 17320 bound_to 7965
  146.2843  139.6962  142.9206 LP  0  0  0  0  0  0  0  0  0  0  0  0  # atno 17321 bound_to 7965
  140.6153  143.2172  151.6804 LP  0  0  0  0  0  0  0  0  0  0  0  0  # atno 17342 bound_to 10162
  139.5095  144.3574  152.0594 LP  0  0  0  0  0  0  0  0  0  0  0  0  # atno 17343 bound_to 10162
  156.1972  130.3658  149.8833 LP  0  0  0  0  0  0  0  0  0  0  0  0  # atno 17370 bound_to 10713
  156.6746  130.8834  151.3567 LP  0  0  0  0  0  0  0  0  0  0  0  0  # atno 17371 bound_to 10713
  139.9919  135.0061  156.9994 LP  0  0  0  0  0  0  0  0  0  0  0  0  # atno 17394 bound_to 11000
  140.4921  134.1182  155.7234 LP  0  0  0  0  0  0  0  0  0  0  0  0  # atno 17395 bound_to 11000

$$$$
