AV-unprocessed.smi:2415|AV-procd|sdf|9542|dock4
  -GOLD-   2272013173D 1   1.00000     0.00000
 Structure written by MMmdl.
 33 34  0  0  0  0  0  0  0  0  1 V2000
  151.9422  144.1678  159.3835 C   0  0  0  0  0  0  0  0  0  0  0  0
  152.3942  142.7528  159.0931 C   0  0  0  0  0  0  0  0  0  0  0  0
  153.3829  142.1190  159.8737 C   0  0  0  0  0  0  0  0  0  0  0  0
  153.7136  140.8000  159.5016 C   0  0  0  0  0  0  0  0  0  0  0  0
  154.7567  140.0026  160.2545 C   0  0  0  0  0  0  0  0  0  0  0  0
  153.1161  140.1835  158.4590 N   0  0  0  0  0  0  0  0  0  0  0  0
  152.1986  140.8820  157.7758 C   0  0  0  0  0  0  0  0  0  0  0  0
  151.5651  140.2585  156.7019 N   0  0  0  0  0  0  0  0  0  0  0  0
  152.4806  139.6630  155.7288 C   0  0  0  0  0  0  0  0  0  0  0  0
  151.7450  138.7000  154.7880 C   0  0  0  0  0  0  0  0  0  0  0  0
  150.6854  139.3977  154.1515 O   0  0  0  0  0  0  0  0  0  0  0  0
  149.7232  139.8437  155.0973 C   0  0  0  0  0  0  0  0  0  0  0  0
  150.3540  140.8415  156.0982 C   0  0  1  0  0  0  0  0  0  0  0  0
  149.2590  141.2491  157.1026 C   0  0  0  0  0  0  0  0  0  0  0  0
  148.8543  142.5215  157.0759 N   0  0  0  0  0  0  0  0  0  0  0  0
  148.7769  140.4267  157.8800 O   0  0  0  0  0  0  0  0  0  0  0  0
  151.8038  142.1308  158.0493 N   0  0  0  0  0  0  0  0  0  0  0  0
  152.3882  144.5417  160.3054 H   0  0  0  0  0  0  0  0  0  0  0  0
  150.8578  144.2070  159.4896 H   0  0  0  0  0  0  0  0  0  0  0  0
  152.2333  144.8318  158.5692 H   0  0  0  0  0  0  0  0  0  0  0  0
  153.8583  142.6142  160.7077 H   0  0  0  0  0  0  0  0  0  0  0  0
  155.3249  140.6407  160.9317 H   0  0  0  0  0  0  0  0  0  0  0  0
  155.4560  139.5363  159.5596 H   0  0  0  0  0  0  0  0  0  0  0  0
  154.2795  139.2179  160.8419 H   0  0  0  0  0  0  0  0  0  0  0  0
  152.9496  140.4614  155.1518 H   0  0  0  0  0  0  0  0  0  0  0  0
  153.2856  139.1233  156.2291 H   0  0  0  0  0  0  0  0  0  0  0  0
  152.4285  138.3225  154.0274 H   0  0  0  0  0  0  0  0  0  0  0  0
  151.3616  137.8347  155.3313 H   0  0  0  0  0  0  0  0  0  0  0  0
  148.9070  140.3187  154.5514 H   0  0  0  0  0  0  0  0  0  0  0  0
  149.2945  138.9816  155.6128 H   0  0  0  0  0  0  0  0  0  0  0  0
  150.6650  141.7298  155.5447 H   0  0  0  0  0  0  0  0  0  0  0  0
  148.1336  142.8345  157.7098 H   0  0  0  0  0  0  0  0  0  0  0  0
  149.2667  143.1640  156.4152 H   0  0  0  0  0  0  0  0  0  0  0  0
  1  2  1  0  0  0  0
  1 18  1  0  0  0  0
  1 19  1  0  0  0  0
  1 20  1  0  0  0  0
  2 17  1  0  0  0  0
  2  3  2  0  0  0  0
  3  4  1  0  0  0  0
  3 21  1  0  0  0  0
  4  5  1  0  0  0  0
  4  6  2  0  0  0  0
  5 22  1  0  0  0  0
  5 23  1  0  0  0  0
  5 24  1  0  0  0  0
  6  7  1  0  0  0  0
  7  8  1  0  0  0  0
  7 17  2  0  0  0  0
  8 13  1  0  0  0  0
  8  9  1  0  0  0  0
  9 10  1  0  0  0  0
  9 25  1  0  0  0  0
  9 26  1  0  0  0  0
 10 11  1  0  0  0  0
 10 27  1  0  0  0  0
 10 28  1  0  0  0  0
 11 12  1  0  0  0  0
 12 13  1  0  0  0  0
 12 29  1  0  0  0  0
 12 30  1  0  0  0  0
 13 14  1  0  0  0  0
 13 31  1  0  0  0  0
 14 15  1  0  0  0  0
 14 16  2  0  0  0  0
 15 32  1  0  0  0  0
 15 33  1  0  0  0  0
M  END
> <s_m_source_file>
AV-unprocessed.smi

> <i_m_source_file_index>
2415

> <i_lp_mmshare_version>
43012

> <i_f3d_flags>
0

> <s_epik_input>
W0NIM11jMVtjSF1jKFtDSDNdKW5jKG4xKU4yW0NIMl1bQ0gyXU9bQ0gyXVtDQEhdMkMoPU8pW05IMl0=

> <s_epik_cmdline>
J2VwaWtfcHl0aG9uJywgJy1waCcsICc3LjAnLCAnLXRuJywgJzgnLCAnLW1hJywgJzIwMCcsICctbWV0YWxfYmluZGluZycsICctaW1hZScsICc8aW5maWxlLm1hZT4nLCAnLW9tYWUnLCAnPG91dGZpbGUubWFlPic=

> <r_lp_tautomer_probability>
1

> <r_epik_Ionization_Penalty>
2.01639e-05

> <r_epik_Ionization_Penalty_Charging>
0

> <r_epik_Ionization_Penalty_Neutral>
2.01639e-05

> <r_epik_State_Penalty>
-0

> <r_epik_Charging_Adjusted_Penalty>
0

> <i_epik_Tot_Q>
0

> <i_epik_Tot_abs_Q>
0

> <r_epik_Metal_State_Penalty>
-0

> <b_epik_Metal_Only>
0

> <s_lp_Force_Field>
OPLS_2005

> <r_lp_Energy>
9.24332

> <b_lp_Chiralities_Consistent>
1

> <s_lp_Variant>
AV-unprocessed.smi:2415-1

> <Gold.Version>
5.8.1

> <Gold.Id.Protein>
6NUR|6NUR_protein|mol2

> <Gold.PLP.Fitness>
39.3607

> <Gold.PLP.PLP>
-31.2840

> <Gold.PLP.part.hbond>
-3.0000

> <Gold.PLP.part.metal>
0.0000

> <Gold.PLP.part.buried>
-1.5700

> <Gold.PLP.part.nonpolar>
-25.4633

> <Gold.PLP.part.repulsive>
0.2212

> <Gold.PLP.ligand.clash>
0.0000

> <Gold.PLP.ligand.torsion>
0.2607

> <Gold.PLP.Chemscore.Hbond>
2.7197

> <Gold.PLP.Chemscore.CHOScore>
0.0000

> <Gold.PLP.Chemscore.Metal>
0.0000

> <Gold.Chemscore.Hbonds>
donor molecule, donor type, donor heavy atom, donor atom, acceptor molecule, acceptor atom, score
      L1  H    15    33       P1  8028  0.77
      P1  H  7989  7998       L1    11  1.00
      P1  H  7997  8009       L1     6  0.92

> <Gold.PLP.Chemscore.Internal.Correction>
0.4389

> <Gold.Rescore>
     Score         DG    S(hbond)    S(metal)    S(lipo)     H(rot)  DE(clash)    DE(int)     intcor
     13.17     -15.09       1.22        0.00      78.94       1.44       0.32       1.59       ----

> <Gold.Chemscore.Fitness>
13.1729

> <Gold.Chemscore.DG>
-15.0869

> <Gold.Chemscore.ZeroCoef>
-5.4800

> <Gold.Chemscore.Hbond>
1.2163

> <Gold.Chemscore.Metal>
0.0000

> <Gold.Chemscore.Lipo>
78.9375

> <Gold.Chemscore.Internal_Hbond>
0.0000

> <Gold.Chemscore.DEClash>
0.3244

> <Gold.Chemscore.DEInternal>
1.5896

> <Gold.Chemscore.Rot>
1.4419

> <Gold.Chemscore.Internal.Correction>
   9.000000E+99

> <Gold.Chemscore.Hbonds>
donor molecule, donor type, donor heavy atom, donor atom, acceptor molecule, acceptor atom, score
      L1  H    15    33       P1  8028  0.76
      P1  H  7989  7998       L1    11  0.19
      P1  H  7997  8009       L1     6  0.10

> <Gold.Chemscore.Hbond.Weighted>
-4.0624

> <Gold.Chemscore.Metal.Weighted>
-0.0000

> <Gold.Chemscore.Lipo.Weighted>
-9.2357

> <Gold.Chemscore.Internal_Hbond.Weighted>
0.0000

> <Gold.Chemscore.DEClash.Weighted>
0.3244

> <Gold.Chemscore.DEInternal.Weighted>
1.5896

> <Gold.Chemscore.Rot.Weighted>
3.6912

> <Gold.Chemscore.Internal.Correction.Weighted>
   9.000000E+99

> <Gold.Protein.RotatedTorsions>
[ 6907 6896 6895 6894 ] final -129.10 input  -60.11 | X-H torsion
[ 7974 7965 7964 7962 ] final  -40.05 input  175.53 | X-H torsion
[ 8008 7997 7996 7995 ] final  150.90 input   59.86 | X-H torsion
[ 10167 10162 10161 10158 ] final -173.19 input  -65.29 | X-H torsion
[ 10718 10713 10712 10709 ] final -169.07 input   66.30 | X-H torsion
[ 10763 10752 10751 10750 ] final   45.81 input  -60.55 | X-H torsion
[ 11005 11000 10999 10996 ] final -100.76 input  -57.11 | X-H torsion

> <Gold.Protein.ActiveResidues>
 VAL166  LYS551  ARG553  GLY616  TRP617  ASP618  TYR619  PRO620  LYS621  CYS622 
 ASP623  PHE694  ASN695  SER759  ASP760  ASP761  ALA762  ILE779  LEU786  VAL792 
 PHE793  MET794  SER795  GLU796  ALA797  LYS798  CYS799  TRP800  GLU811  SER814 

> <Gold.Protein.RotatedAtoms>
  150.9251  133.6834  159.2823 H   0  0  0  0  0  0  0  0  0  0  0  0  # atno 6907 bound_to 6896
  151.4275  135.1004  159.9642 H   0  0  0  0  0  0  0  0  0  0  0  0  # atno 6908 bound_to 6896
  152.4999  133.8689  159.7343 H   0  0  0  0  0  0  0  0  0  0  0  0  # atno 6909 bound_to 6896
  146.0340  140.6694  142.9119 H   0  0  0  0  0  0  0  0  0  0  0  0  # atno 7974 bound_to 7965
  156.2696  140.2062  156.6091 H   0  0  0  0  0  0  0  0  0  0  0  0  # atno 8008 bound_to 7997
  154.6845  140.0536  157.0324 H   0  0  0  0  0  0  0  0  0  0  0  0  # atno 8009 bound_to 7997
  155.0953  140.3200  155.4565 H   0  0  0  0  0  0  0  0  0  0  0  0  # atno 8010 bound_to 7997
  139.5702  144.1659  152.1373 H   0  0  0  0  0  0  0  0  0  0  0  0  # atno 10167 bound_to 10162
  156.7061  130.9215  151.3085 H   0  0  0  0  0  0  0  0  0  0  0  0  # atno 10718 bound_to 10713
  152.9819  135.6028  154.3497 H   0  0  0  0  0  0  0  0  0  0  0  0  # atno 10763 bound_to 10752
  154.3187  135.2770  155.2532 H   0  0  0  0  0  0  0  0  0  0  0  0  # atno 10764 bound_to 10752
  154.4708  135.5942  153.6376 H   0  0  0  0  0  0  0  0  0  0  0  0  # atno 10765 bound_to 10752
  141.1258  133.8424  157.1144 H   0  0  0  0  0  0  0  0  0  0  0  0  # atno 11005 bound_to 11000
  144.7043  140.3788  143.7130 LP  0  0  0  0  0  0  0  0  0  0  0  0  # atno 17320 bound_to 7965
  145.6993  139.1657  143.2602 LP  0  0  0  0  0  0  0  0  0  0  0  0  # atno 17321 bound_to 7965
  140.1191  144.5389  150.6875 LP  0  0  0  0  0  0  0  0  0  0  0  0  # atno 17342 bound_to 10162
  140.6986  143.2420  151.4928 LP  0  0  0  0  0  0  0  0  0  0  0  0  # atno 17343 bound_to 10162
  157.6954  130.9276  150.0630 LP  0  0  0  0  0  0  0  0  0  0  0  0  # atno 17370 bound_to 10713
  156.1694  130.3646  149.9186 LP  0  0  0  0  0  0  0  0  0  0  0  0  # atno 17371 bound_to 10713
  140.0255  134.9926  157.0678 LP  0  0  0  0  0  0  0  0  0  0  0  0  # atno 17394 bound_to 11000
  140.4369  134.1722  155.7171 LP  0  0  0  0  0  0  0  0  0  0  0  0  # atno 17395 bound_to 11000

$$$$
