AV-unprocessed.smi:16|AV-procd|sdf|88|dock5
  -GOLD-   2262015223D 1   1.00000     0.00000
 Structure written by MMmdl.
 60 64  0  0  0  0  0  0  0  0  2 V2000
  146.8258  138.5363  153.0354 C   0  0  0  0  0  0  0  0  0  0  0  0
  146.6451  137.2068  153.7831 C   0  0  0  0  0  0  0  0  0  0  0  0
  146.2193  136.1058  152.8829 N   0  3  2  0  0  0  0  0  0  0  0  0
  145.2274  136.5509  151.8702 C   0  0  0  0  0  0  0  0  0  0  0  0
  144.9348  135.4326  150.8575 C   0  0  0  0  0  0  0  0  0  0  0  0
  144.4665  134.1451  151.5691 C   0  0  1  0  0  0  0  0  0  0  0  0
  144.2201  133.0677  150.6630 O   0  0  0  0  0  0  0  0  0  0  0  0
  145.3876  132.5174  150.0552 C   0  0  0  0  0  0  0  0  0  0  0  0
  146.3851  132.0675  151.1329 C   0  0  0  0  0  0  0  0  0  0  0  0
  146.6746  133.1682  152.0437 N   0  0  0  0  0  0  0  0  0  0  0  0
  147.6924  132.8887  152.8860 C   0  0  0  0  0  0  0  0  0  0  0  0
  148.4959  133.8834  153.3444 N   0  0  0  0  0  0  0  0  0  0  0  0
  149.5223  133.5888  154.1490 C   0  0  0  0  0  0  0  0  0  0  0  0
  149.9183  132.3932  154.5938 N   0  0  0  0  0  0  0  0  0  0  0  0
  149.1114  131.3963  154.1283 C   0  0  0  0  0  0  0  0  0  0  0  0
  147.9793  131.5590  153.2842 C   0  0  0  0  0  0  0  0  0  0  0  0
  147.3924  130.3287  153.0218 N   0  0  0  0  0  0  0  0  0  0  0  0
  148.1333  129.4821  153.6845 C   0  0  0  0  0  0  0  0  0  0  0  0
  149.2091  130.0332  154.3453 N   0  0  0  0  0  0  0  0  0  0  0  0
  150.1623  129.3389  155.1595 C   0  0  0  0  0  0  0  0  0  0  0  0
  151.5863  129.0804  154.6621 C   0  0  0  0  0  0  0  0  0  0  0  0
  151.6122  127.7505  155.4497 C   0  0  0  0  0  0  0  0  0  0  0  0
  152.2486  126.5573  154.7186 C   0  0  0  0  0  0  0  0  0  0  0  0
  151.5117  126.2186  153.5616 O   0  0  0  0  0  0  0  0  0  0  0  0
  152.1941  127.8398  156.8750 C   0  0  0  0  0  0  0  0  0  0  0  0
  153.5900  128.0592  156.8511 O   0  0  0  0  0  0  0  0  0  0  0  0
  150.0720  127.8250  155.3634 C   0  0  0  0  0  0  0  0  0  0  0  0
  145.4659  133.7163  152.6669 C   0  0  1  0  0  0  0  0  0  0  0  0
  145.7321  134.9094  153.6195 C   0  0  0  0  0  0  0  0  0  0  0  0
  143.5112  134.3637  152.0477 H   0  0  0  0  0  0  0  0  0  0  0  0
  145.0082  132.9143  153.2482 H   0  0  0  0  0  0  0  0  0  0  0  0
  147.1162  139.3275  153.7267 H   0  0  0  0  0  0  0  0  0  0  0  0
  145.8965  138.8463  152.5582 H   0  0  0  0  0  0  0  0  0  0  0  0
  147.5952  138.4789  152.2659 H   0  0  0  0  0  0  0  0  0  0  0  0
  147.5618  136.9296  154.3057 H   0  0  0  0  0  0  0  0  0  0  0  0
  145.8884  137.3619  154.5532 H   0  0  0  0  0  0  0  0  0  0  0  0
  144.3078  136.8620  152.3685 H   0  0  0  0  0  0  0  0  0  0  0  0
  145.6098  137.4215  151.3360 H   0  0  0  0  0  0  0  0  0  0  0  0
  144.1760  135.7617  150.1474 H   0  0  0  0  0  0  0  0  0  0  0  0
  145.8404  135.2534  150.2786 H   0  0  0  0  0  0  0  0  0  0  0  0
  145.0928  131.6649  149.4434 H   0  0  0  0  0  0  0  0  0  0  0  0
  145.8459  133.2362  149.3764 H   0  0  0  0  0  0  0  0  0  0  0  0
  145.9698  131.2278  151.6926 H   0  0  0  0  0  0  0  0  0  0  0  0
  147.3054  131.7171  150.6631 H   0  0  0  0  0  0  0  0  0  0  0  0
  150.1149  134.4295  154.4789 H   0  0  0  0  0  0  0  0  0  0  0  0
  147.9212  128.4228  153.6975 H   0  0  0  0  0  0  0  0  0  0  0  0
  150.1767  129.8592  156.1186 H   0  0  0  0  0  0  0  0  0  0  0  0
  151.6288  128.9384  153.5806 H   0  0  0  0  0  0  0  0  0  0  0  0
  152.3147  129.8255  154.9836 H   0  0  0  0  0  0  0  0  0  0  0  0
  153.2668  126.7923  154.4069 H   0  0  0  0  0  0  0  0  0  0  0  0
  152.3220  125.6809  155.3629 H   0  0  0  0  0  0  0  0  0  0  0  0
  151.9660  126.5583  152.8059 H   0  0  0  0  0  0  0  0  0  0  0  0
  151.7404  128.6568  157.4360 H   0  0  0  0  0  0  0  0  0  0  0  0
  151.9917  126.9335  157.4461 H   0  0  0  0  0  0  0  0  0  0  0  0
  153.7514  128.9300  156.5214 H   0  0  0  0  0  0  0  0  0  0  0  0
  149.5467  127.5208  156.2693 H   0  0  0  0  0  0  0  0  0  0  0  0
  149.6725  127.3082  154.4884 H   0  0  0  0  0  0  0  0  0  0  0  0
  146.4329  134.6249  154.4033 H   0  0  0  0  0  0  0  0  0  0  0  0
  144.8073  135.1701  154.1368 H   0  0  0  0  0  0  0  0  0  0  0  0
  147.0419  135.8242  152.3681 H   0  0  0  0  0  0  0  0  0  0  0  0
  1  2  1  0  0  0  0
  1 32  1  0  0  0  0
  1 33  1  0  0  0  0
  1 34  1  0  0  0  0
  2  3  1  0  0  0  0
  2 35  1  0  0  0  0
  2 36  1  0  0  0  0
  3 29  1  0  0  0  0
  3  4  1  0  0  0  0
  3 60  1  0  0  0  0
  4  5  1  0  0  0  0
  4 37  1  0  0  0  0
  4 38  1  0  0  0  0
  5  6  1  0  0  0  0
  5 39  1  0  0  0  0
  5 40  1  0  0  0  0
  6 30  1  0  0  0  0
  6 28  1  0  0  0  0
  6  7  1  0  0  0  0
  7  8  1  0  0  0  0
  8  9  1  0  0  0  0
  8 41  1  0  0  0  0
  8 42  1  0  0  0  0
  9 10  1  0  0  0  0
  9 43  1  0  0  0  0
  9 44  1  0  0  0  0
 10 11  1  0  0  0  0
 10 28  1  0  0  0  0
 11 16  1  0  0  0  0
 11 12  2  0  0  0  0
 12 13  1  0  0  0  0
 13 14  2  0  0  0  0
 13 45  1  0  0  0  0
 14 15  1  0  0  0  0
 15 19  1  0  0  0  0
 15 16  2  0  0  0  0
 16 17  1  0  0  0  0
 17 18  2  0  0  0  0
 18 19  1  0  0  0  0
 18 46  1  0  0  0  0
 19 20  1  0  0  0  0
 20 27  1  0  0  0  0
 20 21  1  0  0  0  0
 20 47  1  0  0  0  0
 21 22  1  0  0  0  0
 21 48  1  0  0  0  0
 21 49  1  0  0  0  0
 22 23  1  0  0  0  0
 22 25  1  0  0  0  0
 22 27  1  0  0  0  0
 23 24  1  0  0  0  0
 23 50  1  0  0  0  0
 23 51  1  0  0  0  0
 24 52  1  0  0  0  0
 25 26  1  0  0  0  0
 25 53  1  0  0  0  0
 25 54  1  0  0  0  0
 26 55  1  0  0  0  0
 27 56  1  0  0  0  0
 27 57  1  0  0  0  0
 28 31  1  0  0  0  0
 28 29  1  0  0  0  0
 29 58  1  0  0  0  0
 29 59  1  0  0  0  0
M  CHG  1   3   1
M  END
> <s_m_source_file>
AV-unprocessed.smi

> <i_m_source_file_index>
16

> <i_lp_mmshare_version>
43012

> <i_f3d_flags>
0

> <s_epik_input>
W0NIM11bQ0gyXU4oW0NIMl1bQ0gyXTEpW0NIMl1bQ0BASF0oW0NAQEhdMTIpTihbQ0gyXVtDSDJdTzIpYyhuW2NIXW4zKWMoYzM0KW5bY0hdbjRbQ0hdKFtDSDJdNSlbQ0gyXUM1KFtDSDJdW09IXSlbQ0gyXVtPSF0=

> <s_epik_cmdline>
J2VwaWtfcHl0aG9uJywgJy1waCcsICc3LjAnLCAnLXRuJywgJzgnLCAnLW1hJywgJzIwMCcsICctbWV0YWxfYmluZGluZycsICctaW1hZScsICc8aW5maWxlLm1hZT4nLCAnLW9tYWUnLCAnPG91dGZpbGUubWFlPic=

> <r_lp_tautomer_probability>
1

> <r_epik_Ionization_Penalty>
0.0135603

> <r_epik_Ionization_Penalty_Charging>
0.0131385

> <r_epik_Ionization_Penalty_Neutral>
0.000421734

> <r_epik_State_Penalty>
0.0102091

> <r_epik_Charging_Adjusted_Penalty>
0.0233476

> <i_epik_Tot_Q>
1

> <i_epik_Tot_abs_Q>
1

> <r_epik_Metal_State_Penalty>
0.0103746

> <b_epik_Metal_Only>
0

> <s_lp_Force_Field>
OPLS_2005

> <r_lp_Energy>
60.5416

> <b_lp_Chiralities_Consistent>
1

> <s_lp_Variant>
AV-unprocessed.smi:16-2

> <Gold.Version>
5.8.1

> <Gold.Id.Protein>
6NUR|6NUR_protein|mol2

> <Gold.PLP.Fitness>
40.5049

> <Gold.PLP.PLP>
-34.3553

> <Gold.PLP.part.hbond>
-1.6079

> <Gold.PLP.part.metal>
0.0000

> <Gold.PLP.part.buried>
-2.4682

> <Gold.PLP.part.nonpolar>
-32.5734

> <Gold.PLP.part.repulsive>
2.8887

> <Gold.PLP.ligand.clash>
0.8883

> <Gold.PLP.ligand.torsion>
1.2643

> <Gold.PLP.Chemscore.Hbond>
2.9600

> <Gold.PLP.Chemscore.CHOScore>
0.0000

> <Gold.PLP.Chemscore.Metal>
0.0000

> <Gold.Chemscore.Hbonds>
donor molecule, donor type, donor heavy atom, donor atom, acceptor molecule, acceptor atom, score
      L1  H     3    60       P1  7948  1.95
      L1  H    24    52       P1 10737  0.96

> <Gold.PLP.Chemscore.Internal.Correction>
0.6867

> <Gold.Rescore>
     Score         DG    S(hbond)    S(metal)    S(lipo)     H(rot)  DE(clash)    DE(int)     intcor
      6.53     -11.87       1.91        0.00      72.75       3.33       1.51       3.82       ----

> <Gold.Chemscore.Fitness>
6.5302

> <Gold.Chemscore.DG>
-11.8674

> <Gold.Chemscore.ZeroCoef>
-5.4800

> <Gold.Chemscore.Hbond>
1.9125

> <Gold.Chemscore.Metal>
0.0000

> <Gold.Chemscore.Lipo>
72.7510

> <Gold.Chemscore.Internal_Hbond>
0.0000

> <Gold.Chemscore.DEClash>
1.5123

> <Gold.Chemscore.DEInternal>
3.8249

> <Gold.Chemscore.Rot>
3.3251

> <Gold.Chemscore.Internal.Correction>
   9.000000E+99

> <Gold.Chemscore.Hbonds>
donor molecule, donor type, donor heavy atom, donor atom, acceptor molecule, acceptor atom, score
      L1  H     3    60       P1  7948  0.90
      L1  H    24    52       P1 10737  0.89

> <Gold.Chemscore.Hbond.Weighted>
-6.3877

> <Gold.Chemscore.Metal.Weighted>
-0.0000

> <Gold.Chemscore.Lipo.Weighted>
-8.5119

> <Gold.Chemscore.Internal_Hbond.Weighted>
0.0000

> <Gold.Chemscore.DEClash.Weighted>
1.5123

> <Gold.Chemscore.DEInternal.Weighted>
3.8249

> <Gold.Chemscore.Rot.Weighted>
8.5122

> <Gold.Chemscore.Internal.Correction.Weighted>
   9.000000E+99

> <Gold.Protein.RotatedTorsions>
[ 6907 6896 6895 6894 ] final  -71.13 input  -60.11 | X-H torsion
[ 7974 7965 7964 7962 ] final  159.09 input  175.53 | X-H torsion
[ 8008 7997 7996 7995 ] final -179.75 input   59.86 | X-H torsion
[ 10167 10162 10161 10158 ] final -137.08 input  -65.29 | X-H torsion
[ 10718 10713 10712 10709 ] final -177.68 input   66.30 | X-H torsion
[ 10763 10752 10751 10750 ] final   -7.77 input  -60.55 | X-H torsion
[ 11005 11000 10999 10996 ] final  152.40 input  -57.11 | X-H torsion

> <Gold.Protein.ActiveResidues>
 VAL166  LYS551  ARG553  GLY616  TRP617  ASP618  TYR619  PRO620  LYS621  CYS622 
 ASP623  PHE694  ASN695  SER759  ASP760  ASP761  ALA762  ILE779  LEU786  VAL792 
 PHE793  MET794  SER795  GLU796  ALA797  LYS798  CYS799  TRP800  GLU811  SER814 

> <Gold.Protein.RotatedAtoms>
  150.7226  134.5353  159.5719 H   0  0  0  0  0  0  0  0  0  0  0  0  # atno 6907 bound_to 6896
  152.2876  134.7755  160.0393 H   0  0  0  0  0  0  0  0  0  0  0  0  # atno 6908 bound_to 6896
  151.8380  133.3383  159.3671 H   0  0  0  0  0  0  0  0  0  0  0  0  # atno 6909 bound_to 6896
  144.7809  139.7569  143.6260 H   0  0  0  0  0  0  0  0  0  0  0  0  # atno 7974 bound_to 7965
  156.0341  140.1288  157.0227 H   0  0  0  0  0  0  0  0  0  0  0  0  # atno 8008 bound_to 7997
  154.4362  140.1043  156.6212 H   0  0  0  0  0  0  0  0  0  0  0  0  # atno 8009 bound_to 7997
  155.5764  140.3467  155.4531 H   0  0  0  0  0  0  0  0  0  0  0  0  # atno 8010 bound_to 7997
  139.8613  143.7073  152.2649 H   0  0  0  0  0  0  0  0  0  0  0  0  # atno 10167 bound_to 10162
  156.8331  130.9660  151.3105 H   0  0  0  0  0  0  0  0  0  0  0  0  # atno 10718 bound_to 10713
  153.4310  135.7012  153.6231 H   0  0  0  0  0  0  0  0  0  0  0  0  # atno 10763 bound_to 10752
  153.4645  135.3728  155.2357 H   0  0  0  0  0  0  0  0  0  0  0  0  # atno 10764 bound_to 10752
  154.8725  135.4028  154.3694 H   0  0  0  0  0  0  0  0  0  0  0  0  # atno 10765 bound_to 10752
  140.1304  134.8805  157.2196 H   0  0  0  0  0  0  0  0  0  0  0  0  # atno 11005 bound_to 11000
  146.2017  139.5315  142.9739 LP  0  0  0  0  0  0  0  0  0  0  0  0  # atno 17320 bound_to 7965
  145.6053  141.0348  143.1996 LP  0  0  0  0  0  0  0  0  0  0  0  0  # atno 17321 bound_to 7965
  139.7371  144.7568  151.0711 LP  0  0  0  0  0  0  0  0  0  0  0  0  # atno 17342 bound_to 10162
  140.7774  143.5017  150.9762 LP  0  0  0  0  0  0  0  0  0  0  0  0  # atno 17343 bound_to 10162
  157.6396  130.8795  149.9423 LP  0  0  0  0  0  0  0  0  0  0  0  0  # atno 17370 bound_to 10713
  156.0923  130.3662  150.0372 LP  0  0  0  0  0  0  0  0  0  0  0  0  # atno 17371 bound_to 10713
  140.2849  134.3307  155.7332 LP  0  0  0  0  0  0  0  0  0  0  0  0  # atno 17394 bound_to 11000
  141.2169  133.7500  156.9418 LP  0  0  0  0  0  0  0  0  0  0  0  0  # atno 17395 bound_to 11000

$$$$
