#       Name:                AV-unprocessed.smi:3267
#       Creating user name   scv26
#       Creation time:       Fri Mar 27 18:41:29 2020


#       File generated by GOLD software.
#

@<TRIPOS>MOLECULE
AV-unprocessed.smi:3267
    43    44     1
SMALL
NO_CHARGES


@<TRIPOS>ATOM
      1 ****        -3.0108  -1.0385  -1.5122 C.3            1 S1                 0.0000
      2 ****        -2.4670  -0.4308  -0.2091 C.3            1 S1                 0.0000
      3 ****        -2.9974  -1.1317   1.0643 C.3            1 S1                 0.0000
      4 ****        -2.7813  -2.5694   1.0751 N.pl3          1 S1                 0.0000
      5 ****        -3.6603  -3.5711   0.7193 C.2            1 S1                 0.0000
      6 ****        -3.0135  -4.7611   0.8928 C.2            1 S1                 0.0000
      7 ****        -1.7283  -4.3803   1.3702 C.2            1 S1                 0.0000
      8 ****        -1.5929  -3.0688   1.4799 N.2            1 S1                 0.0000
      9 ****        -1.0065  -0.4386  -0.2464 N.am           1 S1                 0.0000
     10 ****        -0.2078   0.4188   0.4037 C.2            1 S1                 0.0000
     11 ****        -0.6131   1.3439   1.1082 O.2            1 S1                 0.0000
     12 ****         1.0865   0.1458   0.1930 N.am           1 S1                 0.0000
     13 ****         2.2017   0.9080   0.7414 C.3            1 S1                 0.0000
     14 ****         2.4688   2.1814  -0.0778 C.3            1 S1                 0.0000
     15 ****         3.6221   3.0318   0.4538 C.3            1 S1                 0.0000
     16 ****         4.1527   3.7414  -0.7844 C.3            1 S1                 0.0000
     17 ****         3.4478   3.0425  -1.9498 C.3            1 S1                 0.0000
     18 ****         2.9075   1.8565  -1.3875 O.3            1 S1                 0.0000
     19 ****        -4.1010  -1.0533  -1.5115 H              1 S1                 0.0000
     20 ****        -2.6625  -2.0613  -1.6590 H              1 S1                 0.0000
     21 ****        -2.6912  -0.4564  -2.3771 H              1 S1                 0.0000
     22 ****        -2.7997   0.6083  -0.1762 H              1 S1                 0.0000
     23 ****        -2.5476  -0.7013   1.9606 H              1 S1                 0.0000
     24 ****        -4.0700  -0.9556   1.1528 H              1 S1                 0.0000
     25 ****        -4.6603  -3.3554   0.3724 H              1 S1                 0.0000
     26 ****        -3.3997  -5.7524   0.7078 H              1 S1                 0.0000
     27 ****        -0.8956  -5.0133   1.6389 H              1 S1                 0.0000
     28 ****        -0.5717  -1.1665  -0.7944 H              1 S1                 0.0000
     29 ****         1.3187  -0.6358  -0.4022 H              1 S1                 0.0000
     30 ****         1.9990   1.1635   1.7828 H              1 S1                 0.0000
     31 ****         3.0855   0.2694   0.7449 H              1 S1                 0.0000
     32 ****         1.5669   2.7930  -0.1465 H              1 S1                 0.0000
     33 ****         3.3023   3.7232   1.2339 H              1 S1                 0.0000
     34 ****         4.4036   2.3952   0.8706 H              1 S1                 0.0000
     35 ****         3.9228   4.8073  -0.7729 H              1 S1                 0.0000
     36 ****         5.2357   3.6321  -0.8526 H              1 S1                 0.0000
     37 ****         2.6332   3.6599  -2.3312 H              1 S1                 0.0000
     38 ****         4.1218   2.8188  -2.7771 H              1 S1                 0.0000
     39 ****        -0.7903  -2.5607   1.7926 LP             1 S1                 0.0000
     40 ****        -1.5954   1.4917   1.2230 LP             1 S1                 0.0000
     41 ****         0.0401   1.9474   1.5656 LP             1 S1                 0.0000
     42 ****         2.1370   1.5353  -1.9380 LP             1 S1                 0.0000
     43 ****         3.6087   1.1445  -1.3481 LP             1 S1                 0.0000
@<TRIPOS>BOND
    1    1    2 1     
    2    1   19 1     
    3    1   20 1     
    4    1   21 1     
    5    2    3 1     
    6    2    9 1     
    7    2   22 1     
    8    3    4 1     
    9    3   23 1     
   10    3   24 1     
   11    4    8 1     
   12    4    5 1     
   13    5    6 2     
   14    5   25 1     
   15    6    7 1     
   16    6   26 1     
   17    7    8 2     
   18    7   27 1     
   19    9   10 am    
   20    9   28 1     
   21   10   11 2     
   22   10   12 am    
   23   12   13 1     
   24   12   29 1     
   25   13   14 1     
   26   13   30 1     
   27   13   31 1     
   28   14   18 1     
   29   14   15 1     
   30   14   32 1     
   31   15   16 1     
   32   15   33 1     
   33   15   34 1     
   34   16   17 1     
   35   16   35 1     
   36   16   36 1     
   37   17   18 1     
   38   17   37 1     
   39   17   38 1     
   40    8   39 1     
   41   11   40 1     
   42   11   41 1     
   43   18   42 1     
   44   18   43 1     
@<TRIPOS>SUBSTRUCTURE
      1 S1             1
@<TRIPOS>SET
LONE_PAIRS      STATIC     ATOMS    <user>   **** ""
5 39 40 41 42 43
DONOR_HYDROGENS      STATIC     ATOMS    <user>   **** ""
2 28 29
ATOM$BLUE        STATIC     ATOMS    COLORGROUP SYSTEM
5 39 40 41 42 43
ATOM$RED        STATIC     ATOMS    COLORGROUP SYSTEM
2 28 29
