AV-unprocessed.smi:3345|AV-procd|sdf|12900|dock8
  -GOLD-   2272019313D 1   1.00000     0.00000
 Structure written by MMmdl.
 40 41  0  0  0  0  0  0  0  0  1 V2000
  151.6679  139.8681  155.6510 C   0  0  0  0  0  0  0  0  0  0  0  0
  150.6860  140.6094  156.5714 C   0  0  1  0  0  0  0  0  0  0  0  0
  150.9527  142.1306  156.5768 C   0  0  0  0  0  0  0  0  0  0  0  0
  151.0558  142.7404  157.9030 N   0  0  0  0  0  0  0  0  0  0  0  0
  151.5554  144.1128  157.8564 C   0  0  0  0  0  0  0  0  0  0  0  0
  151.6849  144.7269  159.2613 C   0  0  0  0  0  0  0  0  0  0  0  0
  152.5218  143.9058  160.0689 O   0  0  0  0  0  0  0  0  0  0  0  0
  152.0374  142.5717  160.1802 C   0  0  0  0  0  0  0  0  0  0  0  0
  151.9169  141.9512  158.7775 C   0  0  0  0  0  0  0  0  0  0  0  0
  149.3248  140.3447  156.1109 N   0  0  0  0  0  0  0  0  0  0  0  0
  148.8399  140.6415  154.8945 C   0  0  0  0  0  0  0  0  0  0  0  0
  149.5129  141.1700  154.0091 O   0  0  0  0  0  0  0  0  0  0  0  0
  147.3646  140.2968  154.6476 C   0  0  2  0  0  0  0  0  0  0  0  0
  147.1862  139.3776  153.4224 C   0  0  0  0  0  0  0  0  0  0  0  0
  146.5785  141.5216  154.5528 N   0  0  0  0  0  0  0  0  0  0  0  0
  146.5979  142.4798  153.6234 C   0  0  0  0  0  0  0  0  0  0  0  0
  145.7028  143.4383  153.8170 N   0  0  0  0  0  0  0  0  0  0  0  0
  145.1109  142.9700  154.9553 C   0  0  0  0  0  0  0  0  0  0  0  0
  145.5888  141.8207  155.4315 N   0  0  0  0  0  0  0  0  0  0  0  0
  152.6984  140.0186  155.9740 H   0  0  0  0  0  0  0  0  0  0  0  0
  151.5876  140.2162  154.6205 H   0  0  0  0  0  0  0  0  0  0  0  0
  151.4785  138.7940  155.6559 H   0  0  0  0  0  0  0  0  0  0  0  0
  150.8312  140.2250  157.5829 H   0  0  0  0  0  0  0  0  0  0  0  0
  151.9010  142.2990  156.0647 H   0  0  0  0  0  0  0  0  0  0  0  0
  150.2065  142.6525  155.9753 H   0  0  0  0  0  0  0  0  0  0  0  0
  152.5268  144.1366  157.3603 H   0  0  0  0  0  0  0  0  0  0  0  0
  150.8862  144.7380  157.2662 H   0  0  0  0  0  0  0  0  0  0  0  0
  152.1164  145.7260  159.2002 H   0  0  0  0  0  0  0  0  0  0  0  0
  150.7044  144.8295  159.7290 H   0  0  0  0  0  0  0  0  0  0  0  0
  152.7259  141.9914  160.7944 H   0  0  0  0  0  0  0  0  0  0  0  0
  151.0721  142.5683  160.6892 H   0  0  0  0  0  0  0  0  0  0  0  0
  151.5248  140.9374  158.8669 H   0  0  0  0  0  0  0  0  0  0  0  0
  152.9111  141.8632  158.3365 H   0  0  0  0  0  0  0  0  0  0  0  0
  148.7004  139.9081  156.7733 H   0  0  0  0  0  0  0  0  0  0  0  0
  146.9936  139.7502  155.5165 H   0  0  0  0  0  0  0  0  0  0  0  0
  147.7372  138.4452  153.5504 H   0  0  0  0  0  0  0  0  0  0  0  0
  147.5395  139.8434  152.5014 H   0  0  0  0  0  0  0  0  0  0  0  0
  146.1364  139.1190  153.2806 H   0  0  0  0  0  0  0  0  0  0  0  0
  147.2778  142.4731  152.7841 H   0  0  0  0  0  0  0  0  0  0  0  0
  144.2991  143.4884  155.4443 H   0  0  0  0  0  0  0  0  0  0  0  0
  1  2  1  0  0  0  0
  1 20  1  0  0  0  0
  1 21  1  0  0  0  0
  1 22  1  0  0  0  0
  2  3  1  0  0  0  0
  2 10  1  0  0  0  0
  2 23  1  0  0  0  0
  3  4  1  0  0  0  0
  3 24  1  0  0  0  0
  3 25  1  0  0  0  0
  4  9  1  0  0  0  0
  4  5  1  0  0  0  0
  5  6  1  0  0  0  0
  5 26  1  0  0  0  0
  5 27  1  0  0  0  0
  6  7  1  0  0  0  0
  6 28  1  0  0  0  0
  6 29  1  0  0  0  0
  7  8  1  0  0  0  0
  8  9  1  0  0  0  0
  8 30  1  0  0  0  0
  8 31  1  0  0  0  0
  9 32  1  0  0  0  0
  9 33  1  0  0  0  0
 10 11  1  0  0  0  0
 10 34  1  0  0  0  0
 11 12  2  0  0  0  0
 11 13  1  0  0  0  0
 13 14  1  0  0  0  0
 13 15  1  0  0  0  0
 13 35  1  0  0  0  0
 14 36  1  0  0  0  0
 14 37  1  0  0  0  0
 14 38  1  0  0  0  0
 15 19  1  0  0  0  0
 15 16  1  0  0  0  0
 16 17  2  0  0  0  0
 16 39  1  0  0  0  0
 17 18  1  0  0  0  0
 18 19  2  0  0  0  0
 18 40  1  0  0  0  0
M  END
> <s_m_source_file>
AV-unprocessed.smi

> <i_m_source_file_index>
3345

> <i_lp_mmshare_version>
43012

> <i_f3d_flags>
0

> <s_epik_input>
W0NIMl0xW0NIMl1PW0NIMl1bQ0gyXU4xW0NIMl1bQ0BASF0oW0NIM10pW05IXUMoPU8pW0NASF0oW0NIM10pbjJbY0hdbltjSF1uMg==

> <s_epik_cmdline>
J2VwaWtfcHl0aG9uJywgJy1waCcsICc3LjAnLCAnLXRuJywgJzgnLCAnLW1hJywgJzIwMCcsICctbWV0YWxfYmluZGluZycsICctaW1hZScsICc8aW5maWxlLm1hZT4nLCAnLW9tYWUnLCAnPG91dGZpbGUubWFlPic=

> <r_lp_tautomer_probability>
1

> <r_epik_Ionization_Penalty>
0.211373

> <r_epik_Ionization_Penalty_Charging>
0

> <r_epik_Ionization_Penalty_Neutral>
0.211373

> <r_epik_State_Penalty>
0.201459

> <r_epik_Charging_Adjusted_Penalty>
0.201459

> <i_epik_Tot_Q>
0

> <i_epik_Tot_abs_Q>
0

> <r_epik_Metal_State_Penalty>
0.201458

> <b_epik_Metal_Only>
0

> <s_lp_Force_Field>
OPLS_2005

> <r_lp_Energy>
31.9378

> <b_lp_Chiralities_Consistent>
1

> <s_lp_Variant>
AV-unprocessed.smi:3345-2

> <Gold.Version>
5.8.1

> <Gold.Id.Protein>
6NUR|6NUR_protein|mol2

> <Gold.PLP.Fitness>
38.7684

> <Gold.PLP.PLP>
-37.5507

> <Gold.PLP.part.hbond>
-2.0000

> <Gold.PLP.part.metal>
0.0000

> <Gold.PLP.part.buried>
-5.5874

> <Gold.PLP.part.nonpolar>
-30.6561

> <Gold.PLP.part.repulsive>
0.9688

> <Gold.PLP.ligand.clash>
0.0000

> <Gold.PLP.ligand.torsion>
0.9126

> <Gold.PLP.Chemscore.Hbond>
0.9712

> <Gold.PLP.Chemscore.CHOScore>
0.0000

> <Gold.PLP.Chemscore.Metal>
0.0000

> <Gold.Chemscore.Hbonds>
donor molecule, donor type, donor heavy atom, donor atom, acceptor molecule, acceptor atom, score
      P1  H  7989  7998       L1    12  0.24
      P1  H  8011  8017       L1    12  0.66

> <Gold.PLP.Chemscore.Internal.Correction>
0.1294

> <Gold.Rescore>
     Score         DG    S(hbond)    S(metal)    S(lipo)     H(rot)  DE(clash)    DE(int)     intcor
      9.03     -11.71       1.06        0.00      78.46       2.54       0.73       1.95       ----

> <Gold.Chemscore.Fitness>
9.0330

> <Gold.Chemscore.DG>
-11.7146

> <Gold.Chemscore.ZeroCoef>
-5.4800

> <Gold.Chemscore.Hbond>
1.0614

> <Gold.Chemscore.Metal>
0.0000

> <Gold.Chemscore.Lipo>
78.4614

> <Gold.Chemscore.Internal_Hbond>
0.0000

> <Gold.Chemscore.DEClash>
0.7279

> <Gold.Chemscore.DEInternal>
1.9537

> <Gold.Chemscore.Rot>
2.5353

> <Gold.Chemscore.Internal.Correction>
   9.000000E+99

> <Gold.Chemscore.Hbonds>
donor molecule, donor type, donor heavy atom, donor atom, acceptor molecule, acceptor atom, score
      P1  H  7989  7998       L1    12  0.23
      P1  H  8011  8017       L1    12  0.65

> <Gold.Chemscore.Hbond.Weighted>
-3.5451

> <Gold.Chemscore.Metal.Weighted>
-0.0000

> <Gold.Chemscore.Lipo.Weighted>
-9.1800

> <Gold.Chemscore.Internal_Hbond.Weighted>
0.0000

> <Gold.Chemscore.DEClash.Weighted>
0.7279

> <Gold.Chemscore.DEInternal.Weighted>
1.9537

> <Gold.Chemscore.Rot.Weighted>
6.4905

> <Gold.Chemscore.Internal.Correction.Weighted>
   9.000000E+99

> <Gold.Protein.RotatedTorsions>
[ 6907 6896 6895 6894 ] final  150.62 input  -60.11 | X-H torsion
[ 7974 7965 7964 7962 ] final -118.32 input  175.53 | X-H torsion
[ 8008 7997 7996 7995 ] final -127.20 input   59.86 | X-H torsion
[ 10167 10162 10161 10158 ] final  174.61 input  -65.29 | X-H torsion
[ 10718 10713 10712 10709 ] final  111.33 input   66.30 | X-H torsion
[ 10763 10752 10751 10750 ] final  139.50 input  -60.55 | X-H torsion
[ 11005 11000 10999 10996 ] final  137.02 input  -57.11 | X-H torsion

> <Gold.Protein.ActiveResidues>
 VAL166  LYS551  ARG553  GLY616  TRP617  ASP618  TYR619  PRO620  LYS621  CYS622 
 ASP623  PHE694  ASN695  SER759  ASP760  ASP761  ALA762  ILE779  LEU786  VAL792 
 PHE793  MET794  SER795  GLU796  ALA797  LYS798  CYS799  TRP800  GLU811  SER814 

> <Gold.Protein.RotatedAtoms>
  152.1119  133.4305  159.4634 H   0  0  0  0  0  0  0  0  0  0  0  0  # atno 6907 bound_to 6896
  150.6867  134.2638  159.4569 H   0  0  0  0  0  0  0  0  0  0  0  0  # atno 6908 bound_to 6896
  152.0508  134.9654  160.0625 H   0  0  0  0  0  0  0  0  0  0  0  0  # atno 6909 bound_to 6896
  145.0752  140.8387  143.4072 H   0  0  0  0  0  0  0  0  0  0  0  0  # atno 7974 bound_to 7965
  155.2423  140.0429  157.2976 H   0  0  0  0  0  0  0  0  0  0  0  0  # atno 8008 bound_to 7997
  154.5820  140.2403  155.8010 H   0  0  0  0  0  0  0  0  0  0  0  0  # atno 8009 bound_to 7997
  156.2200  140.2973  155.9938 H   0  0  0  0  0  0  0  0  0  0  0  0  # atno 8010 bound_to 7997
  139.5148  144.3127  152.0277 H   0  0  0  0  0  0  0  0  0  0  0  0  # atno 10167 bound_to 10162
  157.6450  131.0949  150.6733 H   0  0  0  0  0  0  0  0  0  0  0  0  # atno 10718 bound_to 10713
  153.9072  135.3015  155.3448 H   0  0  0  0  0  0  0  0  0  0  0  0  # atno 10763 bound_to 10752
  154.7641  135.4919  153.9523 H   0  0  0  0  0  0  0  0  0  0  0  0  # atno 10764 bound_to 10752
  153.1212  135.6782  153.9433 H   0  0  0  0  0  0  0  0  0  0  0  0  # atno 10765 bound_to 10752
  140.0086  134.9449  157.0228 H   0  0  0  0  0  0  0  0  0  0  0  0  # atno 11005 bound_to 11000
  145.1244  139.2672  143.5571 LP  0  0  0  0  0  0  0  0  0  0  0  0  # atno 17320 bound_to 7965
  146.3530  140.0877  142.8614 LP  0  0  0  0  0  0  0  0  0  0  0  0  # atno 17321 bound_to 7965
  140.2571  144.4107  150.6199 LP  0  0  0  0  0  0  0  0  0  0  0  0  # atno 17342 bound_to 10162
  140.6184  143.2174  151.6745 LP  0  0  0  0  0  0  0  0  0  0  0  0  # atno 17343 bound_to 10162
  156.7051  130.4635  149.5562 LP  0  0  0  0  0  0  0  0  0  0  0  0  # atno 17370 bound_to 10713
  156.1768  130.6473  151.0904 LP  0  0  0  0  0  0  0  0  0  0  0  0  # atno 17371 bound_to 10713
  140.4596  134.1497  155.7190 LP  0  0  0  0  0  0  0  0  0  0  0  0  # atno 17394 bound_to 11000
  141.1694  133.8638  157.1616 LP  0  0  0  0  0  0  0  0  0  0  0  0  # atno 17395 bound_to 11000

$$$$
