#       Name:                AV-unprocessed.smi:1722
#       Creating user name   scv26
#       Creation time:       Fri Mar 27 08:15:14 2020


#       File generated by GOLD software.
#

@<TRIPOS>MOLECULE
AV-unprocessed.smi:1722
    45    46     1
SMALL
NO_CHARGES


@<TRIPOS>ATOM
      1 ****        -1.6182   1.8563  -1.4049 O.2            1 S1                 0.0000
      2 ****        -0.9366   0.8485  -1.2209 C.2            1 S1                 0.0000
      3 ****         0.5840   0.9802  -1.1562 C.3            1 S1                 0.0000
      4 ****         1.0562   0.2792  -0.0131 O.3            1 S1                 0.0000
      5 ****         2.4664   0.3061   0.1576 C.3            1 S1                 0.0000
      6 ****         2.8385  -0.8846   1.0590 C.3            1 S1                 0.0000
      7 ****         4.3415  -0.9011   1.3805 C.3            1 S1                 0.0000
      8 ****         4.7872   0.4245   2.0177 C.3            1 S1                 0.0000
      9 ****         4.4198   1.6197   1.1241 C.3            1 S1                 0.0000
     10 ****         2.9167   1.6346   0.8010 C.3            1 S1                 0.0000
     11 ****        -1.4147  -0.4052  -1.0953 N.am           1 S1                 0.0000
     12 ****        -2.7453  -0.8553  -1.0634 C.2            1 S1                 0.0000
     13 ****        -3.8257  -0.0644  -0.8151 C.2            1 S1                 0.0000
     14 ****        -5.1845  -0.5901  -0.7728 C.2            1 S1                 0.0000
     15 ****        -6.4017   0.2466  -0.4205 C.3            1 S1                 0.0000
     16 ****        -6.9977   0.6722  -1.5333 F              1 S1                 0.0000
     17 ****        -7.2864  -0.4645   0.2788 F              1 S1                 0.0000
     18 ****        -6.0566   1.3137   0.3002 F              1 S1                 0.0000
     19 ****        -5.2244  -1.9555  -0.9789 C.2            1 S1                 0.0000
     20 ****        -4.2079  -2.8070  -1.2385 N.pl3          1 S1                -1.0000
     21 ****        -2.9423  -2.3030  -1.2838 C.2            1 S1                 0.0000
     22 ****        -1.9690  -3.0246  -1.5045 O.2            1 S1                 0.0000
     23 ****         1.0158   0.5624  -2.0668 H              1 S1                 0.0000
     24 ****         0.8560   2.0350  -1.1103 H              1 S1                 0.0000
     25 ****         2.9609   0.1742  -0.8068 H              1 S1                 0.0000
     26 ****         2.2696  -0.8331   1.9884 H              1 S1                 0.0000
     27 ****         2.5537  -1.8195   0.5750 H              1 S1                 0.0000
     28 ****         4.5693  -1.7306   2.0507 H              1 S1                 0.0000
     29 ****         4.9093  -1.0770   0.4660 H              1 S1                 0.0000
     30 ****         4.3131   0.5386   2.9934 H              1 S1                 0.0000
     31 ****         5.8626   0.4092   2.1964 H              1 S1                 0.0000
     32 ****         4.7038   2.5511   1.6141 H              1 S1                 0.0000
     33 ****         4.9916   1.5716   0.1965 H              1 S1                 0.0000
     34 ****         2.7004   2.4749   0.1421 H              1 S1                 0.0000
     35 ****         2.3504   1.8071   1.7172 H              1 S1                 0.0000
     36 ****        -0.7253  -1.1406  -1.0336 H              1 S1                 0.0000
     37 ****        -3.7058   0.9884  -0.6191 H              1 S1                 0.0000
     38 ****        -6.2237  -2.4374  -0.9213 H              1 S1                 0.0000
     39 ****        -1.1757   2.7469  -1.5099 LP             1 S1                 0.0000
     40 ****        -2.6147   1.7847  -1.4494 LP             1 S1                 0.0000
     41 ****         0.7700  -0.6757  -0.0927 LP             1 S1                 0.0000
     42 ****         0.6362   0.6865   0.7979 LP             1 S1                 0.0000
     43 ****        -4.3794  -3.7800  -1.3931 LP             1 S1                 0.0000
     44 ****        -1.0506  -2.6302  -1.5339 LP             1 S1                 0.0000
     45 ****        -2.0972  -4.0050  -1.6543 LP             1 S1                 0.0000
@<TRIPOS>BOND
    1    1    2 2     
    2    2    3 1     
    3    2   11 am    
    4    3    4 1     
    5    3   23 1     
    6    3   24 1     
    7    4    5 1     
    8    5   10 1     
    9    5    6 1     
   10    5   25 1     
   11    6    7 1     
   12    6   26 1     
   13    6   27 1     
   14    7    8 1     
   15    7   28 1     
   16    7   29 1     
   17    8    9 1     
   18    8   30 1     
   19    8   31 1     
   20    9   10 1     
   21    9   32 1     
   22    9   33 1     
   23   10   34 1     
   24   10   35 1     
   25   11   12 1     
   26   11   36 1     
   27   12   21 1     
   28   12   13 2     
   29   13   14 1     
   30   13   37 1     
   31   14   15 1     
   32   14   19 2     
   33   15   16 1     
   34   15   17 1     
   35   15   18 1     
   36   19   20 1     
   37   19   38 1     
   38   20   21 1     
   39   21   22 2     
   40    1   39 1     
   41    1   40 1     
   42    4   41 1     
   43    4   42 1     
   44   20   43 1     
   45   22   44 1     
   46   22   45 1     
@<TRIPOS>SUBSTRUCTURE
      1 S1             1
@<TRIPOS>SET
LONE_PAIRS      STATIC     ATOMS    <user>   **** ""
7 39 40 41 42 43 44 45
DONOR_HYDROGENS      STATIC     ATOMS    <user>   **** ""
1 36
ATOM$BLUE        STATIC     ATOMS    COLORGROUP SYSTEM
7 39 40 41 42 43 44 45
ATOM$RED        STATIC     ATOMS    COLORGROUP SYSTEM
1 36
