AV-unprocessed.smi:1799|AV-procd|sdf|7262|dock3
  -GOLD-   22720 8513D 1   1.00000     0.00000
 Structure written by MMmdl.
 40 41  0  0  0  0  0  0  0  0  3 V2000
  145.9503  140.5985  156.7877 C   0  0  0  0  0  0  0  0  0  0  0  0
  145.3967  141.0071  155.4046 C   0  0  0  0  0  0  0  0  0  0  0  0
  143.9027  141.3259  155.6076 C   0  0  0  0  0  0  0  0  0  0  0  0
  146.0831  142.2808  154.8442 C   0  0  0  0  0  0  0  0  0  0  0  0
  147.4573  142.0515  154.1957 C   0  0  0  0  0  0  0  0  0  0  0  0
  148.5036  141.8560  155.1963 N   0  0  0  0  0  0  0  0  0  0  0  0
  149.7024  141.2897  154.9998 C   0  0  0  0  0  0  0  0  0  0  0  0
  150.0285  140.9090  153.8735 O   0  0  0  0  0  0  0  0  0  0  0  0
  150.4410  141.1882  156.1274 N   0  5  0  0  0  0  0  0  0  0  0  0
  151.4389  140.2916  156.1963 C   0  0  0  0  0  0  0  0  0  0  0  0
  152.3147  140.2651  157.2136 N   0  0  0  0  0  0  0  0  0  0  0  0
  153.2630  139.2585  157.0911 N   0  0  0  0  0  0  0  0  0  0  0  0
  153.0718  138.5430  155.9830 C   0  0  0  0  0  0  0  0  0  0  0  0
  151.7149  139.0319  154.9901 S   0  0  0  0  0  0  0  0  0  0  0  0
  147.3665  140.9079  153.1669 C   0  0  0  0  0  0  0  0  0  0  0  0
  146.7283  139.5996  153.6960 C   0  0  0  0  0  0  0  0  0  0  0  0
  146.3515  138.7323  152.4791 C   0  0  0  0  0  0  0  0  0  0  0  0
  147.7111  138.7615  154.5439 C   0  0  0  0  0  0  0  0  0  0  0  0
  145.4640  139.8772  154.4342 N   0  3  0  0  0  0  0  0  0  0  0  0
  145.7514  141.3735  157.5288 H   0  0  0  0  0  0  0  0  0  0  0  0
  147.0234  140.4384  156.8020 H   0  0  0  0  0  0  0  0  0  0  0  0
  145.4809  139.6819  157.1468 H   0  0  0  0  0  0  0  0  0  0  0  0
  143.7624  142.1624  156.2935 H   0  0  0  0  0  0  0  0  0  0  0  0
  143.3643  140.4713  156.0198 H   0  0  0  0  0  0  0  0  0  0  0  0
  143.4177  141.5911  154.6672 H   0  0  0  0  0  0  0  0  0  0  0  0
  145.4400  142.7115  154.0751 H   0  0  0  0  0  0  0  0  0  0  0  0
  146.1552  143.0461  155.6189 H   0  0  0  0  0  0  0  0  0  0  0  0
  147.7160  142.9662  153.6593 H   0  0  0  0  0  0  0  0  0  0  0  0
  148.2948  142.1608  156.1359 H   0  0  0  0  0  0  0  0  0  0  0  0
  153.7313  137.7206  155.7502 H   0  0  0  0  0  0  0  0  0  0  0  0
  146.7605  141.2785  152.3387 H   0  0  0  0  0  0  0  0  0  0  0  0
  148.3438  140.7000  152.7298 H   0  0  0  0  0  0  0  0  0  0  0  0
  147.2253  138.5053  151.8667 H   0  0  0  0  0  0  0  0  0  0  0  0
  145.6254  139.2332  151.8377 H   0  0  0  0  0  0  0  0  0  0  0  0
  145.9121  137.7821  152.7858 H   0  0  0  0  0  0  0  0  0  0  0  0
  148.5707  138.4529  153.9475 H   0  0  0  0  0  0  0  0  0  0  0  0
  147.2362  137.8545  154.9191 H   0  0  0  0  0  0  0  0  0  0  0  0
  148.1156  139.2901  155.4003 H   0  0  0  0  0  0  0  0  0  0  0  0
  145.1605  139.0308  154.8940 H   0  0  0  0  0  0  0  0  0  0  0  0
  144.7845  140.0987  153.7209 H   0  0  0  0  0  0  0  0  0  0  0  0
  1  2  1  0  0  0  0
  1 20  1  0  0  0  0
  1 21  1  0  0  0  0
  1 22  1  0  0  0  0
  2 19  1  0  0  0  0
  2  3  1  0  0  0  0
  2  4  1  0  0  0  0
  3 23  1  0  0  0  0
  3 24  1  0  0  0  0
  3 25  1  0  0  0  0
  4  5  1  0  0  0  0
  4 26  1  0  0  0  0
  4 27  1  0  0  0  0
  5  6  1  0  0  0  0
  5 15  1  0  0  0  0
  5 28  1  0  0  0  0
  6  7  1  0  0  0  0
  6 29  1  0  0  0  0
  7  8  2  0  0  0  0
  7  9  1  0  0  0  0
  9 10  1  0  0  0  0
 10 14  1  0  0  0  0
 10 11  2  0  0  0  0
 11 12  1  0  0  0  0
 12 13  2  0  0  0  0
 13 14  1  0  0  0  0
 13 30  1  0  0  0  0
 15 16  1  0  0  0  0
 15 31  1  0  0  0  0
 15 32  1  0  0  0  0
 16 17  1  0  0  0  0
 16 18  1  0  0  0  0
 16 19  1  0  0  0  0
 17 33  1  0  0  0  0
 17 34  1  0  0  0  0
 17 35  1  0  0  0  0
 18 36  1  0  0  0  0
 18 37  1  0  0  0  0
 18 38  1  0  0  0  0
 19 39  1  0  0  0  0
 19 40  1  0  0  0  0
M  CHG  1   9  -1
M  CHG  1  19   1
M  END
> <s_m_source_file>
AV-unprocessed.smi

> <i_m_source_file_index>
1799

> <i_lp_mmshare_version>
43012

> <i_f3d_flags>
0

> <s_epik_input>
W0NIM11DMShbQ0gzXSlbQ0gyXVtDSF0oW0NIMl1DKFtDSDNdKShbQ0gzXSlbTkhdMSlbTkhdQyg9TylbTkhdYzJubltjSF1zMg==

> <s_epik_cmdline>
J2VwaWtfcHl0aG9uJywgJy1waCcsICc3LjAnLCAnLXRuJywgJzgnLCAnLW1hJywgJzIwMCcsICctbWV0YWxfYmluZGluZycsICctaW1hZScsICc8aW5maWxlLm1hZT4nLCAnLW9tYWUnLCAnPG91dGZpbGUubWFlPic=

> <r_lp_tautomer_probability>
1

> <r_epik_Ionization_Penalty>
4.14205

> <r_epik_Ionization_Penalty_Charging>
4.10837

> <r_epik_Ionization_Penalty_Neutral>
0.0336815

> <r_epik_State_Penalty>
4.10769

> <r_epik_Charging_Adjusted_Penalty>
8.21606

> <i_epik_Tot_Q>
0

> <i_epik_Tot_abs_Q>
2

> <r_epik_Metal_State_Penalty>
0.655549

> <b_epik_Metal_Only>
1

> <s_lp_Force_Field>
OPLS_2005

> <r_lp_Energy>
17.9013

> <b_lp_Chiralities_Consistent>
1

> <s_lp_Variant>
AV-unprocessed.smi:1799-2

> <Gold.Version>
5.8.1

> <Gold.Id.Protein>
6NUR|6NUR_protein|mol2

> <Gold.PLP.Fitness>
37.0996

> <Gold.PLP.PLP>
-26.2529

> <Gold.PLP.part.hbond>
-5.0625

> <Gold.PLP.part.metal>
0.0000

> <Gold.PLP.part.buried>
0.5367

> <Gold.PLP.part.nonpolar>
-23.4399

> <Gold.PLP.part.repulsive>
2.0516

> <Gold.PLP.ligand.clash>
0.0000

> <Gold.PLP.ligand.torsion>
0.4251

> <Gold.PLP.Chemscore.Hbond>
3.8894

> <Gold.PLP.Chemscore.CHOScore>
0.0000

> <Gold.PLP.Chemscore.Metal>
0.0000

> <Gold.Chemscore.Hbonds>
donor molecule, donor type, donor heavy atom, donor atom, acceptor molecule, acceptor atom, score
      L1  H    19    40       P1 10175  2.00
      P1  H  7989  7998       L1     8  0.46
      P1  H  7997  8009       L1    12  0.69
      P1  H  8011  8017       L1     8  0.59

> <Gold.PLP.Chemscore.Internal.Correction>
0.0286

> <Gold.Rescore>
     Score         DG    S(hbond)    S(metal)    S(lipo)     H(rot)  DE(clash)    DE(int)     intcor
     10.81     -14.92       1.73        0.00      53.16       1.00       0.85       3.26       ----

> <Gold.Chemscore.Fitness>
10.8123

> <Gold.Chemscore.DG>
-14.9235

> <Gold.Chemscore.ZeroCoef>
-5.4800

> <Gold.Chemscore.Hbond>
1.7318

> <Gold.Chemscore.Metal>
0.0000

> <Gold.Chemscore.Lipo>
53.1556

> <Gold.Chemscore.Internal_Hbond>
0.0000

> <Gold.Chemscore.DEClash>
0.8506

> <Gold.Chemscore.DEInternal>
3.2606

> <Gold.Chemscore.Rot>
1.0000

> <Gold.Chemscore.Internal.Correction>
   9.000000E+99

> <Gold.Chemscore.Hbonds>
donor molecule, donor type, donor heavy atom, donor atom, acceptor molecule, acceptor atom, score
      L1  H    19    40       P1 10175  1.00
      P1  H  7989  7998       L1     8  0.46
      P1  H  7997  8009       L1    12  0.03
      P1  H  8011  8017       L1     8  0.50

> <Gold.Chemscore.Hbond.Weighted>
-5.7843

> <Gold.Chemscore.Metal.Weighted>
-0.0000

> <Gold.Chemscore.Lipo.Weighted>
-6.2192

> <Gold.Chemscore.Internal_Hbond.Weighted>
0.0000

> <Gold.Chemscore.DEClash.Weighted>
0.8506

> <Gold.Chemscore.DEInternal.Weighted>
3.2606

> <Gold.Chemscore.Rot.Weighted>
2.5600

> <Gold.Chemscore.Internal.Correction.Weighted>
   9.000000E+99

> <Gold.Protein.RotatedTorsions>
[ 6907 6896 6895 6894 ] final   74.19 input  -60.11 | X-H torsion
[ 7974 7965 7964 7962 ] final -100.58 input  175.53 | X-H torsion
[ 8008 7997 7996 7995 ] final -178.97 input   59.86 | X-H torsion
[ 10167 10162 10161 10158 ] final  161.00 input  -65.29 | X-H torsion
[ 10718 10713 10712 10709 ] final  -63.87 input   66.30 | X-H torsion
[ 10763 10752 10751 10750 ] final -122.26 input  -60.55 | X-H torsion
[ 11005 11000 10999 10996 ] final -126.17 input  -57.11 | X-H torsion

> <Gold.Protein.ActiveResidues>
 VAL166  LYS551  ARG553  GLY616  TRP617  ASP618  TYR619  PRO620  LYS621  CYS622 
 ASP623  PHE694  ASN695  SER759  ASP760  ASP761  ALA762  ILE779  LEU786  VAL792 
 PHE793  MET794  SER795  GLU796  ALA797  LYS798  CYS799  TRP800  GLU811  SER814 

> <Gold.Protein.RotatedAtoms>
  152.4963  134.4309  159.9511 H   0  0  0  0  0  0  0  0  0  0  0  0  # atno 6907 bound_to 6896
  151.4287  133.3670  159.2773 H   0  0  0  0  0  0  0  0  0  0  0  0  # atno 6908 bound_to 6896
  150.9170  134.8611  159.7523 H   0  0  0  0  0  0  0  0  0  0  0  0  # atno 6909 bound_to 6896
  145.2928  140.9357  143.2868 H   0  0  0  0  0  0  0  0  0  0  0  0  # atno 7974 bound_to 7965
  156.0250  140.1269  157.0318 H   0  0  0  0  0  0  0  0  0  0  0  0  # atno 8008 bound_to 7997
  154.4327  140.1061  156.6088 H   0  0  0  0  0  0  0  0  0  0  0  0  # atno 8009 bound_to 7997
  155.5889  140.3469  155.4563 H   0  0  0  0  0  0  0  0  0  0  0  0  # atno 8010 bound_to 7997
  139.4845  144.4579  151.8744 H   0  0  0  0  0  0  0  0  0  0  0  0  # atno 10167 bound_to 10162
  156.0764  130.4226  150.1339 H   0  0  0  0  0  0  0  0  0  0  0  0  # atno 10718 bound_to 10713
  154.8686  135.4139  154.2753 H   0  0  0  0  0  0  0  0  0  0  0  0  # atno 10763 bound_to 10752
  153.3656  135.7005  153.6684 H   0  0  0  0  0  0  0  0  0  0  0  0  # atno 10764 bound_to 10752
  153.5567  135.3618  155.2754 H   0  0  0  0  0  0  0  0  0  0  0  0  # atno 10765 bound_to 10752
  140.9703  134.0815  157.3876 H   0  0  0  0  0  0  0  0  0  0  0  0  # atno 11005 bound_to 11000
  144.9159  139.4471  143.6565 LP  0  0  0  0  0  0  0  0  0  0  0  0  # atno 17320 bound_to 7965
  146.3179  139.7992  142.8969 LP  0  0  0  0  0  0  0  0  0  0  0  0  # atno 17321 bound_to 7965
  140.4039  144.2457  150.5891 LP  0  0  0  0  0  0  0  0  0  0  0  0  # atno 17342 bound_to 10162
  140.5031  143.2312  151.8649 LP  0  0  0  0  0  0  0  0  0  0  0  0  # atno 17343 bound_to 10162
  156.9379  130.9735  151.3521 LP  0  0  0  0  0  0  0  0  0  0  0  0  # atno 17370 bound_to 10713
  157.5861  130.8411  149.8592 LP  0  0  0  0  0  0  0  0  0  0  0  0  # atno 17371 bound_to 10713
  139.8910  135.0115  156.6766 LP  0  0  0  0  0  0  0  0  0  0  0  0  # atno 17394 bound_to 11000
  140.7338  133.9036  155.8230 LP  0  0  0  0  0  0  0  0  0  0  0  0  # atno 17395 bound_to 11000

$$$$
