#       Name:                AV-unprocessed.smi:1535
#       Creating user name   scv26
#       Creation time:       Fri Mar 27 06:32:06 2020


#       File generated by GOLD software.
#

@<TRIPOS>MOLECULE
AV-unprocessed.smi:1535
    51    52     1
SMALL
NO_CHARGES


@<TRIPOS>ATOM
      1 ****        -2.0087   3.3088   5.1698 C.3            1 S1                 0.0000
      2 ****        -1.8647   2.7627   3.7601 C.ar           1 S1                 0.0000
      3 ****        -3.0289   2.4541   3.0210 C.ar           1 S1                 0.0000
      4 ****        -2.9389   1.9436   1.7075 C.ar           1 S1                 0.0000
      5 ****        -3.9323   1.5788   0.8151 N.2            1 S1                 0.0000
      6 ****        -3.2173   1.1834  -0.2343 C.2            1 S1                 0.0000
      7 ****        -1.8761   1.2480  -0.1269 N.pl3          1 S1                 0.0000
      8 ****        -0.8957   0.8789  -1.1329 C.3            1 S1                 0.0000
      9 ****        -0.1868  -0.4506  -0.8103 C.3            1 S1                 0.0000
     10 ****        -1.1496  -1.4851  -0.7402 O.3            1 S1                 0.0000
     11 ****         0.8486  -0.8147  -1.8948 C.3            1 S1                 0.0000
     12 ****         1.7473  -1.9284  -1.5684 N.3            1 S1                 0.0000
     13 ****         2.6823  -1.5637  -0.5073 C.3            1 S1                 0.0000
     14 ****         2.4929  -2.3911  -2.7414 C.3            1 S1                 0.0000
     15 ****         1.6602  -3.1008  -3.8280 C.3            1 S1                 0.0000
     16 ****         0.9928  -4.3810  -3.3051 C.3            1 S1                 0.0000
     17 ****         2.4992  -3.4026  -4.9986 C.1            1 S1                 0.0000
     18 ****         3.1589  -3.6396  -5.9190 N.1            1 S1                 0.0000
     19 ****        -1.6418   1.7504   1.1484 C.ar           1 S1                 0.0000
     20 ****        -0.4761   2.0545   1.8734 C.ar           1 S1                 0.0000
     21 ****        -0.5839   2.5607   3.1857 C.ar           1 S1                 0.0000
     22 ****         0.6810   2.8817   3.9620 C.3            1 S1                 0.0000
     23 ****        -3.0563   3.4495   5.4374 H              1 S1                 0.0000
     24 ****        -1.5092   4.2735   5.2602 H              1 S1                 0.0000
     25 ****        -1.5679   2.6208   5.8916 H              1 S1                 0.0000
     26 ****        -4.0046   2.6066   3.4581 H              1 S1                 0.0000
     27 ****        -3.6964   0.8242  -1.1335 H              1 S1                 0.0000
     28 ****        -1.3927   0.8228  -2.1027 H              1 S1                 0.0000
     29 ****        -0.1655   1.6861  -1.2031 H              1 S1                 0.0000
     30 ****         0.2852  -0.3569   0.1662 H              1 S1                 0.0000
     31 ****        -1.5531  -1.5788  -1.5893 H              1 S1                 0.0000
     32 ****         0.2955  -1.0306  -2.8072 H              1 S1                 0.0000
     33 ****         1.4509   0.0659  -2.1234 H              1 S1                 0.0000
     34 ****         3.3565  -2.3916  -0.2846 H              1 S1                 0.0000
     35 ****         2.1662  -1.3243   0.4209 H              1 S1                 0.0000
     36 ****         3.2892  -0.7037  -0.7937 H              1 S1                 0.0000
     37 ****         3.0223  -1.5476  -3.1873 H              1 S1                 0.0000
     38 ****         3.2685  -3.0888  -2.4216 H              1 S1                 0.0000
     39 ****         0.8867  -2.4348  -4.2065 H              1 S1                 0.0000
     40 ****         0.4182  -4.8699  -4.0922 H              1 S1                 0.0000
     41 ****         0.3080  -4.1653  -2.4847 H              1 S1                 0.0000
     42 ****         1.7348  -5.0935  -2.9435 H              1 S1                 0.0000
     43 ****         0.4929   1.8969   1.4234 H              1 S1                 0.0000
     44 ****         1.5735   2.6078   3.3987 H              1 S1                 0.0000
     45 ****         0.7012   2.3350   4.9050 H              1 S1                 0.0000
     46 ****         0.7347   3.9488   4.1781 H              1 S1                 0.0000
     47 ****        -4.9254   1.6055   0.9293 LP             1 S1                 0.0000
     48 ****        -1.8452  -1.2526  -0.0604 LP             1 S1                 0.0000
     49 ****        -0.7047  -2.3426  -0.4821 LP             1 S1                 0.0000
     50 ****         1.1669  -2.6770  -1.2479 LP             1 S1                 0.0000
     51 ****         3.7291  -3.8445  -6.7146 LP             1 S1                 0.0000
@<TRIPOS>BOND
    1    1    2 1     
    2    1   23 1     
    3    1   24 1     
    4    1   25 1     
    5    2   21 ar    
    6    2    3 ar    
    7    3    4 ar    
    8    3   26 1     
    9    4   19 ar    
   10    4    5 1     
   11    5    6 2     
   12    6    7 1     
   13    6   27 1     
   14    7    8 1     
   15    7   19 1     
   16    8    9 1     
   17    8   28 1     
   18    8   29 1     
   19    9   10 1     
   20    9   11 1     
   21    9   30 1     
   22   10   31 1     
   23   11   12 1     
   24   11   32 1     
   25   11   33 1     
   26   12   13 1     
   27   12   14 1     
   28   13   34 1     
   29   13   35 1     
   30   13   36 1     
   31   14   15 1     
   32   14   37 1     
   33   14   38 1     
   34   15   16 1     
   35   15   17 1     
   36   15   39 1     
   37   16   40 1     
   38   16   41 1     
   39   16   42 1     
   40   17   18 3     
   41   19   20 ar    
   42   20   21 ar    
   43   20   43 1     
   44   21   22 1     
   45   22   44 1     
   46   22   45 1     
   47   22   46 1     
   48    5   47 1     
   49   10   48 1     
   50   10   49 1     
   51   12   50 1     
   52   18   51 1     
@<TRIPOS>SUBSTRUCTURE
      1 S1             1
@<TRIPOS>SET
LONE_PAIRS      STATIC     ATOMS    <user>   **** ""
5 47 48 49 50 51
DONOR_HYDROGENS      STATIC     ATOMS    <user>   **** ""
1 31
ATOM$BLUE        STATIC     ATOMS    COLORGROUP SYSTEM
5 47 48 49 50 51
ATOM$RED        STATIC     ATOMS    COLORGROUP SYSTEM
1 31
