AV-unprocessed.smi:3104|AV-procd|sdf|11817|dock8
  -GOLD-   2272017193D 1   1.00000     0.00000
 Structure written by MMmdl.
 37 38  0  0  0  0  0  0  0  0  2 V2000
  150.7108  135.7842  155.3182 C   0  0  0  0  0  0  0  0  0  0  0  0
  150.9126  137.2710  155.2651 C   0  0  0  0  0  0  0  0  0  0  0  0
  150.8267  138.1244  154.1295 C   0  0  0  0  0  0  0  0  0  0  0  0
  151.0467  139.3948  154.4245 N   0  0  0  0  0  0  0  0  0  0  0  0
  151.3000  139.3992  155.7513 N   0  0  0  0  0  0  0  0  0  0  0  0
  151.5544  140.6653  156.4302 C   0  0  2  0  0  0  0  0  0  0  0  0
  151.8701  140.4094  157.9162 C   0  0  0  0  0  0  0  0  0  0  0  0
  150.3864  141.6650  156.2122 C   0  0  1  0  0  0  0  0  0  0  0  0
  149.1019  141.2443  156.9456 C   0  0  0  0  0  0  0  0  0  0  0  0
  150.7679  143.0219  156.6707 N   0  3  0  0  0  0  0  0  0  0  0  0
  150.7686  143.2056  158.1361 C   0  0  0  0  0  0  0  0  0  0  0  0
  151.0233  144.6517  158.5042 C   0  0  0  0  0  0  0  0  0  0  0  0
  152.4341  145.1319  158.7568 C   0  0  0  0  0  0  0  0  0  0  0  0
  151.4575  145.0311  159.9018 C   0  0  0  0  0  0  0  0  0  0  0  0
  151.2153  138.1282  156.2848 C   0  0  0  0  0  0  0  0  0  0  0  0
  150.7253  135.3370  154.3240 H   0  0  0  0  0  0  0  0  0  0  0  0
  149.7545  135.5252  155.7729 H   0  0  0  0  0  0  0  0  0  0  0  0
  151.4895  135.2928  155.9017 H   0  0  0  0  0  0  0  0  0  0  0  0
  150.6029  137.8602  153.1062 H   0  0  0  0  0  0  0  0  0  0  0  0
  152.4537  141.0963  155.9853 H   0  0  0  0  0  0  0  0  0  0  0  0
  152.2419  141.3073  158.4090 H   0  0  0  0  0  0  0  0  0  0  0  0
  152.6422  139.6468  158.0253 H   0  0  0  0  0  0  0  0  0  0  0  0
  150.9892  140.0707  158.4624 H   0  0  0  0  0  0  0  0  0  0  0  0
  150.1534  141.7035  155.1466 H   0  0  0  0  0  0  0  0  0  0  0  0
  148.7046  140.3058  156.5594 H   0  0  0  0  0  0  0  0  0  0  0  0
  148.3187  141.9932  156.8217 H   0  0  0  0  0  0  0  0  0  0  0  0
  149.2757  141.1201  158.0150 H   0  0  0  0  0  0  0  0  0  0  0  0
  151.6957  143.2270  156.3286 H   0  0  0  0  0  0  0  0  0  0  0  0
  149.8164  142.8861  158.5602 H   0  0  0  0  0  0  0  0  0  0  0  0
  151.5482  142.5838  158.5775 H   0  0  0  0  0  0  0  0  0  0  0  0
  150.3804  145.3606  157.9853 H   0  0  0  0  0  0  0  0  0  0  0  0
  153.2364  144.3978  158.7177 H   0  0  0  0  0  0  0  0  0  0  0  0
  152.6970  146.1283  158.4071 H   0  0  0  0  0  0  0  0  0  0  0  0
  151.0683  145.9596  160.3141 H   0  0  0  0  0  0  0  0  0  0  0  0
  151.6120  144.2302  160.6223 H   0  0  0  0  0  0  0  0  0  0  0  0
  151.3699  137.9390  157.3369 H   0  0  0  0  0  0  0  0  0  0  0  0
  150.1223  143.6839  156.2628 H   0  0  0  0  0  0  0  0  0  0  0  0
  1  2  1  0  0  0  0
  1 16  1  0  0  0  0
  1 17  1  0  0  0  0
  1 18  1  0  0  0  0
  2 15  2  0  0  0  0
  2  3  1  0  0  0  0
  3  4  2  0  0  0  0
  3 19  1  0  0  0  0
  4  5  1  0  0  0  0
  5  6  1  0  0  0  0
  5 15  1  0  0  0  0
  6  7  1  0  0  0  0
  6  8  1  0  0  0  0
  6 20  1  0  0  0  0
  7 21  1  0  0  0  0
  7 22  1  0  0  0  0
  7 23  1  0  0  0  0
  8  9  1  0  0  0  0
  8 10  1  0  0  0  0
  8 24  1  0  0  0  0
  9 25  1  0  0  0  0
  9 26  1  0  0  0  0
  9 27  1  0  0  0  0
 10 11  1  0  0  0  0
 10 28  1  0  0  0  0
 10 37  1  0  0  0  0
 11 12  1  0  0  0  0
 11 29  1  0  0  0  0
 11 30  1  0  0  0  0
 12 14  1  0  0  0  0
 12 13  1  0  0  0  0
 12 31  1  0  0  0  0
 13 14  1  0  0  0  0
 13 32  1  0  0  0  0
 13 33  1  0  0  0  0
 14 34  1  0  0  0  0
 14 35  1  0  0  0  0
 15 36  1  0  0  0  0
M  CHG  1  10   1
M  END
> <s_m_source_file>
AV-unprocessed.smi

> <i_m_source_file_index>
3104

> <i_lp_mmshare_version>
43012

> <i_f3d_flags>
0

> <s_epik_input>
W0NIM11jMVtjSF1ubihbY0hdMSlbQ0BIXShbQ0gzXSlbQ0BIXShbQ0gzXSlbTkhdW0NIMl1bQ0hdMltDSDJdW0NIMl0y

> <s_epik_cmdline>
J2VwaWtfcHl0aG9uJywgJy1waCcsICc3LjAnLCAnLXRuJywgJzgnLCAnLW1hJywgJzIwMCcsICctbWV0YWxfYmluZGluZycsICctaW1hZScsICc8aW5maWxlLm1hZT4nLCAnLW9tYWUnLCAnPG91dGZpbGUubWFlPic=

> <r_lp_tautomer_probability>
1

> <r_epik_Ionization_Penalty>
0.00120445

> <r_epik_Ionization_Penalty_Charging>
0.00118273

> <r_epik_Ionization_Penalty_Neutral>
2.17265e-05

> <r_epik_State_Penalty>
-0

> <r_epik_Charging_Adjusted_Penalty>
0.00118273

> <i_epik_Tot_Q>
1

> <i_epik_Tot_abs_Q>
1

> <r_epik_Metal_State_Penalty>
-0

> <b_epik_Metal_Only>
0

> <s_lp_Force_Field>
OPLS_2005

> <r_lp_Energy>
20.7188

> <b_lp_Chiralities_Consistent>
1

> <s_lp_Variant>
AV-unprocessed.smi:3104-3

> <Gold.Version>
5.8.1

> <Gold.Id.Protein>
6NUR|6NUR_protein|mol2

> <Gold.PLP.Fitness>
46.2220

> <Gold.PLP.PLP>
-34.1910

> <Gold.PLP.part.hbond>
-2.0000

> <Gold.PLP.part.metal>
0.0000

> <Gold.PLP.part.buried>
-5.7226

> <Gold.PLP.part.nonpolar>
-26.2424

> <Gold.PLP.part.repulsive>
0.1957

> <Gold.PLP.ligand.clash>
0.0000

> <Gold.PLP.ligand.torsion>
0.4838

> <Gold.PLP.Chemscore.Hbond>
3.0000

> <Gold.PLP.Chemscore.CHOScore>
1.1261

> <Gold.PLP.Chemscore.Metal>
0.0000

> <Gold.Chemscore.Hbonds>
donor molecule, donor type, donor heavy atom, donor atom, acceptor molecule, acceptor atom, score
      L1  H    10    37       P1  8028  2.00
      P1  H  7989  7998       L1     4  1.00
      L1  C     3    19       P1  7948  0.48
      L1  C     3    19       P1  7949  0.62

> <Gold.PLP.Chemscore.Internal.Correction>
0.6202

> <Gold.Rescore>
     Score         DG    S(hbond)    S(metal)    S(lipo)     H(rot)  DE(clash)    DE(int)     intcor
     18.57     -19.27       1.98        0.00      94.14       1.49       0.08       0.62       ----

> <Gold.Chemscore.Fitness>
18.5701

> <Gold.Chemscore.DG>
-19.2716

> <Gold.Chemscore.ZeroCoef>
-5.4800

> <Gold.Chemscore.Hbond>
1.9753

> <Gold.Chemscore.Metal>
0.0000

> <Gold.Chemscore.Lipo>
94.1407

> <Gold.Chemscore.Internal_Hbond>
0.0000

> <Gold.Chemscore.DEClash>
0.0850

> <Gold.Chemscore.DEInternal>
0.6165

> <Gold.Chemscore.Rot>
1.4923

> <Gold.Chemscore.Internal.Correction>
   9.000000E+99

> <Gold.Chemscore.Hbonds>
donor molecule, donor type, donor heavy atom, donor atom, acceptor molecule, acceptor atom, score
      L1  H    10    37       P1  8028  1.00
      P1  H  7989  7998       L1     4  0.93

> <Gold.Chemscore.Hbond.Weighted>
-6.5975

> <Gold.Chemscore.Metal.Weighted>
-0.0000

> <Gold.Chemscore.Lipo.Weighted>
-11.0145

> <Gold.Chemscore.Internal_Hbond.Weighted>
0.0000

> <Gold.Chemscore.DEClash.Weighted>
0.0850

> <Gold.Chemscore.DEInternal.Weighted>
0.6165

> <Gold.Chemscore.Rot.Weighted>
3.8204

> <Gold.Chemscore.Internal.Correction.Weighted>
   9.000000E+99

> <Gold.Protein.RotatedTorsions>
[ 6907 6896 6895 6894 ] final -107.25 input  -60.11 | X-H torsion
[ 7974 7965 7964 7962 ] final  -49.11 input  175.53 | X-H torsion
[ 8008 7997 7996 7995 ] final   87.31 input   59.86 | X-H torsion
[ 10167 10162 10161 10158 ] final   35.72 input  -65.29 | X-H torsion
[ 10718 10713 10712 10709 ] final   17.21 input   66.30 | X-H torsion
[ 10763 10752 10751 10750 ] final   47.42 input  -60.55 | X-H torsion
[ 11005 11000 10999 10996 ] final  157.36 input  -57.11 | X-H torsion

> <Gold.Protein.ActiveResidues>
 VAL166  LYS551  ARG553  GLY616  TRP617  ASP618  TYR619  PRO620  LYS621  CYS622 
 ASP623  PHE694  ASN695  SER759  ASP760  ASP761  ALA762  ILE779  LEU786  VAL792 
 PHE793  MET794  SER795  GLU796  ALA797  LYS798  CYS799  TRP800  GLU811  SER814 

> <Gold.Protein.RotatedAtoms>
  150.7434  133.9854  159.3589 H   0  0  0  0  0  0  0  0  0  0  0  0  # atno 6907 bound_to 6896
  151.7798  135.0762  160.0381 H   0  0  0  0  0  0  0  0  0  0  0  0  # atno 6908 bound_to 6896
  152.3281  133.5891  159.5827 H   0  0  0  0  0  0  0  0  0  0  0  0  # atno 6909 bound_to 6896
  145.9441  140.7635  142.9537 H   0  0  0  0  0  0  0  0  0  0  0  0  # atno 7974 bound_to 7965
  155.9738  140.3383  155.6600 H   0  0  0  0  0  0  0  0  0  0  0  0  # atno 8008 bound_to 7997
  155.6640  140.0719  157.2562 H   0  0  0  0  0  0  0  0  0  0  0  0  # atno 8009 bound_to 7997
  154.4173  140.1703  156.1794 H   0  0  0  0  0  0  0  0  0  0  0  0  # atno 8010 bound_to 7997
  140.4195  144.1479  150.6146 H   0  0  0  0  0  0  0  0  0  0  0  0  # atno 10167 bound_to 10162
  157.0789  130.6379  149.5822 H   0  0  0  0  0  0  0  0  0  0  0  0  # atno 10718 bound_to 10713
  152.9800  135.5977  154.3760 H   0  0  0  0  0  0  0  0  0  0  0  0  # atno 10763 bound_to 10752
  154.3429  135.2767  155.2415 H   0  0  0  0  0  0  0  0  0  0  0  0  # atno 10764 bound_to 10752
  154.4488  135.5995  153.6233 H   0  0  0  0  0  0  0  0  0  0  0  0  # atno 10765 bound_to 10752
  140.1762  134.8508  157.2749 H   0  0  0  0  0  0  0  0  0  0  0  0  # atno 11005 bound_to 11000
  144.6784  140.2328  143.7353 LP  0  0  0  0  0  0  0  0  0  0  0  0  # atno 17320 bound_to 7965
  145.8260  139.2065  143.1910 LP  0  0  0  0  0  0  0  0  0  0  0  0  # atno 17321 bound_to 7965
  140.4549  143.2472  151.9298 LP  0  0  0  0  0  0  0  0  0  0  0  0  # atno 17342 bound_to 10162
  139.4782  144.5526  151.8363 LP  0  0  0  0  0  0  0  0  0  0  0  0  # atno 17343 bound_to 10162
  155.9929  130.4989  150.7360 LP  0  0  0  0  0  0  0  0  0  0  0  0  # atno 17370 bound_to 10713
  157.4817  131.0903  151.0529 LP  0  0  0  0  0  0  0  0  0  0  0  0  # atno 17371 bound_to 10713
  140.2319  134.3898  155.7518 LP  0  0  0  0  0  0  0  0  0  0  0  0  # atno 17394 bound_to 11000
  141.2220  133.7219  156.8654 LP  0  0  0  0  0  0  0  0  0  0  0  0  # atno 17395 bound_to 11000

$$$$
