AV-unprocessed.smi:2355|AV-procd|sdf|9388|dock9
  -GOLD-   2272013 23D 1   1.00000     0.00000
 Structure written by MMmdl.
 48 49  0  0  0  0  0  0  0  0  1 V2000
  144.7487  132.5441  149.9969 C   0  0  0  0  0  0  0  0  0  0  0  0
  144.4953  133.6619  150.9864 C   0  0  0  0  0  0  0  0  0  0  0  0
  143.2383  133.8116  151.6030 C   0  0  0  0  0  0  0  0  0  0  0  0
  143.0674  134.8718  152.5145 C   0  0  0  0  0  0  0  0  0  0  0  0
  141.7438  135.0900  153.2169 C   0  0  0  0  0  0  0  0  0  0  0  0
  144.0499  135.7458  152.8210 N   0  0  0  0  0  0  0  0  0  0  0  0
  145.2644  135.6121  152.2324 C   0  0  0  0  0  0  0  0  0  0  0  0
  146.3608  136.4796  152.4818 N   0  0  0  0  0  0  0  0  0  0  0  0
  146.3690  137.6296  153.1784 C   0  0  0  0  0  0  0  0  0  0  0  0
  145.3968  138.1206  153.7531 O   0  0  0  0  0  0  0  0  0  0  0  0
  147.5873  138.1899  153.1696 N   0  0  0  0  0  0  0  0  0  0  0  0
  147.9490  139.4632  153.7928 C   0  0  1  0  0  0  0  0  0  0  0  0
  146.8254  140.4904  153.5648 C   0  0  0  0  0  0  0  0  0  0  0  0
  148.3439  139.2518  155.2886 C   0  0  1  0  0  0  0  0  0  0  0  0
  147.1778  138.5689  156.0498 C   0  0  0  0  0  0  0  0  0  0  0  0
  149.6358  138.5424  155.4711 N   0  0  0  0  0  0  0  0  0  0  0  0
  149.5262  137.0884  155.2967 C   0  0  0  0  0  0  0  0  0  0  0  0
  150.8724  136.3631  155.4640 C   0  0  0  0  0  0  0  0  0  0  0  0
  151.8191  136.8928  154.5470 O   0  0  0  0  0  0  0  0  0  0  0  0
  152.0176  138.2870  154.7338 C   0  0  0  0  0  0  0  0  0  0  0  0
  150.6809  139.0294  154.5631 C   0  0  0  0  0  0  0  0  0  0  0  0
  145.5198  134.5751  151.3074 C   0  0  0  0  0  0  0  0  0  0  0  0
  143.8524  131.9441  149.8366 H   0  0  0  0  0  0  0  0  0  0  0  0
  145.5380  131.8877  150.3636 H   0  0  0  0  0  0  0  0  0  0  0  0
  145.0606  132.9540  149.0360 H   0  0  0  0  0  0  0  0  0  0  0  0
  142.4272  133.1325  151.3837 H   0  0  0  0  0  0  0  0  0  0  0  0
  140.9764  134.4175  152.8324 H   0  0  0  0  0  0  0  0  0  0  0  0
  141.4004  136.1150  153.0730 H   0  0  0  0  0  0  0  0  0  0  0  0
  141.8504  134.9098  154.2868 H   0  0  0  0  0  0  0  0  0  0  0  0
  147.2383  136.1990  152.0697 H   0  0  0  0  0  0  0  0  0  0  0  0
  148.3221  137.7130  152.6681 H   0  0  0  0  0  0  0  0  0  0  0  0
  148.8017  139.9006  153.2758 H   0  0  0  0  0  0  0  0  0  0  0  0
  147.0268  141.4196  154.0984 H   0  0  0  0  0  0  0  0  0  0  0  0
  145.8510  140.1205  153.8825 H   0  0  0  0  0  0  0  0  0  0  0  0
  146.7401  140.7350  152.5054 H   0  0  0  0  0  0  0  0  0  0  0  0
  148.4538  140.2479  155.7201 H   0  0  0  0  0  0  0  0  0  0  0  0
  146.2263  139.0714  155.8882 H   0  0  0  0  0  0  0  0  0  0  0  0
  147.3213  138.5913  157.1289 H   0  0  0  0  0  0  0  0  0  0  0  0
  147.0575  137.5276  155.7495 H   0  0  0  0  0  0  0  0  0  0  0  0
  148.8514  136.6603  156.0351 H   0  0  0  0  0  0  0  0  0  0  0  0
  149.1103  136.8627  154.3138 H   0  0  0  0  0  0  0  0  0  0  0  0
  151.2431  136.4684  156.4850 H   0  0  0  0  0  0  0  0  0  0  0  0
  150.7531  135.2961  155.2761 H   0  0  0  0  0  0  0  0  0  0  0  0
  152.4406  138.4740  155.7222 H   0  0  0  0  0  0  0  0  0  0  0  0
  152.7438  138.6427  154.0028 H   0  0  0  0  0  0  0  0  0  0  0  0
  150.3449  138.9363  153.5292 H   0  0  0  0  0  0  0  0  0  0  0  0
  150.8810  140.0848  154.7375 H   0  0  0  0  0  0  0  0  0  0  0  0
  146.4919  134.4790  150.8453 H   0  0  0  0  0  0  0  0  0  0  0  0
  1  2  1  0  0  0  0
  1 23  1  0  0  0  0
  1 24  1  0  0  0  0
  1 25  1  0  0  0  0
  2 22  1  0  0  0  0
  2  3  2  0  0  0  0
  3  4  1  0  0  0  0
  3 26  1  0  0  0  0
  4  5  1  0  0  0  0
  4  6  2  0  0  0  0
  5 27  1  0  0  0  0
  5 28  1  0  0  0  0
  5 29  1  0  0  0  0
  6  7  1  0  0  0  0
  7  8  1  0  0  0  0
  7 22  2  0  0  0  0
  8  9  1  0  0  0  0
  8 30  1  0  0  0  0
  9 10  2  0  0  0  0
  9 11  1  0  0  0  0
 11 12  1  0  0  0  0
 11 31  1  0  0  0  0
 12 13  1  0  0  0  0
 12 14  1  0  0  0  0
 12 32  1  0  0  0  0
 13 33  1  0  0  0  0
 13 34  1  0  0  0  0
 13 35  1  0  0  0  0
 14 15  1  0  0  0  0
 14 16  1  0  0  0  0
 14 36  1  0  0  0  0
 15 37  1  0  0  0  0
 15 38  1  0  0  0  0
 15 39  1  0  0  0  0
 16 21  1  0  0  0  0
 16 17  1  0  0  0  0
 17 18  1  0  0  0  0
 17 40  1  0  0  0  0
 17 41  1  0  0  0  0
 18 19  1  0  0  0  0
 18 42  1  0  0  0  0
 18 43  1  0  0  0  0
 19 20  1  0  0  0  0
 20 21  1  0  0  0  0
 20 44  1  0  0  0  0
 20 45  1  0  0  0  0
 21 46  1  0  0  0  0
 21 47  1  0  0  0  0
 22 48  1  0  0  0  0
M  END
> <s_m_source_file>
AV-unprocessed.smi

> <i_m_source_file_index>
2355

> <i_lp_mmshare_version>
43012

> <i_f3d_flags>
0

> <s_epik_input>
W0NIM11jMVtjSF1jKFtDSDNdKW5jKFtjSF0xKVtOSF1DKD1PKVtOSF1bQ0BIXShbQ0gzXSlbQ0BIXShbQ0gzXSlOMltDSDJdW0NIMl1PW0NIMl1bQ0gyXTI=

> <s_epik_cmdline>
J2VwaWtfcHl0aG9uJywgJy1waCcsICc3LjAnLCAnLXRuJywgJzgnLCAnLW1hJywgJzIwMCcsICctbWV0YWxfYmluZGluZycsICctaW1hZScsICc8aW5maWxlLm1hZT4nLCAnLW9tYWUnLCAnPG91dGZpbGUubWFlPic=

> <r_epik_Ionization_Penalty>
0.266238

> <r_epik_Ionization_Penalty_Charging>
0

> <r_epik_Ionization_Penalty_Neutral>
0.266238

> <r_epik_State_Penalty>
0.257924

> <r_epik_Charging_Adjusted_Penalty>
0.257924

> <i_epik_Tot_Q>
0

> <i_epik_Tot_abs_Q>
0

> <r_epik_Metal_State_Penalty>
0.257904

> <b_epik_Metal_Only>
0

> <s_lp_Force_Field>
OPLS_2005

> <r_lp_Energy>
36.8304

> <b_lp_Chiralities_Consistent>
1

> <s_lp_Variant>
AV-unprocessed.smi:2355-4

> <Gold.Version>
5.8.1

> <Gold.Id.Protein>
6NUR|6NUR_protein|mol2

> <Gold.PLP.Fitness>
40.6018

> <Gold.PLP.PLP>
-32.8325

> <Gold.PLP.part.hbond>
-3.0000

> <Gold.PLP.part.metal>
0.0000

> <Gold.PLP.part.buried>
-4.9079

> <Gold.PLP.part.nonpolar>
-25.6018

> <Gold.PLP.part.repulsive>
0.5129

> <Gold.PLP.ligand.clash>
0.0000

> <Gold.PLP.ligand.torsion>
0.6617

> <Gold.PLP.Chemscore.Hbond>
3.0000

> <Gold.PLP.Chemscore.CHOScore>
0.0000

> <Gold.PLP.Chemscore.Metal>
0.0000

> <Gold.Chemscore.Hbonds>
donor molecule, donor type, donor heavy atom, donor atom, acceptor molecule, acceptor atom, score
      L1  H     8    30       P1  7948  1.00
      L1  H    11    31       P1  7948  1.00
      P1  H 10752 10765       L1    19  1.00

> <Gold.PLP.Chemscore.Internal.Correction>
0.0926

> <Gold.Rescore>
     Score         DG    S(hbond)    S(metal)    S(lipo)     H(rot)  DE(clash)    DE(int)     intcor
     15.92     -20.49       2.89        0.00      76.32       1.40       0.12       4.45       ----

> <Gold.Chemscore.Fitness>
15.9235

> <Gold.Chemscore.DG>
-20.4898

> <Gold.Chemscore.ZeroCoef>
-5.4800

> <Gold.Chemscore.Hbond>
2.8946

> <Gold.Chemscore.Metal>
0.0000

> <Gold.Chemscore.Lipo>
76.3209

> <Gold.Chemscore.Internal_Hbond>
0.0000

> <Gold.Chemscore.DEClash>
0.1177

> <Gold.Chemscore.DEInternal>
4.4486

> <Gold.Chemscore.Rot>
1.4015

> <Gold.Chemscore.Internal.Correction>
   9.000000E+99

> <Gold.Chemscore.Hbonds>
donor molecule, donor type, donor heavy atom, donor atom, acceptor molecule, acceptor atom, score
      L1  H     8    30       P1  7948  0.99
      L1  H    11    31       P1  7948  0.95
      P1  H 10752 10765       L1    19  0.49

> <Gold.Chemscore.Hbond.Weighted>
-9.6680

> <Gold.Chemscore.Metal.Weighted>
-0.0000

> <Gold.Chemscore.Lipo.Weighted>
-8.9295

> <Gold.Chemscore.Internal_Hbond.Weighted>
0.0000

> <Gold.Chemscore.DEClash.Weighted>
0.1177

> <Gold.Chemscore.DEInternal.Weighted>
4.4486

> <Gold.Chemscore.Rot.Weighted>
3.5878

> <Gold.Chemscore.Internal.Correction.Weighted>
   9.000000E+99

> <Gold.Protein.RotatedTorsions>
[ 6907 6896 6895 6894 ] final   34.79 input  -60.11 | X-H torsion
[ 7974 7965 7964 7962 ] final -163.29 input  175.53 | X-H torsion
[ 8008 7997 7996 7995 ] final   79.66 input   59.86 | X-H torsion
[ 10167 10162 10161 10158 ] final   78.50 input  -65.29 | X-H torsion
[ 10718 10713 10712 10709 ] final -146.35 input   66.30 | X-H torsion
[ 10763 10752 10751 10750 ] final  162.99 input  -60.55 | X-H torsion
[ 11005 11000 10999 10996 ] final   73.21 input  -57.11 | X-H torsion

> <Gold.Protein.ActiveResidues>
 VAL166  LYS551  ARG553  GLY616  TRP617  ASP618  TYR619  PRO620  LYS621  CYS622 
 ASP623  PHE694  ASN695  SER759  ASP760  ASP761  ALA762  ILE779  LEU786  VAL792 
 PHE793  MET794  SER795  GLU796  ALA797  LYS798  CYS799  TRP800  GLU811  SER814 

> <Gold.Protein.RotatedAtoms>
  152.1073  134.9299  160.0567 H   0  0  0  0  0  0  0  0  0  0  0  0  # atno 6907 bound_to 6896
  152.0490  133.4006  159.4377 H   0  0  0  0  0  0  0  0  0  0  0  0  # atno 6908 bound_to 6896
  150.6842  134.3249  159.4846 H   0  0  0  0  0  0  0  0  0  0  0  0  # atno 6909 bound_to 6896
  144.7331  140.3129  143.6184 H   0  0  0  0  0  0  0  0  0  0  0  0  # atno 7974 bound_to 7965
  155.8727  140.3448  155.5832 H   0  0  0  0  0  0  0  0  0  0  0  0  # atno 8008 bound_to 7997
  155.7809  140.0858  157.2079 H   0  0  0  0  0  0  0  0  0  0  0  0  # atno 8009 bound_to 7997
  154.4018  140.1501  156.3038 H   0  0  0  0  0  0  0  0  0  0  0  0  # atno 8010 bound_to 7997
  139.9703  144.5899  150.7992 H   0  0  0  0  0  0  0  0  0  0  0  0  # atno 10167 bound_to 10162
  156.3938  130.7899  151.2104 H   0  0  0  0  0  0  0  0  0  0  0  0  # atno 10718 bound_to 10713
  154.2869  135.2762  155.2672 H   0  0  0  0  0  0  0  0  0  0  0  0  # atno 10763 bound_to 10752
  154.5169  135.5767  153.6652 H   0  0  0  0  0  0  0  0  0  0  0  0  # atno 10764 bound_to 10752
  152.9920  135.6195  154.3031 H   0  0  0  0  0  0  0  0  0  0  0  0  # atno 10765 bound_to 10752
  139.9451  134.7327  156.0999 H   0  0  0  0  0  0  0  0  0  0  0  0  # atno 11005 bound_to 11000
  145.7646  139.1836  143.2247 LP  0  0  0  0  0  0  0  0  0  0  0  0  # atno 17320 bound_to 7965
  146.0959  140.7601  142.9573 LP  0  0  0  0  0  0  0  0  0  0  0  0  # atno 17321 bound_to 7965
  140.7524  143.2990  151.3130 LP  0  0  0  0  0  0  0  0  0  0  0  0  # atno 17342 bound_to 10162
  139.6486  144.0404  152.2610 LP  0  0  0  0  0  0  0  0  0  0  0  0  # atno 17343 bound_to 10162
  157.7500  131.0307  150.4151 LP  0  0  0  0  0  0  0  0  0  0  0  0  # atno 17370 bound_to 10713
  156.4417  130.3993  149.6693 LP  0  0  0  0  0  0  0  0  0  0  0  0  # atno 17371 bound_to 10713
  141.1099  133.6647  156.2954 LP  0  0  0  0  0  0  0  0  0  0  0  0  # atno 17394 bound_to 11000
  140.5854  134.5704  157.5488 LP  0  0  0  0  0  0  0  0  0  0  0  0  # atno 17395 bound_to 11000

$$$$
