AV-unprocessed.smi:2630|AV-procd|sdf|10247|dock8
  -GOLD-   2272014253D 1   1.00000     0.00000
 Structure written by MMmdl.
 34 35  0  0  0  0  0  0  0  0  2 V2000
  144.6035  142.4992  155.2022 C   0  0  0  0  0  0  0  0  0  0  0  0
  145.0622  141.1605  155.2570 O   0  0  0  0  0  0  0  0  0  0  0  0
  146.3741  141.0110  154.7406 C   0  0  0  0  0  0  0  0  0  0  0  0
  147.3338  141.9723  155.4627 C   0  0  0  0  0  0  0  0  0  0  0  0
  148.6923  141.4020  155.5883 N   0  0  0  0  0  0  0  0  0  0  0  0
  149.2844  141.3180  156.8765 C   0  0  0  0  0  0  0  0  0  0  0  0
  148.5936  141.7704  157.9888 N   0  0  0  0  0  0  0  0  0  0  0  0
  150.5219  140.7888  157.0037 C   0  0  0  0  0  0  0  0  0  0  0  0
  151.4156  140.5820  158.5284 S   0  0  0  0  0  0  0  0  0  0  0  0
  151.6671  142.2621  158.9982 C   0  0  0  0  0  0  0  0  0  0  0  0
  152.1599  142.5674  160.2824 C   0  0  0  0  0  0  0  0  0  0  0  0
  152.3653  143.9106  160.6541 C   0  0  0  0  0  0  0  0  0  0  0  0
  152.0768  144.9463  159.7434 C   0  0  0  0  0  0  0  0  0  0  0  0
  151.5817  144.6396  158.4606 C   0  0  0  0  0  0  0  0  0  0  0  0
  151.3758  143.2972  158.0873 C   0  0  0  0  0  0  0  0  0  0  0  0
  151.2509  140.3109  155.8272 C   0  0  0  0  0  0  0  0  0  0  0  0
  152.3836  139.8367  155.9255 O   0  0  0  0  0  0  0  0  0  0  0  0
  150.6122  140.4167  154.6304 N   0  5  0  0  0  0  0  0  0  0  0  0
  149.3583  140.9397  154.4827 C   0  0  0  0  0  0  0  0  0  0  0  0
  148.8140  141.0046  153.3798 O   0  0  0  0  0  0  0  0  0  0  0  0
  143.5954  142.5569  155.6124 H   0  0  0  0  0  0  0  0  0  0  0  0
  144.5708  142.8633  154.1748 H   0  0  0  0  0  0  0  0  0  0  0  0
  145.2437  143.1593  155.7888 H   0  0  0  0  0  0  0  0  0  0  0  0
  146.7063  139.9834  154.8947 H   0  0  0  0  0  0  0  0  0  0  0  0
  146.3834  141.1948  153.6652 H   0  0  0  0  0  0  0  0  0  0  0  0
  147.3372  142.9358  154.9510 H   0  0  0  0  0  0  0  0  0  0  0  0
  146.9379  142.2102  156.4500 H   0  0  0  0  0  0  0  0  0  0  0  0
  147.6671  142.1643  157.9108 H   0  0  0  0  0  0  0  0  0  0  0  0
  148.9405  141.6198  158.9250 H   0  0  0  0  0  0  0  0  0  0  0  0
  152.3833  141.7753  160.9818 H   0  0  0  0  0  0  0  0  0  0  0  0
  152.7445  144.1465  161.6373 H   0  0  0  0  0  0  0  0  0  0  0  0
  152.2355  145.9759  160.0284 H   0  0  0  0  0  0  0  0  0  0  0  0
  151.3608  145.4330  157.7619 H   0  0  0  0  0  0  0  0  0  0  0  0
  150.9987  143.0640  157.1021 H   0  0  0  0  0  0  0  0  0  0  0  0
  1  2  1  0  0  0  0
  1 21  1  0  0  0  0
  1 22  1  0  0  0  0
  1 23  1  0  0  0  0
  2  3  1  0  0  0  0
  3  4  1  0  0  0  0
  3 24  1  0  0  0  0
  3 25  1  0  0  0  0
  4  5  1  0  0  0  0
  4 26  1  0  0  0  0
  4 27  1  0  0  0  0
  5 19  1  0  0  0  0
  5  6  1  0  0  0  0
  6  7  1  0  0  0  0
  6  8  2  0  0  0  0
  7 28  1  0  0  0  0
  7 29  1  0  0  0  0
  8  9  1  0  0  0  0
  8 16  1  0  0  0  0
  9 10  1  0  0  0  0
 10 15  1  0  0  0  0
 10 11  2  0  0  0  0
 11 12  1  0  0  0  0
 11 30  1  0  0  0  0
 12 13  2  0  0  0  0
 12 31  1  0  0  0  0
 13 14  1  0  0  0  0
 13 32  1  0  0  0  0
 14 15  2  0  0  0  0
 14 33  1  0  0  0  0
 15 34  1  0  0  0  0
 16 17  2  0  0  0  0
 16 18  1  0  0  0  0
 18 19  1  0  0  0  0
 19 20  2  0  0  0  0
M  CHG  1  18  -1
M  END
> <s_m_source_file>
AV-unprocessed.smi

> <i_m_source_file_index>
2630

> <i_lp_mmshare_version>
43012

> <i_f3d_flags>
0

> <s_epik_input>
W0NIM11PW0NIMl1bQ0gyXW4xYyhbTkgyXSljKGMoPU8pW25IXWMxPU8pU2MyW2NIXVtjSF1bY0hdW2NIXVtjSF0y

> <s_epik_cmdline>
J2VwaWtfcHl0aG9uJywgJy1waCcsICc3LjAnLCAnLXRuJywgJzgnLCAnLW1hJywgJzIwMCcsICctbWV0YWxfYmluZGluZycsICctaW1hZScsICc8aW5maWxlLm1hZT4nLCAnLW9tYWUnLCAnPG91dGZpbGUubWFlPic=

> <r_lp_tautomer_probability>
1

> <r_epik_Ionization_Penalty>
6.52921

> <r_epik_Ionization_Penalty_Charging>
0.111036

> <r_epik_Ionization_Penalty_Neutral>
6.41817

> <r_epik_State_Penalty>
6.41816

> <r_epik_Charging_Adjusted_Penalty>
6.5292

> <i_epik_Tot_Q>
-1

> <i_epik_Tot_abs_Q>
1

> <r_epik_Metal_State_Penalty>
2.337

> <b_epik_Metal_Only>
1

> <s_epik_Chemistry_Notes>
This compound has an imine and may undergo hydrolysis.

> <s_lp_Force_Field>
OPLS_2005

> <r_lp_Energy>
30.4306

> <b_lp_Chiralities_Consistent>
1

> <s_lp_Variant>
AV-unprocessed.smi:2630-2

> <Gold.Version>
5.8.1

> <Gold.Id.Protein>
6NUR|6NUR_protein|mol2

> <Gold.PLP.Fitness>
45.2422

> <Gold.PLP.PLP>
-36.9814

> <Gold.PLP.part.hbond>
-3.1506

> <Gold.PLP.part.metal>
0.0000

> <Gold.PLP.part.buried>
-4.5688

> <Gold.PLP.part.nonpolar>
-33.6315

> <Gold.PLP.part.repulsive>
4.1694

> <Gold.PLP.ligand.clash>
0.0000

> <Gold.PLP.ligand.torsion>
0.3864

> <Gold.PLP.Chemscore.Hbond>
3.0000

> <Gold.PLP.Chemscore.CHOScore>
0.0000

> <Gold.PLP.Chemscore.Metal>
0.0000

> <Gold.Chemscore.Hbonds>
donor molecule, donor type, donor heavy atom, donor atom, acceptor molecule, acceptor atom, score
      P1  H  7989  7998       L1    18  1.00
      P1  H  7997  8010       L1    17  1.00
      P1  H  8011  8017       L1    20  1.00

> <Gold.PLP.Chemscore.Internal.Correction>
0.0335

> <Gold.Rescore>
     Score         DG    S(hbond)    S(metal)    S(lipo)     H(rot)  DE(clash)    DE(int)     intcor
     15.36     -18.82       2.37        0.00      90.50       2.02       1.69       1.77       ----

> <Gold.Chemscore.Fitness>
15.3583

> <Gold.Chemscore.DG>
-18.8173

> <Gold.Chemscore.ZeroCoef>
-5.4800

> <Gold.Chemscore.Hbond>
2.3738

> <Gold.Chemscore.Metal>
0.0000

> <Gold.Chemscore.Lipo>
90.5007

> <Gold.Chemscore.Internal_Hbond>
0.0000

> <Gold.Chemscore.DEClash>
1.6889

> <Gold.Chemscore.DEInternal>
1.7701

> <Gold.Chemscore.Rot>
2.0234

> <Gold.Chemscore.Internal.Correction>
   9.000000E+99

> <Gold.Chemscore.Hbonds>
donor molecule, donor type, donor heavy atom, donor atom, acceptor molecule, acceptor atom, score
      P1  H  7989  7998       L1    18  0.64
      P1  H  7997  8010       L1    17  0.95
      P1  H  8011  8017       L1    20  0.56

> <Gold.Chemscore.Hbond.Weighted>
-7.9285

> <Gold.Chemscore.Metal.Weighted>
-0.0000

> <Gold.Chemscore.Lipo.Weighted>
-10.5886

> <Gold.Chemscore.Internal_Hbond.Weighted>
0.0000

> <Gold.Chemscore.DEClash.Weighted>
1.6889

> <Gold.Chemscore.DEInternal.Weighted>
1.7701

> <Gold.Chemscore.Rot.Weighted>
5.1798

> <Gold.Chemscore.Internal.Correction.Weighted>
   9.000000E+99

> <Gold.Protein.RotatedTorsions>
[ 6907 6896 6895 6894 ] final  146.65 input  -60.11 | X-H torsion
[ 7974 7965 7964 7962 ] final   -1.76 input  175.53 | X-H torsion
[ 8008 7997 7996 7995 ] final   90.38 input   59.86 | X-H torsion
[ 10167 10162 10161 10158 ] final  146.31 input  -65.29 | X-H torsion
[ 10718 10713 10712 10709 ] final  -77.13 input   66.30 | X-H torsion
[ 10763 10752 10751 10750 ] final -173.15 input  -60.55 | X-H torsion
[ 11005 11000 10999 10996 ] final   53.36 input  -57.11 | X-H torsion

> <Gold.Protein.ActiveResidues>
 VAL166  LYS551  ARG553  GLY616  TRP617  ASP618  TYR619  PRO620  LYS621  CYS622 
 ASP623  PHE694  ASN695  SER759  ASP760  ASP761  ALA762  ILE779  LEU786  VAL792 
 PHE793  MET794  SER795  GLU796  ALA797  LYS798  CYS799  TRP800  GLU811  SER814 

> <Gold.Protein.RotatedAtoms>
  152.1651  133.4607  159.4880 H   0  0  0  0  0  0  0  0  0  0  0  0  # atno 6907 bound_to 6896
  150.6912  134.2023  159.4336 H   0  0  0  0  0  0  0  0  0  0  0  0  # atno 6908 bound_to 6896
  151.9927  134.9970  160.0613 H   0  0  0  0  0  0  0  0  0  0  0  0  # atno 6909 bound_to 6896
  146.2413  140.1469  142.8334 H   0  0  0  0  0  0  0  0  0  0  0  0  # atno 7974 bound_to 7965
  156.0112  140.3350  155.6943 H   0  0  0  0  0  0  0  0  0  0  0  0  # atno 8008 bound_to 7997
  155.6155  140.0669  157.2711 H   0  0  0  0  0  0  0  0  0  0  0  0  # atno 8009 bound_to 7997
  154.4282  140.1786  156.1304 H   0  0  0  0  0  0  0  0  0  0  0  0  # atno 8010 bound_to 7997
  139.4909  144.5839  151.6818 H   0  0  0  0  0  0  0  0  0  0  0  0  # atno 10167 bound_to 10162
  156.0154  130.4483  150.3298 H   0  0  0  0  0  0  0  0  0  0  0  0  # atno 10718 bound_to 10713
  154.6112  135.2865  155.0430 H   0  0  0  0  0  0  0  0  0  0  0  0  # atno 10763 bound_to 10752
  154.1659  135.6480  153.5001 H   0  0  0  0  0  0  0  0  0  0  0  0  # atno 10764 bound_to 10752
  153.0196  135.5389  154.6866 H   0  0  0  0  0  0  0  0  0  0  0  0  # atno 10765 bound_to 10752
  140.0774  134.5386  155.8982 H   0  0  0  0  0  0  0  0  0  0  0  0  # atno 11005 bound_to 11000
  145.0200  140.8785  143.5172 LP  0  0  0  0  0  0  0  0  0  0  0  0  # atno 17320 bound_to 7965
  145.1516  139.2511  143.5438 LP  0  0  0  0  0  0  0  0  0  0  0  0  # atno 17321 bound_to 7965
  140.5450  144.0517  150.6103 LP  0  0  0  0  0  0  0  0  0  0  0  0  # atno 17342 bound_to 10162
  140.3552  143.2940  152.0444 LP  0  0  0  0  0  0  0  0  0  0  0  0  # atno 17343 bound_to 10162
  157.1396  131.0293  151.2933 LP  0  0  0  0  0  0  0  0  0  0  0  0  # atno 17370 bound_to 10713
  157.4483  130.7583  149.7128 LP  0  0  0  0  0  0  0  0  0  0  0  0  # atno 17371 bound_to 10713
  141.2034  133.6632  156.6062 LP  0  0  0  0  0  0  0  0  0  0  0  0  # atno 17394 bound_to 11000
  140.3538  134.7746  157.4486 LP  0  0  0  0  0  0  0  0  0  0  0  0  # atno 17395 bound_to 11000

$$$$
