#       Name:                AV-unprocessed.smi:1433
#       Creating user name   scv26
#       Creation time:       Fri Mar 27 05:50:58 2020


#       File generated by GOLD software.
#

@<TRIPOS>MOLECULE
AV-unprocessed.smi:1433
    50    51     1
SMALL
NO_CHARGES


@<TRIPOS>ATOM
      1 ****        -4.2626  -2.5948   0.4381 C.3            1 S1                 0.0000
      2 ****        -2.8589  -1.9930   0.5662 C.3            1 S1                 0.0000
      3 ****        -2.8574  -0.7122   1.4312 C.3            1 S1                 0.0000
      4 ****        -1.4783  -0.1951   1.6489 N.4            1 S1                 1.0000
      5 ****        -0.9103   0.5651   0.4833 C.3            1 S1                 0.0000
      6 ****        -1.6013   1.9435   0.3660 C.3            1 S1                 0.0000
      7 ****         0.6327   0.7340   0.5495 C.3            1 S1                 0.0000
      8 ****         1.1750   1.4725  -0.5883 N.am           1 S1                 0.0000
      9 ****         1.6586   2.7254  -0.5473 C.2            1 S1                 0.0000
     10 ****         1.6631   3.4151   0.4716 O.2            1 S1                 0.0000
     11 ****         2.2002   3.3014  -1.8591 C.3            1 S1                 0.0000
     12 ****         3.2470   2.4702  -2.4300 N.pl3          1 S1                 0.0000
     13 ****         3.1574   1.5818  -3.4814 C.2            1 S1                 0.0000
     14 ****         4.3949   1.0315  -3.6556 C.2            1 S1                 0.0000
     15 ****         5.1876   1.6575  -2.6534 C.2            1 S1                 0.0000
     16 ****         4.4983   2.5182  -1.9222 N.2            1 S1                 0.0000
     17 ****        -0.6480  -1.2923   2.2168 C.3            1 S1                 0.0000
     18 ****        -0.6669  -2.5344   1.3033 C.3            1 S1                 0.0000
     19 ****         0.1487  -3.6929   1.8871 C.3            1 S1                 0.0000
     20 ****        -2.0147  -2.9708   1.1648 O.3            1 S1                 0.0000
     21 ****        -4.9522  -1.8882  -0.0244 H              1 S1                 0.0000
     22 ****        -4.6669  -2.8670   1.4136 H              1 S1                 0.0000
     23 ****        -4.2466  -3.4941  -0.1781 H              1 S1                 0.0000
     24 ****        -2.4926  -1.7753  -0.4377 H              1 S1                 0.0000
     25 ****        -3.5120   0.0391   0.9947 H              1 S1                 0.0000
     26 ****        -3.2866  -0.9404   2.4080 H              1 S1                 0.0000
     27 ****        -1.1240   0.0062  -0.4275 H              1 S1                 0.0000
     28 ****        -1.2672   2.4894  -0.5157 H              1 S1                 0.0000
     29 ****        -1.3875   2.5640   1.2368 H              1 S1                 0.0000
     30 ****        -2.6828   1.8708   0.2719 H              1 S1                 0.0000
     31 ****         0.9234   1.1981   1.4937 H              1 S1                 0.0000
     32 ****         1.1270  -0.2363   0.5159 H              1 S1                 0.0000
     33 ****         1.2090   0.9858  -1.4725 H              1 S1                 0.0000
     34 ****         1.3857   3.3911  -2.5788 H              1 S1                 0.0000
     35 ****         2.5951   4.3053  -1.6952 H              1 S1                 0.0000
     36 ****         2.2306   1.4159  -4.0109 H              1 S1                 0.0000
     37 ****         4.6902   0.2955  -4.3886 H              1 S1                 0.0000
     38 ****         6.2359   1.5131  -2.4372 H              1 S1                 0.0000
     39 ****         0.3667  -0.9714   2.4462 H              1 S1                 0.0000
     40 ****        -1.0734  -1.5629   3.1845 H              1 S1                 0.0000
     41 ****        -0.2627  -2.2887   0.3199 H              1 S1                 0.0000
     42 ****         1.1966  -3.4161   2.0052 H              1 S1                 0.0000
     43 ****         0.1082  -4.5654   1.2346 H              1 S1                 0.0000
     44 ****        -0.2313  -3.9909   2.8647 H              1 S1                 0.0000
     45 ****        -1.5459   0.4914   2.3869 H              1 S1                 0.0000
     46 ****         1.2940   3.0481   1.3255 LP             1 S1                 0.0000
     47 ****         2.0358   4.3427   0.4459 LP             1 S1                 0.0000
     48 ****         4.8293   3.0790  -1.1633 LP             1 S1                 0.0000
     49 ****        -2.0263  -3.7929   0.5956 LP             1 S1                 0.0000
     50 ****        -2.3737  -3.1887   2.0724 LP             1 S1                 0.0000
@<TRIPOS>BOND
    1    1    2 1     
    2    1   21 1     
    3    1   22 1     
    4    1   23 1     
    5    2   20 1     
    6    2    3 1     
    7    2   24 1     
    8    3    4 1     
    9    3   25 1     
   10    3   26 1     
   11    4    5 1     
   12    4   17 1     
   13    4   45 1     
   14    5    6 1     
   15    5    7 1     
   16    5   27 1     
   17    6   28 1     
   18    6   29 1     
   19    6   30 1     
   20    7    8 1     
   21    7   31 1     
   22    7   32 1     
   23    8    9 am    
   24    8   33 1     
   25    9   10 2     
   26    9   11 1     
   27   11   12 1     
   28   11   34 1     
   29   11   35 1     
   30   12   16 1     
   31   12   13 1     
   32   13   14 2     
   33   13   36 1     
   34   14   15 1     
   35   14   37 1     
   36   15   16 2     
   37   15   38 1     
   38   17   18 1     
   39   17   39 1     
   40   17   40 1     
   41   18   19 1     
   42   18   20 1     
   43   18   41 1     
   44   19   42 1     
   45   19   43 1     
   46   19   44 1     
   47   10   46 1     
   48   10   47 1     
   49   16   48 1     
   50   20   49 1     
   51   20   50 1     
@<TRIPOS>SUBSTRUCTURE
      1 S1             1
@<TRIPOS>SET
LONE_PAIRS      STATIC     ATOMS    <user>   **** ""
5 46 47 48 49 50
DONOR_HYDROGENS      STATIC     ATOMS    <user>   **** ""
2 45 33
ATOM$BLUE        STATIC     ATOMS    COLORGROUP SYSTEM
5 46 47 48 49 50
ATOM$RED        STATIC     ATOMS    COLORGROUP SYSTEM
2 45 33
