#       Name:                AV-unprocessed.smi:3293
#       Creating user name   scv26
#       Creation time:       Fri Mar 27 18:56:56 2020


#       File generated by GOLD software.
#

@<TRIPOS>MOLECULE
AV-unprocessed.smi:3293
    45    46     1
SMALL
NO_CHARGES


@<TRIPOS>ATOM
      1 ****         0.3743   3.3223   0.9077 C.3            1 S1                 0.0000
      2 ****        -1.0516   2.8042   0.9989 C.2            1 S1                 0.0000
      3 ****        -1.8337   3.1178   2.0506 C.2            1 S1                 0.0000
      4 ****        -3.2859   2.7008   2.2065 C.3            1 S1                 0.0000
      5 ****        -3.7563   1.7229   1.1167 C.3            1 S1                 0.0000
      6 ****        -3.1208   2.0459  -0.2468 C.3            1 S1                 0.0000
      7 ****        -3.7501   1.2262  -1.3865 C.3            1 S1                 0.0000
      8 ****        -1.5699   1.9605  -0.1732 C.3            1 S1                 0.0000
      9 ****        -1.0455   0.5012  -0.1241 C.3            1 S1                 0.0000
     10 ****         0.4208   0.4098  -0.2673 N.4            1 S1                 1.0000
     11 ****         0.9451  -0.9691  -0.2316 C.3            1 S1                 0.0000
     12 ****         2.4712  -0.9837  -0.3868 C.3            1 S1                 0.0000
     13 ****         3.0125  -2.3857  -0.3672 C.2            1 S1                 0.0000
     14 ****         3.3398  -3.1819   0.7676 C.2            1 S1                 0.0000
     15 ****         3.7913  -4.3817   0.4413 N.2            1 S1                 0.0000
     16 ****         3.7719  -4.3933  -0.9073 N.pl3          1 S1                 0.0000
     17 ****         4.2121  -5.5750  -1.6178 C.3            1 S1                 0.0000
     18 ****         3.3064  -3.2029  -1.4226 C.2            1 S1                 0.0000
     19 ****         0.5606   3.7610  -0.0728 H              1 S1                 0.0000
     20 ****         1.0995   2.5290   1.0800 H              1 S1                 0.0000
     21 ****         0.5578   4.0958   1.6544 H              1 S1                 0.0000
     22 ****        -1.4386   3.7360   2.8438 H              1 S1                 0.0000
     23 ****        -3.4356   2.2631   3.1937 H              1 S1                 0.0000
     24 ****        -3.8901   3.6079   2.1699 H              1 S1                 0.0000
     25 ****        -3.5072   0.7020   1.4069 H              1 S1                 0.0000
     26 ****        -4.8443   1.7579   1.0483 H              1 S1                 0.0000
     27 ****        -3.3641   3.0870  -0.4677 H              1 S1                 0.0000
     28 ****        -3.6990   0.1542  -1.1964 H              1 S1                 0.0000
     29 ****        -3.2563   1.4276  -2.3376 H              1 S1                 0.0000
     30 ****        -4.8042   1.4786  -1.5064 H              1 S1                 0.0000
     31 ****        -1.1923   2.4186  -1.0888 H              1 S1                 0.0000
     32 ****        -1.3404   0.0241   0.8112 H              1 S1                 0.0000
     33 ****        -1.4770  -0.0884  -0.9318 H              1 S1                 0.0000
     34 ****         0.6831   0.8304  -1.1473 H              1 S1                 0.0000
     35 ****         0.6608  -1.4374   0.7120 H              1 S1                 0.0000
     36 ****         0.4835  -1.5485  -1.0324 H              1 S1                 0.0000
     37 ****         2.7445  -0.4834  -1.3168 H              1 S1                 0.0000
     38 ****         2.9212  -0.3919   0.4115 H              1 S1                 0.0000
     39 ****         3.2607  -2.9252   1.8139 H              1 S1                 0.0000
     40 ****         4.1507  -5.4093  -2.6938 H              1 S1                 0.0000
     41 ****         3.5790  -6.4226  -1.3534 H              1 S1                 0.0000
     42 ****         5.2455  -5.8018  -1.3536 H              1 S1                 0.0000
     43 ****         3.2228  -3.0381  -2.4869 H              1 S1                 0.0000
     44 ****         0.8482   0.9355   0.4820 H              1 S1                 0.0000
     45 ****         4.0816  -5.1150   1.0561 LP             1 S1                 0.0000
@<TRIPOS>BOND
    1    1    2 1     
    2    1   19 1     
    3    1   20 1     
    4    1   21 1     
    5    2    8 1     
    6    2    3 2     
    7    3    4 1     
    8    3   22 1     
    9    4    5 1     
   10    4   23 1     
   11    4   24 1     
   12    5    6 1     
   13    5   25 1     
   14    5   26 1     
   15    6    7 1     
   16    6    8 1     
   17    6   27 1     
   18    7   28 1     
   19    7   29 1     
   20    7   30 1     
   21    8    9 1     
   22    8   31 1     
   23    9   10 1     
   24    9   32 1     
   25    9   33 1     
   26   10   11 1     
   27   10   34 1     
   28   10   44 1     
   29   11   12 1     
   30   11   35 1     
   31   11   36 1     
   32   12   13 1     
   33   12   37 1     
   34   12   38 1     
   35   13   18 2     
   36   13   14 1     
   37   14   15 2     
   38   14   39 1     
   39   15   16 1     
   40   16   17 1     
   41   16   18 1     
   42   17   40 1     
   43   17   41 1     
   44   17   42 1     
   45   18   43 1     
   46   15   45 1     
@<TRIPOS>SUBSTRUCTURE
      1 S1             1
@<TRIPOS>SET
LONE_PAIRS      STATIC     ATOMS    <user>   **** ""
1 45
DONOR_HYDROGENS      STATIC     ATOMS    <user>   **** ""
2 34 44
ATOM$BLUE        STATIC     ATOMS    COLORGROUP SYSTEM
1 45
ATOM$RED        STATIC     ATOMS    COLORGROUP SYSTEM
2 34 44
