AV-unprocessed.smi:655|AV-procd|sdf|3217|dock1
  -GOLD-   22720 0153D 1   1.00000     0.00000
 Structure written by MMmdl.
 34 35  0  0  0  0  0  0  0  0  2 V2000
  153.8637  141.1145  160.5582 C   0  0  0  0  0  0  0  0  0  0  0  0
  152.5263  141.6901  160.0713 C   0  0  2  0  0  0  0  0  0  0  0  0
  151.8049  140.7141  159.1249 C   0  0  0  0  0  0  0  0  0  0  0  0
  150.4662  141.2859  158.6214 C   0  0  0  0  0  0  0  0  0  0  0  0
  150.6236  142.6671  157.9394 C   0  0  2  0  0  0  0  0  0  0  0  0
  149.3316  143.2275  157.8012 O   0  0  0  0  0  0  0  0  0  0  0  0
  151.2753  142.6392  156.5233 C   0  0  0  0  0  0  0  0  0  0  0  0
  150.7199  141.6263  155.6027 N   0  0  0  0  0  0  0  0  0  0  0  0
  149.6283  142.0170  154.8059 C   0  0  0  0  0  0  0  0  0  0  0  0
  149.0414  141.1818  153.9274 C   0  0  0  0  0  0  0  0  0  0  0  0
  147.6989  141.6956  152.9690 Cl  0  0  0  0  0  0  0  0  0  0  0  0
  149.5773  139.8284  153.8073 C   0  0  0  0  0  0  0  0  0  0  0  0
  149.0550  139.0328  153.0277 O   0  0  0  0  0  0  0  0  0  0  0  0
  150.6554  139.5045  154.5785 N   0  5  0  0  0  0  0  0  0  0  0  0
  151.2461  140.3721  155.4570 C   0  0  0  0  0  0  0  0  0  0  0  0
  152.2347  140.0556  156.1167 O   0  0  0  0  0  0  0  0  0  0  0  0
  151.3801  143.6279  158.8878 C   0  0  0  0  0  0  0  0  0  0  0  0
  152.7186  143.0535  159.3836 C   0  0  0  0  0  0  0  0  0  0  0  0
  154.5442  140.9344  159.7253 H   0  0  0  0  0  0  0  0  0  0  0  0
  153.7177  140.1678  161.0791 H   0  0  0  0  0  0  0  0  0  0  0  0
  154.3572  141.7982  161.2493 H   0  0  0  0  0  0  0  0  0  0  0  0
  151.8938  141.8400  160.9474 H   0  0  0  0  0  0  0  0  0  0  0  0
  152.4558  140.4850  158.2831 H   0  0  0  0  0  0  0  0  0  0  0  0
  151.6240  139.7674  159.6346 H   0  0  0  0  0  0  0  0  0  0  0  0
  149.9784  140.5729  157.9570 H   0  0  0  0  0  0  0  0  0  0  0  0
  149.8006  141.3850  159.4804 H   0  0  0  0  0  0  0  0  0  0  0  0
  149.4182  144.0715  157.3847 H   0  0  0  0  0  0  0  0  0  0  0  0
  151.1742  143.6221  156.0599 H   0  0  0  0  0  0  0  0  0  0  0  0
  152.3529  142.5037  156.6168 H   0  0  0  0  0  0  0  0  0  0  0  0
  149.2991  143.0355  154.9516 H   0  0  0  0  0  0  0  0  0  0  0  0
  151.5489  144.5886  158.3995 H   0  0  0  0  0  0  0  0  0  0  0  0
  150.7609  143.8417  159.7610 H   0  0  0  0  0  0  0  0  0  0  0  0
  153.1769  143.7570  160.0795 H   0  0  0  0  0  0  0  0  0  0  0  0
  153.4149  142.9555  158.5506 H   0  0  0  0  0  0  0  0  0  0  0  0
  1  2  1  0  0  0  0
  1 19  1  0  0  0  0
  1 20  1  0  0  0  0
  1 21  1  0  0  0  0
  2 18  1  0  0  0  0
  2  3  1  0  0  0  0
  2 22  1  0  0  0  0
  3  4  1  0  0  0  0
  3 23  1  0  0  0  0
  3 24  1  0  0  0  0
  4  5  1  0  0  0  0
  4 25  1  0  0  0  0
  4 26  1  0  0  0  0
  5  6  1  0  0  0  0
  5  7  1  0  0  0  0
  5 17  1  0  0  0  0
  6 27  1  0  0  0  0
  7  8  1  0  0  0  0
  7 28  1  0  0  0  0
  7 29  1  0  0  0  0
  8 15  1  0  0  0  0
  8  9  1  0  0  0  0
  9 10  2  0  0  0  0
  9 30  1  0  0  0  0
 10 11  1  0  0  0  0
 10 12  1  0  0  0  0
 12 13  2  0  0  0  0
 12 14  1  0  0  0  0
 14 15  1  0  0  0  0
 15 16  2  0  0  0  0
 17 18  1  0  0  0  0
 17 31  1  0  0  0  0
 17 32  1  0  0  0  0
 18 33  1  0  0  0  0
 18 34  1  0  0  0  0
M  CHG  1  14  -1
M  END
> <s_m_source_file>
AV-unprocessed.smi

> <i_m_source_file_index>
655

> <i_lp_mmshare_version>
43012

> <i_f3d_flags>
0

> <s_epik_input>
W0NIMl0xW0NIMl1bQ0BIXShbQ0gzXSlbQ0gyXVtDSDJdW0NAQF0xKFtPSF0pW0NIMl1uMltjSF1jKENsKWMoPU8pW25IXWMyPU8=

> <s_epik_cmdline>
J2VwaWtfcHl0aG9uJywgJy1waCcsICc3LjAnLCAnLXRuJywgJzgnLCAnLW1hJywgJzIwMCcsICctbWV0YWxfYmluZGluZycsICctaW1hZScsICc8aW5maWxlLm1hZT4nLCAnLW9tYWUnLCAnPG91dGZpbGUubWFlPic=

> <r_epik_Ionization_Penalty>
2.34257

> <r_epik_Ionization_Penalty_Charging>
1.00552e-07

> <r_epik_Ionization_Penalty_Neutral>
2.34257

> <r_epik_State_Penalty>
2.4963

> <r_epik_Charging_Adjusted_Penalty>
2.4963

> <i_epik_Tot_Q>
-1

> <i_epik_Tot_abs_Q>
1

> <r_epik_Metal_State_Penalty>
0.0381881

> <b_epik_Metal_Only>
0

> <s_lp_Force_Field>
OPLS_2005

> <r_lp_Energy>
26.7084

> <b_lp_Chiralities_Consistent>
1

> <s_lp_Variant>
AV-unprocessed.smi:655-4

> <Gold.Version>
5.8.1

> <Gold.Id.Protein>
6NUR|6NUR_protein|mol2

> <Gold.PLP.Fitness>
45.4858

> <Gold.PLP.PLP>
-37.7979

> <Gold.PLP.part.hbond>
-2.6864

> <Gold.PLP.part.metal>
0.0000

> <Gold.PLP.part.buried>
-2.7618

> <Gold.PLP.part.nonpolar>
-33.4669

> <Gold.PLP.part.repulsive>
1.3794

> <Gold.PLP.ligand.clash>
0.0000

> <Gold.PLP.ligand.torsion>
0.4609

> <Gold.PLP.Chemscore.Hbond>
1.8320

> <Gold.PLP.Chemscore.CHOScore>
1.0000

> <Gold.PLP.Chemscore.Metal>
0.0000

> <Gold.Chemscore.Hbonds>
donor molecule, donor type, donor heavy atom, donor atom, acceptor molecule, acceptor atom, score
      L1  H     6    27       P1  8028  0.64
      P1  H  7997  8010       L1    16  0.81
      L1  C     9    30       P1  8028  0.58

> <Gold.PLP.Chemscore.Internal.Correction>
0.1138

> <Gold.Rescore>
     Score         DG    S(hbond)    S(metal)    S(lipo)     H(rot)  DE(clash)    DE(int)     intcor
     15.63     -16.34       1.32        0.00      94.84       1.81       0.32       0.39       ----

> <Gold.Chemscore.Fitness>
15.6328

> <Gold.Chemscore.DG>
-16.3405

> <Gold.Chemscore.ZeroCoef>
-5.4800

> <Gold.Chemscore.Hbond>
1.3162

> <Gold.Chemscore.Metal>
0.0000

> <Gold.Chemscore.Lipo>
94.8368

> <Gold.Chemscore.Internal_Hbond>
0.0000

> <Gold.Chemscore.DEClash>
0.3156

> <Gold.Chemscore.DEInternal>
0.3921

> <Gold.Chemscore.Rot>
1.8092

> <Gold.Chemscore.Internal.Correction>
   9.000000E+99

> <Gold.Chemscore.Hbonds>
donor molecule, donor type, donor heavy atom, donor atom, acceptor molecule, acceptor atom, score
      L1  H     6    27       P1  8028  0.15
      P1  H  7997  8010       L1    16  0.78

> <Gold.Chemscore.Hbond.Weighted>
-4.3962

> <Gold.Chemscore.Metal.Weighted>
-0.0000

> <Gold.Chemscore.Lipo.Weighted>
-11.0959

> <Gold.Chemscore.Internal_Hbond.Weighted>
0.0000

> <Gold.Chemscore.DEClash.Weighted>
0.3156

> <Gold.Chemscore.DEInternal.Weighted>
0.3921

> <Gold.Chemscore.Rot.Weighted>
4.6316

> <Gold.Chemscore.Internal.Correction.Weighted>
   9.000000E+99

> <Gold.Protein.RotatedTorsions>
[ 6907 6896 6895 6894 ] final  -45.41 input  -60.11 | X-H torsion
[ 7974 7965 7964 7962 ] final    9.19 input  175.53 | X-H torsion
[ 8008 7997 7996 7995 ] final   79.30 input   59.86 | X-H torsion
[ 10167 10162 10161 10158 ] final  149.04 input  -65.29 | X-H torsion
[ 10718 10713 10712 10709 ] final    3.81 input   66.30 | X-H torsion
[ 10763 10752 10751 10750 ] final   49.78 input  -60.55 | X-H torsion
[ 11005 11000 10999 10996 ] final  -80.45 input  -57.11 | X-H torsion

> <Gold.Protein.ActiveResidues>
 VAL166  LYS551  ARG553  GLY616  TRP617  ASP618  TYR619  PRO620  LYS621  CYS622 
 ASP623  PHE694  ASN695  SER759  ASP760  ASP761  ALA762  ILE779  LEU786  VAL792 
 PHE793  MET794  SER795  GLU796  ALA797  LYS798  CYS799  TRP800  GLU811  SER814 

> <Gold.Protein.RotatedAtoms>
  150.9223  134.8640  159.7496 H   0  0  0  0  0  0  0  0  0  0  0  0  # atno 6907 bound_to 6896
  152.4998  134.4201  159.9487 H   0  0  0  0  0  0  0  0  0  0  0  0  # atno 6908 bound_to 6896
  151.4234  133.3652  159.2794 H   0  0  0  0  0  0  0  0  0  0  0  0  # atno 6909 bound_to 6896
  146.2407  139.9821  142.8435 H   0  0  0  0  0  0  0  0  0  0  0  0  # atno 7974 bound_to 7965
  155.8677  140.3450  155.5800 H   0  0  0  0  0  0  0  0  0  0  0  0  # atno 8008 bound_to 7997
  155.7862  140.0865  157.2052 H   0  0  0  0  0  0  0  0  0  0  0  0  # atno 8009 bound_to 7997
  154.4015  140.1491  156.3097 H   0  0  0  0  0  0  0  0  0  0  0  0  # atno 8010 bound_to 7997
  139.4866  144.5633  151.7192 H   0  0  0  0  0  0  0  0  0  0  0  0  # atno 10167 bound_to 10162
  156.8833  130.5661  149.5652 H   0  0  0  0  0  0  0  0  0  0  0  0  # atno 10718 bound_to 10713
  152.9786  135.5900  154.4145 H   0  0  0  0  0  0  0  0  0  0  0  0  # atno 10763 bound_to 10752
  154.3777  135.2767  155.2232 H   0  0  0  0  0  0  0  0  0  0  0  0  # atno 10764 bound_to 10752
  154.4159  135.6070  153.6035 H   0  0  0  0  0  0  0  0  0  0  0  0  # atno 10765 bound_to 10752
  141.1668  133.7151  156.8275 H   0  0  0  0  0  0  0  0  0  0  0  0  # atno 11005 bound_to 11000
  145.1582  140.9659  143.4393 LP  0  0  0  0  0  0  0  0  0  0  0  0  # atno 17320 bound_to 7965
  145.0141  139.3483  143.6105 LP  0  0  0  0  0  0  0  0  0  0  0  0  # atno 17321 bound_to 7965
  140.5206  144.0884  150.6021 LP  0  0  0  0  0  0  0  0  0  0  0  0  # atno 17342 bound_to 10162
  140.3841  143.2787  152.0136 LP  0  0  0  0  0  0  0  0  0  0  0  0  # atno 17343 bound_to 10162
  156.0666  130.5708  150.9300 LP  0  0  0  0  0  0  0  0  0  0  0  0  # atno 17370 bound_to 10713
  157.6127  131.0935  150.8766 LP  0  0  0  0  0  0  0  0  0  0  0  0  # atno 17371 bound_to 10713
  140.2075  134.8852  157.3238 LP  0  0  0  0  0  0  0  0  0  0  0  0  # atno 17394 bound_to 11000
  140.2122  134.4125  155.7607 LP  0  0  0  0  0  0  0  0  0  0  0  0  # atno 17395 bound_to 11000

$$$$
