AV-unprocessed.smi:685|AV-procd|sdf|3336|dock4
  -GOLD-   22720 0303D 1   1.00000     0.00000
 Structure written by MMmdl.
 51 52  0  0  0  0  0  0  0  0  2 V2000
  149.5952  141.4532  155.3330 C   0  0  0  0  0  0  0  0  0  0  0  0
  150.5343  141.8900  156.4071 C   0  0  0  0  0  0  0  0  0  0  0  0
  150.7223  143.1830  156.7843 N   0  3  0  0  0  0  0  0  0  0  0  0
  151.6245  143.2504  157.7739 N   0  0  0  0  0  0  0  0  0  0  0  0
  151.9707  144.5582  158.3309 C   0  0  0  0  0  0  0  0  0  0  0  0
  152.0754  142.0023  158.0866 C   0  0  0  0  0  0  0  0  0  0  0  0
  153.0904  141.7058  159.1424 C   0  0  0  0  0  0  0  0  0  0  0  0
  151.3856  141.1389  157.2257 C   0  0  0  0  0  0  0  0  0  0  0  0
  151.5221  139.6431  157.1791 C   0  0  0  0  0  0  0  0  0  0  0  0
  151.3600  139.0647  155.7563 C   0  0  1  0  0  0  0  0  0  0  0  0
  152.6986  138.9284  155.0142 C   0  0  0  0  0  0  0  0  0  0  0  0
  150.7098  137.7583  155.8107 N   0  0  0  0  0  0  0  0  0  0  0  0
  151.3102  136.6110  156.1651 C   0  0  0  0  0  0  0  0  0  0  0  0
  152.4993  136.5431  156.4786 O   0  0  0  0  0  0  0  0  0  0  0  0
  150.4317  135.3565  156.1689 C   0  0  0  0  0  0  0  0  0  0  0  0
  149.9946  134.9269  154.7553 C   0  0  0  0  0  0  0  0  0  0  0  0
  149.2268  133.5932  154.7381 C   0  0  0  0  0  0  0  0  0  0  0  0
  150.0963  132.3869  155.0994 C   0  0  0  0  0  0  0  0  0  0  0  0
  149.3208  131.1722  154.5804 C   0  0  0  0  0  0  0  0  0  0  0  0
  148.4264  131.6895  153.4435 C   0  0  0  0  0  0  0  0  0  0  0  0
  148.6502  133.2050  153.3726 C   0  0  0  0  0  0  0  0  0  0  0  0
  149.0167  140.5901  155.6629 H   0  0  0  0  0  0  0  0  0  0  0  0
  150.1515  141.1759  154.4375 H   0  0  0  0  0  0  0  0  0  0  0  0
  148.9029  142.2556  155.0774 H   0  0  0  0  0  0  0  0  0  0  0  0
  152.1010  144.4663  159.4097 H   0  0  0  0  0  0  0  0  0  0  0  0
  151.1747  145.2754  158.1260 H   0  0  0  0  0  0  0  0  0  0  0  0
  152.9011  144.9023  157.8786 H   0  0  0  0  0  0  0  0  0  0  0  0
  153.6272  140.7856  158.9131 H   0  0  0  0  0  0  0  0  0  0  0  0
  152.6015  141.5921  160.1098 H   0  0  0  0  0  0  0  0  0  0  0  0
  153.8188  142.5139  159.2117 H   0  0  0  0  0  0  0  0  0  0  0  0
  152.4816  139.3320  157.5935 H   0  0  0  0  0  0  0  0  0  0  0  0
  150.7737  139.2040  157.8398 H   0  0  0  0  0  0  0  0  0  0  0  0
  150.7251  139.7324  155.1714 H   0  0  0  0  0  0  0  0  0  0  0  0
  153.1898  139.8947  154.8977 H   0  0  0  0  0  0  0  0  0  0  0  0
  152.5522  138.5174  154.0148 H   0  0  0  0  0  0  0  0  0  0  0  0
  153.3836  138.2682  155.5473 H   0  0  0  0  0  0  0  0  0  0  0  0
  149.7295  137.7247  155.5705 H   0  0  0  0  0  0  0  0  0  0  0  0
  150.9915  134.5512  156.6455 H   0  0  0  0  0  0  0  0  0  0  0  0
  149.5526  135.5355  156.7891 H   0  0  0  0  0  0  0  0  0  0  0  0
  149.3838  135.7095  154.3025 H   0  0  0  0  0  0  0  0  0  0  0  0
  150.8760  134.8240  154.1203 H   0  0  0  0  0  0  0  0  0  0  0  0
  148.4078  133.6444  155.4576 H   0  0  0  0  0  0  0  0  0  0  0  0
  151.0557  132.4517  154.5838 H   0  0  0  0  0  0  0  0  0  0  0  0
  150.3004  132.3245  156.1688 H   0  0  0  0  0  0  0  0  0  0  0  0
  149.9921  130.3804  154.2465 H   0  0  0  0  0  0  0  0  0  0  0  0
  148.7000  130.7592  155.3763 H   0  0  0  0  0  0  0  0  0  0  0  0
  148.6634  131.2120  152.4923 H   0  0  0  0  0  0  0  0  0  0  0  0
  147.3815  131.4699  153.6662 H   0  0  0  0  0  0  0  0  0  0  0  0
  147.7330  133.7458  153.1371 H   0  0  0  0  0  0  0  0  0  0  0  0
  149.3741  133.4268  152.5870 H   0  0  0  0  0  0  0  0  0  0  0  0
  150.2806  144.0181  156.4206 H   0  0  0  0  0  0  0  0  0  0  0  0
  1  2  1  0  0  0  0
  1 22  1  0  0  0  0
  1 23  1  0  0  0  0
  1 24  1  0  0  0  0
  2  8  1  0  0  0  0
  2  3  2  0  0  0  0
  3  4  1  0  0  0  0
  3 51  1  0  0  0  0
  4  5  1  0  0  0  0
  4  6  1  0  0  0  0
  5 25  1  0  0  0  0
  5 26  1  0  0  0  0
  5 27  1  0  0  0  0
  6  7  1  0  0  0  0
  6  8  2  0  0  0  0
  7 28  1  0  0  0  0
  7 29  1  0  0  0  0
  7 30  1  0  0  0  0
  8  9  1  0  0  0  0
  9 10  1  0  0  0  0
  9 31  1  0  0  0  0
  9 32  1  0  0  0  0
 10 11  1  0  0  0  0
 10 12  1  0  0  0  0
 10 33  1  0  0  0  0
 11 34  1  0  0  0  0
 11 35  1  0  0  0  0
 11 36  1  0  0  0  0
 12 13  1  0  0  0  0
 12 37  1  0  0  0  0
 13 14  2  0  0  0  0
 13 15  1  0  0  0  0
 15 16  1  0  0  0  0
 15 38  1  0  0  0  0
 15 39  1  0  0  0  0
 16 17  1  0  0  0  0
 16 40  1  0  0  0  0
 16 41  1  0  0  0  0
 17 21  1  0  0  0  0
 17 18  1  0  0  0  0
 17 42  1  0  0  0  0
 18 19  1  0  0  0  0
 18 43  1  0  0  0  0
 18 44  1  0  0  0  0
 19 20  1  0  0  0  0
 19 45  1  0  0  0  0
 19 46  1  0  0  0  0
 20 21  1  0  0  0  0
 20 47  1  0  0  0  0
 20 48  1  0  0  0  0
 21 49  1  0  0  0  0
 21 50  1  0  0  0  0
M  CHG  1   3   1
M  END
> <s_m_source_file>
AV-unprocessed.smi

> <i_m_source_file_index>
685

> <i_lp_mmshare_version>
43012

> <i_f3d_flags>
0

> <s_epik_input>
W0NIM11jMW5uKFtDSDNdKWMoW0NIM10pYzFbQ0gyXVtDQEhdKFtDSDNdKVtOSF1DKD1PKVtDSDJdW0NIMl1bQ0hdMltDSDJdW0NIMl1bQ0gyXVtDSDJdMg==

> <s_epik_cmdline>
J2VwaWtfcHl0aG9uJywgJy1waCcsICc3LjAnLCAnLXRuJywgJzgnLCAnLW1hJywgJzIwMCcsICctbWV0YWxfYmluZGluZycsICctaW1hZScsICc8aW5maWxlLm1hZT4nLCAnLW9tYWUnLCAnPG91dGZpbGUubWFlPic=

> <r_lp_tautomer_probability>
1

> <r_epik_Ionization_Penalty>
2.26429

> <r_epik_Ionization_Penalty_Charging>
2.26429

> <r_epik_Ionization_Penalty_Neutral>
2.3289e-07

> <r_epik_State_Penalty>
2.41237

> <r_epik_Charging_Adjusted_Penalty>
4.67666

> <i_epik_Tot_Q>
1

> <i_epik_Tot_abs_Q>
1

> <r_epik_Metal_State_Penalty>
2.42525

> <b_epik_Metal_Only>
0

> <s_lp_Force_Field>
OPLS_2005

> <r_lp_Energy>
28.4866

> <b_lp_Chiralities_Consistent>
1

> <s_lp_Variant>
AV-unprocessed.smi:685-4

> <Gold.Version>
5.8.1

> <Gold.Id.Protein>
6NUR|6NUR_protein|mol2

> <Gold.PLP.Fitness>
51.8671

> <Gold.PLP.PLP>
-44.8171

> <Gold.PLP.part.hbond>
-2.0000

> <Gold.PLP.part.metal>
0.0000

> <Gold.PLP.part.buried>
-4.1439

> <Gold.PLP.part.nonpolar>
-39.5126

> <Gold.PLP.part.repulsive>
0.0783

> <Gold.PLP.ligand.clash>
0.0079

> <Gold.PLP.ligand.torsion>
1.0861

> <Gold.PLP.Chemscore.Hbond>
2.9840

> <Gold.PLP.Chemscore.CHOScore>
0.0000

> <Gold.PLP.Chemscore.Metal>
0.0000

> <Gold.Chemscore.Hbonds>
donor molecule, donor type, donor heavy atom, donor atom, acceptor molecule, acceptor atom, score
      L1  H     3    51       P1  8028  1.95
      P1  H 10752 10765       L1    14  1.00

> <Gold.PLP.Chemscore.Internal.Correction>
0.2781

> <Gold.Rescore>
     Score         DG    S(hbond)    S(metal)    S(lipo)     H(rot)  DE(clash)    DE(int)     intcor
     16.61     -20.15       1.94        0.00     105.32       1.61       0.13       3.41       ----

> <Gold.Chemscore.Fitness>
16.6075

> <Gold.Chemscore.DG>
-20.1523

> <Gold.Chemscore.ZeroCoef>
-5.4800

> <Gold.Chemscore.Hbond>
1.9371

> <Gold.Chemscore.Metal>
0.0000

> <Gold.Chemscore.Lipo>
105.3215

> <Gold.Chemscore.Internal_Hbond>
0.0000

> <Gold.Chemscore.DEClash>
0.1341

> <Gold.Chemscore.DEInternal>
3.4107

> <Gold.Chemscore.Rot>
1.6095

> <Gold.Chemscore.Internal.Correction>
   9.000000E+99

> <Gold.Chemscore.Hbonds>
donor molecule, donor type, donor heavy atom, donor atom, acceptor molecule, acceptor atom, score
      L1  H     3    51       P1  8028  0.93
      P1  H 10752 10765       L1    14  0.50

> <Gold.Chemscore.Hbond.Weighted>
-6.4699

> <Gold.Chemscore.Metal.Weighted>
-0.0000

> <Gold.Chemscore.Lipo.Weighted>
-12.3226

> <Gold.Chemscore.Internal_Hbond.Weighted>
0.0000

> <Gold.Chemscore.DEClash.Weighted>
0.1341

> <Gold.Chemscore.DEInternal.Weighted>
3.4107

> <Gold.Chemscore.Rot.Weighted>
4.1202

> <Gold.Chemscore.Internal.Correction.Weighted>
   9.000000E+99

> <Gold.Protein.RotatedTorsions>
[ 6907 6896 6895 6894 ] final  -57.41 input  -60.11 | X-H torsion
[ 7974 7965 7964 7962 ] final  -82.71 input  175.53 | X-H torsion
[ 8008 7997 7996 7995 ] final -100.63 input   59.86 | X-H torsion
[ 10167 10162 10161 10158 ] final  129.80 input  -65.29 | X-H torsion
[ 10718 10713 10712 10709 ] final  150.38 input   66.30 | X-H torsion
[ 10763 10752 10751 10750 ] final -140.63 input  -60.55 | X-H torsion
[ 11005 11000 10999 10996 ] final -122.96 input  -57.11 | X-H torsion

> <Gold.Protein.ActiveResidues>
 VAL166  LYS551  ARG553  GLY616  TRP617  ASP618  TYR619  PRO620  LYS621  CYS622 
 ASP623  PHE694  ASN695  SER759  ASP760  ASP761  ALA762  ILE779  LEU786  VAL792 
 PHE793  MET794  SER795  GLU796  ALA797  LYS798  CYS799  TRP800  GLU811  SER814 

> <Gold.Protein.RotatedAtoms>
  150.8088  134.7231  159.6668 H   0  0  0  0  0  0  0  0  0  0  0  0  # atno 6907 bound_to 6896
  152.4208  134.5955  159.9995 H   0  0  0  0  0  0  0  0  0  0  0  0  # atno 6908 bound_to 6896
  151.6171  133.3305  159.3116 H   0  0  0  0  0  0  0  0  0  0  0  0  # atno 6909 bound_to 6896
  145.5296  140.9522  143.1610 H   0  0  0  0  0  0  0  0  0  0  0  0  # atno 7974 bound_to 7965
  154.8313  140.0439  157.1479 H   0  0  0  0  0  0  0  0  0  0  0  0  # atno 8008 bound_to 7997
  154.9149  140.3019  155.5226 H   0  0  0  0  0  0  0  0  0  0  0  0  # atno 8009 bound_to 7997
  156.2987  140.2351  156.4193 H   0  0  0  0  0  0  0  0  0  0  0  0  # atno 8010 bound_to 7997
  139.5460  144.6774  151.4471 H   0  0  0  0  0  0  0  0  0  0  0  0  # atno 10167 bound_to 10162
  157.2842  131.0841  151.1510 H   0  0  0  0  0  0  0  0  0  0  0  0  # atno 10718 bound_to 10713
  154.8572  135.3548  154.5738 H   0  0  0  0  0  0  0  0  0  0  0  0  # atno 10763 bound_to 10752
  153.6350  135.7000  153.5266 H   0  0  0  0  0  0  0  0  0  0  0  0  # atno 10764 bound_to 10752
  153.3018  135.4204  155.1218 H   0  0  0  0  0  0  0  0  0  0  0  0  # atno 10765 bound_to 10752
  140.9955  134.0477  157.3602 H   0  0  0  0  0  0  0  0  0  0  0  0  # atno 11005 bound_to 11000
  144.7633  139.6905  143.7225 LP  0  0  0  0  0  0  0  0  0  0  0  0  # atno 17320 bound_to 7965
  146.2053  139.5373  142.9717 LP  0  0  0  0  0  0  0  0  0  0  0  0  # atno 17321 bound_to 7965
  140.6708  143.8297  150.6998 LP  0  0  0  0  0  0  0  0  0  0  0  0  # atno 17342 bound_to 10162
  140.1720  143.4186  152.1994 LP  0  0  0  0  0  0  0  0  0  0  0  0  # atno 17343 bound_to 10162
  157.2932  130.6806  149.6125 LP  0  0  0  0  0  0  0  0  0  0  0  0  # atno 17370 bound_to 10713
  155.9665  130.4414  150.5340 LP  0  0  0  0  0  0  0  0  0  0  0  0  # atno 17371 bound_to 10713
  139.9013  135.0165  156.7280 LP  0  0  0  0  0  0  0  0  0  0  0  0  # atno 17394 bound_to 11000
  140.6972  133.9338  155.8002 LP  0  0  0  0  0  0  0  0  0  0  0  0  # atno 17395 bound_to 11000

$$$$
