#       Name:                AV-unprocessed.smi:1535
#       Creating user name   scv26
#       Creation time:       Fri Mar 27 06:34:34 2020


#       File generated by GOLD software.
#

@<TRIPOS>MOLECULE
AV-unprocessed.smi:1535
    51    52     1
SMALL
NO_CHARGES


@<TRIPOS>ATOM
      1 ****        -5.1495   0.9883  -2.7450 C.3            1 S1                 0.0000
      2 ****        -3.9524   1.2956  -1.8622 C.ar           1 S1                 0.0000
      3 ****        -2.9472   2.1637  -2.3451 C.ar           1 S1                 0.0000
      4 ****        -1.8199   2.4768  -1.5551 C.ar           1 S1                 0.0000
      5 ****        -0.7316   3.2890  -1.8231 N.2            1 S1                 0.0000
      6 ****        -0.0273   3.1738  -0.7013 C.2            1 S1                 0.0000
      7 ****        -0.5248   2.3703   0.2588 N.pl3          1 S1                 0.0000
      8 ****         0.0664   2.0808   1.5525 C.3            1 S1                 0.0000
      9 ****         0.5938   0.6356   1.6521 C.3            1 S1                 0.0000
     10 ****         1.1871   0.4782   2.9249 O.3            1 S1                 0.0000
     11 ****         1.6416   0.2870   0.5711 C.3            1 S1                 0.0000
     12 ****         2.0663  -1.1364   0.6302 N.4            1 S1                 1.0000
     13 ****         1.0738  -2.0505   0.0129 C.3            1 S1                 0.0000
     14 ****         3.4396  -1.3378   0.0961 C.3            1 S1                 0.0000
     15 ****         4.0593  -2.6868   0.5101 C.3            1 S1                 0.0000
     16 ****         5.4764  -2.8477  -0.0547 C.3            1 S1                 0.0000
     17 ****         4.0605  -2.8494   1.9731 C.1            1 S1                 0.0000
     18 ****         4.0582  -2.9742   3.1227 N.1            1 S1                 0.0000
     19 ****        -1.7228   1.8904  -0.2593 C.ar           1 S1                 0.0000
     20 ****        -2.7169   1.0263   0.2329 C.ar           1 S1                 0.0000
     21 ****        -3.8378   0.7258  -0.5688 C.ar           1 S1                 0.0000
     22 ****        -4.9066  -0.2074  -0.0279 C.3            1 S1                 0.0000
     23 ****        -5.0683   1.4834  -3.7131 H              1 S1                 0.0000
     24 ****        -6.0704   1.3289  -2.2711 H              1 S1                 0.0000
     25 ****        -5.2279  -0.0843  -2.9244 H              1 S1                 0.0000
     26 ****        -3.0351   2.5990  -3.3297 H              1 S1                 0.0000
     27 ****         0.9099   3.6962  -0.5743 H              1 S1                 0.0000
     28 ****         0.8741   2.7925   1.7310 H              1 S1                 0.0000
     29 ****        -0.6876   2.2646   2.3192 H              1 S1                 0.0000
     30 ****        -0.2546  -0.0449   1.5938 H              1 S1                 0.0000
     31 ****         0.5422   0.6799   3.5866 H              1 S1                 0.0000
     32 ****         1.2629   0.4946  -0.4307 H              1 S1                 0.0000
     33 ****         2.4985   0.9477   0.7103 H              1 S1                 0.0000
     34 ****         1.0173  -1.8944  -1.0652 H              1 S1                 0.0000
     35 ****         0.0771  -1.8986   0.4248 H              1 S1                 0.0000
     36 ****         1.3290  -3.0937   0.1932 H              1 S1                 0.0000
     37 ****         3.4248  -1.2390  -0.9905 H              1 S1                 0.0000
     38 ****         4.0918  -0.5469   0.4692 H              1 S1                 0.0000
     39 ****         3.4589  -3.5042   0.1128 H              1 S1                 0.0000
     40 ****         5.8963  -3.8173   0.2151 H              1 S1                 0.0000
     41 ****         6.1457  -2.0775   0.3299 H              1 S1                 0.0000
     42 ****         5.4773  -2.7787  -1.1430 H              1 S1                 0.0000
     43 ****        -2.6191   0.5994   1.2200 H              1 S1                 0.0000
     44 ****        -4.6747  -0.5332   0.9865 H              1 S1                 0.0000
     45 ****        -4.9892  -1.0956  -0.6546 H              1 S1                 0.0000
     46 ****        -5.8756   0.2919  -0.0048 H              1 S1                 0.0000
     47 ****         2.1128  -1.3631   1.6141 H              1 S1                 0.0000
     48 ****        -0.5286   3.8222  -2.6444 LP             1 S1                 0.0000
     49 ****         1.9653   1.1000   3.0127 LP             1 S1                 0.0000
     50 ****         1.4998  -0.4650   3.0362 LP             1 S1                 0.0000
     51 ****         4.0562  -3.0821   4.1169 LP             1 S1                 0.0000
@<TRIPOS>BOND
    1    1    2 1     
    2    1   23 1     
    3    1   24 1     
    4    1   25 1     
    5    2   21 ar    
    6    2    3 ar    
    7    3    4 ar    
    8    3   26 1     
    9    4   19 ar    
   10    4    5 1     
   11    5    6 2     
   12    6    7 1     
   13    6   27 1     
   14    7    8 1     
   15    7   19 1     
   16    8    9 1     
   17    8   28 1     
   18    8   29 1     
   19    9   10 1     
   20    9   11 1     
   21    9   30 1     
   22   10   31 1     
   23   11   12 1     
   24   11   32 1     
   25   11   33 1     
   26   12   13 1     
   27   12   14 1     
   28   12   47 1     
   29   13   34 1     
   30   13   35 1     
   31   13   36 1     
   32   14   15 1     
   33   14   37 1     
   34   14   38 1     
   35   15   16 1     
   36   15   17 1     
   37   15   39 1     
   38   16   40 1     
   39   16   41 1     
   40   16   42 1     
   41   17   18 3     
   42   19   20 ar    
   43   20   21 ar    
   44   20   43 1     
   45   21   22 1     
   46   22   44 1     
   47   22   45 1     
   48   22   46 1     
   49    5   48 1     
   50   10   49 1     
   51   10   50 1     
   52   18   51 1     
@<TRIPOS>SUBSTRUCTURE
      1 S1             1
@<TRIPOS>SET
LONE_PAIRS      STATIC     ATOMS    <user>   **** ""
4 48 49 50 51
DONOR_HYDROGENS      STATIC     ATOMS    <user>   **** ""
2 31 47
ATOM$BLUE        STATIC     ATOMS    COLORGROUP SYSTEM
4 48 49 50 51
ATOM$RED        STATIC     ATOMS    COLORGROUP SYSTEM
2 31 47
