#       Name:                AV-unprocessed.smi:1225
#       Creating user name   scv26
#       Creation time:       Fri Mar 27 04:20:12 2020


#       File generated by GOLD software.
#

@<TRIPOS>MOLECULE
AV-unprocessed.smi:1225
    53    55     1
SMALL
NO_CHARGES


@<TRIPOS>ATOM
      1 ****        -4.4683   4.8899   1.6606 C.3            1 S1                 0.0000
      2 ****        -4.5391   3.4587   1.2508 C.2            1 S1                 0.0000
      3 ****        -5.4681   2.9704   0.4259 N.2            1 S1                 0.0000
      4 ****        -5.3133   1.6007   0.2000 C.2            1 S1                 0.0000
      5 ****        -4.2456   1.0454   0.8611 C.2            1 S1                 0.0000
      6 ****        -3.8044  -0.3839   0.8377 C.3            1 S1                 0.0000
      7 ****        -2.4329  -0.5724   0.3623 N.3            1 S1                 0.0000
      8 ****        -2.3059  -0.1882  -1.0435 C.3            1 S1                 0.0000
      9 ****        -2.0004  -1.9540   0.5860 C.3            1 S1                 0.0000
     10 ****        -0.4927  -2.2154   0.3995 C.3            1 S1                 0.0000
     11 ****        -0.2664  -3.6018   0.5544 O.3            1 S1                 0.0000
     12 ****         0.3678  -1.4477   1.4239 C.3            1 S1                 0.0000
     13 ****         1.8060  -1.6945   1.2602 N.pl3          1 S1                 0.0000
     14 ****         2.6397  -2.5180   1.9518 C.2            1 S1                 0.0000
     15 ****         3.8844  -2.3854   1.4144 N.pl3          1 S1                 1.0000
     16 ****         3.8442  -1.4608   0.3681 C.ar           1 S1                 0.0000
     17 ****         4.8455  -0.9936  -0.4749 C.ar           1 S1                 0.0000
     18 ****         4.4744  -0.0409  -1.4510 C.ar           1 S1                 0.0000
     19 ****         5.5452   0.4901  -2.3889 C.3            1 S1                 0.0000
     20 ****         3.1335   0.4122  -1.5571 C.ar           1 S1                 0.0000
     21 ****         2.7453   1.4363  -2.6101 C.3            1 S1                 0.0000
     22 ****         2.1299  -0.0747  -0.6895 C.ar           1 S1                 0.0000
     23 ****         2.5133  -1.0130   0.2652 C.ar           1 S1                 0.0000
     24 ****        -3.3987   2.2414   1.8098 S.3            1 S1                 0.0000
     25 ****        -5.3314   5.4409   1.2855 H              1 S1                 0.0000
     26 ****        -3.5619   5.3460   1.2623 H              1 S1                 0.0000
     27 ****        -4.4509   4.9661   2.7479 H              1 S1                 0.0000
     28 ****        -6.0109   1.0966  -0.4525 H              1 S1                 0.0000
     29 ****        -3.8937  -0.7754   1.8517 H              1 S1                 0.0000
     30 ****        -4.4914  -0.9729   0.2281 H              1 S1                 0.0000
     31 ****        -1.2730  -0.2492  -1.3822 H              1 S1                 0.0000
     32 ****        -2.6235   0.8425  -1.2015 H              1 S1                 0.0000
     33 ****        -2.9133  -0.8295  -1.6834 H              1 S1                 0.0000
     34 ****        -2.2615  -2.2505   1.6031 H              1 S1                 0.0000
     35 ****        -2.5675  -2.6174  -0.0695 H              1 S1                 0.0000
     36 ****        -0.1859  -1.9614  -0.6142 H              1 S1                 0.0000
     37 ****         0.6454  -3.7773   0.3795 H              1 S1                 0.0000
     38 ****         0.1968  -0.3726   1.3548 H              1 S1                 0.0000
     39 ****         0.0976  -1.7376   2.4403 H              1 S1                 0.0000
     40 ****         2.3633  -3.1609   2.7754 H              1 S1                 0.0000
     41 ****         5.8639  -1.3430  -0.3879 H              1 S1                 0.0000
     42 ****         5.3073   0.2373  -3.4223 H              1 S1                 0.0000
     43 ****         6.5232   0.0666  -2.1583 H              1 S1                 0.0000
     44 ****         5.6248   1.5743  -2.3065 H              1 S1                 0.0000
     45 ****         1.6779   1.6568  -2.5776 H              1 S1                 0.0000
     46 ****         2.9778   1.0670  -3.6091 H              1 S1                 0.0000
     47 ****         3.2840   2.3708  -2.4513 H              1 S1                 0.0000
     48 ****         1.1091   0.2697  -0.7680 H              1 S1                 0.0000
     49 ****         4.6995  -2.8887   1.7408 H              1 S1                 0.0000
     50 ****        -6.1935   3.5232   0.0157 LP             1 S1                 0.0000
     51 ****        -1.8296   0.0274   0.8879 LP             1 S1                 0.0000
     52 ****        -0.8376  -4.1110  -0.0893 LP             1 S1                 0.0000
     53 ****        -0.4900  -3.8779   1.4891 LP             1 S1                 0.0000
@<TRIPOS>BOND
    1    1    2 1     
    2    1   25 1     
    3    1   26 1     
    4    1   27 1     
    5    2   24 1     
    6    2    3 2     
    7    3    4 1     
    8    4    5 2     
    9    4   28 1     
   10    5    6 1     
   11    5   24 1     
   12    6    7 1     
   13    6   29 1     
   14    6   30 1     
   15    7    8 1     
   16    7    9 1     
   17    8   31 1     
   18    8   32 1     
   19    8   33 1     
   20    9   10 1     
   21    9   34 1     
   22    9   35 1     
   23   10   11 1     
   24   10   12 1     
   25   10   36 1     
   26   11   37 1     
   27   12   13 1     
   28   12   38 1     
   29   12   39 1     
   30   13   23 1     
   31   13   14 1     
   32   14   15 2     
   33   14   40 1     
   34   15   16 1     
   35   15   49 1     
   36   16   23 ar    
   37   16   17 ar    
   38   17   18 ar    
   39   17   41 1     
   40   18   19 1     
   41   18   20 ar    
   42   19   42 1     
   43   19   43 1     
   44   19   44 1     
   45   20   21 1     
   46   20   22 ar    
   47   21   45 1     
   48   21   46 1     
   49   21   47 1     
   50   22   23 ar    
   51   22   48 1     
   52    3   50 1     
   53    7   51 1     
   54   11   52 1     
   55   11   53 1     
@<TRIPOS>SUBSTRUCTURE
      1 S1             1
@<TRIPOS>SET
LONE_PAIRS      STATIC     ATOMS    <user>   **** ""
4 50 51 52 53
DONOR_HYDROGENS      STATIC     ATOMS    <user>   **** ""
2 37 49
ATOM$BLUE        STATIC     ATOMS    COLORGROUP SYSTEM
4 50 51 52 53
ATOM$RED        STATIC     ATOMS    COLORGROUP SYSTEM
2 37 49
