AV-unprocessed.smi:1948|AV-procd|sdf|7876|dock4
  -GOLD-   2272010 23D 1   1.00000     0.00000
 Structure written by MMmdl.
 29 30  0  0  0  0  0  0  0  0  2 V2000
  146.4121  130.3100  154.0829 O   0  0  0  0  0  0  0  0  0  0  0  0
  147.2410  130.2437  153.1722 C   0  0  0  0  0  0  0  0  0  0  0  0
  148.3656  129.4918  153.1665 N   0  5  0  0  0  0  0  0  0  0  0  0
  148.4709  128.4467  152.3291 C   0  0  0  0  0  0  0  0  0  0  0  0
  149.3548  127.4549  152.5259 N   0  0  0  0  0  0  0  0  0  0  0  0
  149.2972  126.4702  151.5490 N   0  0  0  0  0  0  0  0  0  0  0  0
  148.3614  126.7423  150.6397 C   0  0  0  0  0  0  0  0  0  0  0  0
  147.4626  128.2227  150.8967 S   0  0  0  0  0  0  0  0  0  0  0  0
  147.0672  130.9636  152.0541 N   0  0  0  0  0  0  0  0  0  0  0  0
  145.9558  131.8701  151.7769 C   0  0  2  0  0  0  0  0  0  0  0  0
  144.8430  131.1457  150.9931 C   0  0  0  0  0  0  0  0  0  0  0  0
  143.6900  132.1008  150.6378 C   0  0  0  0  0  0  0  0  0  0  0  0
  144.1771  133.3538  149.8855 C   0  0  2  0  0  0  0  0  0  0  0  0
  144.5938  133.0064  148.5795 O   0  0  0  0  0  0  0  0  0  0  0  0
  145.3239  134.0561  150.6363 C   0  0  0  0  0  0  0  0  0  0  0  0
  146.4683  133.0896  150.9894 C   0  0  0  0  0  0  0  0  0  0  0  0
  148.1965  126.0652  149.8151 H   0  0  0  0  0  0  0  0  0  0  0  0
  147.7700  130.8746  151.3350 H   0  0  0  0  0  0  0  0  0  0  0  0
  145.5464  132.2286  152.7236 H   0  0  0  0  0  0  0  0  0  0  0  0
  145.2554  130.7145  150.0798 H   0  0  0  0  0  0  0  0  0  0  0  0
  144.4547  130.3104  151.5767 H   0  0  0  0  0  0  0  0  0  0  0  0
  142.9349  131.5758  150.0518 H   0  0  0  0  0  0  0  0  0  0  0  0
  143.1958  132.4111  151.5593 H   0  0  0  0  0  0  0  0  0  0  0  0
  143.3445  134.0497  149.7770 H   0  0  0  0  0  0  0  0  0  0  0  0
  144.9626  133.7729  148.1680 H   0  0  0  0  0  0  0  0  0  0  0  0
  145.7060  134.8911  150.0479 H   0  0  0  0  0  0  0  0  0  0  0  0
  144.9320  134.4888  151.5577 H   0  0  0  0  0  0  0  0  0  0  0  0
  147.2250  133.6175  151.5709 H   0  0  0  0  0  0  0  0  0  0  0  0
  146.9608  132.7586  150.0738 H   0  0  0  0  0  0  0  0  0  0  0  0
  1  2  2  0  0  0  0
  2  3  1  0  0  0  0
  2  9  1  0  0  0  0
  3  4  1  0  0  0  0
  4  8  1  0  0  0  0
  4  5  2  0  0  0  0
  5  6  1  0  0  0  0
  6  7  2  0  0  0  0
  7  8  1  0  0  0  0
  7 17  1  0  0  0  0
  9 10  1  0  0  0  0
  9 18  1  0  0  0  0
 10 16  1  0  0  0  0
 10 11  1  0  0  0  0
 10 19  1  0  0  0  0
 11 12  1  0  0  0  0
 11 20  1  0  0  0  0
 11 21  1  0  0  0  0
 12 13  1  0  0  0  0
 12 22  1  0  0  0  0
 12 23  1  0  0  0  0
 13 14  1  0  0  0  0
 13 15  1  0  0  0  0
 13 24  1  0  0  0  0
 14 25  1  0  0  0  0
 15 16  1  0  0  0  0
 15 26  1  0  0  0  0
 15 27  1  0  0  0  0
 16 28  1  0  0  0  0
 16 29  1  0  0  0  0
M  CHG  1   3  -1
M  END
> <s_m_source_file>
AV-unprocessed.smi

> <i_m_source_file_index>
1948

> <i_lp_mmshare_version>
43012

> <i_f3d_flags>
0

> <s_epik_input>
czFbY0hdbm5jMVtOSF1DKD1PKVtOSF1bQ0BASF0yW0NIMl1bQ0gyXVtDQEBIXShbT0hdKVtDSDJdW0NIMl0y

> <s_epik_cmdline>
J2VwaWtfcHl0aG9uJywgJy1waCcsICc3LjAnLCAnLXRuJywgJzgnLCAnLW1hJywgJzIwMCcsICctbWV0YWxfYmluZGluZycsICctaW1hZScsICc8aW5maWxlLm1hZT4nLCAnLW9tYWUnLCAnPG91dGZpbGUubWFlPic=

> <r_lp_tautomer_probability>
1

> <r_epik_Ionization_Penalty>
4.52057

> <r_epik_Ionization_Penalty_Charging>
4.4725

> <r_epik_Ionization_Penalty_Neutral>
0.048076

> <r_epik_State_Penalty>
4.47218

> <r_epik_Charging_Adjusted_Penalty>
8.94468

> <i_epik_Tot_Q>
-1

> <i_epik_Tot_abs_Q>
1

> <r_epik_Metal_State_Penalty>
0.805713

> <b_epik_Metal_Only>
1

> <s_lp_Force_Field>
OPLS_2005

> <r_lp_Energy>
8.18749

> <b_lp_Chiralities_Consistent>
1

> <s_lp_Variant>
AV-unprocessed.smi:1948-4

> <Gold.Version>
5.8.1

> <Gold.Id.Protein>
6NUR|6NUR_protein|mol2

> <Gold.PLP.Fitness>
35.3288

> <Gold.PLP.PLP>
-31.4637

> <Gold.PLP.part.hbond>
-2.5985

> <Gold.PLP.part.metal>
0.0000

> <Gold.PLP.part.buried>
-5.2723

> <Gold.PLP.part.nonpolar>
-24.9807

> <Gold.PLP.part.repulsive>
1.2836

> <Gold.PLP.ligand.clash>
0.0000

> <Gold.PLP.ligand.torsion>
1.0709

> <Gold.PLP.Chemscore.Hbond>
2.0000

> <Gold.PLP.Chemscore.CHOScore>
0.0000

> <Gold.PLP.Chemscore.Metal>
0.0000

> <Gold.Chemscore.Hbonds>
donor molecule, donor type, donor heavy atom, donor atom, acceptor molecule, acceptor atom, score
      L1  H     9    18       P1 10747  1.00
      L1  H    14    25       P1  7921  1.00

> <Gold.PLP.Chemscore.Internal.Correction>
0.0069

> <Gold.Rescore>
     Score         DG    S(hbond)    S(metal)    S(lipo)     H(rot)  DE(clash)    DE(int)     intcor
     14.87     -16.05       1.95        0.00      68.39       1.53       0.04       1.14       ----

> <Gold.Chemscore.Fitness>
14.8749

> <Gold.Chemscore.DG>
-16.0544

> <Gold.Chemscore.ZeroCoef>
-5.4800

> <Gold.Chemscore.Hbond>
1.9457

> <Gold.Chemscore.Metal>
0.0000

> <Gold.Chemscore.Lipo>
68.3934

> <Gold.Chemscore.Internal_Hbond>
0.0000

> <Gold.Chemscore.DEClash>
0.0362

> <Gold.Chemscore.DEInternal>
1.1434

> <Gold.Chemscore.Rot>
1.5337

> <Gold.Chemscore.Internal.Correction>
   9.000000E+99

> <Gold.Chemscore.Hbonds>
donor molecule, donor type, donor heavy atom, donor atom, acceptor molecule, acceptor atom, score
      L1  H     9    18       P1 10747  0.99
      L1  H    14    25       P1  7921  0.91

> <Gold.Chemscore.Hbond.Weighted>
-6.4986

> <Gold.Chemscore.Metal.Weighted>
-0.0000

> <Gold.Chemscore.Lipo.Weighted>
-8.0020

> <Gold.Chemscore.Internal_Hbond.Weighted>
0.0000

> <Gold.Chemscore.DEClash.Weighted>
0.0362

> <Gold.Chemscore.DEInternal.Weighted>
1.1434

> <Gold.Chemscore.Rot.Weighted>
3.9262

> <Gold.Chemscore.Internal.Correction.Weighted>
   9.000000E+99

> <Gold.Protein.RotatedTorsions>
[ 6907 6896 6895 6894 ] final -105.95 input  -60.11 | X-H torsion
[ 7974 7965 7964 7962 ] final  -74.53 input  175.53 | X-H torsion
[ 8008 7997 7996 7995 ] final  127.25 input   59.86 | X-H torsion
[ 10167 10162 10161 10158 ] final -137.79 input  -65.29 | X-H torsion
[ 10718 10713 10712 10709 ] final   44.59 input   66.30 | X-H torsion
[ 10763 10752 10751 10750 ] final  -77.79 input  -60.55 | X-H torsion
[ 11005 11000 10999 10996 ] final  -66.66 input  -57.11 | X-H torsion

> <Gold.Protein.ActiveResidues>
 VAL166  LYS551  ARG553  GLY616  TRP617  ASP618  TYR619  PRO620  LYS621  CYS622 
 ASP623  PHE694  ASN695  SER759  ASP760  ASP761  ALA762  ILE779  LEU786  VAL792 
 PHE793  MET794  SER795  GLU796  ALA797  LYS798  CYS799  TRP800  GLU811  SER814 

> <Gold.Protein.RotatedAtoms>
  150.7363  134.0049  159.3650 H   0  0  0  0  0  0  0  0  0  0  0  0  # atno 6907 bound_to 6896
  151.8005  135.0708  160.0409 H   0  0  0  0  0  0  0  0  0  0  0  0  # atno 6908 bound_to 6896
  152.3144  133.5750  159.5738 H   0  0  0  0  0  0  0  0  0  0  0  0  # atno 6909 bound_to 6896
  145.6379  140.9319  143.1052 H   0  0  0  0  0  0  0  0  0  0  0  0  # atno 7974 bound_to 7965
  156.2886  140.2673  156.2242 H   0  0  0  0  0  0  0  0  0  0  0  0  # atno 8008 bound_to 7997
  155.0137  140.0387  157.2428 H   0  0  0  0  0  0  0  0  0  0  0  0  # atno 8009 bound_to 7997
  154.7496  140.2740  155.6309 H   0  0  0  0  0  0  0  0  0  0  0  0  # atno 8010 bound_to 7997
  139.8543  143.7158  152.2655 H   0  0  0  0  0  0  0  0  0  0  0  0  # atno 10167 bound_to 10162
  157.4284  130.8010  149.7580 H   0  0  0  0  0  0  0  0  0  0  0  0  # atno 10718 bound_to 10713
  154.5175  135.5752  153.6654 H   0  0  0  0  0  0  0  0  0  0  0  0  # atno 10763 bound_to 10752
  152.9910  135.6173  154.2798 H   0  0  0  0  0  0  0  0  0  0  0  0  # atno 10764 bound_to 10752
  154.2717  135.2853  155.2715 H   0  0  0  0  0  0  0  0  0  0  0  0  # atno 10765 bound_to 10752
  141.1488  133.6703  156.6173 H   0  0  0  0  0  0  0  0  0  0  0  0  # atno 11005 bound_to 11000
  144.7169  139.8167  143.7396 LP  0  0  0  0  0  0  0  0  0  0  0  0  # atno 17320 bound_to 7965
  146.1305  139.4339  143.0172 LP  0  0  0  0  0  0  0  0  0  0  0  0  # atno 17321 bound_to 7965
  139.7435  144.7553  151.0616 LP  0  0  0  0  0  0  0  0  0  0  0  0  # atno 17342 bound_to 10162
  140.7783  143.4944  150.9851 LP  0  0  0  0  0  0  0  0  0  0  0  0  # atno 17343 bound_to 10162
  155.9904  130.3944  150.3027 LP  0  0  0  0  0  0  0  0  0  0  0  0  # atno 17370 bound_to 10713
  157.1182  131.0239  151.3020 LP  0  0  0  0  0  0  0  0  0  0  0  0  # atno 17371 bound_to 10713
  140.3568  134.7722  157.4506 LP  0  0  0  0  0  0  0  0  0  0  0  0  # atno 17394 bound_to 11000
  140.0817  134.5722  155.8534 LP  0  0  0  0  0  0  0  0  0  0  0  0  # atno 17395 bound_to 11000

$$$$
