AV-unprocessed.smi:765|AV-procd|sdf|3650|dock10
  -GOLD-   22720 1 53D 1   1.00000     0.00000
 Structure written by MMmdl.
 39 40  0  0  0  0  0  0  0  0  1 V2000
  151.7379  141.4331  159.0143 C   0  0  0  0  0  0  0  0  0  0  0  0
  151.2234  140.3954  158.0074 C   0  0  1  0  0  0  0  0  0  0  0  0
  151.2059  140.9599  156.5754 C   0  0  0  0  0  0  0  0  0  0  0  0
  150.7039  139.9207  155.5623 C   0  0  0  0  0  0  0  0  0  0  0  0
  151.5249  138.6206  155.6419 C   0  0  0  0  0  0  0  0  0  0  0  0
  151.5502  138.0182  157.0641 C   0  0  2  0  0  0  0  0  0  0  0  0
  152.4633  136.8597  157.0680 C   0  0  0  0  0  0  0  0  0  0  0  0
  153.1796  135.9508  157.0728 N   0  0  0  0  0  0  0  0  0  0  0  0
  150.1871  137.6046  157.4074 N   0  0  0  0  0  0  0  0  0  0  0  0
  149.7693  137.0558  158.5604 C   0  0  0  0  0  0  0  0  0  0  0  0
  150.5352  136.6960  159.4547 O   0  0  0  0  0  0  0  0  0  0  0  0
  148.2458  136.9353  158.7269 C   0  0  1  0  0  0  0  0  0  0  0  0
  147.5677  136.1716  157.5711 C   0  0  0  0  0  0  0  0  0  0  0  0
  147.9344  136.3471  160.0261 N   0  0  0  0  0  0  0  0  0  0  0  0
  147.4504  135.0819  160.2924 C   0  0  0  0  0  0  0  0  0  0  0  0
  147.2538  134.9922  161.6405 C   0  0  0  0  0  0  0  0  0  0  0  0
  147.6412  136.2723  162.1244 C   0  0  0  0  0  0  0  0  0  0  0  0
  148.0413  137.0817  161.1582 N   0  0  0  0  0  0  0  0  0  0  0  0
  152.0563  139.0961  158.0569 C   0  0  0  0  0  0  0  0  0  0  0  0
  152.7653  141.7253  158.7949 H   0  0  0  0  0  0  0  0  0  0  0  0
  151.7126  141.0390  160.0305 H   0  0  0  0  0  0  0  0  0  0  0  0
  151.1241  142.3341  158.9962 H   0  0  0  0  0  0  0  0  0  0  0  0
  150.1967  140.1592  158.2900 H   0  0  0  0  0  0  0  0  0  0  0  0
  150.5737  141.8474  156.5311 H   0  0  0  0  0  0  0  0  0  0  0  0
  152.2096  141.2825  156.2945 H   0  0  0  0  0  0  0  0  0  0  0  0
  149.6498  139.7098  155.7463 H   0  0  0  0  0  0  0  0  0  0  0  0
  150.7605  140.3319  154.5541 H   0  0  0  0  0  0  0  0  0  0  0  0
  151.1303  137.8921  154.9323 H   0  0  0  0  0  0  0  0  0  0  0  0
  152.5467  138.8290  155.3207 H   0  0  0  0  0  0  0  0  0  0  0  0
  149.4749  137.8470  156.7344 H   0  0  0  0  0  0  0  0  0  0  0  0
  147.8438  137.9498  158.7263 H   0  0  0  0  0  0  0  0  0  0  0  0
  147.7499  136.6624  156.6145 H   0  0  0  0  0  0  0  0  0  0  0  0
  146.4877  136.1297  157.7149 H   0  0  0  0  0  0  0  0  0  0  0  0
  147.9296  135.1457  157.4907 H   0  0  0  0  0  0  0  0  0  0  0  0
  147.2829  134.3587  159.5081 H   0  0  0  0  0  0  0  0  0  0  0  0
  146.8844  134.1433  162.1964 H   0  0  0  0  0  0  0  0  0  0  0  0
  147.6396  136.6369  163.1410 H   0  0  0  0  0  0  0  0  0  0  0  0
  153.0966  139.3310  157.8267 H   0  0  0  0  0  0  0  0  0  0  0  0
  152.0644  138.7019  159.0736 H   0  0  0  0  0  0  0  0  0  0  0  0
  1  2  1  0  0  0  0
  1 20  1  0  0  0  0
  1 21  1  0  0  0  0
  1 22  1  0  0  0  0
  2 19  1  0  0  0  0
  2  3  1  0  0  0  0
  2 23  1  0  0  0  0
  3  4  1  0  0  0  0
  3 24  1  0  0  0  0
  3 25  1  0  0  0  0
  4  5  1  0  0  0  0
  4 26  1  0  0  0  0
  4 27  1  0  0  0  0
  5  6  1  0  0  0  0
  5 28  1  0  0  0  0
  5 29  1  0  0  0  0
  6  7  1  0  0  0  0
  6  9  1  0  0  0  0
  6 19  1  0  0  0  0
  7  8  3  0  0  0  0
  9 10  1  0  0  0  0
  9 30  1  0  0  0  0
 10 11  2  0  0  0  0
 10 12  1  0  0  0  0
 12 13  1  0  0  0  0
 12 14  1  0  0  0  0
 12 31  1  0  0  0  0
 13 32  1  0  0  0  0
 13 33  1  0  0  0  0
 13 34  1  0  0  0  0
 14 18  1  0  0  0  0
 14 15  1  0  0  0  0
 15 16  2  0  0  0  0
 15 35  1  0  0  0  0
 16 17  1  0  0  0  0
 16 36  1  0  0  0  0
 17 18  2  0  0  0  0
 17 37  1  0  0  0  0
 19 38  1  0  0  0  0
 19 39  1  0  0  0  0
M  END
> <s_m_source_file>
AV-unprocessed.smi

> <i_m_source_file_index>
765

> <i_lp_mmshare_version>
43012

> <i_f3d_flags>
0

> <s_epik_input>
W0NIM11bQ0BASF0oW0NIMl0xKVtDSDJdW0NIMl1bQ0gyXVtDQEBdMShDI04pW05IXUMoPU8pW0NASF0oW0NIM10pbjJbY0hdW2NIXVtjSF1uMg==

> <s_epik_cmdline>
J2VwaWtfcHl0aG9uJywgJy1waCcsICc3LjAnLCAnLXRuJywgJzgnLCAnLW1hJywgJzIwMCcsICctbWV0YWxfYmluZGluZycsICctaW1hZScsICc8aW5maWxlLm1hZT4nLCAnLW9tYWUnLCAnPG91dGZpbGUubWFlPic=

> <r_lp_tautomer_probability>
1

> <r_epik_Ionization_Penalty>
2.71142e-05

> <r_epik_Ionization_Penalty_Charging>
0

> <r_epik_Ionization_Penalty_Neutral>
2.71142e-05

> <r_epik_State_Penalty>
-0

> <r_epik_Charging_Adjusted_Penalty>
0

> <i_epik_Tot_Q>
0

> <i_epik_Tot_abs_Q>
0

> <r_epik_Metal_State_Penalty>
-0

> <b_epik_Metal_Only>
0

> <s_lp_Force_Field>
OPLS_2005

> <r_lp_Energy>
11.0403

> <b_lp_Chiralities_Consistent>
1

> <s_lp_Variant>
AV-unprocessed.smi:765-8

> <Gold.Version>
5.8.1

> <Gold.Id.Protein>
6NUR|6NUR_protein|mol2

> <Gold.PLP.Fitness>
39.8485

> <Gold.PLP.PLP>
-29.8272

> <Gold.PLP.part.hbond>
-3.9078

> <Gold.PLP.part.metal>
0.0000

> <Gold.PLP.part.buried>
-3.6228

> <Gold.PLP.part.nonpolar>
-22.0773

> <Gold.PLP.part.repulsive>
0.0292

> <Gold.PLP.ligand.clash>
0.0000

> <Gold.PLP.ligand.torsion>
0.4828

> <Gold.PLP.Chemscore.Hbond>
3.6289

> <Gold.PLP.Chemscore.CHOScore>
0.0000

> <Gold.PLP.Chemscore.Metal>
0.0000

> <Gold.Chemscore.Hbonds>
donor molecule, donor type, donor heavy atom, donor atom, acceptor molecule, acceptor atom, score
      P1  H  6896  6908       L1    11  1.00
      P1  H  6931  6943       L1    18  1.00
      P1  H  6934  6947       L1    18  0.55
      P1  H 10752 10764       L1     8  1.00

> <Gold.PLP.Chemscore.Internal.Correction>
0.1001

> <Gold.Rescore>
     Score         DG    S(hbond)    S(metal)    S(lipo)     H(rot)  DE(clash)    DE(int)     intcor
     19.98     -20.64       3.35        0.00      64.98       1.42       0.00       0.66       ----

> <Gold.Chemscore.Fitness>
19.9811

> <Gold.Chemscore.DG>
-20.6410

> <Gold.Chemscore.ZeroCoef>
-5.4800

> <Gold.Chemscore.Hbond>
3.3502

> <Gold.Chemscore.Metal>
0.0000

> <Gold.Chemscore.Lipo>
64.9778

> <Gold.Chemscore.Internal_Hbond>
0.0000

> <Gold.Chemscore.DEClash>
0.0000

> <Gold.Chemscore.DEInternal>
0.6599

> <Gold.Chemscore.Rot>
1.4183

> <Gold.Chemscore.Internal.Correction>
   9.000000E+99

> <Gold.Chemscore.Hbonds>
donor molecule, donor type, donor heavy atom, donor atom, acceptor molecule, acceptor atom, score
      P1  H  6896  6908       L1    11  0.99
      P1  H  6931  6943       L1    18  0.54
      P1  H  6934  6947       L1    18  0.43
      P1  H 10752 10764       L1     8  0.88

> <Gold.Chemscore.Hbond.Weighted>
-11.1895

> <Gold.Chemscore.Metal.Weighted>
-0.0000

> <Gold.Chemscore.Lipo.Weighted>
-7.6024

> <Gold.Chemscore.Internal_Hbond.Weighted>
0.0000

> <Gold.Chemscore.DEClash.Weighted>
0.0000

> <Gold.Chemscore.DEInternal.Weighted>
0.6599

> <Gold.Chemscore.Rot.Weighted>
3.6309

> <Gold.Chemscore.Internal.Correction.Weighted>
   9.000000E+99

> <Gold.Protein.RotatedTorsions>
[ 6907 6896 6895 6894 ] final -160.77 input  -60.11 | X-H torsion
[ 7974 7965 7964 7962 ] final   55.69 input  175.53 | X-H torsion
[ 8008 7997 7996 7995 ] final  140.93 input   59.86 | X-H torsion
[ 10167 10162 10161 10158 ] final   21.63 input  -65.29 | X-H torsion
[ 10718 10713 10712 10709 ] final  -90.50 input   66.30 | X-H torsion
[ 10763 10752 10751 10750 ] final    5.48 input  -60.55 | X-H torsion
[ 11005 11000 10999 10996 ] final   53.18 input  -57.11 | X-H torsion

> <Gold.Protein.ActiveResidues>
 VAL166  LYS551  ARG553  GLY616  TRP617  ASP618  TYR619  PRO620  LYS621  CYS622 
 ASP623  PHE694  ASN695  SER759  ASP760  ASP761  ALA762  ILE779  LEU786  VAL792 
 PHE793  MET794  SER795  GLU796  ALA797  LYS798  CYS799  TRP800  GLU811  SER814 

> <Gold.Protein.RotatedAtoms>
  151.3543  133.3913  159.2683 H   0  0  0  0  0  0  0  0  0  0  0  0  # atno 6907 bound_to 6896
  150.9776  134.9138  159.7836 H   0  0  0  0  0  0  0  0  0  0  0  0  # atno 6908 bound_to 6896
  152.5206  134.3506  159.9302 H   0  0  0  0  0  0  0  0  0  0  0  0  # atno 6909 bound_to 6896
  145.9477  139.3944  143.0325 H   0  0  0  0  0  0  0  0  0  0  0  0  # atno 7974 bound_to 7965
  156.2973  140.2328  156.4481 H   0  0  0  0  0  0  0  0  0  0  0  0  # atno 8008 bound_to 7997
  154.8126  140.0442  157.1374 H   0  0  0  0  0  0  0  0  0  0  0  0  # atno 8009 bound_to 7997
  154.9406  140.3029  155.5126 H   0  0  0  0  0  0  0  0  0  0  0  0  # atno 8010 bound_to 7997
  140.5412  143.9674  150.6520 H   0  0  0  0  0  0  0  0  0  0  0  0  # atno 10167 bound_to 10162
  155.9988  130.4912  150.5332 H   0  0  0  0  0  0  0  0  0  0  0  0  # atno 10718 bound_to 10713
  153.2589  135.6921  153.7599 H   0  0  0  0  0  0  0  0  0  0  0  0  # atno 10763 bound_to 10752
  153.6666  135.3351  155.3142 H   0  0  0  0  0  0  0  0  0  0  0  0  # atno 10764 bound_to 10752
  154.8423  135.4490  154.1573 H   0  0  0  0  0  0  0  0  0  0  0  0  # atno 10765 bound_to 10752
  140.0788  134.5368  155.8968 H   0  0  0  0  0  0  0  0  0  0  0  0  # atno 11005 bound_to 11000
  145.8214  140.9677  143.0897 LP  0  0  0  0  0  0  0  0  0  0  0  0  # atno 17320 bound_to 7965
  144.6790  140.0046  143.7484 LP  0  0  0  0  0  0  0  0  0  0  0  0  # atno 17321 bound_to 7965
  140.3075  143.3220  152.0911 LP  0  0  0  0  0  0  0  0  0  0  0  0  # atno 17342 bound_to 10162
  139.4989  144.6657  151.6361 LP  0  0  0  0  0  0  0  0  0  0  0  0  # atno 17343 bound_to 10162
  157.3278  131.0694  151.1883 LP  0  0  0  0  0  0  0  0  0  0  0  0  # atno 17370 bound_to 10713
  157.2774  130.6734  149.6049 LP  0  0  0  0  0  0  0  0  0  0  0  0  # atno 17371 bound_to 10713
  141.2039  133.6635  156.6090 LP  0  0  0  0  0  0  0  0  0  0  0  0  # atno 17394 bound_to 11000
  140.3518  134.7762  157.4472 LP  0  0  0  0  0  0  0  0  0  0  0  0  # atno 17395 bound_to 11000

$$$$
