AV-unprocessed.smi:2344|AV-procd|sdf|9357|dock8
  -GOLD-   2272012583D 1   1.00000     0.00000
 Structure written by MMmdl.
 35 36  0  0  0  0  0  0  0  0  1 V2000
  153.1217  143.0099  162.4803 C   0  0  0  0  0  0  0  0  0  0  0  0
  152.4101  143.0030  161.1437 C   0  0  0  0  0  0  0  0  0  0  0  0
  152.5482  141.9171  160.2590 C   0  0  0  0  0  0  0  0  0  0  0  0
  151.8651  141.9530  159.0282 C   0  0  0  0  0  0  0  0  0  0  0  0
  151.0611  143.0711  158.7112 C   0  0  0  0  0  0  0  0  0  0  0  0
  150.4170  143.0091  157.4468 N   0  0  0  0  0  0  0  0  0  0  0  0
  150.1240  141.9193  156.7158 C   0  0  0  0  0  0  0  0  0  0  0  0
  150.3862  140.7577  157.0294 O   0  0  0  0  0  0  0  0  0  0  0  0
  149.4949  142.2519  155.5795 N   0  0  0  0  0  0  0  0  0  0  0  0
  149.0318  141.3010  154.5753 C   0  0  2  0  0  0  0  0  0  0  0  0
  147.9243  141.9012  153.7535 C   0  0  0  0  0  0  0  0  0  0  0  0
  146.8161  141.1643  153.7677 C   0  0  0  0  0  0  0  0  0  0  0  0
  146.9502  139.9210  154.6097 C   0  0  2  0  0  0  0  0  0  0  0  0
  145.8595  139.8092  155.6889 C   0  0  0  0  0  0  0  0  0  0  0  0
  144.5896  139.6350  155.0962 O   0  0  0  0  0  0  0  0  0  0  0  0
  148.3791  140.0386  155.1986 C   0  0  0  0  0  0  0  0  0  0  0  0
  150.9334  144.1123  159.5710 N   0  0  0  0  0  0  0  0  0  0  0  0
  151.5879  144.0771  160.7506 C   0  0  0  0  0  0  0  0  0  0  0  0
  149.8492  141.0283  153.9057 H   0  0  0  0  0  0  0  0  0  0  0  0
  146.9006  139.0575  153.9448 H   0  0  0  0  0  0  0  0  0  0  0  0
  154.1488  142.6610  162.3688 H   0  0  0  0  0  0  0  0  0  0  0  0
  152.6089  142.3529  163.1828 H   0  0  0  0  0  0  0  0  0  0  0  0
  153.1489  144.0136  162.9057 H   0  0  0  0  0  0  0  0  0  0  0  0
  153.1665  141.0698  160.5166 H   0  0  0  0  0  0  0  0  0  0  0  0
  151.9606  141.1278  158.3374 H   0  0  0  0  0  0  0  0  0  0  0  0
  150.1400  143.8980  157.0575 H   0  0  0  0  0  0  0  0  0  0  0  0
  149.3177  143.2289  155.3979 H   0  0  0  0  0  0  0  0  0  0  0  0
  148.0481  142.8249  153.2074 H   0  0  0  0  0  0  0  0  0  0  0  0
  145.9070  141.4021  153.2352 H   0  0  0  0  0  0  0  0  0  0  0  0
  146.0567  138.9560  156.3385 H   0  0  0  0  0  0  0  0  0  0  0  0
  145.8425  140.6989  156.3195 H   0  0  0  0  0  0  0  0  0  0  0  0
  144.6222  139.9654  154.2113 H   0  0  0  0  0  0  0  0  0  0  0  0
  148.9669  139.1485  154.9704 H   0  0  0  0  0  0  0  0  0  0  0  0
  148.3407  140.1132  156.2868 H   0  0  0  0  0  0  0  0  0  0  0  0
  151.4492  144.9315  161.3965 H   0  0  0  0  0  0  0  0  0  0  0  0
  1  2  1  0  0  0  0
  1 21  1  0  0  0  0
  1 22  1  0  0  0  0
  1 23  1  0  0  0  0
  2 18  1  0  0  0  0
  2  3  2  0  0  0  0
  3  4  1  0  0  0  0
  3 24  1  0  0  0  0
  4  5  2  0  0  0  0
  4 25  1  0  0  0  0
  5  6  1  0  0  0  0
  5 17  1  0  0  0  0
  6  7  1  0  0  0  0
  6 26  1  0  0  0  0
  7  8  2  0  0  0  0
  7  9  1  0  0  0  0
  9 10  1  0  0  0  0
  9 27  1  0  0  0  0
 10 19  1  0  0  0  0
 10 16  1  0  0  0  0
 10 11  1  0  0  0  0
 11 12  2  0  0  0  0
 11 28  1  0  0  0  0
 12 13  1  0  0  0  0
 12 29  1  0  0  0  0
 13 20  1  0  0  0  0
 13 14  1  0  0  0  0
 13 16  1  0  0  0  0
 14 15  1  0  0  0  0
 14 30  1  0  0  0  0
 14 31  1  0  0  0  0
 15 32  1  0  0  0  0
 16 33  1  0  0  0  0
 16 34  1  0  0  0  0
 17 18  2  0  0  0  0
 18 35  1  0  0  0  0
M  END
> <s_m_source_file>
AV-unprocessed.smi

> <i_m_source_file_index>
2344

> <i_lp_mmshare_version>
43012

> <i_f3d_flags>
0

> <s_epik_input>
W0NIM11jMVtjSF1bY0hdYyhuW2NIXTEpW05IXUMoPU8pW05IXVtDQEBIXTJbQ0hdPVtDSF1bQ0BASF0oW0NIMl0yKVtDSDJdW09IXQ==

> <s_epik_cmdline>
J2VwaWtfcHl0aG9uJywgJy1waCcsICc3LjAnLCAnLXRuJywgJzgnLCAnLW1hJywgJzIwMCcsICctbWV0YWxfYmluZGluZycsICctaW1hZScsICc8aW5maWxlLm1hZT4nLCAnLW9tYWUnLCAnPG91dGZpbGUubWFlPic=

> <r_lp_tautomer_probability>
1

> <r_epik_Ionization_Penalty>
5.7643e-05

> <r_epik_Ionization_Penalty_Charging>
0

> <r_epik_Ionization_Penalty_Neutral>
5.7643e-05

> <r_epik_State_Penalty>
-0

> <r_epik_Charging_Adjusted_Penalty>
0

> <i_epik_Tot_Q>
0

> <i_epik_Tot_abs_Q>
0

> <r_epik_Metal_State_Penalty>
-0

> <b_epik_Metal_Only>
0

> <s_lp_Force_Field>
OPLS_2005

> <r_lp_Energy>
16.9507

> <b_lp_Chiralities_Consistent>
1

> <s_lp_Variant>
AV-unprocessed.smi:2344-1

> <Gold.Version>
5.8.1

> <Gold.Id.Protein>
6NUR|6NUR_protein|mol2

> <Gold.PLP.Fitness>
41.6139

> <Gold.PLP.PLP>
-33.8815

> <Gold.PLP.part.hbond>
-3.0000

> <Gold.PLP.part.metal>
0.0000

> <Gold.PLP.part.buried>
-4.9384

> <Gold.PLP.part.nonpolar>
-26.0948

> <Gold.PLP.part.repulsive>
0.3029

> <Gold.PLP.ligand.clash>
0.0000

> <Gold.PLP.ligand.torsion>
0.4136

> <Gold.PLP.Chemscore.Hbond>
2.8484

> <Gold.PLP.Chemscore.CHOScore>
0.0000

> <Gold.PLP.Chemscore.Metal>
0.0000

> <Gold.Chemscore.Hbonds>
donor molecule, donor type, donor heavy atom, donor atom, acceptor molecule, acceptor atom, score
      L1  H     6    26       P1  8028  0.86
      L1  H     9    27       P1  8028  1.00
      L1  H    15    32       P1 10175  0.98

> <Gold.PLP.Chemscore.Internal.Correction>
0.0142

> <Gold.Rescore>
     Score         DG    S(hbond)    S(metal)    S(lipo)     H(rot)  DE(clash)    DE(int)     intcor
     16.56     -20.26       2.88        0.00      84.01       1.82       0.46       3.23       ----

> <Gold.Chemscore.Fitness>
16.5626

> <Gold.Chemscore.DG>
-20.2581

> <Gold.Chemscore.ZeroCoef>
-5.4800

> <Gold.Chemscore.Hbond>
2.8755

> <Gold.Chemscore.Metal>
0.0000

> <Gold.Chemscore.Lipo>
84.0080

> <Gold.Chemscore.Internal_Hbond>
0.0000

> <Gold.Chemscore.DEClash>
0.4638

> <Gold.Chemscore.DEInternal>
3.2316

> <Gold.Chemscore.Rot>
1.8184

> <Gold.Chemscore.Internal.Correction>
   9.000000E+99

> <Gold.Chemscore.Hbonds>
donor molecule, donor type, donor heavy atom, donor atom, acceptor molecule, acceptor atom, score
      L1  H     6    26       P1  8028  0.76
      L1  H     9    27       P1  8028  0.96
      L1  H    15    32       P1 10175  0.87

> <Gold.Chemscore.Hbond.Weighted>
-9.6042

> <Gold.Chemscore.Metal.Weighted>
-0.0000

> <Gold.Chemscore.Lipo.Weighted>
-9.8289

> <Gold.Chemscore.Internal_Hbond.Weighted>
0.0000

> <Gold.Chemscore.DEClash.Weighted>
0.4638

> <Gold.Chemscore.DEInternal.Weighted>
3.2316

> <Gold.Chemscore.Rot.Weighted>
4.6551

> <Gold.Chemscore.Internal.Correction.Weighted>
   9.000000E+99

> <Gold.Protein.RotatedTorsions>
[ 6907 6896 6895 6894 ] final   60.77 input  -60.11 | X-H torsion
[ 7974 7965 7964 7962 ] final  156.23 input  175.53 | X-H torsion
[ 8008 7997 7996 7995 ] final  -70.45 input   59.86 | X-H torsion
[ 10167 10162 10161 10158 ] final  -70.04 input  -65.29 | X-H torsion
[ 10718 10713 10712 10709 ] final   82.50 input   66.30 | X-H torsion
[ 10763 10752 10751 10750 ] final  -76.86 input  -60.55 | X-H torsion
[ 11005 11000 10999 10996 ] final  179.30 input  -57.11 | X-H torsion

> <Gold.Protein.ActiveResidues>
 VAL166  LYS551  ARG553  GLY616  TRP617  ASP618  TYR619  PRO620  LYS621  CYS622 
 ASP623  PHE694  ASN695  SER759  ASP760  ASP761  ALA762  ILE779  LEU786  VAL792 
 PHE793  MET794  SER795  GLU796  ALA797  LYS798  CYS799  TRP800  GLU811  SER814 

> <Gold.Protein.RotatedAtoms>
  152.4032  134.6251  160.0060 H   0  0  0  0  0  0  0  0  0  0  0  0  # atno 6907 bound_to 6896
  151.6450  133.3318  159.3147 H   0  0  0  0  0  0  0  0  0  0  0  0  # atno 6908 bound_to 6896
  150.7930  134.7010  159.6595 H   0  0  0  0  0  0  0  0  0  0  0  0  # atno 6909 bound_to 6896
  144.7976  139.7176  143.6195 H   0  0  0  0  0  0  0  0  0  0  0  0  # atno 7974 bound_to 7965
  154.5013  140.0834  156.7803 H   0  0  0  0  0  0  0  0  0  0  0  0  # atno 8008 bound_to 7997
  155.3997  140.3436  155.4238 H   0  0  0  0  0  0  0  0  0  0  0  0  # atno 8009 bound_to 7997
  156.1459  140.1543  156.8834 H   0  0  0  0  0  0  0  0  0  0  0  0  # atno 8010 bound_to 7997
  140.5384  143.2316  151.7135 H   0  0  0  0  0  0  0  0  0  0  0  0  # atno 10167 bound_to 10162
  157.6858  131.0050  150.2384 H   0  0  0  0  0  0  0  0  0  0  0  0  # atno 10718 bound_to 10713
  154.5053  135.5783  153.6563 H   0  0  0  0  0  0  0  0  0  0  0  0  # atno 10763 bound_to 10752
  152.9886  135.6145  154.2949 H   0  0  0  0  0  0  0  0  0  0  0  0  # atno 10764 bound_to 10752
  154.2859  135.2850  155.2656 H   0  0  0  0  0  0  0  0  0  0  0  0  # atno 10765 bound_to 10752
  140.4046  134.6746  157.4581 H   0  0  0  0  0  0  0  0  0  0  0  0  # atno 11005 bound_to 11000
  146.2248  139.5702  142.9594 LP  0  0  0  0  0  0  0  0  0  0  0  0  # atno 17320 bound_to 7965
  145.5635  141.0402  143.2213 LP  0  0  0  0  0  0  0  0  0  0  0  0  # atno 17321 bound_to 7965
  139.4979  144.4007  152.0184 LP  0  0  0  0  0  0  0  0  0  0  0  0  # atno 17342 bound_to 10162
  140.3114  144.3533  150.6033 LP  0  0  0  0  0  0  0  0  0  0  0  0  # atno 17343 bound_to 10162
  156.3003  130.3757  149.7757 LP  0  0  0  0  0  0  0  0  0  0  0  0  # atno 17370 bound_to 10713
  156.5389  130.8291  151.3262 LP  0  0  0  0  0  0  0  0  0  0  0  0  # atno 17371 bound_to 10713
  140.0311  134.6404  155.9105 LP  0  0  0  0  0  0  0  0  0  0  0  0  # atno 17394 bound_to 11000
  141.1844  133.6553  156.5155 LP  0  0  0  0  0  0  0  0  0  0  0  0  # atno 17395 bound_to 11000

$$$$
