AV-unprocessed.smi:1094|AV-procd|sdf|4746|dock6
  -GOLD-   22720 3283D 1   1.00000     0.00000
 Structure written by MMmdl.
 45 46  0  0  0  0  0  0  0  0  1 V2000
  146.0423  129.9869  152.1565 C   0  0  0  0  0  0  0  0  0  0  0  0
  145.6742  130.8900  150.9706 C   0  0  0  0  0  0  0  0  0  0  0  0
  145.3742  132.2596  151.4105 N   0  0  0  0  0  0  0  0  0  0  0  0
  146.4309  132.9884  151.9913 C   0  0  0  0  0  0  0  0  0  0  0  0
  146.2788  134.2550  152.4374 C   0  0  0  0  0  0  0  0  0  0  0  0
  147.2822  135.0420  153.0233 N   0  0  0  0  0  0  0  0  0  0  0  0
  147.3051  135.6454  154.2267 C   0  0  0  0  0  0  0  0  0  0  0  0
  146.3988  135.6345  155.0594 O   0  0  0  0  0  0  0  0  0  0  0  0
  148.4733  136.2742  154.4212 N   0  0  0  0  0  0  0  0  0  0  0  0
  148.8494  137.0270  155.6179 C   0  0  0  0  0  0  0  0  0  0  0  0
  149.9657  138.0855  155.3813 C   0  0  0  0  0  0  0  0  0  0  0  0
  149.4266  139.0416  154.2813 C   0  0  0  0  0  0  0  0  0  0  0  0
  149.0817  138.5282  153.0957 N   0  0  0  0  0  0  0  0  0  0  0  0
  149.3387  140.2501  154.4930 O   0  0  0  0  0  0  0  0  0  0  0  0
  150.3364  138.8376  156.6929 C   0  0  0  0  0  0  0  0  0  0  0  0
  151.5579  139.7632  156.5185 C   0  0  0  0  0  0  0  0  0  0  0  0
  152.6741  139.0089  156.0605 O   0  0  0  0  0  0  0  0  0  0  0  0
  152.4514  138.3929  154.7972 C   0  0  0  0  0  0  0  0  0  0  0  0
  151.2758  137.4010  154.8996 C   0  0  0  0  0  0  0  0  0  0  0  0
  144.9660  134.8458  152.2887 C   0  0  0  0  0  0  0  0  0  0  0  0
  143.9463  134.1547  151.7438 C   0  0  0  0  0  0  0  0  0  0  0  0
  144.1174  132.7780  151.2743 C   0  0  0  0  0  0  0  0  0  0  0  0
  143.1873  132.1328  150.7900 O   0  0  0  0  0  0  0  0  0  0  0  0
  146.2734  128.9772  151.8165 H   0  0  0  0  0  0  0  0  0  0  0  0
  145.2217  129.9157  152.8711 H   0  0  0  0  0  0  0  0  0  0  0  0
  146.9163  130.3671  152.6858 H   0  0  0  0  0  0  0  0  0  0  0  0
  146.4946  130.8973  150.2513 H   0  0  0  0  0  0  0  0  0  0  0  0
  144.8299  130.4615  150.4275 H   0  0  0  0  0  0  0  0  0  0  0  0
  147.3524  132.4307  152.0398 H   0  0  0  0  0  0  0  0  0  0  0  0
  148.1063  135.1621  152.4529 H   0  0  0  0  0  0  0  0  0  0  0  0
  149.1614  136.2299  153.6840 H   0  0  0  0  0  0  0  0  0  0  0  0
  147.9420  137.5195  155.9712 H   0  0  0  0  0  0  0  0  0  0  0  0
  149.1396  136.3430  156.4182 H   0  0  0  0  0  0  0  0  0  0  0  0
  148.7289  139.1323  152.3678 H   0  0  0  0  0  0  0  0  0  0  0  0
  149.1754  137.5360  152.9331 H   0  0  0  0  0  0  0  0  0  0  0  0
  149.4868  139.3984  157.0841 H   0  0  0  0  0  0  0  0  0  0  0  0
  150.5888  138.1195  157.4726 H   0  0  0  0  0  0  0  0  0  0  0  0
  151.3525  140.5829  155.8294 H   0  0  0  0  0  0  0  0  0  0  0  0
  151.8165  140.2184  157.4747 H   0  0  0  0  0  0  0  0  0  0  0  0
  152.2740  139.1521  154.0343 H   0  0  0  0  0  0  0  0  0  0  0  0
  153.3584  137.8635  154.5054 H   0  0  0  0  0  0  0  0  0  0  0  0
  151.5669  136.6156  155.5975 H   0  0  0  0  0  0  0  0  0  0  0  0
  151.1289  136.8990  153.9422 H   0  0  0  0  0  0  0  0  0  0  0  0
  144.7947  135.8597  152.6208 H   0  0  0  0  0  0  0  0  0  0  0  0
  142.9789  134.6259  151.6489 H   0  0  0  0  0  0  0  0  0  0  0  0
  1  2  1  0  0  0  0
  1 24  1  0  0  0  0
  1 25  1  0  0  0  0
  1 26  1  0  0  0  0
  2  3  1  0  0  0  0
  2 27  1  0  0  0  0
  2 28  1  0  0  0  0
  3 22  1  0  0  0  0
  3  4  1  0  0  0  0
  4  5  2  0  0  0  0
  4 29  1  0  0  0  0
  5  6  1  0  0  0  0
  5 20  1  0  0  0  0
  6  7  1  0  0  0  0
  6 30  1  0  0  0  0
  7  8  2  0  0  0  0
  7  9  1  0  0  0  0
  9 10  1  0  0  0  0
  9 31  1  0  0  0  0
 10 11  1  0  0  0  0
 10 32  1  0  0  0  0
 10 33  1  0  0  0  0
 11 19  1  0  0  0  0
 11 12  1  0  0  0  0
 11 15  1  0  0  0  0
 12 13  1  0  0  0  0
 12 14  2  0  0  0  0
 13 34  1  0  0  0  0
 13 35  1  0  0  0  0
 15 16  1  0  0  0  0
 15 36  1  0  0  0  0
 15 37  1  0  0  0  0
 16 17  1  0  0  0  0
 16 38  1  0  0  0  0
 16 39  1  0  0  0  0
 17 18  1  0  0  0  0
 18 19  1  0  0  0  0
 18 40  1  0  0  0  0
 18 41  1  0  0  0  0
 19 42  1  0  0  0  0
 19 43  1  0  0  0  0
 20 21  2  0  0  0  0
 20 44  1  0  0  0  0
 21 22  1  0  0  0  0
 21 45  1  0  0  0  0
 22 23  2  0  0  0  0
M  END
> <s_m_source_file>
AV-unprocessed.smi

> <i_m_source_file_index>
1094

> <i_lp_mmshare_version>
43012

> <i_f3d_flags>
0

> <s_epik_input>
W0NIM11bQ0gyXW4xW2NIXWMoW2NIXVtjSF1jMT1PKVtOSF1DKD1PKVtOSF1bQ0gyXUMyKEMoPU8pW05IMl0pW0NIMl1bQ0gyXU9bQ0gyXVtDSDJdMg==

> <s_epik_cmdline>
J2VwaWtfcHl0aG9uJywgJy1waCcsICc3LjAnLCAnLXRuJywgJzgnLCAnLW1hJywgJzIwMCcsICctbWV0YWxfYmluZGluZycsICctaW1hZScsICc8aW5maWxlLm1hZT4nLCAnLW9tYWUnLCAnPG91dGZpbGUubWFlPic=

> <r_lp_tautomer_probability>
1

> <r_epik_Ionization_Penalty>
2.3227e-05

> <r_epik_Ionization_Penalty_Charging>
4.44262e-06

> <r_epik_Ionization_Penalty_Neutral>
1.87844e-05

> <r_epik_State_Penalty>
-0

> <r_epik_Charging_Adjusted_Penalty>
4.44262e-06

> <i_epik_Tot_Q>
0

> <i_epik_Tot_abs_Q>
0

> <r_epik_Metal_State_Penalty>
-0

> <b_epik_Metal_Only>
0

> <s_lp_Force_Field>
OPLS_2005

> <r_lp_Energy>
26.2071

> <b_lp_Chiralities_Consistent>
1

> <s_lp_Variant>
AV-unprocessed.smi:1094-1

> <Gold.Version>
5.8.1

> <Gold.Id.Protein>
6NUR|6NUR_protein|mol2

> <Gold.PLP.Fitness>
44.4078

> <Gold.PLP.PLP>
-32.8693

> <Gold.PLP.part.hbond>
-4.2897

> <Gold.PLP.part.metal>
0.0000

> <Gold.PLP.part.buried>
-4.9631

> <Gold.PLP.part.nonpolar>
-25.1160

> <Gold.PLP.part.repulsive>
0.4683

> <Gold.PLP.ligand.clash>
0.0000

> <Gold.PLP.ligand.torsion>
0.7283

> <Gold.PLP.Chemscore.Hbond>
3.7956

> <Gold.PLP.Chemscore.CHOScore>
0.5174

> <Gold.PLP.Chemscore.Metal>
0.0000

> <Gold.Chemscore.Hbonds>
donor molecule, donor type, donor heavy atom, donor atom, acceptor molecule, acceptor atom, score
      L1  H     6    30       P1  7948  0.70
      L1  H     9    31       P1  7948  0.64
      L1  H    13    34       P1  7957  0.59
      L1  H    13    35       P1  7948  0.94
      P1  H  7997  8010       L1    17  1.00
      L1  C     4    29       P1 10747  0.16

> <Gold.PLP.Chemscore.Internal.Correction>
0.0561

> <Gold.Rescore>
     Score         DG    S(hbond)    S(metal)    S(lipo)     H(rot)  DE(clash)    DE(int)     intcor
     17.35     -20.45       3.79        0.00      66.13       2.11       0.06       3.04       ----

> <Gold.Chemscore.Fitness>
17.3524

> <Gold.Chemscore.DG>
-20.4538

> <Gold.Chemscore.ZeroCoef>
-5.4800

> <Gold.Chemscore.Hbond>
3.7870

> <Gold.Chemscore.Metal>
0.0000

> <Gold.Chemscore.Lipo>
66.1293

> <Gold.Chemscore.Internal_Hbond>
0.0000

> <Gold.Chemscore.DEClash>
0.0605

> <Gold.Chemscore.DEInternal>
3.0409

> <Gold.Chemscore.Rot>
2.1140

> <Gold.Chemscore.Internal.Correction>
   9.000000E+99

> <Gold.Chemscore.Hbonds>
donor molecule, donor type, donor heavy atom, donor atom, acceptor molecule, acceptor atom, score
      L1  H     6    30       P1  7948  0.60
      L1  H     9    31       P1  7948  0.60
      L1  H    13    34       P1  7957  0.60
      L1  H    13    35       P1  7948  0.90
      P1  H  7997  8010       L1    17  0.63

> <Gold.Chemscore.Hbond.Weighted>
-12.6486

> <Gold.Chemscore.Metal.Weighted>
-0.0000

> <Gold.Chemscore.Lipo.Weighted>
-7.7371

> <Gold.Chemscore.Internal_Hbond.Weighted>
0.0000

> <Gold.Chemscore.DEClash.Weighted>
0.0605

> <Gold.Chemscore.DEInternal.Weighted>
3.0409

> <Gold.Chemscore.Rot.Weighted>
5.4119

> <Gold.Chemscore.Internal.Correction.Weighted>
   9.000000E+99

> <Gold.Protein.RotatedTorsions>
[ 6907 6896 6895 6894 ] final  -15.15 input  -60.11 | X-H torsion
[ 7974 7965 7964 7962 ] final  -91.20 input  175.53 | X-H torsion
[ 8008 7997 7996 7995 ] final   79.65 input   59.86 | X-H torsion
[ 10167 10162 10161 10158 ] final   36.76 input  -65.29 | X-H torsion
[ 10718 10713 10712 10709 ] final   62.89 input   66.30 | X-H torsion
[ 10763 10752 10751 10750 ] final -179.20 input  -60.55 | X-H torsion
[ 11005 11000 10999 10996 ] final  -12.14 input  -57.11 | X-H torsion

> <Gold.Protein.ActiveResidues>
 VAL166  LYS551  ARG553  GLY616  TRP617  ASP618  TYR619  PRO620  LYS621  CYS622 
 ASP623  PHE694  ASN695  SER759  ASP760  ASP761  ALA762  ILE779  LEU786  VAL792 
 PHE793  MET794  SER795  GLU796  ALA797  LYS798  CYS799  TRP800  GLU811  SER814 

> <Gold.Protein.RotatedAtoms>
  151.3283  135.0835  159.9329 H   0  0  0  0  0  0  0  0  0  0  0  0  # atno 6907 bound_to 6896
  152.5240  133.9568  159.7708 H   0  0  0  0  0  0  0  0  0  0  0  0  # atno 6908 bound_to 6896
  150.9902  133.6104  159.2739 H   0  0  0  0  0  0  0  0  0  0  0  0  # atno 6909 bound_to 6896
  145.4163  140.9548  143.2206 H   0  0  0  0  0  0  0  0  0  0  0  0  # atno 7974 bound_to 7965
  155.8727  140.3448  155.5832 H   0  0  0  0  0  0  0  0  0  0  0  0  # atno 8008 bound_to 7997
  155.7809  140.0858  157.2079 H   0  0  0  0  0  0  0  0  0  0  0  0  # atno 8009 bound_to 7997
  154.4018  140.1501  156.3038 H   0  0  0  0  0  0  0  0  0  0  0  0  # atno 8010 bound_to 7997
  140.4097  144.1610  150.6138 H   0  0  0  0  0  0  0  0  0  0  0  0  # atno 10167 bound_to 10162
  157.5933  130.9075  149.9646 H   0  0  0  0  0  0  0  0  0  0  0  0  # atno 10718 bound_to 10713
  154.5380  135.2804  155.1121 H   0  0  0  0  0  0  0  0  0  0  0  0  # atno 10763 bound_to 10752
  154.2615  135.6321  153.5280 H   0  0  0  0  0  0  0  0  0  0  0  0  # atno 10764 bound_to 10752
  152.9972  135.5606  154.5912 H   0  0  0  0  0  0  0  0  0  0  0  0  # atno 10765 bound_to 10752
  140.7626  133.8503  155.9137 H   0  0  0  0  0  0  0  0  0  0  0  0  # atno 11005 bound_to 11000
  144.8275  139.5685  143.6959 LP  0  0  0  0  0  0  0  0  0  0  0  0  # atno 17320 bound_to 7965
  146.2679  139.6564  142.9316 LP  0  0  0  0  0  0  0  0  0  0  0  0  # atno 17321 bound_to 7965
  140.4651  143.2434  151.9166 LP  0  0  0  0  0  0  0  0  0  0  0  0  # atno 17342 bound_to 10162
  139.4783  144.5427  151.8504 LP  0  0  0  0  0  0  0  0  0  0  0  0  # atno 17343 bound_to 10162
  156.0991  130.3657  150.0251 LP  0  0  0  0  0  0  0  0  0  0  0  0  # atno 17370 bound_to 10713
  156.8369  130.9412  151.3634 LP  0  0  0  0  0  0  0  0  0  0  0  0  # atno 17371 bound_to 10713
  140.9649  134.1607  157.4624 LP  0  0  0  0  0  0  0  0  0  0  0  0  # atno 17394 bound_to 11000
  139.8768  134.9958  156.5762 LP  0  0  0  0  0  0  0  0  0  0  0  0  # atno 17395 bound_to 11000

$$$$
