#       Name:                AV-unprocessed.smi:1345
#       Creating user name   scv26
#       Creation time:       Fri Mar 27 05:09:18 2020


#       File generated by GOLD software.
#

@<TRIPOS>MOLECULE
AV-unprocessed.smi:1345
    45    46     1
SMALL
NO_CHARGES


@<TRIPOS>ATOM
      1 ****        -5.4320  -2.1571   1.0746 C.3            1 S1                 0.0000
      2 ****        -3.9005  -2.3055   1.1270 C.3            1 S1                 0.0000
      3 ****        -3.3994  -1.9405   2.5381 C.3            1 S1                 0.0000
      4 ****        -3.1865  -1.4850   0.0194 C.3            1 S1                 0.0000
      5 ****        -3.6243  -1.8750  -1.4056 C.3            1 S1                 0.0000
      6 ****        -1.7368  -1.6474   0.1276 N.am           1 S1                 0.0000
      7 ****        -0.8172  -0.7242  -0.1969 C.2            1 S1                 0.0000
      8 ****        -1.1070   0.3900  -0.6360 O.2            1 S1                 0.0000
      9 ****         0.6445  -1.1386   0.0168 C.3            1 S1                 0.0000
     10 ****         1.6015  -0.2651  -0.7466 C.2            1 S1                 0.0000
     11 ****         1.8704  -0.3128  -2.0933 C.2            1 S1                 0.0000
     12 ****         3.0506   0.8784  -2.5671 S.3            1 S1                 0.0000
     13 ****         3.1481   1.4015  -0.8870 C.2            1 S1                 0.0000
     14 ****         4.0060   2.4508  -0.4408 N.am           1 S1                 0.0000
     15 ****         4.8734   3.1638  -1.3709 C.3            1 S1                 0.0000
     16 ****         5.6068   4.1706  -0.4897 C.3            1 S1                 0.0000
     17 ****         5.0499   3.8965   0.8141 N.am           1 S1                 0.0000
     18 ****         4.1442   2.9157   0.8187 C.2            1 S1                 0.0000
     19 ****         3.5543   2.5280   1.8262 O.2            1 S1                 0.0000
     20 ****         2.3405   0.7123  -0.0721 N.2            1 S1                 0.0000
     21 ****        -5.7320  -1.1116   1.1520 H              1 S1                 0.0000
     22 ****        -5.9071  -2.6991   1.8929 H              1 S1                 0.0000
     23 ****        -5.8470  -2.5588   0.1507 H              1 S1                 0.0000
     24 ****        -3.6714  -3.3602   0.9670 H              1 S1                 0.0000
     25 ****        -3.5621  -0.8837   2.7529 H              1 S1                 0.0000
     26 ****        -2.3358  -2.1458   2.6598 H              1 S1                 0.0000
     27 ****        -3.9219  -2.5169   3.3022 H              1 S1                 0.0000
     28 ****        -3.4333  -0.4329   0.1748 H              1 S1                 0.0000
     29 ****        -4.6758  -1.6505  -1.5810 H              1 S1                 0.0000
     30 ****        -3.4717  -2.9389  -1.5906 H              1 S1                 0.0000
     31 ****        -3.0579  -1.3241  -2.1570 H              1 S1                 0.0000
     32 ****        -1.4081  -2.5330   0.4842 H              1 S1                 0.0000
     33 ****         0.8584  -1.1033   1.0859 H              1 S1                 0.0000
     34 ****         0.7678  -2.1789  -0.2874 H              1 S1                 0.0000
     35 ****         1.4423  -0.9718  -2.8340 H              1 S1                 0.0000
     36 ****         5.5697   2.4771  -1.8544 H              1 S1                 0.0000
     37 ****         4.2837   3.6642  -2.1405 H              1 S1                 0.0000
     38 ****         6.6848   4.0056  -0.4884 H              1 S1                 0.0000
     39 ****         5.4041   5.2004  -0.7859 H              1 S1                 0.0000
     40 ****         5.3275   4.4075   1.6396 H              1 S1                 0.0000
     41 ****        -2.0659   0.6424  -0.7657 LP             1 S1                 0.0000
     42 ****        -0.3833   1.0418  -0.8626 LP             1 S1                 0.0000
     43 ****         2.8861   1.7869   1.7603 LP             1 S1                 0.0000
     44 ****         3.7429   2.9539   2.7111 LP             1 S1                 0.0000
     45 ****         2.2728   0.8780   0.9118 LP             1 S1                 0.0000
@<TRIPOS>BOND
    1    1    2 1     
    2    1   21 1     
    3    1   22 1     
    4    1   23 1     
    5    2    3 1     
    6    2    4 1     
    7    2   24 1     
    8    3   25 1     
    9    3   26 1     
   10    3   27 1     
   11    4    5 1     
   12    4    6 1     
   13    4   28 1     
   14    5   29 1     
   15    5   30 1     
   16    5   31 1     
   17    6    7 am    
   18    6   32 1     
   19    7    8 2     
   20    7    9 1     
   21    9   10 1     
   22    9   33 1     
   23    9   34 1     
   24   10   20 1     
   25   10   11 2     
   26   11   12 1     
   27   11   35 1     
   28   12   13 1     
   29   13   14 1     
   30   13   20 2     
   31   14   18 am    
   32   14   15 1     
   33   15   16 1     
   34   15   36 1     
   35   15   37 1     
   36   16   17 1     
   37   16   38 1     
   38   16   39 1     
   39   17   18 am    
   40   17   40 1     
   41   18   19 2     
   42    8   41 1     
   43    8   42 1     
   44   19   43 1     
   45   19   44 1     
   46   20   45 1     
@<TRIPOS>SUBSTRUCTURE
      1 S1             1
@<TRIPOS>SET
LONE_PAIRS      STATIC     ATOMS    <user>   **** ""
5 41 42 43 44 45
DONOR_HYDROGENS      STATIC     ATOMS    <user>   **** ""
2 32 40
ATOM$BLUE        STATIC     ATOMS    COLORGROUP SYSTEM
5 41 42 43 44 45
ATOM$RED        STATIC     ATOMS    COLORGROUP SYSTEM
2 32 40
