#       Name:                AV-unprocessed.smi:1492
#       Creating user name   scv26
#       Creation time:       Fri Mar 27 06:15:31 2020


#       File generated by GOLD software.
#

@<TRIPOS>MOLECULE
AV-unprocessed.smi:1492
    60    61     1
SMALL
NO_CHARGES


@<TRIPOS>ATOM
      1 ****        -0.1395  -1.9317   0.1192 C.3            1 S1                 0.0000
      2 ****        -0.7143  -0.5050   0.1225 C.3            1 S1                 0.0000
      3 ****        -0.4519   0.3215   1.4226 C.3            1 S1                 0.0000
      4 ****        -1.1453   1.6973   1.2506 C.3            1 S1                 0.0000
      5 ****         1.0829   0.5642   1.5901 C.3            1 S1                 0.0000
      6 ****         1.7001   1.1353   0.3970 N.am           1 S1                 0.0000
      7 ****         2.7234   0.6029  -0.2866 C.2            1 S1                 0.0000
      8 ****         3.3858  -0.3559   0.1077 O.2            1 S1                 0.0000
      9 ****         3.0042   1.2238  -1.6539 C.3            1 S1                 0.0000
     10 ****         1.8657   1.0637  -2.6611 C.2            1 S1                 0.0000
     11 ****         1.6704  -0.0743  -3.3748 C.2            1 S1                 0.0000
     12 ****         2.5498  -1.3087  -3.2773 C.3            1 S1                 0.0000
     13 ****         0.6126  -0.1925  -4.2586 N.pl3          1 S1                 0.0000
     14 ****        -0.2481   0.8846  -4.3877 C.2            1 S1                 0.0000
     15 ****        -1.3724   0.6485  -5.3724 C.3            1 S1                 0.0000
     16 ****        -0.1490   2.0095  -3.7471 N.2            1 S1                 0.0000
     17 ****         0.9086   2.1816  -2.8399 C.2            1 S1                 0.0000
     18 ****         1.0176   3.2297  -2.2048 O.2            1 S1                 0.0000
     19 ****        -0.9997  -0.4081   2.6275 N.4            1 S1                 1.0000
     20 ****        -0.6554   0.1702   3.9588 C.3            1 S1                 0.0000
     21 ****        -1.1231  -0.7546   5.0959 C.3            1 S1                 0.0000
     22 ****        -2.5196  -0.9865   4.9891 O.3            1 S1                 0.0000
     23 ****        -2.8475  -1.6322   3.7682 C.3            1 S1                 0.0000
     24 ****        -2.4565  -0.7280   2.5888 C.3            1 S1                 0.0000
     25 ****         0.5057  -1.0560  -4.7716 H              1 S1                 0.0000
     26 ****        -0.3657  -2.4298  -0.8237 H              1 S1                 0.0000
     27 ****        -0.5627  -2.5399   0.9186 H              1 S1                 0.0000
     28 ****         0.9441  -1.9333   0.2315 H              1 S1                 0.0000
     29 ****        -0.3136   0.0211  -0.7438 H              1 S1                 0.0000
     30 ****        -1.7803  -0.5555  -0.0944 H              1 S1                 0.0000
     31 ****        -0.7615   2.2302   0.3800 H              1 S1                 0.0000
     32 ****        -0.9880   2.3459   2.1121 H              1 S1                 0.0000
     33 ****        -2.2198   1.6034   1.0979 H              1 S1                 0.0000
     34 ****         1.2782   1.2869   2.3817 H              1 S1                 0.0000
     35 ****         1.5807  -0.3591   1.8903 H              1 S1                 0.0000
     36 ****         1.2398   1.9384  -0.0071 H              1 S1                 0.0000
     37 ****         3.2621   2.2749  -1.5190 H              1 S1                 0.0000
     38 ****         3.9053   0.7677  -2.0645 H              1 S1                 0.0000
     39 ****         3.5779  -1.0697  -3.5502 H              1 S1                 0.0000
     40 ****         2.2040  -2.1021  -3.9412 H              1 S1                 0.0000
     41 ****         2.5434  -1.7011  -2.2603 H              1 S1                 0.0000
     42 ****        -1.9493   1.5603  -5.5324 H              1 S1                 0.0000
     43 ****        -2.0476  -0.1216  -4.9982 H              1 S1                 0.0000
     44 ****        -0.9757   0.3245  -6.3352 H              1 S1                 0.0000
     45 ****         0.4182   0.2981   4.0789 H              1 S1                 0.0000
     46 ****        -1.1149   1.1523   4.0729 H              1 S1                 0.0000
     47 ****        -0.5814  -1.7016   5.0745 H              1 S1                 0.0000
     48 ****        -0.9166  -0.2938   6.0620 H              1 S1                 0.0000
     49 ****        -2.3467  -2.5996   3.7024 H              1 S1                 0.0000
     50 ****        -3.9200  -1.8278   3.7507 H              1 S1                 0.0000
     51 ****        -3.0473   0.1872   2.6309 H              1 S1                 0.0000
     52 ****        -2.7331  -1.2486   1.6748 H              1 S1                 0.0000
     53 ****        -0.5346  -1.3046   2.6076 H              1 S1                 0.0000
     54 ****         3.1719  -0.7842   0.9857 LP             1 S1                 0.0000
     55 ****         4.1381  -0.7070  -0.4498 LP             1 S1                 0.0000
     56 ****        -0.8144   2.7407  -3.8972 LP             1 S1                 0.0000
     57 ****         1.7649   3.3420  -1.5499 LP             1 S1                 0.0000
     58 ****         0.3589   3.9692  -2.3435 LP             1 S1                 0.0000
     59 ****        -2.9988  -0.1099   5.0321 LP             1 S1                 0.0000
     60 ****        -2.8123  -1.5642   5.7511 LP             1 S1                 0.0000
@<TRIPOS>BOND
    1    1    2 1     
    2    1   26 1     
    3    1   27 1     
    4    1   28 1     
    5    2    3 1     
    6    2   29 1     
    7    2   30 1     
    8    3    4 1     
    9    3    5 1     
   10    3   19 1     
   11    4   31 1     
   12    4   32 1     
   13    4   33 1     
   14    5    6 1     
   15    5   34 1     
   16    5   35 1     
   17    6    7 am    
   18    6   36 1     
   19    7    8 2     
   20    7    9 1     
   21    9   37 1     
   22    9   38 1     
   23    9   10 1     
   24   10   17 1     
   25   10   11 2     
   26   11   12 1     
   27   11   13 1     
   28   12   39 1     
   29   12   40 1     
   30   12   41 1     
   31   13   25 1     
   32   13   14 1     
   33   14   15 1     
   34   14   16 2     
   35   15   42 1     
   36   15   43 1     
   37   15   44 1     
   38   16   17 1     
   39   17   18 2     
   40   19   24 1     
   41   19   20 1     
   42   19   53 1     
   43   20   21 1     
   44   20   45 1     
   45   20   46 1     
   46   21   22 1     
   47   21   47 1     
   48   21   48 1     
   49   22   23 1     
   50   23   24 1     
   51   23   49 1     
   52   23   50 1     
   53   24   51 1     
   54   24   52 1     
   55    8   54 1     
   56    8   55 1     
   57   16   56 1     
   58   18   57 1     
   59   18   58 1     
   60   22   59 1     
   61   22   60 1     
@<TRIPOS>SUBSTRUCTURE
      1 S1             1
@<TRIPOS>SET
LONE_PAIRS      STATIC     ATOMS    <user>   **** ""
7 54 55 56 57 58 59 60
DONOR_HYDROGENS      STATIC     ATOMS    <user>   **** ""
3 36 25 53
ATOM$BLUE        STATIC     ATOMS    COLORGROUP SYSTEM
7 54 55 56 57 58 59 60
ATOM$RED        STATIC     ATOMS    COLORGROUP SYSTEM
3 36 25 53
