AV-unprocessed.smi:3261|AV-procd|sdf|12481|dock4
  -GOLD-   2272018383D 1   1.00000     0.00000
 Structure written by MMmdl.
 31 32  0  0  0  0  0  0  0  0  2 V2000
  147.2575  133.9244  153.4707 O   0  0  0  0  0  0  0  0  0  0  0  0
  147.7595  133.0581  152.7585 C   0  0  0  0  0  0  0  0  0  0  0  0
  147.1473  132.4783  151.7066 N   0  0  0  0  0  0  0  0  0  0  0  0
  145.8636  132.7468  151.1572 C   0  0  0  0  0  0  0  0  0  0  0  0
  145.0751  133.7273  151.7995 C   0  0  0  0  0  0  0  0  0  0  0  0
  143.7876  134.0199  151.3051 C   0  0  0  0  0  0  0  0  0  0  0  0
  143.3143  133.3562  150.2289 N   0  3  0  0  0  0  0  0  0  0  0  0
  144.0241  132.4023  149.5893 C   0  0  0  0  0  0  0  0  0  0  0  0
  145.3180  132.0670  150.0378 C   0  0  0  0  0  0  0  0  0  0  0  0
  148.9955  132.5880  153.0067 N   0  0  0  0  0  0  0  0  0  0  0  0
  149.9267  132.9929  154.0613 C   0  0  1  0  0  0  0  0  0  0  0  0
  150.0330  134.5269  154.1453 C   0  0  0  0  0  0  0  0  0  0  0  0
  150.7199  134.9016  155.4648 C   0  0  0  0  0  0  0  0  0  0  0  0
  150.2775  133.5858  156.6623 S   0  0  0  0  0  0  0  0  0  0  0  0
  151.5116  132.9571  157.1569 O   0  0  0  0  0  0  0  0  0  0  0  0
  149.2556  134.0858  157.5940 O   0  0  0  0  0  0  0  0  0  0  0  0
  149.4821  132.4781  155.4396 C   0  0  0  0  0  0  0  0  0  0  0  0
  147.6532  131.7220  151.2693 H   0  0  0  0  0  0  0  0  0  0  0  0
  145.4523  134.2568  152.6627 H   0  0  0  0  0  0  0  0  0  0  0  0
  143.1265  134.7577  151.7362 H   0  0  0  0  0  0  0  0  0  0  0  0
  143.5372  131.9338  148.7464 H   0  0  0  0  0  0  0  0  0  0  0  0
  145.8558  131.2877  149.5206 H   0  0  0  0  0  0  0  0  0  0  0  0
  149.3199  131.8475  152.4010 H   0  0  0  0  0  0  0  0  0  0  0  0
  150.9267  132.6113  153.8476 H   0  0  0  0  0  0  0  0  0  0  0  0
  150.5621  134.9449  153.2883 H   0  0  0  0  0  0  0  0  0  0  0  0
  149.0308  134.9581  154.1402 H   0  0  0  0  0  0  0  0  0  0  0  0
  151.8043  134.9013  155.3509 H   0  0  0  0  0  0  0  0  0  0  0  0
  150.4108  135.8761  155.8432 H   0  0  0  0  0  0  0  0  0  0  0  0
  148.4022  132.5688  155.5647 H   0  0  0  0  0  0  0  0  0  0  0  0
  149.7689  131.4439  155.6297 H   0  0  0  0  0  0  0  0  0  0  0  0
  142.3794  133.5811  149.8877 H   0  0  0  0  0  0  0  0  0  0  0  0
  1  2  2  0  0  0  0
  2  3  1  0  0  0  0
  2 10  1  0  0  0  0
  3  4  1  0  0  0  0
  3 18  1  0  0  0  0
  4  9  1  0  0  0  0
  4  5  2  0  0  0  0
  5  6  1  0  0  0  0
  5 19  1  0  0  0  0
  6  7  2  0  0  0  0
  6 20  1  0  0  0  0
  7  8  1  0  0  0  0
  7 31  1  0  0  0  0
  8  9  2  0  0  0  0
  8 21  1  0  0  0  0
  9 22  1  0  0  0  0
 10 11  1  0  0  0  0
 10 23  1  0  0  0  0
 11 17  1  0  0  0  0
 11 12  1  0  0  0  0
 11 24  1  0  0  0  0
 12 13  1  0  0  0  0
 12 25  1  0  0  0  0
 12 26  1  0  0  0  0
 13 14  1  0  0  0  0
 13 27  1  0  0  0  0
 13 28  1  0  0  0  0
 14 15  2  0  0  0  0
 14 16  2  0  0  0  0
 14 17  1  0  0  0  0
 17 29  1  0  0  0  0
 17 30  1  0  0  0  0
M  CHG  1   7   1
M  END
> <s_m_source_file>
AV-unprocessed.smi

> <i_m_source_file_index>
3261

> <i_lp_mmshare_version>
43012

> <i_f3d_flags>
0

> <s_epik_input>
Tz1TMSg9TylbQ0gyXVtDSDJdW0NASF0oW0NIMl0xKVtOSF1DKD1PKVtOSF1jMltjSF1bY0hdbltjSF1bY0hdMg==

> <s_epik_cmdline>
J2VwaWtfcHl0aG9uJywgJy1waCcsICc3LjAnLCAnLXRuJywgJzgnLCAnLW1hJywgJzIwMCcsICctbWV0YWxfYmluZGluZycsICctaW1hZScsICc8aW5maWxlLm1hZT4nLCAnLW9tYWUnLCAnPG91dGZpbGUubWFlPic=

> <r_epik_Ionization_Penalty>
1.10375

> <r_epik_Ionization_Penalty_Charging>
1.10372

> <r_epik_Ionization_Penalty_Neutral>
2.06752e-05

> <r_epik_State_Penalty>
1.16109

> <r_epik_Charging_Adjusted_Penalty>
2.26482

> <i_epik_Tot_Q>
1

> <i_epik_Tot_abs_Q>
1

> <r_epik_Metal_State_Penalty>
1.24883

> <b_epik_Metal_Only>
0

> <s_lp_Force_Field>
OPLS_2005

> <r_lp_Energy>
25.5271

> <b_lp_Chiralities_Consistent>
1

> <s_lp_Variant>
AV-unprocessed.smi:3261-4

> <Gold.Version>
5.8.1

> <Gold.Id.Protein>
6NUR|6NUR_protein|mol2

> <Gold.PLP.Fitness>
42.1932

> <Gold.PLP.PLP>
-30.2304

> <Gold.PLP.part.hbond>
-3.4326

> <Gold.PLP.part.metal>
0.0000

> <Gold.PLP.part.buried>
-5.7637

> <Gold.PLP.part.nonpolar>
-21.1473

> <Gold.PLP.part.repulsive>
0.1412

> <Gold.PLP.ligand.clash>
0.0000

> <Gold.PLP.ligand.torsion>
0.1471

> <Gold.PLP.Chemscore.Hbond>
4.0855

> <Gold.PLP.Chemscore.CHOScore>
0.0000

> <Gold.PLP.Chemscore.Metal>
0.0000

> <Gold.Chemscore.Hbonds>
donor molecule, donor type, donor heavy atom, donor atom, acceptor molecule, acceptor atom, score
      L1  H     3    18       P1 10747  1.00
      L1  H     7    31       P1 10186  2.00
      L1  H    10    23       P1 10747  0.21
      P1  H  6896  6909       L1    15  0.60

> <Gold.PLP.Chemscore.Internal.Correction>
0.0005

> <Gold.Rescore>
     Score         DG    S(hbond)    S(metal)    S(lipo)     H(rot)  DE(clash)    DE(int)     intcor
     18.13     -19.59       2.75        0.00      63.87       1.00       0.01       1.45       ----

> <Gold.Chemscore.Fitness>
18.1323

> <Gold.Chemscore.DG>
-19.5900

> <Gold.Chemscore.ZeroCoef>
-5.4800

> <Gold.Chemscore.Hbond>
2.7538

> <Gold.Chemscore.Metal>
0.0000

> <Gold.Chemscore.Lipo>
63.8660

> <Gold.Chemscore.Internal_Hbond>
0.0000

> <Gold.Chemscore.DEClash>
0.0117

> <Gold.Chemscore.DEInternal>
1.4460

> <Gold.Chemscore.Rot>
1.0000

> <Gold.Chemscore.Internal.Correction>
   9.000000E+99

> <Gold.Chemscore.Hbonds>
donor molecule, donor type, donor heavy atom, donor atom, acceptor molecule, acceptor atom, score
      L1  H     3    18       P1 10747  0.99
      L1  H     7    31       P1 10186  0.99
      L1  H    10    23       P1 10747  0.09
      P1  H  6896  6909       L1    15  0.39

> <Gold.Chemscore.Hbond.Weighted>
-9.1977

> <Gold.Chemscore.Metal.Weighted>
-0.0000

> <Gold.Chemscore.Lipo.Weighted>
-7.4723

> <Gold.Chemscore.Internal_Hbond.Weighted>
0.0000

> <Gold.Chemscore.DEClash.Weighted>
0.0117

> <Gold.Chemscore.DEInternal.Weighted>
1.4460

> <Gold.Chemscore.Rot.Weighted>
2.5600

> <Gold.Chemscore.Internal.Correction.Weighted>
   9.000000E+99

> <Gold.Protein.RotatedTorsions>
[ 6907 6896 6895 6894 ] final  -58.45 input  -60.11 | X-H torsion
[ 7974 7965 7964 7962 ] final -153.52 input  175.53 | X-H torsion
[ 8008 7997 7996 7995 ] final   50.96 input   59.86 | X-H torsion
[ 10167 10162 10161 10158 ] final  -93.02 input  -65.29 | X-H torsion
[ 10718 10713 10712 10709 ] final   63.01 input   66.30 | X-H torsion
[ 10763 10752 10751 10750 ] final  169.62 input  -60.55 | X-H torsion
[ 11005 11000 10999 10996 ] final  110.02 input  -57.11 | X-H torsion

> <Gold.Protein.ActiveResidues>
 VAL166  LYS551  ARG553  GLY616  TRP617  ASP618  TYR619  PRO620  LYS621  CYS622 
 ASP623  PHE694  ASN695  SER759  ASP760  ASP761  ALA762  ILE779  LEU786  VAL792 
 PHE793  MET794  SER795  GLU796  ALA797  LYS798  CYS799  TRP800  GLU811  SER814 

> <Gold.Protein.RotatedAtoms>
  150.8006  134.7097  159.6596 H   0  0  0  0  0  0  0  0  0  0  0  0  # atno 6907 bound_to 6896
  152.4122  134.6100  160.0033 H   0  0  0  0  0  0  0  0  0  0  0  0  # atno 6908 bound_to 6896
  151.6340  133.3293  159.3151 H   0  0  0  0  0  0  0  0  0  0  0  0  # atno 6909 bound_to 6896
  144.7737  140.4515  143.5889 H   0  0  0  0  0  0  0  0  0  0  0  0  # atno 7974 bound_to 7965
  155.4274  140.3449  155.4277 H   0  0  0  0  0  0  0  0  0  0  0  0  # atno 8008 bound_to 7997
  156.1356  140.1527  156.9030 H   0  0  0  0  0  0  0  0  0  0  0  0  # atno 8009 bound_to 7997
  154.4929  140.0836  156.7615 H   0  0  0  0  0  0  0  0  0  0  0  0  # atno 8010 bound_to 7997
  140.3289  143.3006  151.9964 H   0  0  0  0  0  0  0  0  0  0  0  0  # atno 10167 bound_to 10162
  157.5941  130.9082  149.9661 H   0  0  0  0  0  0  0  0  0  0  0  0  # atno 10718 bound_to 10713
  154.3858  135.2753  155.2184 H   0  0  0  0  0  0  0  0  0  0  0  0  # atno 10763 bound_to 10752
  154.4271  135.5986  153.6049 H   0  0  0  0  0  0  0  0  0  0  0  0  # atno 10764 bound_to 10752
  152.9833  135.5986  154.4106 H   0  0  0  0  0  0  0  0  0  0  0  0  # atno 10765 bound_to 10752
  139.8873  134.9473  156.6214 H   0  0  0  0  0  0  0  0  0  0  0  0  # atno 11005 bound_to 11000
  145.6249  139.1529  143.3001 LP  0  0  0  0  0  0  0  0  0  0  0  0  # atno 17320 bound_to 7965
  146.1901  140.6357  142.9149 LP  0  0  0  0  0  0  0  0  0  0  0  0  # atno 17321 bound_to 7965
  139.4860  144.6251  151.7179 LP  0  0  0  0  0  0  0  0  0  0  0  0  # atno 17342 bound_to 10162
  140.5416  144.0570  150.6090 LP  0  0  0  0  0  0  0  0  0  0  0  0  # atno 17343 bound_to 10162
  156.1001  130.3656  150.0234 LP  0  0  0  0  0  0  0  0  0  0  0  0  # atno 17370 bound_to 10713
  156.8351  130.9406  151.3635 LP  0  0  0  0  0  0  0  0  0  0  0  0  # atno 17371 bound_to 10713
  140.7736  133.8718  155.8511 LP  0  0  0  0  0  0  0  0  0  0  0  0  # atno 17394 bound_to 11000
  140.9821  134.1392  157.4485 LP  0  0  0  0  0  0  0  0  0  0  0  0  # atno 17395 bound_to 11000

$$$$
