#       Name:                AV-unprocessed.smi:1856
#       Creating user name   scv26
#       Creation time:       Fri Mar 27 09:25:25 2020


#       File generated by GOLD software.
#

@<TRIPOS>MOLECULE
AV-unprocessed.smi:1856
    49    50     1
SMALL
NO_CHARGES


@<TRIPOS>ATOM
      1 ****        -2.2783   5.6303  -0.1823 C.3            1 S1                 0.0000
      2 ****        -1.7336   4.2472  -0.5553 C.3            1 S1                 0.0000
      3 ****        -2.5550   3.1050   0.0686 C.3            1 S1                 0.0000
      4 ****        -1.9881   1.7190  -0.2531 C.2            1 S1                 0.0000
      5 ****        -1.5116   1.4799  -1.3630 O.2            1 S1                 0.0000
      6 ****        -2.0469   0.8087   0.7318 N.am           1 S1                 0.0000
      7 ****        -1.5669  -0.5665   0.6341 C.3            1 S1                 0.0000
      8 ****        -2.1208  -1.3907   1.8049 C.3            1 S1                 0.0000
      9 ****        -0.0670  -0.6326   0.5971 C.2            1 S1                 0.0000
     10 ****         0.7669  -0.1866   1.5797 N.pl3          1 S1                 1.0000
     11 ****         2.0941  -0.3713   1.1972 C.ar           1 S1                 0.0000
     12 ****         3.2801  -0.0727   1.8605 C.ar           1 S1                 0.0000
     13 ****         4.4783  -0.3849   1.1862 C.ar           1 S1                 0.0000
     14 ****         4.4665  -0.9689  -0.0967 C.ar           1 S1                 0.0000
     15 ****         3.2572  -1.2653  -0.7591 C.ar           1 S1                 0.0000
     16 ****         2.0747  -0.9571  -0.0849 C.ar           1 S1                 0.0000
     17 ****         0.7204  -1.1085  -0.4142 N.pl3          1 S1                 0.0000
     18 ****         0.3539  -1.6950  -1.7180 C.3            1 S1                 0.0000
     19 ****         0.0835  -3.2165  -1.6763 C.3            1 S1                 0.0000
     20 ****         1.2552  -4.0572  -1.1474 C.3            1 S1                 0.0000
     21 ****        -1.0456  -3.4873  -0.8726 O.3            1 S1                 0.0000
     22 ****        -1.6778   6.4194  -0.6356 H              1 S1                 0.0000
     23 ****        -2.2662   5.7820   0.8974 H              1 S1                 0.0000
     24 ****        -3.3050   5.7544  -0.5274 H              1 S1                 0.0000
     25 ****        -1.7269   4.1526  -1.6421 H              1 S1                 0.0000
     26 ****        -0.6943   4.1741  -0.2323 H              1 S1                 0.0000
     27 ****        -2.5964   3.2364   1.1511 H              1 S1                 0.0000
     28 ****        -3.5842   3.1471  -0.2900 H              1 S1                 0.0000
     29 ****        -2.4605   1.0869   1.6099 H              1 S1                 0.0000
     30 ****        -1.9658  -0.9917  -0.2868 H              1 S1                 0.0000
     31 ****        -1.8053  -2.4321   1.7330 H              1 S1                 0.0000
     32 ****        -3.2111  -1.3784   1.8121 H              1 S1                 0.0000
     33 ****        -1.7782  -1.0054   2.7659 H              1 S1                 0.0000
     34 ****         3.2906   0.3768   2.8425 H              1 S1                 0.0000
     35 ****         5.4248  -0.1713   1.6616 H              1 S1                 0.0000
     36 ****         5.4043  -1.1944  -0.5837 H              1 S1                 0.0000
     37 ****         3.2653  -1.7135  -1.7412 H              1 S1                 0.0000
     38 ****        -0.5281  -1.1671  -2.0814 H              1 S1                 0.0000
     39 ****         1.1383  -1.4698  -2.4399 H              1 S1                 0.0000
     40 ****        -0.1532  -3.5510  -2.6867 H              1 S1                 0.0000
     41 ****         2.1511  -3.9012  -1.7480 H              1 S1                 0.0000
     42 ****         1.0192  -5.1213  -1.1852 H              1 S1                 0.0000
     43 ****         1.4962  -3.8119  -0.1127 H              1 S1                 0.0000
     44 ****        -1.7985  -3.0704  -1.2632 H              1 S1                 0.0000
     45 ****         0.4450   0.2225   2.4473 H              1 S1                 0.0000
     46 ****        -1.4925   2.1935  -2.0633 LP             1 S1                 0.0000
     47 ****        -1.1437   0.5720  -1.5642 LP             1 S1                 0.0000
     48 ****        -0.8992  -3.1252   0.0479 LP             1 S1                 0.0000
     49 ****        -1.1950  -4.4748  -0.8225 LP             1 S1                 0.0000
@<TRIPOS>BOND
    1    1    2 1     
    2    1   22 1     
    3    1   23 1     
    4    1   24 1     
    5    2    3 1     
    6    2   25 1     
    7    2   26 1     
    8    3    4 1     
    9    3   27 1     
   10    3   28 1     
   11    4    5 2     
   12    4    6 am    
   13    6    7 1     
   14    6   29 1     
   15    7    8 1     
   16    7    9 1     
   17    7   30 1     
   18    8   31 1     
   19    8   32 1     
   20    8   33 1     
   21    9   17 1     
   22    9   10 2     
   23   10   11 1     
   24   10   45 1     
   25   11   16 ar    
   26   11   12 ar    
   27   12   13 ar    
   28   12   34 1     
   29   13   14 ar    
   30   13   35 1     
   31   14   15 ar    
   32   14   36 1     
   33   15   16 ar    
   34   15   37 1     
   35   16   17 1     
   36   17   18 1     
   37   18   19 1     
   38   18   38 1     
   39   18   39 1     
   40   19   20 1     
   41   19   21 1     
   42   19   40 1     
   43   20   41 1     
   44   20   42 1     
   45   20   43 1     
   46   21   44 1     
   47    5   46 1     
   48    5   47 1     
   49   21   48 1     
   50   21   49 1     
@<TRIPOS>SUBSTRUCTURE
      1 S1             1
@<TRIPOS>SET
LONE_PAIRS      STATIC     ATOMS    <user>   **** ""
4 46 47 48 49
DONOR_HYDROGENS      STATIC     ATOMS    <user>   **** ""
3 29 45 44
ATOM$BLUE        STATIC     ATOMS    COLORGROUP SYSTEM
4 46 47 48 49
ATOM$RED        STATIC     ATOMS    COLORGROUP SYSTEM
3 29 45 44
