AV-unprocessed.smi:3323|AV-procd|sdf|12777|dock6
  -GOLD-   2272019123D 1   1.00000     0.00000
 Structure written by MMmdl.
 37 38  0  0  0  0  0  0  0  0  1 V2000
  145.3352  139.2218  156.3960 C   0  0  0  0  0  0  0  0  0  0  0  0
  146.3293  139.5014  155.2640 C   0  0  2  0  0  0  0  0  0  0  0  0
  146.4507  141.0079  154.9622 C   0  0  0  0  0  0  0  0  0  0  0  0
  147.3960  141.2757  153.7738 C   0  0  1  0  0  0  0  0  0  0  0  0
  148.8966  141.0793  154.0942 C   0  0  0  0  0  0  0  0  0  0  0  0
  149.3594  141.9766  155.1497 N   0  0  0  0  0  0  0  0  0  0  0  0
  150.3188  141.6987  156.0447 C   0  0  0  0  0  0  0  0  0  0  0  0
  150.9419  140.6378  156.0639 O   0  0  0  0  0  0  0  0  0  0  0  0
  150.4970  142.7254  156.8942 N   0  0  0  0  0  0  0  0  0  0  0  0
  151.3839  142.8356  158.0006 C   0  0  0  0  0  0  0  0  0  0  0  0
  151.8786  144.0560  158.5233 C   0  0  0  0  0  0  0  0  0  0  0  0
  152.7644  144.0177  159.6178 C   0  0  0  0  0  0  0  0  0  0  0  0
  153.1285  142.7643  160.1462 C   0  0  0  0  0  0  0  0  0  0  0  0
  152.6727  141.5939  159.6537 N   0  0  0  0  0  0  0  0  0  0  0  0
  151.8237  141.6384  158.6050 C   0  0  0  0  0  0  0  0  0  0  0  0
  146.9391  140.4070  152.5882 C   0  0  0  0  0  0  0  0  0  0  0  0
  146.7719  138.9319  152.9955 C   0  0  0  0  0  0  0  0  0  0  0  0
  145.8744  138.8253  154.0954 O   0  0  0  0  0  0  0  0  0  0  0  0
  145.6499  139.7054  157.3211 H   0  0  0  0  0  0  0  0  0  0  0  0
  145.2571  138.1520  156.5908 H   0  0  0  0  0  0  0  0  0  0  0  0
  144.3391  139.5891  156.1473 H   0  0  0  0  0  0  0  0  0  0  0  0
  147.2999  139.0978  155.5559 H   0  0  0  0  0  0  0  0  0  0  0  0
  145.4617  141.3984  154.7185 H   0  0  0  0  0  0  0  0  0  0  0  0
  146.7701  141.5512  155.8510 H   0  0  0  0  0  0  0  0  0  0  0  0
  147.2721  142.3197  153.4823 H   0  0  0  0  0  0  0  0  0  0  0  0
  149.1148  140.0403  154.3432 H   0  0  0  0  0  0  0  0  0  0  0  0
  149.4872  141.2992  153.2045 H   0  0  0  0  0  0  0  0  0  0  0  0
  148.9051  142.8764  155.2078 H   0  0  0  0  0  0  0  0  0  0  0  0
  149.9395  143.5470  156.7115 H   0  0  0  0  0  0  0  0  0  0  0  0
  151.6123  145.0154  158.1100 H   0  0  0  0  0  0  0  0  0  0  0  0
  153.1587  144.9297  160.0407 H   0  0  0  0  0  0  0  0  0  0  0  0
  153.8072  142.7002  160.9838 H   0  0  0  0  0  0  0  0  0  0  0  0
  151.4827  140.6820  158.2362 H   0  0  0  0  0  0  0  0  0  0  0  0
  145.9813  140.7787  152.2216 H   0  0  0  0  0  0  0  0  0  0  0  0
  147.6374  140.4938  151.7553 H   0  0  0  0  0  0  0  0  0  0  0  0
  146.3678  138.3597  152.1602 H   0  0  0  0  0  0  0  0  0  0  0  0
  147.7311  138.4791  153.2493 H   0  0  0  0  0  0  0  0  0  0  0  0
  1  2  1  0  0  0  0
  1 19  1  0  0  0  0
  1 20  1  0  0  0  0
  1 21  1  0  0  0  0
  2 18  1  0  0  0  0
  2  3  1  0  0  0  0
  2 22  1  0  0  0  0
  3  4  1  0  0  0  0
  3 23  1  0  0  0  0
  3 24  1  0  0  0  0
  4  5  1  0  0  0  0
  4 16  1  0  0  0  0
  4 25  1  0  0  0  0
  5  6  1  0  0  0  0
  5 26  1  0  0  0  0
  5 27  1  0  0  0  0
  6  7  1  0  0  0  0
  6 28  1  0  0  0  0
  7  8  2  0  0  0  0
  7  9  1  0  0  0  0
  9 10  1  0  0  0  0
  9 29  1  0  0  0  0
 10 15  1  0  0  0  0
 10 11  2  0  0  0  0
 11 12  1  0  0  0  0
 11 30  1  0  0  0  0
 12 13  2  0  0  0  0
 12 31  1  0  0  0  0
 13 14  1  0  0  0  0
 13 32  1  0  0  0  0
 14 15  2  0  0  0  0
 15 33  1  0  0  0  0
 16 17  1  0  0  0  0
 16 34  1  0  0  0  0
 16 35  1  0  0  0  0
 17 18  1  0  0  0  0
 17 36  1  0  0  0  0
 17 37  1  0  0  0  0
M  END
> <s_m_source_file>
AV-unprocessed.smi

> <i_m_source_file_index>
3323

> <i_lp_mmshare_version>
43012

> <i_f3d_flags>
0

> <s_epik_input>
W0NIM11bQ0BASF0xW0NIMl1bQ0BIXShbQ0gyXVtDSDJdTzEpW0NIMl1bTkhdQyg9TylbTkhdYzJbY0hdW2NIXVtjSF1uW2NIXTI=

> <s_epik_cmdline>
J2VwaWtfcHl0aG9uJywgJy1waCcsICc3LjAnLCAnLXRuJywgJzgnLCAnLW1hJywgJzIwMCcsICctbWV0YWxfYmluZGluZycsICctaW1hZScsICc8aW5maWxlLm1hZT4nLCAnLW9tYWUnLCAnPG91dGZpbGUubWFlPic=

> <r_epik_Ionization_Penalty>
0.00485293

> <r_epik_Ionization_Penalty_Charging>
0

> <r_epik_Ionization_Penalty_Neutral>
0.00485293

> <r_epik_State_Penalty>
0.00349083

> <r_epik_Charging_Adjusted_Penalty>
0.00349083

> <i_epik_Tot_Q>
0

> <i_epik_Tot_abs_Q>
0

> <r_epik_Metal_State_Penalty>
-0

> <b_epik_Metal_Only>
0

> <s_lp_Force_Field>
OPLS_2005

> <r_lp_Energy>
13.5955

> <b_lp_Chiralities_Consistent>
1

> <s_lp_Variant>
AV-unprocessed.smi:3323-1

> <Gold.Version>
5.8.1

> <Gold.Id.Protein>
6NUR|6NUR_protein|mol2

> <Gold.PLP.Fitness>
39.5121

> <Gold.PLP.PLP>
-34.1441

> <Gold.PLP.part.hbond>
-2.0000

> <Gold.PLP.part.metal>
0.0000

> <Gold.PLP.part.buried>
-3.4917

> <Gold.PLP.part.nonpolar>
-29.0182

> <Gold.PLP.part.repulsive>
0.3808

> <Gold.PLP.ligand.clash>
0.0000

> <Gold.PLP.ligand.torsion>
0.3183

> <Gold.PLP.Chemscore.Hbond>
2.0000

> <Gold.PLP.Chemscore.CHOScore>
0.0000

> <Gold.PLP.Chemscore.Metal>
0.0000

> <Gold.Chemscore.Hbonds>
donor molecule, donor type, donor heavy atom, donor atom, acceptor molecule, acceptor atom, score
      L1  H     6    28       P1  8028  1.00
      L1  H     9    29       P1  8028  1.00

> <Gold.PLP.Chemscore.Internal.Correction>
0.0045

> <Gold.Rescore>
     Score         DG    S(hbond)    S(metal)    S(lipo)     H(rot)  DE(clash)    DE(int)     intcor
     18.35     -20.37       1.99        0.00      97.22       1.23       0.40       1.62       ----

> <Gold.Chemscore.Fitness>
18.3503

> <Gold.Chemscore.DG>
-20.3700

> <Gold.Chemscore.ZeroCoef>
-5.4800

> <Gold.Chemscore.Hbond>
1.9933

> <Gold.Chemscore.Metal>
0.0000

> <Gold.Chemscore.Lipo>
97.2155

> <Gold.Chemscore.Internal_Hbond>
0.0000

> <Gold.Chemscore.DEClash>
0.3996

> <Gold.Chemscore.DEInternal>
1.6201

> <Gold.Chemscore.Rot>
1.2273

> <Gold.Chemscore.Internal.Correction>
   9.000000E+99

> <Gold.Chemscore.Hbonds>
donor molecule, donor type, donor heavy atom, donor atom, acceptor molecule, acceptor atom, score
      L1  H     6    28       P1  8028  0.97
      L1  H     9    29       P1  8028  0.98

> <Gold.Chemscore.Hbond.Weighted>
-6.6576

> <Gold.Chemscore.Metal.Weighted>
-0.0000

> <Gold.Chemscore.Lipo.Weighted>
-11.3742

> <Gold.Chemscore.Internal_Hbond.Weighted>
0.0000

> <Gold.Chemscore.DEClash.Weighted>
0.3996

> <Gold.Chemscore.DEInternal.Weighted>
1.6201

> <Gold.Chemscore.Rot.Weighted>
3.1418

> <Gold.Chemscore.Internal.Correction.Weighted>
   9.000000E+99

> <Gold.Protein.RotatedTorsions>
[ 6907 6896 6895 6894 ] final  -56.03 input  -60.11 | X-H torsion
[ 7974 7965 7964 7962 ] final   39.54 input  175.53 | X-H torsion
[ 8008 7997 7996 7995 ] final   74.51 input   59.86 | X-H torsion
[ 10167 10162 10161 10158 ] final   39.46 input  -65.29 | X-H torsion
[ 10718 10713 10712 10709 ] final  159.41 input   66.30 | X-H torsion
[ 10763 10752 10751 10750 ] final   83.45 input  -60.55 | X-H torsion
[ 11005 11000 10999 10996 ] final  -59.08 input  -57.11 | X-H torsion

> <Gold.Protein.ActiveResidues>
 VAL166  LYS551  ARG553  GLY616  TRP617  ASP618  TYR619  PRO620  LYS621  CYS622 
 ASP623  PHE694  ASN695  SER759  ASP760  ASP761  ALA762  ILE779  LEU786  VAL792 
 PHE793  MET794  SER795  GLU796  ALA797  LYS798  CYS799  TRP800  GLU811  SER814 

> <Gold.Protein.RotatedAtoms>
  150.8202  134.7405  159.6764 H   0  0  0  0  0  0  0  0  0  0  0  0  # atno 6907 bound_to 6896
  152.4318  134.5760  159.9944 H   0  0  0  0  0  0  0  0  0  0  0  0  # atno 6908 bound_to 6896
  151.5947  133.3325  159.3071 H   0  0  0  0  0  0  0  0  0  0  0  0  # atno 6909 bound_to 6896
  146.0976  139.5640  142.9435 H   0  0  0  0  0  0  0  0  0  0  0  0  # atno 7974 bound_to 7965
  155.7994  140.3477  155.5394 H   0  0  0  0  0  0  0  0  0  0  0  0  # atno 8008 bound_to 7997
  155.8553  140.0963  157.1669 H   0  0  0  0  0  0  0  0  0  0  0  0  # atno 8009 bound_to 7997
  154.4009  140.1368  156.3882 H   0  0  0  0  0  0  0  0  0  0  0  0  # atno 8010 bound_to 7997
  140.3837  144.1945  150.6130 H   0  0  0  0  0  0  0  0  0  0  0  0  # atno 10167 bound_to 10162
  157.1645  131.0595  151.2215 H   0  0  0  0  0  0  0  0  0  0  0  0  # atno 10718 bound_to 10713
  153.1292  135.4691  154.9321 H   0  0  0  0  0  0  0  0  0  0  0  0  # atno 10763 bound_to 10752
  154.7648  135.3142  154.8309 H   0  0  0  0  0  0  0  0  0  0  0  0  # atno 10764 bound_to 10752
  153.8856  135.6890  153.4818 H   0  0  0  0  0  0  0  0  0  0  0  0  # atno 10765 bound_to 10752
  141.1234  133.6615  156.5018 H   0  0  0  0  0  0  0  0  0  0  0  0  # atno 11005 bound_to 11000
  145.5917  141.0368  143.2066 LP  0  0  0  0  0  0  0  0  0  0  0  0  # atno 17320 bound_to 7965
  144.7407  139.7456  143.7312 LP  0  0  0  0  0  0  0  0  0  0  0  0  # atno 17321 bound_to 7965
  140.4911  143.2347  151.8817 LP  0  0  0  0  0  0  0  0  0  0  0  0  # atno 17342 bound_to 10162
  139.4793  144.5165  151.8861 LP  0  0  0  0  0  0  0  0  0  0  0  0  # atno 17343 bound_to 10162
  157.4101  130.7380  149.6832 LP  0  0  0  0  0  0  0  0  0  0  0  0  # atno 17370 bound_to 10713
  155.9748  130.4098  150.3895 LP  0  0  0  0  0  0  0  0  0  0  0  0  # atno 17371 bound_to 10713
  140.4440  134.6990  157.5006 LP  0  0  0  0  0  0  0  0  0  0  0  0  # atno 17394 bound_to 11000
  140.0210  134.6547  155.9240 LP  0  0  0  0  0  0  0  0  0  0  0  0  # atno 17395 bound_to 11000

$$$$
