AV-unprocessed.smi:2148|AV-procd|sdf|8751|dock1
  -GOLD-   2272011523D 1   1.00000     0.00000
 Structure written by MMmdl.
 44 45  0  0  0  0  0  0  0  0  1 V2000
  154.3273  135.5944  164.3181 C   0  0  0  0  0  0  0  0  0  0  0  0
  154.7971  134.3314  163.1066 S   0  0  0  0  0  0  0  0  0  0  0  0
  155.6434  135.3582  161.8691 C   0  0  1  0  0  0  0  0  0  0  0  0
  156.3140  134.4755  160.8032 C   0  0  0  0  0  0  0  0  0  0  0  0
  154.6879  136.3916  161.2589 C   0  0  0  0  0  0  0  0  0  0  0  0
  153.7181  136.0190  160.5984 O   0  0  0  0  0  0  0  0  0  0  0  0
  154.9821  137.6785  161.5232 N   0  0  0  0  0  0  0  0  0  0  0  0
  154.3056  138.8551  161.0997 C   0  0  0  0  0  0  0  0  0  0  0  0
  154.4690  140.1308  161.6910 C   0  0  0  0  0  0  0  0  0  0  0  0
  153.7213  141.2140  161.1910 C   0  0  0  0  0  0  0  0  0  0  0  0
  152.8272  140.9882  160.1195 C   0  0  0  0  0  0  0  0  0  0  0  0
  152.0523  142.0227  159.5789 N   0  0  0  0  0  0  0  0  0  0  0  0
  151.8339  141.8915  158.1446 C   0  0  0  0  0  0  0  0  0  0  0  0
  150.8579  142.9737  157.6405 C   0  0  1  0  0  0  0  0  0  0  0  0
  149.3923  142.7080  158.0286 C   0  0  0  0  0  0  0  0  0  0  0  0
  151.2998  144.2677  158.0610 O   0  0  0  0  0  0  0  0  0  0  0  0
  151.4910  144.4080  159.4694 C   0  0  2  0  0  0  0  0  0  0  0  0
  151.9730  145.8358  159.7449 C   0  0  0  0  0  0  0  0  0  0  0  0
  152.5031  143.3549  159.9551 C   0  0  0  0  0  0  0  0  0  0  0  0
  152.6612  139.7721  159.5568 N   0  0  0  0  0  0  0  0  0  0  0  0
  153.3801  138.7378  160.0421 C   0  0  0  0  0  0  0  0  0  0  0  0
  153.7921  135.1363  165.1498 H   0  0  0  0  0  0  0  0  0  0  0  0
  153.6788  136.3411  163.8591 H   0  0  0  0  0  0  0  0  0  0  0  0
  155.2134  136.0937  164.7104 H   0  0  0  0  0  0  0  0  0  0  0  0
  156.4371  135.9099  162.3749 H   0  0  0  0  0  0  0  0  0  0  0  0
  156.8124  135.0789  160.0437 H   0  0  0  0  0  0  0  0  0  0  0  0
  155.5903  133.8337  160.2993 H   0  0  0  0  0  0  0  0  0  0  0  0
  157.0676  133.8294  161.2539 H   0  0  0  0  0  0  0  0  0  0  0  0
  155.7600  137.8305  162.1485 H   0  0  0  0  0  0  0  0  0  0  0  0
  155.1351  140.3008  162.5219 H   0  0  0  0  0  0  0  0  0  0  0  0
  153.8337  142.1953  161.6279 H   0  0  0  0  0  0  0  0  0  0  0  0
  152.7886  141.9955  157.6272 H   0  0  0  0  0  0  0  0  0  0  0  0
  151.4524  140.8964  157.9117 H   0  0  0  0  0  0  0  0  0  0  0  0
  150.8997  142.9771  156.5510 H   0  0  0  0  0  0  0  0  0  0  0  0
  149.0394  141.7767  157.5857 H   0  0  0  0  0  0  0  0  0  0  0  0
  148.7439  143.5090  157.6731 H   0  0  0  0  0  0  0  0  0  0  0  0
  149.2588  142.6225  159.1068 H   0  0  0  0  0  0  0  0  0  0  0  0
  150.5408  144.2675  159.9849 H   0  0  0  0  0  0  0  0  0  0  0  0
  152.1181  146.0005  160.8127 H   0  0  0  0  0  0  0  0  0  0  0  0
  151.2458  146.5670  159.3914 H   0  0  0  0  0  0  0  0  0  0  0  0
  152.9197  146.0373  159.2428 H   0  0  0  0  0  0  0  0  0  0  0  0
  152.6148  143.4130  161.0386 H   0  0  0  0  0  0  0  0  0  0  0  0
  153.4829  143.5515  159.5178 H   0  0  0  0  0  0  0  0  0  0  0  0
  153.2098  137.7828  159.5668 H   0  0  0  0  0  0  0  0  0  0  0  0
  1  2  1  0  0  0  0
  1 22  1  0  0  0  0
  1 23  1  0  0  0  0
  1 24  1  0  0  0  0
  2  3  1  0  0  0  0
  3  4  1  0  0  0  0
  3  5  1  0  0  0  0
  3 25  1  0  0  0  0
  4 26  1  0  0  0  0
  4 27  1  0  0  0  0
  4 28  1  0  0  0  0
  5  6  2  0  0  0  0
  5  7  1  0  0  0  0
  7  8  1  0  0  0  0
  7 29  1  0  0  0  0
  8 21  1  0  0  0  0
  8  9  2  0  0  0  0
  9 10  1  0  0  0  0
  9 30  1  0  0  0  0
 10 11  2  0  0  0  0
 10 31  1  0  0  0  0
 11 12  1  0  0  0  0
 11 20  1  0  0  0  0
 12 19  1  0  0  0  0
 12 13  1  0  0  0  0
 13 14  1  0  0  0  0
 13 32  1  0  0  0  0
 13 33  1  0  0  0  0
 14 15  1  0  0  0  0
 14 16  1  0  0  0  0
 14 34  1  0  0  0  0
 15 35  1  0  0  0  0
 15 36  1  0  0  0  0
 15 37  1  0  0  0  0
 16 17  1  0  0  0  0
 17 18  1  0  0  0  0
 17 19  1  0  0  0  0
 17 38  1  0  0  0  0
 18 39  1  0  0  0  0
 18 40  1  0  0  0  0
 18 41  1  0  0  0  0
 19 42  1  0  0  0  0
 19 43  1  0  0  0  0
 20 21  2  0  0  0  0
 21 44  1  0  0  0  0
M  END
> <s_m_source_file>
AV-unprocessed.smi

> <i_m_source_file_index>
2148

> <i_lp_mmshare_version>
43012

> <i_f3d_flags>
0

> <s_epik_input>
W0NIM11TW0NASF0oW0NIM10pQyg9TylbTkhdYzFbY0hdW2NIXWMobltjSF0xKU4yW0NIMl1bQ0BASF0oW0NIM10pT1tDQEBIXShbQ0gzXSlbQ0gyXTI=

> <s_epik_cmdline>
J2VwaWtfcHl0aG9uJywgJy1waCcsICc3LjAnLCAnLXRuJywgJzgnLCAnLW1hJywgJzIwMCcsICctbWV0YWxfYmluZGluZycsICctaW1hZScsICc8aW5maWxlLm1hZT4nLCAnLW9tYWUnLCAnPG91dGZpbGUubWFlPic=

> <r_lp_tautomer_probability>
1

> <r_epik_Ionization_Penalty>
0.000646494

> <r_epik_Ionization_Penalty_Charging>
0

> <r_epik_Ionization_Penalty_Neutral>
0.000646494

> <r_epik_State_Penalty>
0.000408447

> <r_epik_Charging_Adjusted_Penalty>
0.000408447

> <i_epik_Tot_Q>
0

> <i_epik_Tot_abs_Q>
0

> <r_epik_Metal_State_Penalty>
-0

> <b_epik_Metal_Only>
0

> <s_lp_Force_Field>
OPLS_2005

> <r_lp_Energy>
28.0468

> <b_lp_Chiralities_Consistent>
1

> <s_lp_Variant>
AV-unprocessed.smi:2148-6

> <Gold.Version>
5.8.1

> <Gold.Id.Protein>
6NUR|6NUR_protein|mol2

> <Gold.PLP.Fitness>
38.9746

> <Gold.PLP.PLP>
-37.1021

> <Gold.PLP.part.hbond>
-1.0000

> <Gold.PLP.part.metal>
0.0000

> <Gold.PLP.part.buried>
-4.2871

> <Gold.PLP.part.nonpolar>
-31.6491

> <Gold.PLP.part.repulsive>
0.1419

> <Gold.PLP.ligand.clash>
0.0000

> <Gold.PLP.ligand.torsion>
0.6489

> <Gold.PLP.Chemscore.Hbond>
1.0000

> <Gold.PLP.Chemscore.CHOScore>
0.0000

> <Gold.PLP.Chemscore.Metal>
0.0000

> <Gold.Chemscore.Hbonds>
donor molecule, donor type, donor heavy atom, donor atom, acceptor molecule, acceptor atom, score
      P1  H  6896  6909       L1     6  1.00

> <Gold.PLP.Chemscore.Internal.Correction>
0.1704

> <Gold.Rescore>
     Score         DG    S(hbond)    S(metal)    S(lipo)     H(rot)  DE(clash)    DE(int)     intcor
     15.80     -18.00       1.00        0.00     106.21       1.27       0.06       2.13       ----

> <Gold.Chemscore.Fitness>
15.8042

> <Gold.Chemscore.DG>
-17.9952

> <Gold.Chemscore.ZeroCoef>
-5.4800

> <Gold.Chemscore.Hbond>
0.9968

> <Gold.Chemscore.Metal>
0.0000

> <Gold.Chemscore.Lipo>
106.2089

> <Gold.Chemscore.Internal_Hbond>
0.0000

> <Gold.Chemscore.DEClash>
0.0636

> <Gold.Chemscore.DEInternal>
2.1274

> <Gold.Chemscore.Rot>
1.2659

> <Gold.Chemscore.Internal.Correction>
   9.000000E+99

> <Gold.Chemscore.Hbonds>
donor molecule, donor type, donor heavy atom, donor atom, acceptor molecule, acceptor atom, score
      P1  H  6896  6909       L1     6  1.00

> <Gold.Chemscore.Hbond.Weighted>
-3.3294

> <Gold.Chemscore.Metal.Weighted>
-0.0000

> <Gold.Chemscore.Lipo.Weighted>
-12.4264

> <Gold.Chemscore.Internal_Hbond.Weighted>
0.0000

> <Gold.Chemscore.DEClash.Weighted>
0.0636

> <Gold.Chemscore.DEInternal.Weighted>
2.1274

> <Gold.Chemscore.Rot.Weighted>
3.2406

> <Gold.Chemscore.Internal.Correction.Weighted>
   9.000000E+99

> <Gold.Protein.RotatedTorsions>
[ 6907 6896 6895 6894 ] final  162.72 input  -60.11 | X-H torsion
[ 7974 7965 7964 7962 ] final -137.28 input  175.53 | X-H torsion
[ 8008 7997 7996 7995 ] final -100.90 input   59.86 | X-H torsion
[ 10167 10162 10161 10158 ] final   38.82 input  -65.29 | X-H torsion
[ 10718 10713 10712 10709 ] final  147.84 input   66.30 | X-H torsion
[ 10763 10752 10751 10750 ] final   49.85 input  -60.55 | X-H torsion
[ 11005 11000 10999 10996 ] final  106.48 input  -57.11 | X-H torsion

> <Gold.Protein.ActiveResidues>
 VAL166  LYS551  ARG553  GLY616  TRP617  ASP618  TYR619  PRO620  LYS621  CYS622 
 ASP623  PHE694  ASN695  SER759  ASP760  ASP761  ALA762  ILE779  LEU786  VAL792 
 PHE793  MET794  SER795  GLU796  ALA797  LYS798  CYS799  TRP800  GLU811  SER814 

> <Gold.Protein.RotatedAtoms>
  151.9361  133.3624  159.3947 H   0  0  0  0  0  0  0  0  0  0  0  0  # atno 6907 bound_to 6896
  150.7007  134.4487  159.5335 H   0  0  0  0  0  0  0  0  0  0  0  0  # atno 6908 bound_to 6896
  152.2136  134.8478  160.0545 H   0  0  0  0  0  0  0  0  0  0  0  0  # atno 6909 bound_to 6896
  144.8855  140.6569  143.5178 H   0  0  0  0  0  0  0  0  0  0  0  0  # atno 7974 bound_to 7965
  154.8351  140.0438  157.1503 H   0  0  0  0  0  0  0  0  0  0  0  0  # atno 8008 bound_to 7997
  154.9109  140.3013  155.5246 H   0  0  0  0  0  0  0  0  0  0  0  0  # atno 8009 bound_to 7997
  156.2989  140.2358  156.4148 H   0  0  0  0  0  0  0  0  0  0  0  0  # atno 8010 bound_to 7997
  140.3899  144.1866  150.6131 H   0  0  0  0  0  0  0  0  0  0  0  0  # atno 10167 bound_to 10162
  157.3160  131.0896  151.1279 H   0  0  0  0  0  0  0  0  0  0  0  0  # atno 10718 bound_to 10713
  152.9785  135.5898  154.4156 H   0  0  0  0  0  0  0  0  0  0  0  0  # atno 10763 bound_to 10752
  154.3786  135.2767  155.2226 H   0  0  0  0  0  0  0  0  0  0  0  0  # atno 10764 bound_to 10752
  154.4150  135.6072  153.6030 H   0  0  0  0  0  0  0  0  0  0  0  0  # atno 10765 bound_to 10752
  139.8815  134.9370  156.5673 H   0  0  0  0  0  0  0  0  0  0  0  0  # atno 11005 bound_to 11000
  145.3876  139.1623  143.4246 LP  0  0  0  0  0  0  0  0  0  0  0  0  # atno 17320 bound_to 7965
  146.3022  140.3963  142.8700 LP  0  0  0  0  0  0  0  0  0  0  0  0  # atno 17321 bound_to 7965
  140.4850  143.2366  151.8900 LP  0  0  0  0  0  0  0  0  0  0  0  0  # atno 17342 bound_to 10162
  139.4789  144.5228  151.8777 LP  0  0  0  0  0  0  0  0  0  0  0  0  # atno 17343 bound_to 10162
  157.2582  130.6646  149.5962 LP  0  0  0  0  0  0  0  0  0  0  0  0  # atno 17370 bound_to 10713
  155.9681  130.4517  150.5745 LP  0  0  0  0  0  0  0  0  0  0  0  0  # atno 17371 bound_to 10713
  140.8125  133.8418  155.8822 LP  0  0  0  0  0  0  0  0  0  0  0  0  # atno 17394 bound_to 11000
  140.9493  134.1799  157.4739 LP  0  0  0  0  0  0  0  0  0  0  0  0  # atno 17395 bound_to 11000

$$$$
