AV-unprocessed.smi:3262|AV-procd|sdf|12484|dock7
  -GOLD-   2272018383D 1   1.00000     0.00000
 Structure written by MMmdl.
 39 40  0  0  0  0  0  0  0  0  1 V2000
  152.9574  139.0748  157.2188 O   0  0  0  0  0  0  0  0  0  0  0  0
  152.0534  139.9103  157.1569 C   0  0  0  0  0  0  0  0  0  0  0  0
  151.6541  140.6008  158.2380 N   0  0  0  0  0  0  0  0  0  0  0  0
  152.2051  140.4384  159.5765 C   0  0  0  0  0  0  0  0  0  0  0  0
  153.0060  141.6823  159.9854 C   0  0  0  0  0  0  0  0  0  0  0  0
  152.2295  142.9661  159.7612 C   0  0  0  0  0  0  0  0  0  0  0  0
  151.9935  143.8608  160.8268 C   0  0  0  0  0  0  0  0  0  0  0  0
  151.2731  145.0421  160.5638 C   0  0  0  0  0  0  0  0  0  0  0  0
  150.8199  145.2826  159.2524 C   0  0  0  0  0  0  0  0  0  0  0  0
  151.1093  144.3273  158.2577 C   0  0  0  0  0  0  0  0  0  0  0  0
  151.7992  143.1916  158.4991 N   0  0  0  0  0  0  0  0  0  0  0  0
  151.4256  140.2438  155.9973 N   0  0  0  0  0  0  0  0  0  0  0  0
  150.4912  141.3811  155.8500 C   0  0  0  0  0  0  0  0  0  0  0  0
  149.2760  141.1105  154.9368 C   0  0  0  0  0  0  0  0  0  0  0  0
  148.6122  139.7349  155.1342 C   0  0  0  0  0  0  0  0  0  0  0  0
  149.2635  138.6252  154.2908 C   0  0  0  0  0  0  0  0  0  0  0  0
  150.6907  138.2444  154.7166 C   0  0  0  0  0  0  0  0  0  0  0  0
  151.6569  139.4410  154.7866 C   0  0  0  0  0  0  0  0  0  0  0  0
  150.9231  141.2870  158.1208 H   0  0  0  0  0  0  0  0  0  0  0  0
  151.3950  140.2673  160.2875 H   0  0  0  0  0  0  0  0  0  0  0  0
  152.8444  139.5543  159.5953 H   0  0  0  0  0  0  0  0  0  0  0  0
  153.2854  141.6178  161.0381 H   0  0  0  0  0  0  0  0  0  0  0  0
  153.9397  141.7261  159.4228 H   0  0  0  0  0  0  0  0  0  0  0  0
  152.3570  143.6498  161.8218 H   0  0  0  0  0  0  0  0  0  0  0  0
  151.0724  145.7511  161.3534 H   0  0  0  0  0  0  0  0  0  0  0  0
  150.2646  146.1776  159.0142 H   0  0  0  0  0  0  0  0  0  0  0  0
  150.7783  144.4796  157.2410 H   0  0  0  0  0  0  0  0  0  0  0  0
  150.0746  141.6763  156.8135 H   0  0  0  0  0  0  0  0  0  0  0  0
  151.0443  142.2465  155.4832 H   0  0  0  0  0  0  0  0  0  0  0  0
  148.5358  141.8876  155.1308 H   0  0  0  0  0  0  0  0  0  0  0  0
  149.5520  141.2401  153.8899 H   0  0  0  0  0  0  0  0  0  0  0  0
  148.5940  139.4615  156.1900 H   0  0  0  0  0  0  0  0  0  0  0  0
  147.5687  139.8140  154.8280 H   0  0  0  0  0  0  0  0  0  0  0  0
  148.6389  137.7328  154.3386 H   0  0  0  0  0  0  0  0  0  0  0  0
  149.2681  138.9265  153.2426 H   0  0  0  0  0  0  0  0  0  0  0  0
  150.6651  137.7247  155.6752 H   0  0  0  0  0  0  0  0  0  0  0  0
  151.0788  137.5208  153.9993 H   0  0  0  0  0  0  0  0  0  0  0  0
  151.5740  140.0566  153.8904 H   0  0  0  0  0  0  0  0  0  0  0  0
  152.6853  139.0754  154.7708 H   0  0  0  0  0  0  0  0  0  0  0  0
  1  2  2  0  0  0  0
  2  3  1  0  0  0  0
  2 12  1  0  0  0  0
  3  4  1  0  0  0  0
  3 19  1  0  0  0  0
  4  5  1  0  0  0  0
  4 20  1  0  0  0  0
  4 21  1  0  0  0  0
  5  6  1  0  0  0  0
  5 22  1  0  0  0  0
  5 23  1  0  0  0  0
  6 11  1  0  0  0  0
  6  7  2  0  0  0  0
  7  8  1  0  0  0  0
  7 24  1  0  0  0  0
  8  9  2  0  0  0  0
  8 25  1  0  0  0  0
  9 10  1  0  0  0  0
  9 26  1  0  0  0  0
 10 11  2  0  0  0  0
 10 27  1  0  0  0  0
 12 18  1  0  0  0  0
 12 13  1  0  0  0  0
 13 14  1  0  0  0  0
 13 28  1  0  0  0  0
 13 29  1  0  0  0  0
 14 15  1  0  0  0  0
 14 30  1  0  0  0  0
 14 31  1  0  0  0  0
 15 16  1  0  0  0  0
 15 32  1  0  0  0  0
 15 33  1  0  0  0  0
 16 17  1  0  0  0  0
 16 34  1  0  0  0  0
 16 35  1  0  0  0  0
 17 18  1  0  0  0  0
 17 36  1  0  0  0  0
 17 37  1  0  0  0  0
 18 38  1  0  0  0  0
 18 39  1  0  0  0  0
M  END
> <s_m_source_file>
AV-unprocessed.smi

> <i_m_source_file_index>
3262

> <i_lp_mmshare_version>
43012

> <i_f3d_flags>
0

> <s_epik_input>
W0NIMl0xW0NIMl1bQ0gyXVtDSDJdW0NIMl1bQ0gyXU4xQyg9TylbTkhdW0NIMl1bQ0gyXWMyW2NIXVtjSF1bY0hdW2NIXW4y

> <s_epik_cmdline>
J2VwaWtfcHl0aG9uJywgJy1waCcsICc3LjAnLCAnLXRuJywgJzgnLCAnLW1hJywgJzIwMCcsICctbWV0YWxfYmluZGluZycsICctaW1hZScsICc8aW5maWxlLm1hZT4nLCAnLW9tYWUnLCAnPG91dGZpbGUubWFlPic=

> <r_epik_Ionization_Penalty>
0.0449498

> <r_epik_Ionization_Penalty_Charging>
0

> <r_epik_Ionization_Penalty_Neutral>
0.0449498

> <r_epik_State_Penalty>
0.0380669

> <r_epik_Charging_Adjusted_Penalty>
0.0380669

> <i_epik_Tot_Q>
0

> <i_epik_Tot_abs_Q>
0

> <r_epik_Metal_State_Penalty>
0.0353734

> <b_epik_Metal_Only>
0

> <s_lp_Force_Field>
OPLS_2005

> <r_lp_Energy>
31.2799

> <b_lp_Chiralities_Consistent>
1

> <s_lp_Variant>
AV-unprocessed.smi:3262-1

> <Gold.Version>
5.8.1

> <Gold.Id.Protein>
6NUR|6NUR_protein|mol2

> <Gold.PLP.Fitness>
49.1156

> <Gold.PLP.PLP>
-43.7854

> <Gold.PLP.part.hbond>
-1.0000

> <Gold.PLP.part.metal>
0.0000

> <Gold.PLP.part.buried>
-2.5377

> <Gold.PLP.part.nonpolar>
-40.5636

> <Gold.PLP.part.repulsive>
0.1227

> <Gold.PLP.ligand.clash>
0.0000

> <Gold.PLP.ligand.torsion>
0.1088

> <Gold.PLP.Chemscore.Hbond>
0.8500

> <Gold.PLP.Chemscore.CHOScore>
0.9955

> <Gold.PLP.Chemscore.Metal>
0.0000

> <Gold.Chemscore.Hbonds>
donor molecule, donor type, donor heavy atom, donor atom, acceptor molecule, acceptor atom, score
      P1  H  7997  8010       L1     1  1.00
      L1  C    10    27       P1  8028  1.00

> <Gold.PLP.Chemscore.Internal.Correction>
0.0111

> <Gold.Rescore>
     Score         DG    S(hbond)    S(metal)    S(lipo)     H(rot)  DE(clash)    DE(int)     intcor
     14.85     -18.01       0.78        0.00     112.54       1.27       1.50       1.65       ----

> <Gold.Chemscore.Fitness>
14.8540

> <Gold.Chemscore.DG>
-18.0061

> <Gold.Chemscore.ZeroCoef>
-5.4800

> <Gold.Chemscore.Hbond>
0.7845

> <Gold.Chemscore.Metal>
0.0000

> <Gold.Chemscore.Lipo>
112.5384

> <Gold.Chemscore.Internal_Hbond>
0.0000

> <Gold.Chemscore.DEClash>
1.5045

> <Gold.Chemscore.DEInternal>
1.6476

> <Gold.Chemscore.Rot>
1.2738

> <Gold.Chemscore.Internal.Correction>
   9.000000E+99

> <Gold.Chemscore.Hbonds>
donor molecule, donor type, donor heavy atom, donor atom, acceptor molecule, acceptor atom, score
      P1  H  7997  8010       L1     1  0.26

> <Gold.Chemscore.Hbond.Weighted>
-2.6201

> <Gold.Chemscore.Metal.Weighted>
-0.0000

> <Gold.Chemscore.Lipo.Weighted>
-13.1670

> <Gold.Chemscore.Internal_Hbond.Weighted>
0.0000

> <Gold.Chemscore.DEClash.Weighted>
1.5045

> <Gold.Chemscore.DEInternal.Weighted>
1.6476

> <Gold.Chemscore.Rot.Weighted>
3.2610

> <Gold.Chemscore.Internal.Correction.Weighted>
   9.000000E+99

> <Gold.Protein.RotatedTorsions>
[ 6907 6896 6895 6894 ] final   18.93 input  -60.11 | X-H torsion
[ 7974 7965 7964 7962 ] final    8.17 input  175.53 | X-H torsion
[ 8008 7997 7996 7995 ] final   63.29 input   59.86 | X-H torsion
[ 10167 10162 10161 10158 ] final   33.51 input  -65.29 | X-H torsion
[ 10718 10713 10712 10709 ] final   36.53 input   66.30 | X-H torsion
[ 10763 10752 10751 10750 ] final  174.28 input  -60.55 | X-H torsion
[ 11005 11000 10999 10996 ] final -139.47 input  -57.11 | X-H torsion

> <Gold.Protein.ActiveResidues>
 VAL166  LYS551  ARG553  GLY616  TRP617  ASP618  TYR619  PRO620  LYS621  CYS622 
 ASP623  PHE694  ASN695  SER759  ASP760  ASP761  ALA762  ILE779  LEU786  VAL792 
 PHE793  MET794  SER795  GLU796  ALA797  LYS798  CYS799  TRP800  GLU811  SER814 

> <Gold.Protein.RotatedAtoms>
  151.8729  135.0482  160.0480 H   0  0  0  0  0  0  0  0  0  0  0  0  # atno 6907 bound_to 6896
  152.2574  133.5263  159.5369 H   0  0  0  0  0  0  0  0  0  0  0  0  # atno 6908 bound_to 6896
  150.7104  134.0793  159.3935 H   0  0  0  0  0  0  0  0  0  0  0  0  # atno 6909 bound_to 6896
  146.2419  139.9973  142.8419 H   0  0  0  0  0  0  0  0  0  0  0  0  # atno 7974 bound_to 7965
  155.6279  140.3496  155.4673 H   0  0  0  0  0  0  0  0  0  0  0  0  # atno 8008 bound_to 7997
  156.0027  140.1216  157.0555 H   0  0  0  0  0  0  0  0  0  0  0  0  # atno 8009 bound_to 7997
  154.4254  140.1097  156.5705 H   0  0  0  0  0  0  0  0  0  0  0  0  # atno 8010 bound_to 7997
  140.4400  144.1201  150.6172 H   0  0  0  0  0  0  0  0  0  0  0  0  # atno 10167 bound_to 10162
  157.3360  130.7523  149.6879 H   0  0  0  0  0  0  0  0  0  0  0  0  # atno 10718 bound_to 10713
  154.4517  135.2765  155.1776 H   0  0  0  0  0  0  0  0  0  0  0  0  # atno 10763 bound_to 10752
  154.3601  135.6131  153.5690 H   0  0  0  0  0  0  0  0  0  0  0  0  # atno 10764 bound_to 10752
  152.9847  135.5832  154.4863 H   0  0  0  0  0  0  0  0  0  0  0  0  # atno 10765 bound_to 10752
  140.8517  134.2278  157.4757 H   0  0  0  0  0  0  0  0  0  0  0  0  # atno 11005 bound_to 11000
  145.1447  140.9591  143.4468 LP  0  0  0  0  0  0  0  0  0  0  0  0  # atno 17320 bound_to 7965
  145.0262  139.3381  143.6047 LP  0  0  0  0  0  0  0  0  0  0  0  0  # atno 17321 bound_to 7965
  140.4329  143.2560  151.9572 LP  0  0  0  0  0  0  0  0  0  0  0  0  # atno 17342 bound_to 10162
  139.4789  144.5727  151.8062 LP  0  0  0  0  0  0  0  0  0  0  0  0  # atno 17343 bound_to 10162
  155.9701  130.4181  150.4313 LP  0  0  0  0  0  0  0  0  0  0  0  0  # atno 17370 bound_to 10713
  157.2352  131.0513  151.2469 LP  0  0  0  0  0  0  0  0  0  0  0  0  # atno 17371 bound_to 10713
  139.8704  134.9686  156.4638 LP  0  0  0  0  0  0  0  0  0  0  0  0  # atno 17394 bound_to 11000
  140.8783  133.7937  155.9438 LP  0  0  0  0  0  0  0  0  0  0  0  0  # atno 17395 bound_to 11000

$$$$
