AV-unprocessed.smi:1904|AV-procd|sdf|7724|dock2
  -GOLD-   22720 9463D 1   1.00000     0.00000
 Structure written by MMmdl.
 50 51  0  0  0  0  0  0  0  0  2 V2000
  153.2928  137.7595  156.5872 C   0  0  0  0  0  0  0  0  0  0  0  0
  152.2823  138.7902  156.1715 C   0  0  0  0  0  0  0  0  0  0  0  0
  152.2951  139.9771  156.7543 N   0  0  0  0  0  0  0  0  0  0  0  0
  151.2808  140.6541  156.1797 N   0  0  0  0  0  0  0  0  0  0  0  0
  151.0117  142.0171  156.5940 C   0  0  0  0  0  0  0  0  0  0  0  0
  150.6193  139.8897  155.2382 C   0  0  0  0  0  0  0  0  0  0  0  0
  149.4463  140.4106  154.4717 C   0  0  0  0  0  0  0  0  0  0  0  0
  151.2447  138.6718  155.1996 C   0  0  0  0  0  0  0  0  0  0  0  0
  150.9182  137.4727  154.3457 C   0  0  0  0  0  0  0  0  0  0  0  0
  150.0255  136.5177  155.1373 C   0  0  0  0  0  0  0  0  0  0  0  0
  150.2564  136.3005  156.3268 O   0  0  0  0  0  0  0  0  0  0  0  0
  149.0243  135.9339  154.4610 N   0  0  0  0  0  0  0  0  0  0  0  0
  148.1116  134.9422  155.0153 C   0  0  0  0  0  0  0  0  0  0  0  0
  146.6742  135.1698  154.5086 C   0  0  0  0  0  0  0  0  0  0  0  0
  146.5264  134.8985  153.0563 N   0  3  2  0  0  0  0  0  0  0  0  0
  145.1944  135.3160  152.5467 C   0  0  0  0  0  0  0  0  0  0  0  0
  145.1043  135.1596  151.0180 C   0  0  0  0  0  0  0  0  0  0  0  0
  145.4320  133.7275  150.5584 C   0  0  2  0  0  0  0  0  0  0  0  0
  144.3010  132.7293  150.8628 C   0  0  0  0  0  0  0  0  0  0  0  0
  146.7830  133.2960  151.1563 C   0  0  0  0  0  0  0  0  0  0  0  0
  146.8368  133.4928  152.6823 C   0  0  0  0  0  0  0  0  0  0  0  0
  153.6201  137.1636  155.7354 H   0  0  0  0  0  0  0  0  0  0  0  0
  152.8707  137.0784  157.3260 H   0  0  0  0  0  0  0  0  0  0  0  0
  154.1794  138.2191  157.0257 H   0  0  0  0  0  0  0  0  0  0  0  0
  150.9160  142.6571  155.7167 H   0  0  0  0  0  0  0  0  0  0  0  0
  151.8221  142.3971  157.2178 H   0  0  0  0  0  0  0  0  0  0  0  0
  150.0821  142.0492  157.1628 H   0  0  0  0  0  0  0  0  0  0  0  0
  148.9351  139.6103  153.9374 H   0  0  0  0  0  0  0  0  0  0  0  0
  149.7621  141.1553  153.7411 H   0  0  0  0  0  0  0  0  0  0  0  0
  148.7208  140.8766  155.1388 H   0  0  0  0  0  0  0  0  0  0  0  0
  150.3996  137.7581  153.4303 H   0  0  0  0  0  0  0  0  0  0  0  0
  151.8231  136.9549  154.0251 H   0  0  0  0  0  0  0  0  0  0  0  0
  148.9055  136.1744  153.4871 H   0  0  0  0  0  0  0  0  0  0  0  0
  148.4522  133.9354  154.7676 H   0  0  0  0  0  0  0  0  0  0  0  0
  148.1629  135.0306  156.0997 H   0  0  0  0  0  0  0  0  0  0  0  0
  145.9642  134.5622  155.0724 H   0  0  0  0  0  0  0  0  0  0  0  0
  146.4062  136.2102  154.6995 H   0  0  0  0  0  0  0  0  0  0  0  0
  144.4145  134.7332  153.0387 H   0  0  0  0  0  0  0  0  0  0  0  0
  145.0137  136.3603  152.8046 H   0  0  0  0  0  0  0  0  0  0  0  0
  144.1129  135.4514  150.6695 H   0  0  0  0  0  0  0  0  0  0  0  0
  145.8044  135.8536  150.5509 H   0  0  0  0  0  0  0  0  0  0  0  0
  145.5423  133.7463  149.4732 H   0  0  0  0  0  0  0  0  0  0  0  0
  144.1113  132.6336  151.9312 H   0  0  0  0  0  0  0  0  0  0  0  0
  144.5444  131.7371  150.4816 H   0  0  0  0  0  0  0  0  0  0  0  0
  143.3689  133.0396  150.3895 H   0  0  0  0  0  0  0  0  0  0  0  0
  146.9915  132.2555  150.9053 H   0  0  0  0  0  0  0  0  0  0  0  0
  147.5800  133.8824  150.6966 H   0  0  0  0  0  0  0  0  0  0  0  0
  147.8328  133.2194  153.0283 H   0  0  0  0  0  0  0  0  0  0  0  0
  146.1391  132.8178  153.1797 H   0  0  0  0  0  0  0  0  0  0  0  0
  147.2019  135.4846  152.5869 H   0  0  0  0  0  0  0  0  0  0  0  0
  1  2  1  0  0  0  0
  1 22  1  0  0  0  0
  1 23  1  0  0  0  0
  1 24  1  0  0  0  0
  2  8  1  0  0  0  0
  2  3  2  0  0  0  0
  3  4  1  0  0  0  0
  4  5  1  0  0  0  0
  4  6  1  0  0  0  0
  5 25  1  0  0  0  0
  5 26  1  0  0  0  0
  5 27  1  0  0  0  0
  6  7  1  0  0  0  0
  6  8  2  0  0  0  0
  7 28  1  0  0  0  0
  7 29  1  0  0  0  0
  7 30  1  0  0  0  0
  8  9  1  0  0  0  0
  9 10  1  0  0  0  0
  9 31  1  0  0  0  0
  9 32  1  0  0  0  0
 10 11  2  0  0  0  0
 10 12  1  0  0  0  0
 12 13  1  0  0  0  0
 12 33  1  0  0  0  0
 13 14  1  0  0  0  0
 13 34  1  0  0  0  0
 13 35  1  0  0  0  0
 14 15  1  0  0  0  0
 14 36  1  0  0  0  0
 14 37  1  0  0  0  0
 15 21  1  0  0  0  0
 15 16  1  0  0  0  0
 15 50  1  0  0  0  0
 16 17  1  0  0  0  0
 16 38  1  0  0  0  0
 16 39  1  0  0  0  0
 17 18  1  0  0  0  0
 17 40  1  0  0  0  0
 17 41  1  0  0  0  0
 18 19  1  0  0  0  0
 18 20  1  0  0  0  0
 18 42  1  0  0  0  0
 19 43  1  0  0  0  0
 19 44  1  0  0  0  0
 19 45  1  0  0  0  0
 20 21  1  0  0  0  0
 20 46  1  0  0  0  0
 20 47  1  0  0  0  0
 21 48  1  0  0  0  0
 21 49  1  0  0  0  0
M  CHG  1  15   1
M  END
> <s_m_source_file>
AV-unprocessed.smi

> <i_m_source_file_index>
1904

> <i_lp_mmshare_version>
43012

> <i_f3d_flags>
0

> <s_epik_input>
W0NIM11jMW5uKFtDSDNdKWMoW0NIM10pYzFbQ0gyXUMoPU8pW05IXVtDSDJdW0NIMl1OMltDSDJdW0NIMl1bQ0hdKFtDSDNdKVtDSDJdW0NIMl0y

> <s_epik_cmdline>
J2VwaWtfcHl0aG9uJywgJy1waCcsICc3LjAnLCAnLXRuJywgJzgnLCAnLW1hJywgJzIwMCcsICctbWV0YWxfYmluZGluZycsICctaW1hZScsICc8aW5maWxlLm1hZT4nLCAnLW9tYWUnLCAnPG91dGZpbGUubWFlPic=

> <r_lp_tautomer_probability>
1

> <r_epik_Ionization_Penalty>
0.00374255

> <r_epik_Ionization_Penalty_Charging>
0.00158211

> <r_epik_Ionization_Penalty_Neutral>
0.00216044

> <r_epik_State_Penalty>
-0

> <r_epik_Charging_Adjusted_Penalty>
0.00158211

> <i_epik_Tot_Q>
1

> <i_epik_Tot_abs_Q>
1

> <r_epik_Metal_State_Penalty>
-0

> <b_epik_Metal_Only>
0

> <s_lp_Force_Field>
OPLS_2005

> <r_lp_Energy>
12.0105

> <b_lp_Chiralities_Consistent>
1

> <s_lp_Variant>
AV-unprocessed.smi:1904-2

> <Gold.Version>
5.8.1

> <Gold.Id.Protein>
6NUR|6NUR_protein|mol2

> <Gold.PLP.Fitness>
45.9515

> <Gold.PLP.PLP>
-36.8289

> <Gold.PLP.part.hbond>
-3.0000

> <Gold.PLP.part.metal>
0.0000

> <Gold.PLP.part.buried>
-1.7949

> <Gold.PLP.part.nonpolar>
-31.9731

> <Gold.PLP.part.repulsive>
0.0313

> <Gold.PLP.ligand.clash>
0.0000

> <Gold.PLP.ligand.torsion>
0.7928

> <Gold.PLP.Chemscore.Hbond>
3.5500

> <Gold.PLP.Chemscore.CHOScore>
0.0000

> <Gold.PLP.Chemscore.Metal>
0.0000

> <Gold.Chemscore.Hbonds>
donor molecule, donor type, donor heavy atom, donor atom, acceptor molecule, acceptor atom, score
      L1  H    12    33       P1  7948  1.00
      L1  H    15    50       P1  7948  2.00
      P1  H  7997  8008       L1     3  0.50

> <Gold.PLP.Chemscore.Internal.Correction>
0.0581

> <Gold.Rescore>
     Score         DG    S(hbond)    S(metal)    S(lipo)     H(rot)  DE(clash)    DE(int)     intcor
     17.70     -18.56       1.97        0.00      90.82       1.61       0.09       0.77       ----

> <Gold.Chemscore.Fitness>
17.7006

> <Gold.Chemscore.DG>
-18.5608

> <Gold.Chemscore.ZeroCoef>
-5.4800

> <Gold.Chemscore.Hbond>
1.9722

> <Gold.Chemscore.Metal>
0.0000

> <Gold.Chemscore.Lipo>
90.8209

> <Gold.Chemscore.Internal_Hbond>
0.0000

> <Gold.Chemscore.DEClash>
0.0932

> <Gold.Chemscore.DEInternal>
0.7670

> <Gold.Chemscore.Rot>
1.6142

> <Gold.Chemscore.Internal.Correction>
   9.000000E+99

> <Gold.Chemscore.Hbonds>
donor molecule, donor type, donor heavy atom, donor atom, acceptor molecule, acceptor atom, score
      L1  H    12    33       P1  7948  0.98
      L1  H    15    50       P1  7948  0.94
      P1  H  7997  8008       L1     3  0.03

> <Gold.Chemscore.Hbond.Weighted>
-6.5872

> <Gold.Chemscore.Metal.Weighted>
-0.0000

> <Gold.Chemscore.Lipo.Weighted>
-10.6260

> <Gold.Chemscore.Internal_Hbond.Weighted>
0.0000

> <Gold.Chemscore.DEClash.Weighted>
0.0932

> <Gold.Chemscore.DEInternal.Weighted>
0.7670

> <Gold.Chemscore.Rot.Weighted>
4.1324

> <Gold.Chemscore.Internal.Correction.Weighted>
   9.000000E+99

> <Gold.Protein.RotatedTorsions>
[ 6907 6896 6895 6894 ] final  132.04 input  -60.11 | X-H torsion
[ 7974 7965 7964 7962 ] final  154.88 input  175.53 | X-H torsion
[ 8008 7997 7996 7995 ] final  -50.15 input   59.86 | X-H torsion
[ 10167 10162 10161 10158 ] final  132.78 input  -65.29 | X-H torsion
[ 10718 10713 10712 10709 ] final   36.76 input   66.30 | X-H torsion
[ 10763 10752 10751 10750 ] final  -46.10 input  -60.55 | X-H torsion
[ 11005 11000 10999 10996 ] final  150.45 input  -57.11 | X-H torsion

> <Gold.Protein.ActiveResidues>
 VAL166  LYS551  ARG553  GLY616  TRP617  ASP618  TYR619  PRO620  LYS621  CYS622 
 ASP623  PHE694  ASN695  SER759  ASP760  ASP761  ALA762  ILE779  LEU786  VAL792 
 PHE793  MET794  SER795  GLU796  ALA797  LYS798  CYS799  TRP800  GLU811  SER814 

> <Gold.Protein.RotatedAtoms>
  152.3365  133.6018  159.5846 H   0  0  0  0  0  0  0  0  0  0  0  0  # atno 6907 bound_to 6896
  150.7453  133.9788  159.3578 H   0  0  0  0  0  0  0  0  0  0  0  0  # atno 6908 bound_to 6896
  151.7657  135.0800  160.0403 H   0  0  0  0  0  0  0  0  0  0  0  0  # atno 6909 bound_to 6896
  144.8060  139.6993  143.6161 H   0  0  0  0  0  0  0  0  0  0  0  0  # atno 7974 bound_to 7965
  154.4057  140.1279  156.4620 H   0  0  0  0  0  0  0  0  0  0  0  0  # atno 8008 bound_to 7997
  155.7264  140.3492  155.5019 H   0  0  0  0  0  0  0  0  0  0  0  0  # atno 8009 bound_to 7997
  155.9167  140.1045  157.1228 H   0  0  0  0  0  0  0  0  0  0  0  0  # atno 8010 bound_to 7997
  139.5325  144.6646  151.4901 H   0  0  0  0  0  0  0  0  0  0  0  0  # atno 10167 bound_to 10162
  157.3388  130.7536  149.6897 H   0  0  0  0  0  0  0  0  0  0  0  0  # atno 10718 bound_to 10713
  154.0395  135.6646  153.4788 H   0  0  0  0  0  0  0  0  0  0  0  0  # atno 10763 bound_to 10752
  153.0507  135.5086  154.7856 H   0  0  0  0  0  0  0  0  0  0  0  0  # atno 10764 bound_to 10752
  154.6827  135.3048  154.9556 H   0  0  0  0  0  0  0  0  0  0  0  0  # atno 10765 bound_to 10752
  140.1132  134.8911  157.1967 H   0  0  0  0  0  0  0  0  0  0  0  0  # atno 11005 bound_to 11000
  146.2352  139.5890  142.9529 LP  0  0  0  0  0  0  0  0  0  0  0  0  # atno 17320 bound_to 7965
  145.5436  141.0419  143.2317 LP  0  0  0  0  0  0  0  0  0  0  0  0  # atno 17321 bound_to 7965
  140.6512  143.8693  150.6787 LP  0  0  0  0  0  0  0  0  0  0  0  0  # atno 17342 bound_to 10162
  140.2058  143.3923  152.1756 LP  0  0  0  0  0  0  0  0  0  0  0  0  # atno 17343 bound_to 10162
  155.9705  130.4174  150.4276 LP  0  0  0  0  0  0  0  0  0  0  0  0  # atno 17370 bound_to 10713
  157.2320  131.0506  151.2486 LP  0  0  0  0  0  0  0  0  0  0  0  0  # atno 17371 bound_to 10713
  140.3063  134.3075  155.7277 LP  0  0  0  0  0  0  0  0  0  0  0  0  # atno 17394 bound_to 11000
  141.2135  133.7622  156.9712 LP  0  0  0  0  0  0  0  0  0  0  0  0  # atno 17395 bound_to 11000

$$$$
