#       Name:                AV-unprocessed.smi:1734
#       Creating user name   scv26
#       Creation time:       Fri Mar 27 08:19:37 2020


#       File generated by GOLD software.
#

@<TRIPOS>MOLECULE
AV-unprocessed.smi:1734
    58    60     1
SMALL
NO_CHARGES


@<TRIPOS>ATOM
      1 ****        -5.1356  -0.7907   1.1604 C.3            1 S1                 0.0000
      2 ****        -4.8886   0.7059   1.0605 C.ar           1 S1                 0.0000
      3 ****        -5.9902   1.5821   0.9599 C.ar           1 S1                 0.0000
      4 ****        -5.7600   2.9653   0.8682 C.ar           1 S1                 0.0000
      5 ****        -4.4293   3.4170   0.8822 C.ar           1 S1                 0.0000
      6 ****        -3.3708   2.5869   0.9770 N.ar           1 S1                 0.0000
      7 ****        -3.5755   1.2485   1.0650 C.ar           1 S1                 0.0000
      8 ****        -2.5063   0.3133   1.1541 N.am           1 S1                 0.0000
      9 ****        -1.1839   0.5549   1.1829 C.2            1 S1                 0.0000
     10 ****        -0.6609   1.6692   1.2158 O.2            1 S1                 0.0000
     11 ****        -0.4840  -0.5884   1.1648 N.am           1 S1                 0.0000
     12 ****         0.9714  -0.6779   1.1397 C.3            1 S1                 0.0000
     13 ****         1.6008  -0.2872  -0.2314 C.3            1 S1                 0.0000
     14 ****         1.2361  -1.2934  -1.3626 C.3            1 S1                 0.0000
     15 ****        -0.2255  -1.3139  -1.7919 C.3            1 S1                 0.0000
     16 ****        -0.1864  -1.8547  -3.2222 C.3            1 S1                 0.0000
     17 ****         1.1656  -1.7496  -3.6517 O.3            1 S1                 0.0000
     18 ****         1.8944  -0.9795  -2.7091 C.3            1 S1                 0.0000
     19 ****         3.0536  -0.0504  -0.1601 N.3            1 S1                 0.0000
     20 ****         3.8410  -1.1861   0.3170 C.3            1 S1                 0.0000
     21 ****         5.3501  -0.8965   0.2421 C.3            1 S1                 0.0000
     22 ****         5.6491   0.2913   0.9695 O.3            1 S1                 0.0000
     23 ****         4.9348   1.4271   0.4907 C.3            1 S1                 0.0000
     24 ****         3.4228   1.1574   0.5739 C.3            1 S1                 0.0000
     25 ****        -6.2020  -1.0182   1.1632 H              1 S1                 0.0000
     26 ****        -4.7073  -1.1876   2.0812 H              1 S1                 0.0000
     27 ****        -4.6837  -1.3098   0.3147 H              1 S1                 0.0000
     28 ****        -7.0012   1.2018   0.9520 H              1 S1                 0.0000
     29 ****        -6.5818   3.6616   0.7897 H              1 S1                 0.0000
     30 ****        -4.2077   4.4718   0.8146 H              1 S1                 0.0000
     31 ****        -2.7828  -0.6571   1.1621 H              1 S1                 0.0000
     32 ****        -0.9931  -1.4598   1.1426 H              1 S1                 0.0000
     33 ****         1.3518  -0.0564   1.9498 H              1 S1                 0.0000
     34 ****         1.2428  -1.7021   1.3965 H              1 S1                 0.0000
     35 ****         1.1562   0.6632  -0.5291 H              1 S1                 0.0000
     36 ****         1.5191  -2.3047  -1.0679 H              1 S1                 0.0000
     37 ****        -0.8519  -1.9281  -1.1449 H              1 S1                 0.0000
     38 ****        -0.6335  -0.3020  -1.7963 H              1 S1                 0.0000
     39 ****        -0.4896  -2.9013  -3.2593 H              1 S1                 0.0000
     40 ****        -0.8455  -1.2873  -3.8801 H              1 S1                 0.0000
     41 ****         1.7914   0.0786  -2.9559 H              1 S1                 0.0000
     42 ****         2.9542  -1.2342  -2.7343 H              1 S1                 0.0000
     43 ****         3.5773  -1.4173   1.3494 H              1 S1                 0.0000
     44 ****         3.6226  -2.0766  -0.2715 H              1 S1                 0.0000
     45 ****         5.9168  -1.7261   0.6647 H              1 S1                 0.0000
     46 ****         5.6696  -0.7853  -0.7953 H              1 S1                 0.0000
     47 ****         5.1990   2.2954   1.0945 H              1 S1                 0.0000
     48 ****         5.2331   1.6472  -0.5355 H              1 S1                 0.0000
     49 ****         2.8798   2.0154   0.1763 H              1 S1                 0.0000
     50 ****         3.1447   1.0684   1.6234 H              1 S1                 0.0000
     51 ****        -2.4412   2.9553   0.9824 LP             1 S1                 0.0000
     52 ****        -1.2324   2.4898   1.2229 LP             1 S1                 0.0000
     53 ****         0.3353   1.7536   1.2354 LP             1 S1                 0.0000
     54 ****         1.1990  -1.3033  -4.5459 LP             1 S1                 0.0000
     55 ****         1.5671  -2.6629  -3.7198 LP             1 S1                 0.0000
     56 ****         3.2931   0.0859  -1.1213 LP             1 S1                 0.0000
     57 ****         6.6291   0.4747   0.8928 LP             1 S1                 0.0000
     58 ****         5.4114   0.1461   1.9299 LP             1 S1                 0.0000
@<TRIPOS>BOND
    1    1    2 1     
    2    1   25 1     
    3    1   26 1     
    4    1   27 1     
    5    2    7 ar    
    6    2    3 ar    
    7    3    4 ar    
    8    3   28 1     
    9    4    5 ar    
   10    4   29 1     
   11    5    6 ar    
   12    5   30 1     
   13    6    7 ar    
   14    7    8 1     
   15    8    9 am    
   16    8   31 1     
   17    9   10 2     
   18    9   11 am    
   19   11   12 1     
   20   11   32 1     
   21   12   13 1     
   22   12   33 1     
   23   12   34 1     
   24   13   14 1     
   25   13   19 1     
   26   13   35 1     
   27   14   18 1     
   28   14   15 1     
   29   14   36 1     
   30   15   16 1     
   31   15   37 1     
   32   15   38 1     
   33   16   17 1     
   34   16   39 1     
   35   16   40 1     
   36   17   18 1     
   37   18   41 1     
   38   18   42 1     
   39   19   24 1     
   40   19   20 1     
   41   20   21 1     
   42   20   43 1     
   43   20   44 1     
   44   21   22 1     
   45   21   45 1     
   46   21   46 1     
   47   22   23 1     
   48   23   24 1     
   49   23   47 1     
   50   23   48 1     
   51   24   49 1     
   52   24   50 1     
   53    6   51 1     
   54   10   52 1     
   55   10   53 1     
   56   17   54 1     
   57   17   55 1     
   58   19   56 1     
   59   22   57 1     
   60   22   58 1     
@<TRIPOS>SUBSTRUCTURE
      1 S1             1
@<TRIPOS>SET
LONE_PAIRS      STATIC     ATOMS    <user>   **** ""
8 51 52 53 54 55 56 57 58
DONOR_HYDROGENS      STATIC     ATOMS    <user>   **** ""
2 31 32
ATOM$BLUE        STATIC     ATOMS    COLORGROUP SYSTEM
8 51 52 53 54 55 56 57 58
ATOM$RED        STATIC     ATOMS    COLORGROUP SYSTEM
2 31 32
