#       Name:                AV-unprocessed.smi:101
#       Creating user name   scv26
#       Creation time:       Thu Mar 26 17:42:40 2020


#       File generated by GOLD software.
#

@<TRIPOS>MOLECULE
AV-unprocessed.smi:101
    56    58     1
SMALL
NO_CHARGES


@<TRIPOS>ATOM
      1 ****        -2.5559   1.6068  -2.2809 C.3            1 S1                 0.0000
      2 ****        -2.9172   1.4167  -0.8167 C.2            1 S1                 0.0000
      3 ****        -2.0853   0.8032   0.0637 C.2            1 S1                 0.0000
      4 ****        -2.3873   0.6151   1.4078 N.am           1 S1                 0.0000
      5 ****        -1.4316  -0.0614   2.3760 C.3            1 S1                 0.0000
      6 ****        -0.1478  -0.0893   1.8261 O.3            1 S1                 0.0000
      7 ****         0.1659  -1.4110   1.4024 C.3            1 S1                 0.0000
      8 ****         1.6805  -1.5954   1.2472 C.3            1 S1                 0.0000
      9 ****         2.0846  -0.9272   0.0640 O.3            1 S1                 0.0000
     10 ****         3.3892  -0.8197  -0.2461 C.2            1 S1                 0.0000
     11 ****         4.2966  -1.2887   0.4438 O.2            1 S1                 0.0000
     12 ****         3.6192  -0.0680  -1.5138 C.ar           1 S1                 0.0000
     13 ****         4.9437   0.1545  -1.9576 C.ar           1 S1                 0.0000
     14 ****         5.1913   0.8644  -3.1487 C.ar           1 S1                 0.0000
     15 ****         4.1173   1.3593  -3.9112 C.ar           1 S1                 0.0000
     16 ****         2.7950   1.1432  -3.4816 C.ar           1 S1                 0.0000
     17 ****         2.5452   0.4344  -2.2903 C.ar           1 S1                 0.0000
     18 ****        -0.5195  -2.2815   2.4577 C.3            1 S1                 0.0000
     19 ****         0.2549  -2.3483   3.6414 O.3            1 S1                 0.0000
     20 ****        -1.8205  -1.5269   2.7057 C.3            1 S1                 0.0000
     21 ****        -2.8362  -2.0540   1.8687 O.3            1 S1                 0.0000
     22 ****        -3.6196   1.0837   1.9078 C.2            1 S1                 0.0000
     23 ****        -3.9537   0.9476   3.0843 O.2            1 S1                 0.0000
     24 ****        -4.4741   1.7125   1.0046 N.am           1 S1                 0.0000
     25 ****        -4.2128   1.9197  -0.3517 C.2            1 S1                 0.0000
     26 ****        -5.0490   2.4890  -1.0512 O.2            1 S1                 0.0000
     27 ****        -5.3578   2.0468   1.3601 H              1 S1                 0.0000
     28 ****        -1.5659   1.2105  -2.5094 H              1 S1                 0.0000
     29 ****        -2.5589   2.6660  -2.5405 H              1 S1                 0.0000
     30 ****        -3.2766   1.0954  -2.9199 H              1 S1                 0.0000
     31 ****        -1.1403   0.4506  -0.3196 H              1 S1                 0.0000
     32 ****        -1.3963   0.5848   3.2553 H              1 S1                 0.0000
     33 ****        -0.3199  -1.6012   0.4439 H              1 S1                 0.0000
     34 ****         2.2096  -1.2029   2.1169 H              1 S1                 0.0000
     35 ****         1.9236  -2.6548   1.1568 H              1 S1                 0.0000
     36 ****         5.7847  -0.2148  -1.3882 H              1 S1                 0.0000
     37 ****         6.2071   1.0299  -3.4765 H              1 S1                 0.0000
     38 ****         4.3076   1.9046  -4.8239 H              1 S1                 0.0000
     39 ****         1.9696   1.5219  -4.0662 H              1 S1                 0.0000
     40 ****         1.5179   0.2877  -1.9896 H              1 S1                 0.0000
     41 ****        -0.6831  -3.3003   2.1031 H              1 S1                 0.0000
     42 ****         1.0665  -2.7917   3.4469 H              1 S1                 0.0000
     43 ****        -2.1547  -1.5983   3.7417 H              1 S1                 0.0000
     44 ****        -3.6060  -1.5130   1.9598 H              1 S1                 0.0000
     45 ****         0.5149   0.2047   2.5148 LP             1 S1                 0.0000
     46 ****        -0.1093   0.5290   1.0411 LP             1 S1                 0.0000
     47 ****         4.0803  -1.7817   1.2865 LP             1 S1                 0.0000
     48 ****         5.2491  -1.1762   0.1607 LP             1 S1                 0.0000
     49 ****        -0.2458  -2.8550   4.3432 LP             1 S1                 0.0000
     50 ****         0.4468  -1.4238   3.9708 LP             1 S1                 0.0000
     51 ****        -3.0477  -2.9921   2.1431 LP             1 S1                 0.0000
     52 ****        -2.5282  -2.0465   0.9173 LP             1 S1                 0.0000
     53 ****        -3.3412   0.4891   3.7281 LP             1 S1                 0.0000
     54 ****        -4.8377   1.2955   3.3964 LP             1 S1                 0.0000
     55 ****        -4.8682   2.6408  -2.0230 LP             1 S1                 0.0000
     56 ****        -5.9097   2.8001  -0.6483 LP             1 S1                 0.0000
@<TRIPOS>BOND
    1    1    2 1     
    2    1   28 1     
    3    1   29 1     
    4    1   30 1     
    5    2   25 1     
    6    2    3 2     
    7    3    4 1     
    8    3   31 1     
    9    4    5 1     
   10    4   22 1     
   11    5   20 1     
   12    5    6 1     
   13    5   32 1     
   14    6    7 1     
   15    7    8 1     
   16    7   18 1     
   17    7   33 1     
   18    8    9 1     
   19    8   34 1     
   20    8   35 1     
   21    9   10 1     
   22   10   11 2     
   23   10   12 1     
   24   12   17 ar    
   25   12   13 ar    
   26   13   14 ar    
   27   13   36 1     
   28   14   15 ar    
   29   14   37 1     
   30   15   16 ar    
   31   15   38 1     
   32   16   17 ar    
   33   16   39 1     
   34   17   40 1     
   35   18   19 1     
   36   18   20 1     
   37   18   41 1     
   38   19   42 1     
   39   20   21 1     
   40   20   43 1     
   41   21   44 1     
   42   22   23 2     
   43   22   24 1     
   44   24   27 1     
   45   24   25 1     
   46   25   26 2     
   47    6   45 1     
   48    6   46 1     
   49   11   47 1     
   50   11   48 1     
   51   19   49 1     
   52   19   50 1     
   53   21   51 1     
   54   21   52 1     
   55   23   53 1     
   56   23   54 1     
   57   26   55 1     
   58   26   56 1     
@<TRIPOS>SUBSTRUCTURE
      1 S1             1
@<TRIPOS>SET
LONE_PAIRS      STATIC     ATOMS    <user>   **** ""
12 45 46 47 48 49 50 51 52 53 54 55 56
DONOR_HYDROGENS      STATIC     ATOMS    <user>   **** ""
3 42 44 27
ATOM$BLUE        STATIC     ATOMS    COLORGROUP SYSTEM
12 45 46 47 48 49 50 51 52 53 54 55 56
ATOM$RED        STATIC     ATOMS    COLORGROUP SYSTEM
3 42 44 27
