AV-unprocessed.smi:967|AV-procd|sdf|4288|dock9
  -GOLD-   22720 2193D 1   1.00000     0.00000
 Structure written by MMmdl.
 42 43  0  0  0  0  0  0  0  0  1 V2000
  146.6964  142.3378  156.5960 C   0  0  0  0  0  0  0  0  0  0  0  0
  146.2378  142.2945  155.2161 N   0  0  0  0  0  0  0  0  0  0  0  0
  144.9825  142.9745  154.9362 C   0  0  0  0  0  0  0  0  0  0  0  0
  146.2972  141.0105  154.6583 C   0  0  0  0  0  0  0  0  0  0  0  0
  145.4906  139.9582  155.1480 C   0  0  0  0  0  0  0  0  0  0  0  0
  145.5915  138.6895  154.5457 C   0  0  0  0  0  0  0  0  0  0  0  0
  146.4900  138.5146  153.4666 C   0  0  0  0  0  0  0  0  0  0  0  0
  146.6957  137.2821  152.7903 N   0  0  0  0  0  0  0  0  0  0  0  0
  145.8358  136.2610  152.6349 C   0  0  0  0  0  0  0  0  0  0  0  0
  144.6751  136.2420  153.0441 O   0  0  0  0  0  0  0  0  0  0  0  0
  146.4006  135.2565  151.9493 N   0  0  0  0  0  0  0  0  0  0  0  0
  145.7535  133.9999  151.5809 C   0  0  2  0  0  0  0  0  0  0  0  0
  146.5731  133.2964  150.4840 C   0  0  0  0  0  0  0  0  0  0  0  0
  145.8907  132.0002  150.0123 C   0  0  0  0  0  0  0  0  0  0  0  0
  144.4389  132.2383  149.5550 C   0  0  2  0  0  0  0  0  0  0  0  0
  144.4257  132.9663  148.3428 O   0  0  0  0  0  0  0  0  0  0  0  0
  143.6228  132.9832  150.6286 C   0  0  0  0  0  0  0  0  0  0  0  0
  144.3164  134.2735  151.1005 C   0  0  0  0  0  0  0  0  0  0  0  0
  147.2595  139.6265  153.0667 C   0  0  0  0  0  0  0  0  0  0  0  0
  147.1670  140.8457  153.6385 N   0  0  0  0  0  0  0  0  0  0  0  0
  147.6386  141.8000  156.7096 H   0  0  0  0  0  0  0  0  0  0  0  0
  145.9611  141.8926  157.2670 H   0  0  0  0  0  0  0  0  0  0  0  0
  146.8593  143.3704  156.9054 H   0  0  0  0  0  0  0  0  0  0  0  0
  144.7234  142.8936  153.8797 H   0  0  0  0  0  0  0  0  0  0  0  0
  145.0659  144.0333  155.1822 H   0  0  0  0  0  0  0  0  0  0  0  0
  144.1684  142.5506  155.5254 H   0  0  0  0  0  0  0  0  0  0  0  0
  144.8094  140.1150  155.9714 H   0  0  0  0  0  0  0  0  0  0  0  0
  144.9923  137.8791  154.9308 H   0  0  0  0  0  0  0  0  0  0  0  0
  147.5844  137.1896  152.3205 H   0  0  0  0  0  0  0  0  0  0  0  0
  147.3579  135.3717  151.6503 H   0  0  0  0  0  0  0  0  0  0  0  0
  145.7042  133.3327  152.4433 H   0  0  0  0  0  0  0  0  0  0  0  0
  146.7071  133.9671  149.6340 H   0  0  0  0  0  0  0  0  0  0  0  0
  147.5729  133.0679  150.8551 H   0  0  0  0  0  0  0  0  0  0  0  0
  146.4704  131.5411  149.2107 H   0  0  0  0  0  0  0  0  0  0  0  0
  145.8900  131.2832  150.8344 H   0  0  0  0  0  0  0  0  0  0  0  0
  143.9663  131.2767  149.3521 H   0  0  0  0  0  0  0  0  0  0  0  0
  145.2154  133.4831  148.2943 H   0  0  0  0  0  0  0  0  0  0  0  0
  142.6234  133.2093  150.2555 H   0  0  0  0  0  0  0  0  0  0  0  0
  143.4838  132.3252  151.4874 H   0  0  0  0  0  0  0  0  0  0  0  0
  143.7351  134.7274  151.9040 H   0  0  0  0  0  0  0  0  0  0  0  0
  144.3302  134.9978  150.2847 H   0  0  0  0  0  0  0  0  0  0  0  0
  147.9696  139.5387  152.2573 H   0  0  0  0  0  0  0  0  0  0  0  0
  1  2  1  0  0  0  0
  1 21  1  0  0  0  0
  1 22  1  0  0  0  0
  1 23  1  0  0  0  0
  2  3  1  0  0  0  0
  2  4  1  0  0  0  0
  3 24  1  0  0  0  0
  3 25  1  0  0  0  0
  3 26  1  0  0  0  0
  4 20  1  0  0  0  0
  4  5  2  0  0  0  0
  5  6  1  0  0  0  0
  5 27  1  0  0  0  0
  6  7  2  0  0  0  0
  6 28  1  0  0  0  0
  7  8  1  0  0  0  0
  7 19  1  0  0  0  0
  8  9  1  0  0  0  0
  8 29  1  0  0  0  0
  9 10  2  0  0  0  0
  9 11  1  0  0  0  0
 11 12  1  0  0  0  0
 11 30  1  0  0  0  0
 12 18  1  0  0  0  0
 12 13  1  0  0  0  0
 12 31  1  0  0  0  0
 13 14  1  0  0  0  0
 13 32  1  0  0  0  0
 13 33  1  0  0  0  0
 14 15  1  0  0  0  0
 14 34  1  0  0  0  0
 14 35  1  0  0  0  0
 15 16  1  0  0  0  0
 15 17  1  0  0  0  0
 15 36  1  0  0  0  0
 16 37  1  0  0  0  0
 17 18  1  0  0  0  0
 17 38  1  0  0  0  0
 17 39  1  0  0  0  0
 18 40  1  0  0  0  0
 18 41  1  0  0  0  0
 19 20  2  0  0  0  0
 19 42  1  0  0  0  0
M  END
> <s_m_source_file>
AV-unprocessed.smi

> <i_m_source_file_index>
967

> <i_lp_mmshare_version>
43012

> <i_f3d_flags>
0

> <s_epik_input>
W0NIM11OKFtDSDNdKWMxW2NIXVtjSF1jKFtjSF1uMSlbTkhdQyg9TylbTkhdW0NAQEhdMltDSDJdW0NIMl1bQ0BASF0oW09IXSlbQ0gyXVtDSDJdMg==

> <s_epik_cmdline>
J2VwaWtfcHl0aG9uJywgJy1waCcsICc3LjAnLCAnLXRuJywgJzgnLCAnLW1hJywgJzIwMCcsICctbWV0YWxfYmluZGluZycsICctaW1hZScsICc8aW5maWxlLm1hZT4nLCAnLW9tYWUnLCAnPG91dGZpbGUubWFlPic=

> <r_lp_tautomer_probability>
1

> <r_epik_Ionization_Penalty>
0.629464

> <r_epik_Ionization_Penalty_Charging>
0

> <r_epik_Ionization_Penalty_Neutral>
0.629464

> <r_epik_State_Penalty>
0.645019

> <r_epik_Charging_Adjusted_Penalty>
0.645019

> <i_epik_Tot_Q>
0

> <i_epik_Tot_abs_Q>
0

> <r_epik_Metal_State_Penalty>
0.308581

> <b_epik_Metal_Only>
0

> <s_lp_Force_Field>
OPLS_2005

> <r_lp_Energy>
18.5045

> <b_lp_Chiralities_Consistent>
1

> <s_lp_Variant>
AV-unprocessed.smi:967-4

> <Gold.Version>
5.8.1

> <Gold.Id.Protein>
6NUR|6NUR_protein|mol2

> <Gold.PLP.Fitness>
41.6354

> <Gold.PLP.PLP>
-30.3984

> <Gold.PLP.part.hbond>
-4.0000

> <Gold.PLP.part.metal>
0.0000

> <Gold.PLP.part.buried>
-3.5930

> <Gold.PLP.part.nonpolar>
-23.1027

> <Gold.PLP.part.repulsive>
0.4873

> <Gold.PLP.ligand.clash>
0.0000

> <Gold.PLP.ligand.torsion>
0.4840

> <Gold.PLP.Chemscore.Hbond>
3.0000

> <Gold.PLP.Chemscore.CHOScore>
1.0000

> <Gold.PLP.Chemscore.Metal>
0.0000

> <Gold.Chemscore.Hbonds>
donor molecule, donor type, donor heavy atom, donor atom, acceptor molecule, acceptor atom, score
      L1  H     8    29       P1  7948  1.00
      L1  H    11    30       P1  7948  1.00
      L1  H    16    37       P1  7921  1.00
      L1  C    19    42       P1  7957  0.96

> <Gold.PLP.Chemscore.Internal.Correction>
0.2049

> <Gold.Rescore>
     Score         DG    S(hbond)    S(metal)    S(lipo)     H(rot)  DE(clash)    DE(int)     intcor
     15.61     -18.50       2.90        0.00      66.01       1.71       0.07       2.83       ----

> <Gold.Chemscore.Fitness>
15.6099

> <Gold.Chemscore.DG>
-18.5035

> <Gold.Chemscore.ZeroCoef>
-5.4800

> <Gold.Chemscore.Hbond>
2.8964

> <Gold.Chemscore.Metal>
0.0000

> <Gold.Chemscore.Lipo>
66.0086

> <Gold.Chemscore.Internal_Hbond>
0.0000

> <Gold.Chemscore.DEClash>
0.0655

> <Gold.Chemscore.DEInternal>
2.8281

> <Gold.Chemscore.Rot>
1.7084

> <Gold.Chemscore.Internal.Correction>
   9.000000E+99

> <Gold.Chemscore.Hbonds>
donor molecule, donor type, donor heavy atom, donor atom, acceptor molecule, acceptor atom, score
      L1  H     8    29       P1  7948  0.95
      L1  H    11    30       P1  7948  0.90
      L1  H    16    37       P1  7921  0.48

> <Gold.Chemscore.Hbond.Weighted>
-9.6740

> <Gold.Chemscore.Metal.Weighted>
-0.0000

> <Gold.Chemscore.Lipo.Weighted>
-7.7230

> <Gold.Chemscore.Internal_Hbond.Weighted>
0.0000

> <Gold.Chemscore.DEClash.Weighted>
0.0655

> <Gold.Chemscore.DEInternal.Weighted>
2.8281

> <Gold.Chemscore.Rot.Weighted>
4.3735

> <Gold.Chemscore.Internal.Correction.Weighted>
   9.000000E+99

> <Gold.Protein.RotatedTorsions>
[ 6907 6896 6895 6894 ] final  -71.58 input  -60.11 | X-H torsion
[ 7974 7965 7964 7962 ] final   69.71 input  175.53 | X-H torsion
[ 8008 7997 7996 7995 ] final -169.89 input   59.86 | X-H torsion
[ 10167 10162 10161 10158 ] final  -37.90 input  -65.29 | X-H torsion
[ 10718 10713 10712 10709 ] final  173.14 input   66.30 | X-H torsion
[ 10763 10752 10751 10750 ] final   -5.64 input  -60.55 | X-H torsion
[ 11005 11000 10999 10996 ] final   91.14 input  -57.11 | X-H torsion

> <Gold.Protein.ActiveResidues>
 VAL166  LYS551  ARG553  GLY616  TRP617  ASP618  TYR619  PRO620  LYS621  CYS622 
 ASP623  PHE694  ASN695  SER759  ASP760  ASP761  ALA762  ILE779  LEU786  VAL792 
 PHE793  MET794  SER795  GLU796  ALA797  LYS798  CYS799  TRP800  GLU811  SER814 

> <Gold.Protein.RotatedAtoms>
  150.7206  134.5288  159.5689 H   0  0  0  0  0  0  0  0  0  0  0  0  # atno 6907 bound_to 6896
  152.2826  134.7808  160.0402 H   0  0  0  0  0  0  0  0  0  0  0  0  # atno 6908 bound_to 6896
  151.8449  133.3394  159.3691 H   0  0  0  0  0  0  0  0  0  0  0  0  # atno 6909 bound_to 6896
  145.7871  139.2915  143.1232 H   0  0  0  0  0  0  0  0  0  0  0  0  # atno 7974 bound_to 7965
  155.9110  140.1057  157.1279 H   0  0  0  0  0  0  0  0  0  0  0  0  # atno 8008 bound_to 7997
  154.4039  140.1274  156.4621 H   0  0  0  0  0  0  0  0  0  0  0  0  # atno 8009 bound_to 7997
  155.7310  140.3468  155.5062 H   0  0  0  0  0  0  0  0  0  0  0  0  # atno 8010 bound_to 7997
  140.7106  143.3312  151.2565 H   0  0  0  0  0  0  0  0  0  0  0  0  # atno 10167 bound_to 10162
  156.9687  131.0083  151.2910 H   0  0  0  0  0  0  0  0  0  0  0  0  # atno 10718 bound_to 10713
  153.4013  135.7005  153.6424 H   0  0  0  0  0  0  0  0  0  0  0  0  # atno 10763 bound_to 10752
  153.4957  135.3663  155.2515 H   0  0  0  0  0  0  0  0  0  0  0  0  # atno 10764 bound_to 10752
  154.8710  135.4099  154.3348 H   0  0  0  0  0  0  0  0  0  0  0  0  # atno 10765 bound_to 10752
  139.8844  134.8656  156.3385 H   0  0  0  0  0  0  0  0  0  0  0  0  # atno 11005 bound_to 11000
  146.0015  140.8516  143.0016 LP  0  0  0  0  0  0  0  0  0  0  0  0  # atno 17320 bound_to 7965
  144.6787  140.2359  143.7349 LP  0  0  0  0  0  0  0  0  0  0  0  0  # atno 17321 bound_to 7965
  139.6794  143.9880  152.2800 LP  0  0  0  0  0  0  0  0  0  0  0  0  # atno 17342 bound_to 10162
  139.9505  144.6623  150.8176 LP  0  0  0  0  0  0  0  0  0  0  0  0  # atno 17343 bound_to 10162
  157.5608  130.8244  149.8263 LP  0  0  0  0  0  0  0  0  0  0  0  0  # atno 17370 bound_to 10713
  156.0292  130.3770  150.1736 LP  0  0  0  0  0  0  0  0  0  0  0  0  # atno 17371 bound_to 10713
  140.9675  133.7349  156.0487 LP  0  0  0  0  0  0  0  0  0  0  0  0  # atno 17394 bound_to 11000
  140.7913  134.3614  157.5464 LP  0  0  0  0  0  0  0  0  0  0  0  0  # atno 17395 bound_to 11000

$$$$
