AV-unprocessed.smi:603|AV-procd|sdf|3036|dock4
  -GOLD-   2262023553D 1   1.00000     0.00000
 Structure written by MMmdl.
 35 36  0  0  0  0  0  0  0  0  1 V2000
  151.8147  136.9503  158.3801 O   0  0  0  0  0  0  0  0  0  0  0  0
  150.7900  137.6204  158.2366 C   0  0  0  0  0  0  0  0  0  0  0  0
  149.4388  136.8993  158.1762 C   0  0  0  0  0  0  0  0  0  0  0  0
  149.4263  135.8584  157.1395 N   0  0  0  0  0  0  0  0  0  0  0  0
  149.7294  136.3240  155.8717 N   0  0  0  0  0  0  0  0  0  0  0  0
  149.7567  135.4997  154.8819 C   0  0  0  0  0  0  0  0  0  0  0  0
  149.4763  134.0906  155.0455 C   0  0  0  0  0  0  0  0  0  0  0  0
  149.5287  133.0318  153.6804 Cl  0  0  0  0  0  0  0  0  0  0  0  0
  149.1754  133.6448  156.2910 C   0  0  0  0  0  0  0  0  0  0  0  0
  148.8283  131.9721  156.5658 Cl  0  0  0  0  0  0  0  0  0  0  0  0
  149.1345  134.5561  157.4433 C   0  0  0  0  0  0  0  0  0  0  0  0
  148.8653  134.1898  158.5880 O   0  0  0  0  0  0  0  0  0  0  0  0
  150.7326  138.9682  158.1298 N   0  0  0  0  0  0  0  0  0  0  0  0
  151.7093  139.9054  158.1534 C   0  0  0  0  0  0  0  0  0  0  0  0
  152.8917  139.5791  158.0630 O   0  0  0  0  0  0  0  0  0  0  0  0
  151.3252  141.1897  158.2806 N   0  0  0  0  0  0  0  0  0  0  0  0
  152.2203  142.3424  158.3265 C   0  0  0  0  0  0  0  0  0  0  0  0
  153.1500  142.2865  159.5552 C   0  0  0  0  0  0  0  0  0  0  0  0
  152.6396  143.3597  160.5168 C   0  0  0  0  0  0  0  0  0  0  0  0
  152.0629  144.4345  159.6010 C   0  0  0  0  0  0  0  0  0  0  0  0
  151.4170  143.6511  158.4568 C   0  0  0  0  0  0  0  0  0  0  0  0
  149.1918  136.4815  159.1541 H   0  0  0  0  0  0  0  0  0  0  0  0
  148.6600  137.6379  157.9764 H   0  0  0  0  0  0  0  0  0  0  0  0
  149.9926  135.8210  153.8672 H   0  0  0  0  0  0  0  0  0  0  0  0
  149.8008  139.3418  158.0206 H   0  0  0  0  0  0  0  0  0  0  0  0
  150.3352  141.3793  158.3497 H   0  0  0  0  0  0  0  0  0  0  0  0
  152.8213  142.3746  157.4158 H   0  0  0  0  0  0  0  0  0  0  0  0
  153.1928  141.3035  160.0263 H   0  0  0  0  0  0  0  0  0  0  0  0
  154.1657  142.5360  159.2460 H   0  0  0  0  0  0  0  0  0  0  0  0
  151.8472  142.9466  161.1426 H   0  0  0  0  0  0  0  0  0  0  0  0
  153.4213  143.7410  161.1742 H   0  0  0  0  0  0  0  0  0  0  0  0
  151.3570  145.0892  160.1128 H   0  0  0  0  0  0  0  0  0  0  0  0
  152.8711  145.0552  159.2116 H   0  0  0  0  0  0  0  0  0  0  0  0
  151.4087  144.2225  157.5281 H   0  0  0  0  0  0  0  0  0  0  0  0
  150.3771  143.4416  158.7135 H   0  0  0  0  0  0  0  0  0  0  0  0
  1  2  2  0  0  0  0
  2  3  1  0  0  0  0
  2 13  1  0  0  0  0
  3  4  1  0  0  0  0
  3 22  1  0  0  0  0
  3 23  1  0  0  0  0
  4 11  1  0  0  0  0
  4  5  1  0  0  0  0
  5  6  2  0  0  0  0
  6  7  1  0  0  0  0
  6 24  1  0  0  0  0
  7  8  1  0  0  0  0
  7  9  2  0  0  0  0
  9 10  1  0  0  0  0
  9 11  1  0  0  0  0
 11 12  2  0  0  0  0
 13 14  1  0  0  0  0
 13 25  1  0  0  0  0
 14 15  2  0  0  0  0
 14 16  1  0  0  0  0
 16 17  1  0  0  0  0
 16 26  1  0  0  0  0
 17 21  1  0  0  0  0
 17 18  1  0  0  0  0
 17 27  1  0  0  0  0
 18 19  1  0  0  0  0
 18 28  1  0  0  0  0
 18 29  1  0  0  0  0
 19 20  1  0  0  0  0
 19 30  1  0  0  0  0
 19 31  1  0  0  0  0
 20 21  1  0  0  0  0
 20 32  1  0  0  0  0
 20 33  1  0  0  0  0
 21 34  1  0  0  0  0
 21 35  1  0  0  0  0
M  END
> <s_m_source_file>
AV-unprocessed.smi

> <i_m_source_file_index>
603

> <i_lp_mmshare_version>
43012

> <i_f3d_flags>
0

> <s_epik_input>
W0NIMl0xW0NIMl1bQ0gyXVtDSDJdW0NIXTFbTkhdQyg9TylbTkhdQyg9TylbQ0gyXW4ybltjSF1jKENsKWMoQ2wpYzI9Tw==

> <s_epik_cmdline>
J2VwaWtfcHl0aG9uJywgJy1waCcsICc3LjAnLCAnLXRuJywgJzgnLCAnLW1hJywgJzIwMCcsICctbWV0YWxfYmluZGluZycsICctaW1hZScsICc8aW5maWxlLm1hZT4nLCAnLW9tYWUnLCAnPG91dGZpbGUubWFlPic=

> <r_lp_tautomer_probability>
1

> <r_epik_Ionization_Penalty>
3.28905e-05

> <r_epik_Ionization_Penalty_Charging>
2.24292e-11

> <r_epik_Ionization_Penalty_Neutral>
3.28905e-05

> <r_epik_State_Penalty>
-0

> <r_epik_Charging_Adjusted_Penalty>
2.24292e-11

> <i_epik_Tot_Q>
0

> <i_epik_Tot_abs_Q>
0

> <r_epik_Metal_State_Penalty>
-0

> <b_epik_Metal_Only>
0

> <s_lp_Force_Field>
OPLS_2005

> <r_lp_Energy>
36.9935

> <b_lp_Chiralities_Consistent>
1

> <s_lp_Variant>
AV-unprocessed.smi:603-1

> <Gold.Version>
5.8.1

> <Gold.Id.Protein>
6NUR|6NUR_protein|mol2

> <Gold.PLP.Fitness>
41.1821

> <Gold.PLP.PLP>
-32.5329

> <Gold.PLP.part.hbond>
-2.0549

> <Gold.PLP.part.metal>
0.0000

> <Gold.PLP.part.buried>
-5.0544

> <Gold.PLP.part.nonpolar>
-25.0126

> <Gold.PLP.part.repulsive>
0.2808

> <Gold.PLP.ligand.clash>
0.0000

> <Gold.PLP.ligand.torsion>
0.0818

> <Gold.PLP.Chemscore.Hbond>
1.9913

> <Gold.PLP.Chemscore.CHOScore>
0.9410

> <Gold.PLP.Chemscore.Metal>
0.0000

> <Gold.Chemscore.Hbonds>
donor molecule, donor type, donor heavy atom, donor atom, acceptor molecule, acceptor atom, score
      P1  H  6896  6908       L1    12  1.00
      P1  H  7997  8009       L1    15  0.99
      L1  C     6    24       P1  7948  0.69

> <Gold.PLP.Chemscore.Internal.Correction>
0.0159

> <Gold.Rescore>
     Score         DG    S(hbond)    S(metal)    S(lipo)     H(rot)  DE(clash)    DE(int)     intcor
     15.92     -17.49       1.88        0.00      85.17       1.65       0.07       1.50       ----

> <Gold.Chemscore.Fitness>
15.9225

> <Gold.Chemscore.DG>
-17.4887

> <Gold.Chemscore.ZeroCoef>
-5.4800

> <Gold.Chemscore.Hbond>
1.8799

> <Gold.Chemscore.Metal>
0.0000

> <Gold.Chemscore.Lipo>
85.1686

> <Gold.Chemscore.Internal_Hbond>
0.0000

> <Gold.Chemscore.DEClash>
0.0665

> <Gold.Chemscore.DEInternal>
1.4997

> <Gold.Chemscore.Rot>
1.6543

> <Gold.Chemscore.Internal.Correction>
   9.000000E+99

> <Gold.Chemscore.Hbonds>
donor molecule, donor type, donor heavy atom, donor atom, acceptor molecule, acceptor atom, score
      P1  H  6896  6908       L1    12  0.29
      P1  H  7997  8009       L1    15  0.92

> <Gold.Chemscore.Hbond.Weighted>
-6.2789

> <Gold.Chemscore.Metal.Weighted>
-0.0000

> <Gold.Chemscore.Lipo.Weighted>
-9.9647

> <Gold.Chemscore.Internal_Hbond.Weighted>
0.0000

> <Gold.Chemscore.DEClash.Weighted>
0.0665

> <Gold.Chemscore.DEInternal.Weighted>
1.4997

> <Gold.Chemscore.Rot.Weighted>
4.2349

> <Gold.Chemscore.Internal.Correction.Weighted>
   9.000000E+99

> <Gold.Protein.RotatedTorsions>
[ 6907 6896 6895 6894 ] final  155.31 input  -60.11 | X-H torsion
[ 7974 7965 7964 7962 ] final   10.45 input  175.53 | X-H torsion
[ 8008 7997 7996 7995 ] final  161.29 input   59.86 | X-H torsion
[ 10167 10162 10161 10158 ] final -142.02 input  -65.29 | X-H torsion
[ 10718 10713 10712 10709 ] final   -8.09 input   66.30 | X-H torsion
[ 10763 10752 10751 10750 ] final   -2.29 input  -60.55 | X-H torsion
[ 11005 11000 10999 10996 ] final  168.56 input  -57.11 | X-H torsion

> <Gold.Protein.ActiveResidues>
 VAL166  LYS551  ARG553  GLY616  TRP617  ASP618  TYR619  PRO620  LYS621  CYS622 
 ASP623  PHE694  ASN695  SER759  ASP760  ASP761  ALA762  ILE779  LEU786  VAL792 
 PHE793  MET794  SER795  GLU796  ALA797  LYS798  CYS799  TRP800  GLU811  SER814 

> <Gold.Protein.RotatedAtoms>
  152.0459  133.3998  159.4356 H   0  0  0  0  0  0  0  0  0  0  0  0  # atno 6907 bound_to 6896
  150.6873  134.3362  159.4857 H   0  0  0  0  0  0  0  0  0  0  0  0  # atno 6908 bound_to 6896
  152.1166  134.9235  160.0615 H   0  0  0  0  0  0  0  0  0  0  0  0  # atno 6909 bound_to 6896
  146.2388  139.9632  142.8456 H   0  0  0  0  0  0  0  0  0  0  0  0  # atno 7974 bound_to 7965
  156.2113  140.1781  156.7688 H   0  0  0  0  0  0  0  0  0  0  0  0  # atno 8008 bound_to 7997
  154.5727  140.0680  156.9017 H   0  0  0  0  0  0  0  0  0  0  0  0  # atno 8009 bound_to 7997
  155.2644  140.3338  155.4273 H   0  0  0  0  0  0  0  0  0  0  0  0  # atno 8010 bound_to 7997
  139.8128  143.7679  152.2664 H   0  0  0  0  0  0  0  0  0  0  0  0  # atno 10167 bound_to 10162
  156.7076  130.5112  149.5900 H   0  0  0  0  0  0  0  0  0  0  0  0  # atno 10718 bound_to 10713
  153.3561  135.6988  153.6749 H   0  0  0  0  0  0  0  0  0  0  0  0  # atno 10763 bound_to 10752
  153.5456  135.3564  155.2738 H   0  0  0  0  0  0  0  0  0  0  0  0  # atno 10764 bound_to 10752
  154.8661  135.4214  154.2808 H   0  0  0  0  0  0  0  0  0  0  0  0  # atno 10765 bound_to 10752
  140.2885  134.7693  157.3818 H   0  0  0  0  0  0  0  0  0  0  0  0  # atno 11005 bound_to 11000
  145.1751  140.9740  143.4299 LP  0  0  0  0  0  0  0  0  0  0  0  0  # atno 17320 bound_to 7965
  144.9993  139.3614  143.6175 LP  0  0  0  0  0  0  0  0  0  0  0  0  # atno 17321 bound_to 7965
  139.7833  144.7436  151.0057 LP  0  0  0  0  0  0  0  0  0  0  0  0  # atno 17342 bound_to 10162
  140.7817  143.4518  151.0401 LP  0  0  0  0  0  0  0  0  0  0  0  0  # atno 17343 bound_to 10162
  156.1684  130.6420  151.0806 LP  0  0  0  0  0  0  0  0  0  0  0  0  # atno 17370 bound_to 10713
  157.6948  131.0797  150.7000 LP  0  0  0  0  0  0  0  0  0  0  0  0  # atno 17371 bound_to 10713
  140.1217  134.5210  155.8178 LP  0  0  0  0  0  0  0  0  0  0  0  0  # atno 17394 bound_to 11000
  141.2150  133.6759  156.6878 LP  0  0  0  0  0  0  0  0  0  0  0  0  # atno 17395 bound_to 11000

$$$$
