AV-unprocessed.smi:2787|AV-procd|sdf|10758|dock9
  -GOLD-   2272015193D 1   1.00000     0.00000
 Structure written by MMmdl.
 36 37  0  0  0  0  0  0  0  0  2 V2000
  149.1534  139.7047  153.6805 O   0  0  0  0  0  0  0  0  0  0  0  0
  148.5284  140.9043  154.0846 C   0  0  0  0  0  0  0  0  0  0  0  0
  148.9596  141.2806  155.5096 C   0  0  0  0  0  0  0  0  0  0  0  0
  150.4867  141.4024  155.6643 C   0  0  0  0  0  0  0  0  0  0  0  0
  150.9042  142.1446  156.8970 C   0  0  0  0  0  0  0  0  0  0  0  0
  150.6559  143.4538  157.1917 N   0  3  0  0  0  0  0  0  0  0  0  0
  151.2136  143.7765  158.4289 C   0  0  0  0  0  0  0  0  0  0  0  0
  151.2201  144.9721  159.1409 C   0  0  0  0  0  0  0  0  0  0  0  0
  151.8821  144.9634  160.3860 C   0  0  0  0  0  0  0  0  0  0  0  0
  152.5037  143.7975  160.8786 C   0  0  0  0  0  0  0  0  0  0  0  0
  152.4915  142.5918  160.1467 C   0  0  0  0  0  0  0  0  0  0  0  0
  151.8360  142.6088  158.9153 C   0  0  0  0  0  0  0  0  0  0  0  0
  151.6221  141.6300  157.9368 N   0  0  0  0  0  0  0  0  0  0  0  0
  152.1619  140.2736  158.1295 C   0  0  0  0  0  0  0  0  0  0  0  0
  151.1221  139.1675  157.8558 C   0  0  2  0  0  0  0  0  0  0  0  0
  149.8994  139.4932  158.4883 O   0  0  0  0  0  0  0  0  0  0  0  0
  151.5876  137.7775  158.3312 C   0  0  0  0  0  0  0  0  0  0  0  0
  151.8681  137.8083  159.6342 F   0  0  0  0  0  0  0  0  0  0  0  0
  150.6080  136.8934  158.1423 F   0  0  0  0  0  0  0  0  0  0  0  0
  152.6620  137.3752  157.6511 F   0  0  0  0  0  0  0  0  0  0  0  0
  149.3312  139.7545  152.7533 H   0  0  0  0  0  0  0  0  0  0  0  0
  148.7749  141.6993  153.3803 H   0  0  0  0  0  0  0  0  0  0  0  0
  147.4482  140.7614  154.0450 H   0  0  0  0  0  0  0  0  0  0  0  0
  148.4977  142.2343  155.7684 H   0  0  0  0  0  0  0  0  0  0  0  0
  148.5675  140.5460  156.2145 H   0  0  0  0  0  0  0  0  0  0  0  0
  150.9369  140.4097  155.6929 H   0  0  0  0  0  0  0  0  0  0  0  0
  150.9064  141.9116  154.7962 H   0  0  0  0  0  0  0  0  0  0  0  0
  150.7445  145.8667  158.7659 H   0  0  0  0  0  0  0  0  0  0  0  0
  151.9137  145.8686  160.9751 H   0  0  0  0  0  0  0  0  0  0  0  0
  153.0001  143.8278  161.8378 H   0  0  0  0  0  0  0  0  0  0  0  0
  152.9676  141.7047  160.5374 H   0  0  0  0  0  0  0  0  0  0  0  0
  153.0078  140.1650  157.4504 H   0  0  0  0  0  0  0  0  0  0  0  0
  152.5738  140.1899  159.1352 H   0  0  0  0  0  0  0  0  0  0  0  0
  150.9284  139.1207  156.7833 H   0  0  0  0  0  0  0  0  0  0  0  0
  149.6595  140.3723  158.2392 H   0  0  0  0  0  0  0  0  0  0  0  0
  150.1402  144.0793  156.5862 H   0  0  0  0  0  0  0  0  0  0  0  0
  1  2  1  0  0  0  0
  1 21  1  0  0  0  0
  2  3  1  0  0  0  0
  2 22  1  0  0  0  0
  2 23  1  0  0  0  0
  3  4  1  0  0  0  0
  3 24  1  0  0  0  0
  3 25  1  0  0  0  0
  4  5  1  0  0  0  0
  4 26  1  0  0  0  0
  4 27  1  0  0  0  0
  5 13  1  0  0  0  0
  5  6  2  0  0  0  0
  6  7  1  0  0  0  0
  6 36  1  0  0  0  0
  7 12  2  0  0  0  0
  7  8  1  0  0  0  0
  8  9  2  0  0  0  0
  8 28  1  0  0  0  0
  9 10  1  0  0  0  0
  9 29  1  0  0  0  0
 10 11  2  0  0  0  0
 10 30  1  0  0  0  0
 11 12  1  0  0  0  0
 11 31  1  0  0  0  0
 12 13  1  0  0  0  0
 13 14  1  0  0  0  0
 14 15  1  0  0  0  0
 14 32  1  0  0  0  0
 14 33  1  0  0  0  0
 15 16  1  0  0  0  0
 15 17  1  0  0  0  0
 15 34  1  0  0  0  0
 16 35  1  0  0  0  0
 17 18  1  0  0  0  0
 17 19  1  0  0  0  0
 17 20  1  0  0  0  0
M  CHG  1   6   1
M  END
> <s_m_source_file>
AV-unprocessed.smi

> <i_m_source_file_index>
2787

> <i_lp_mmshare_version>
43012

> <i_f3d_flags>
0

> <s_epik_input>
W09IXVtDSDJdW0NIMl1bQ0gyXWMobjEpbihbQ0gyXVtDQEhdKFtPSF0pQyhGKShGKUYpYyhjMTIpW2NIXVtjSF1bY0hdW2NIXTI=

> <s_epik_cmdline>
J2VwaWtfcHl0aG9uJywgJy1waCcsICc3LjAnLCAnLXRuJywgJzgnLCAnLW1hJywgJzIwMCcsICctbWV0YWxfYmluZGluZycsICctaW1hZScsICc8aW5maWxlLm1hZT4nLCAnLW9tYWUnLCAnPG91dGZpbGUubWFlPic=

> <r_epik_Ionization_Penalty>
0.964009

> <r_epik_Ionization_Penalty_Charging>
0.952215

> <r_epik_Ionization_Penalty_Neutral>
0.0117938

> <r_epik_State_Penalty>
1.09527

> <r_epik_Charging_Adjusted_Penalty>
2.04749

> <i_epik_Tot_Q>
1

> <i_epik_Tot_abs_Q>
1

> <r_epik_Metal_State_Penalty>
5.08046

> <b_epik_Metal_Only>
0

> <s_lp_Force_Field>
OPLS_2005

> <r_lp_Energy>
17.2873

> <b_lp_Chiralities_Consistent>
1

> <s_lp_Variant>
AV-unprocessed.smi:2787-3

> <Gold.Version>
5.8.1

> <Gold.Id.Protein>
6NUR|6NUR_protein|mol2

> <Gold.PLP.Fitness>
51.9374

> <Gold.PLP.PLP>
-43.5696

> <Gold.PLP.part.hbond>
-1.8952

> <Gold.PLP.part.metal>
0.0000

> <Gold.PLP.part.buried>
-6.5222

> <Gold.PLP.part.nonpolar>
-34.6065

> <Gold.PLP.part.repulsive>
0.0000

> <Gold.PLP.ligand.clash>
0.0000

> <Gold.PLP.ligand.torsion>
0.3301

> <Gold.PLP.Chemscore.Hbond>
3.0000

> <Gold.PLP.Chemscore.CHOScore>
0.0000

> <Gold.PLP.Chemscore.Metal>
0.0000

> <Gold.Chemscore.Hbonds>
donor molecule, donor type, donor heavy atom, donor atom, acceptor molecule, acceptor atom, score
      L1  H     1    21       P1  7957  1.00
      L1  H     6    36       P1  8028  2.00

> <Gold.PLP.Chemscore.Internal.Correction>
0.0280

> <Gold.Rescore>
     Score         DG    S(hbond)    S(metal)    S(lipo)     H(rot)  DE(clash)    DE(int)     intcor
     15.26     -15.50       1.97        0.00     106.22       3.51       0.07       0.17       ----

> <Gold.Chemscore.Fitness>
15.2567

> <Gold.Chemscore.DG>
-15.4957

> <Gold.Chemscore.ZeroCoef>
-5.4800

> <Gold.Chemscore.Hbond>
1.9714

> <Gold.Chemscore.Metal>
0.0000

> <Gold.Chemscore.Lipo>
106.2226

> <Gold.Chemscore.Internal_Hbond>
0.0000

> <Gold.Chemscore.DEClash>
0.0732

> <Gold.Chemscore.DEInternal>
0.1658

> <Gold.Chemscore.Rot>
3.5143

> <Gold.Chemscore.Internal.Correction>
   9.000000E+99

> <Gold.Chemscore.Hbonds>
donor molecule, donor type, donor heavy atom, donor atom, acceptor molecule, acceptor atom, score
      L1  H     1    21       P1  7957  1.00
      L1  H     6    36       P1  8028  1.00

> <Gold.Chemscore.Hbond.Weighted>
-6.5844

> <Gold.Chemscore.Metal.Weighted>
-0.0000

> <Gold.Chemscore.Lipo.Weighted>
-12.4280

> <Gold.Chemscore.Internal_Hbond.Weighted>
0.0000

> <Gold.Chemscore.DEClash.Weighted>
0.0732

> <Gold.Chemscore.DEInternal.Weighted>
0.1658

> <Gold.Chemscore.Rot.Weighted>
8.9967

> <Gold.Chemscore.Internal.Correction.Weighted>
   9.000000E+99

> <Gold.Protein.RotatedTorsions>
[ 6907 6896 6895 6894 ] final  177.69 input  -60.11 | X-H torsion
[ 7974 7965 7964 7962 ] final -111.72 input  175.53 | X-H torsion
[ 8008 7997 7996 7995 ] final   63.34 input   59.86 | X-H torsion
[ 10167 10162 10161 10158 ] final  -53.60 input  -65.29 | X-H torsion
[ 10718 10713 10712 10709 ] final  154.87 input   66.30 | X-H torsion
[ 10763 10752 10751 10750 ] final  -47.90 input  -60.55 | X-H torsion
[ 11005 11000 10999 10996 ] final   48.15 input  -57.11 | X-H torsion

> <Gold.Protein.ActiveResidues>
 VAL166  LYS551  ARG553  GLY616  TRP617  ASP618  TYR619  PRO620  LYS621  CYS622 
 ASP623  PHE694  ASN695  SER759  ASP760  ASP761  ALA762  ILE779  LEU786  VAL792 
 PHE793  MET794  SER795  GLU796  ALA797  LYS798  CYS799  TRP800  GLU811  SER814 

> <Gold.Protein.RotatedAtoms>
  151.6999  133.3311  159.3263 H   0  0  0  0  0  0  0  0  0  0  0  0  # atno 6907 bound_to 6896
  150.7741  134.6625  159.6357 H   0  0  0  0  0  0  0  0  0  0  0  0  # atno 6908 bound_to 6896
  152.3776  134.6642  160.0206 H   0  0  0  0  0  0  0  0  0  0  0  0  # atno 6909 bound_to 6896
  145.1527  140.8837  143.3637 H   0  0  0  0  0  0  0  0  0  0  0  0  # atno 7974 bound_to 7965
  155.6287  140.3496  155.4676 H   0  0  0  0  0  0  0  0  0  0  0  0  # atno 8008 bound_to 7997
  156.0020  140.1215  157.0561 H   0  0  0  0  0  0  0  0  0  0  0  0  # atno 8009 bound_to 7997
  154.4252  140.1098  156.5697 H   0  0  0  0  0  0  0  0  0  0  0  0  # atno 8010 bound_to 7997
  140.6476  143.2545  151.4815 H   0  0  0  0  0  0  0  0  0  0  0  0  # atno 10167 bound_to 10162
  157.2259  131.0728  151.1883 H   0  0  0  0  0  0  0  0  0  0  0  0  # atno 10718 bound_to 10713
  154.0690  135.6607  153.4821 H   0  0  0  0  0  0  0  0  0  0  0  0  # atno 10763 bound_to 10752
  153.0398  135.5153  154.7585 H   0  0  0  0  0  0  0  0  0  0  0  0  # atno 10764 bound_to 10752
  154.6645  135.3020  154.9790 H   0  0  0  0  0  0  0  0  0  0  0  0  # atno 10765 bound_to 10752
  140.1216  134.4822  155.8593 H   0  0  0  0  0  0  0  0  0  0  0  0  # atno 11005 bound_to 11000
  145.0414  139.3257  143.5975 LP  0  0  0  0  0  0  0  0  0  0  0  0  # atno 17320 bound_to 7965
  146.3492  139.9789  142.8698 LP  0  0  0  0  0  0  0  0  0  0  0  0  # atno 17321 bound_to 7965
  139.5688  144.1978  152.1805 LP  0  0  0  0  0  0  0  0  0  0  0  0  # atno 17342 bound_to 10162
  140.1268  144.5324  150.6827 LP  0  0  0  0  0  0  0  0  0  0  0  0  # atno 17343 bound_to 10162
  157.3528  130.7091  149.6452 LP  0  0  0  0  0  0  0  0  0  0  0  0  # atno 17370 bound_to 10713
  155.9679  130.4247  150.4622 LP  0  0  0  0  0  0  0  0  0  0  0  0  # atno 17371 bound_to 10713
  141.2153  133.6762  156.6899 LP  0  0  0  0  0  0  0  0  0  0  0  0  # atno 17394 bound_to 11000
  140.2958  134.8204  157.4055 LP  0  0  0  0  0  0  0  0  0  0  0  0  # atno 17395 bound_to 11000

$$$$
