AV-unprocessed.smi:814|AV-procd|sdf|3821|dock3
  -GOLD-   22720 1263D 1   1.00000     0.00000
 Structure written by MMmdl.
 37 38  0  0  0  0  0  0  0  0  2 V2000
  148.0808  138.7766  154.0396 C   0  0  0  0  0  0  0  0  0  0  0  0
  147.7773  140.1821  154.3170 N   0  0  0  0  0  0  0  0  0  0  0  0
  146.5401  140.7731  154.2822 C   0  0  0  0  0  0  0  0  0  0  0  0
  146.7254  142.0922  154.6046 C   0  0  0  0  0  0  0  0  0  0  0  0
  148.0670  142.2521  154.8213 N   0  3  0  0  0  0  0  0  0  0  0  0
  148.7089  141.0902  154.6517 C   0  0  0  0  0  0  0  0  0  0  0  0
  150.1849  140.8885  154.7931 C   0  0  0  0  0  0  0  0  0  0  0  0
  150.5593  140.1294  156.0760 C   0  0  0  0  0  0  0  0  0  0  0  0
  150.6789  141.0309  157.2149 N   0  0  0  0  0  0  0  0  0  0  0  0
  151.7542  141.1211  158.0131 C   0  0  0  0  0  0  0  0  0  0  0  0
  152.7714  140.4463  157.8495 O   0  0  0  0  0  0  0  0  0  0  0  0
  151.6655  142.1211  159.1736 C   0  0  2  0  0  0  0  0  0  0  0  0
  151.4457  143.5635  158.6611 C   0  0  0  0  0  0  0  0  0  0  0  0
  151.6093  144.5940  159.7649 C   0  0  0  0  0  0  0  0  0  0  0  0
  152.1997  144.3281  160.9428 C   0  0  0  0  0  0  0  0  0  0  0  0
  152.7753  142.9694  161.3011 C   0  0  0  0  0  0  0  0  0  0  0  0
  152.9184  142.0548  160.0696 C   0  0  0  0  0  0  0  0  0  0  0  0
  147.1655  138.2533  153.7611 H   0  0  0  0  0  0  0  0  0  0  0  0
  148.5018  138.3142  154.9327 H   0  0  0  0  0  0  0  0  0  0  0  0
  148.7943  138.7137  153.2179 H   0  0  0  0  0  0  0  0  0  0  0  0
  145.6413  140.2260  154.0360 H   0  0  0  0  0  0  0  0  0  0  0  0
  146.0226  142.9079  154.6927 H   0  0  0  0  0  0  0  0  0  0  0  0
  150.5130  140.3440  153.9067 H   0  0  0  0  0  0  0  0  0  0  0  0
  150.6584  141.8700  154.7612 H   0  0  0  0  0  0  0  0  0  0  0  0
  149.7965  139.3871  156.3108 H   0  0  0  0  0  0  0  0  0  0  0  0
  151.4921  139.5800  155.9371 H   0  0  0  0  0  0  0  0  0  0  0  0
  149.8842  141.6197  157.4202 H   0  0  0  0  0  0  0  0  0  0  0  0
  150.8062  141.8493  159.7901 H   0  0  0  0  0  0  0  0  0  0  0  0
  152.1465  143.8147  157.8637 H   0  0  0  0  0  0  0  0  0  0  0  0
  150.4427  143.6580  158.2433 H   0  0  0  0  0  0  0  0  0  0  0  0
  151.2353  145.5873  159.5641 H   0  0  0  0  0  0  0  0  0  0  0  0
  152.2733  145.1015  161.6934 H   0  0  0  0  0  0  0  0  0  0  0  0
  153.7458  143.1033  161.7794 H   0  0  0  0  0  0  0  0  0  0  0  0
  152.1182  142.5084  162.0390 H   0  0  0  0  0  0  0  0  0  0  0  0
  153.1103  141.0310  160.3941 H   0  0  0  0  0  0  0  0  0  0  0  0
  153.7936  142.3645  159.4958 H   0  0  0  0  0  0  0  0  0  0  0  0
  148.5145  143.1245  155.0736 H   0  0  0  0  0  0  0  0  0  0  0  0
  1  2  1  0  0  0  0
  1 18  1  0  0  0  0
  1 19  1  0  0  0  0
  1 20  1  0  0  0  0
  2  6  1  0  0  0  0
  2  3  1  0  0  0  0
  3  4  2  0  0  0  0
  3 21  1  0  0  0  0
  4  5  1  0  0  0  0
  4 22  1  0  0  0  0
  5  6  2  0  0  0  0
  5 37  1  0  0  0  0
  6  7  1  0  0  0  0
  7  8  1  0  0  0  0
  7 23  1  0  0  0  0
  7 24  1  0  0  0  0
  8  9  1  0  0  0  0
  8 25  1  0  0  0  0
  8 26  1  0  0  0  0
  9 10  1  0  0  0  0
  9 27  1  0  0  0  0
 10 11  2  0  0  0  0
 10 12  1  0  0  0  0
 12 17  1  0  0  0  0
 12 13  1  0  0  0  0
 12 28  1  0  0  0  0
 13 14  1  0  0  0  0
 13 29  1  0  0  0  0
 13 30  1  0  0  0  0
 14 15  2  0  0  0  0
 14 31  1  0  0  0  0
 15 16  1  0  0  0  0
 15 32  1  0  0  0  0
 16 17  1  0  0  0  0
 16 33  1  0  0  0  0
 16 34  1  0  0  0  0
 17 35  1  0  0  0  0
 17 36  1  0  0  0  0
M  CHG  1   5   1
M  END
> <s_m_source_file>
AV-unprocessed.smi

> <i_m_source_file_index>
814

> <i_lp_mmshare_version>
43012

> <i_f3d_flags>
0

> <s_epik_input>
W0NIM11uMVtjSF1bY0hdbmMxW0NIMl1bQ0gyXVtOSF1DKD1PKVtDQEBIXTJbQ0gyXVtDSF09W0NIXVtDSDJdW0NIMl0y

> <s_epik_cmdline>
J2VwaWtfcHl0aG9uJywgJy1waCcsICc3LjAnLCAnLXRuJywgJzgnLCAnLW1hJywgJzIwMCcsICctbWV0YWxfYmluZGluZycsICctaW1hZScsICc8aW5maWxlLm1hZT4nLCAnLW9tYWUnLCAnPG91dGZpbGUubWFlPic=

> <r_lp_tautomer_probability>
1

> <r_epik_Ionization_Penalty>
0.0819619

> <r_epik_Ionization_Penalty_Charging>
0

> <r_epik_Ionization_Penalty_Neutral>
0.0819619

> <r_epik_State_Penalty>
0.0726933

> <r_epik_Charging_Adjusted_Penalty>
0.0726933

> <i_epik_Tot_Q>
1

> <i_epik_Tot_abs_Q>
1

> <r_epik_Metal_State_Penalty>
0.411758

> <b_epik_Metal_Only>
0

> <s_lp_Force_Field>
OPLS_2005

> <r_lp_Energy>
9.54254

> <b_lp_Chiralities_Consistent>
1

> <s_lp_Variant>
AV-unprocessed.smi:814-1

> <Gold.Version>
5.8.1

> <Gold.Id.Protein>
6NUR|6NUR_protein|mol2

> <Gold.PLP.Fitness>
48.7551

> <Gold.PLP.PLP>
-37.6701

> <Gold.PLP.part.hbond>
-2.0000

> <Gold.PLP.part.metal>
0.0000

> <Gold.PLP.part.buried>
-0.6522

> <Gold.PLP.part.nonpolar>
-34.8020

> <Gold.PLP.part.repulsive>
0.5219

> <Gold.PLP.ligand.clash>
0.0000

> <Gold.PLP.ligand.torsion>
0.3387

> <Gold.PLP.Chemscore.Hbond>
2.9120

> <Gold.PLP.Chemscore.CHOScore>
1.0000

> <Gold.PLP.Chemscore.Metal>
0.0000

> <Gold.Chemscore.Hbonds>
donor molecule, donor type, donor heavy atom, donor atom, acceptor molecule, acceptor atom, score
      L1  H     5    37       P1  8028  2.00
      P1  H  7997  8010       L1    11  0.86
      L1  C     3    21       P1 10175  1.00

> <Gold.PLP.Chemscore.Internal.Correction>
0.0264

> <Gold.Rescore>
     Score         DG    S(hbond)    S(metal)    S(lipo)     H(rot)  DE(clash)    DE(int)     intcor
     17.03     -18.90       1.88        0.00      97.06       1.65       1.35       0.52       ----

> <Gold.Chemscore.Fitness>
17.0310

> <Gold.Chemscore.DG>
-18.8987

> <Gold.Chemscore.ZeroCoef>
-5.4800

> <Gold.Chemscore.Hbond>
1.8837

> <Gold.Chemscore.Metal>
0.0000

> <Gold.Chemscore.Lipo>
97.0575

> <Gold.Chemscore.Internal_Hbond>
0.0000

> <Gold.Chemscore.DEClash>
1.3487

> <Gold.Chemscore.DEInternal>
0.5190

> <Gold.Chemscore.Rot>
1.6518

> <Gold.Chemscore.Internal.Correction>
   9.000000E+99

> <Gold.Chemscore.Hbonds>
donor molecule, donor type, donor heavy atom, donor atom, acceptor molecule, acceptor atom, score
      L1  H     5    37       P1  8028  1.00
      P1  H  7997  8010       L1    11  0.82

> <Gold.Chemscore.Hbond.Weighted>
-6.2917

> <Gold.Chemscore.Metal.Weighted>
-0.0000

> <Gold.Chemscore.Lipo.Weighted>
-11.3557

> <Gold.Chemscore.Internal_Hbond.Weighted>
0.0000

> <Gold.Chemscore.DEClash.Weighted>
1.3487

> <Gold.Chemscore.DEInternal.Weighted>
0.5190

> <Gold.Chemscore.Rot.Weighted>
4.2287

> <Gold.Chemscore.Internal.Correction.Weighted>
   9.000000E+99

> <Gold.Protein.RotatedTorsions>
[ 6907 6896 6895 6894 ] final  -76.43 input  -60.11 | X-H torsion
[ 7974 7965 7964 7962 ] final -174.43 input  175.53 | X-H torsion
[ 8008 7997 7996 7995 ] final   46.96 input   59.86 | X-H torsion
[ 10167 10162 10161 10158 ] final   22.56 input  -65.29 | X-H torsion
[ 10718 10713 10712 10709 ] final   33.53 input   66.30 | X-H torsion
[ 10763 10752 10751 10750 ] final -170.56 input  -60.55 | X-H torsion
[ 11005 11000 10999 10996 ] final -152.47 input  -57.11 | X-H torsion

> <Gold.Protein.ActiveResidues>
 VAL166  LYS551  ARG553  GLY616  TRP617  ASP618  TYR619  PRO620  LYS621  CYS622 
 ASP623  PHE694  ASN695  SER759  ASP760  ASP761  ALA762  ILE779  LEU786  VAL792 
 PHE793  MET794  SER795  GLU796  ALA797  LYS798  CYS799  TRP800  GLU811  SER814 

> <Gold.Protein.RotatedAtoms>
  150.7028  134.4573  159.5363 H   0  0  0  0  0  0  0  0  0  0  0  0  # atno 6907 bound_to 6896
  152.2254  134.8370  160.0489 H   0  0  0  0  0  0  0  0  0  0  0  0  # atno 6908 bound_to 6896
  151.9205  133.3549  159.3932 H   0  0  0  0  0  0  0  0  0  0  0  0  # atno 6909 bound_to 6896
  144.7132  140.1472  143.6387 H   0  0  0  0  0  0  0  0  0  0  0  0  # atno 7974 bound_to 7965
  155.3611  140.3418  155.4241 H   0  0  0  0  0  0  0  0  0  0  0  0  # atno 8008 bound_to 7997
  156.1713  140.1632  156.8477 H   0  0  0  0  0  0  0  0  0  0  0  0  # atno 8009 bound_to 7997
  154.5236  140.0761  156.8200 H   0  0  0  0  0  0  0  0  0  0  0  0  # atno 8010 bound_to 7997
  140.5338  143.9795  150.6480 H   0  0  0  0  0  0  0  0  0  0  0  0  # atno 10167 bound_to 10162
  157.2991  130.7341  149.6656 H   0  0  0  0  0  0  0  0  0  0  0  0  # atno 10718 bound_to 10713
  154.6401  135.2897  155.0113 H   0  0  0  0  0  0  0  0  0  0  0  0  # atno 10763 bound_to 10752
  154.1243  135.6543  153.4913 H   0  0  0  0  0  0  0  0  0  0  0  0  # atno 10764 bound_to 10752
  153.0322  135.5295  154.7265 H   0  0  0  0  0  0  0  0  0  0  0  0  # atno 10765 bound_to 10752
  140.7186  134.3753  157.5187 H   0  0  0  0  0  0  0  0  0  0  0  0  # atno 11005 bound_to 11000
  145.9148  139.2509  143.1416 LP  0  0  0  0  0  0  0  0  0  0  0  0  # atno 17320 bound_to 7965
  145.9679  140.8783  143.0177 LP  0  0  0  0  0  0  0  0  0  0  0  0  # atno 17321 bound_to 7965
  140.3177  143.3157  152.0815 LP  0  0  0  0  0  0  0  0  0  0  0  0  # atno 17342 bound_to 10162
  139.4963  144.6594  151.6499 LP  0  0  0  0  0  0  0  0  0  0  0  0  # atno 17343 bound_to 10162
  155.9670  130.4285  150.4793 LP  0  0  0  0  0  0  0  0  0  0  0  0  # atno 17370 bound_to 10713
  157.2770  131.0599  151.2222 LP  0  0  0  0  0  0  0  0  0  0  0  0  # atno 17371 bound_to 10713
  139.8854  134.8939  156.2647 LP  0  0  0  0  0  0  0  0  0  0  0  0  # atno 17394 bound_to 11000
  141.0023  133.7144  156.0980 LP  0  0  0  0  0  0  0  0  0  0  0  0  # atno 17395 bound_to 11000

$$$$
