AV-unprocessed.smi:1720|AV-procd|sdf|6934|dock9
  -GOLD-   22720 8143D 1   1.00000     0.00000
 Structure written by MMmdl.
 32 33  0  0  0  0  0  0  0  0  1 V2000
  146.7584  140.2320  152.7421 C   0  0  0  0  0  0  0  0  0  0  0  0
  147.4566  139.1333  153.5584 C   0  0  1  0  0  0  0  0  0  0  0  0
  147.3603  137.8756  152.8203 N   0  0  0  0  0  0  0  0  0  0  0  0
  146.2227  137.2931  152.4144 C   0  0  0  0  0  0  0  0  0  0  0  0
  145.1031  137.7639  152.6159 O   0  0  0  0  0  0  0  0  0  0  0  0
  146.4701  136.1417  151.7687 N   0  0  0  0  0  0  0  0  0  0  0  0
  145.5227  135.2480  151.2080 C   0  0  0  0  0  0  0  0  0  0  0  0
  145.7428  133.8587  151.0040 C   0  0  0  0  0  0  0  0  0  0  0  0
  144.6821  133.2752  150.4642 N   0  0  0  0  0  0  0  0  0  0  0  0
  143.7874  134.2791  150.3215 N   0  0  0  0  0  0  0  0  0  0  0  0
  144.2555  135.4977  150.7608 C   0  0  0  0  0  0  0  0  0  0  0  0
  148.9367  139.4658  153.8404 C   0  0  1  0  0  0  0  0  0  0  0  0
  149.1612  140.7256  154.6779 C   0  0  0  0  0  0  0  0  0  0  0  0
  150.5230  140.4956  155.3133 C   0  0  0  0  0  0  0  0  0  0  0  0
  150.7641  138.9932  155.1444 C   0  0  0  0  0  0  0  0  0  0  0  0
  149.5365  138.4710  154.6564 O   0  0  0  0  0  0  0  0  0  0  0  0
  142.8714  134.1185  149.9272 H   0  0  0  0  0  0  0  0  0  0  0  0
  146.7463  141.1802  153.2797 H   0  0  0  0  0  0  0  0  0  0  0  0
  145.7218  139.9658  152.5333 H   0  0  0  0  0  0  0  0  0  0  0  0
  147.2593  140.3969  151.7876 H   0  0  0  0  0  0  0  0  0  0  0  0
  146.9278  139.0423  154.5089 H   0  0  0  0  0  0  0  0  0  0  0  0
  148.2302  137.4093  152.6099 H   0  0  0  0  0  0  0  0  0  0  0  0
  147.4382  135.8728  151.6729 H   0  0  0  0  0  0  0  0  0  0  0  0
  146.6183  133.2662  151.2253 H   0  0  0  0  0  0  0  0  0  0  0  0
  143.6597  136.3973  150.7141 H   0  0  0  0  0  0  0  0  0  0  0  0
  149.4963  139.5381  152.9055 H   0  0  0  0  0  0  0  0  0  0  0  0
  149.1220  141.6399  154.0848 H   0  0  0  0  0  0  0  0  0  0  0  0
  148.4030  140.7983  155.4588 H   0  0  0  0  0  0  0  0  0  0  0  0
  151.3006  141.0666  154.8049 H   0  0  0  0  0  0  0  0  0  0  0  0
  150.5202  140.7916  156.3628 H   0  0  0  0  0  0  0  0  0  0  0  0
  151.5495  138.8107  154.4096 H   0  0  0  0  0  0  0  0  0  0  0  0
  151.0516  138.5077  156.0772 H   0  0  0  0  0  0  0  0  0  0  0  0
  1  2  1  0  0  0  0
  1 18  1  0  0  0  0
  1 19  1  0  0  0  0
  1 20  1  0  0  0  0
  2  3  1  0  0  0  0
  2 12  1  0  0  0  0
  2 21  1  0  0  0  0
  3  4  1  0  0  0  0
  3 22  1  0  0  0  0
  4  5  2  0  0  0  0
  4  6  1  0  0  0  0
  6  7  1  0  0  0  0
  6 23  1  0  0  0  0
  7 11  2  0  0  0  0
  7  8  1  0  0  0  0
  8  9  2  0  0  0  0
  8 24  1  0  0  0  0
  9 10  1  0  0  0  0
 10 17  1  0  0  0  0
 10 11  1  0  0  0  0
 11 25  1  0  0  0  0
 12 16  1  0  0  0  0
 12 13  1  0  0  0  0
 12 26  1  0  0  0  0
 13 14  1  0  0  0  0
 13 27  1  0  0  0  0
 13 28  1  0  0  0  0
 14 15  1  0  0  0  0
 14 29  1  0  0  0  0
 14 30  1  0  0  0  0
 15 16  1  0  0  0  0
 15 31  1  0  0  0  0
 15 32  1  0  0  0  0
M  END
> <s_m_source_file>
AV-unprocessed.smi

> <i_m_source_file_index>
1720

> <i_lp_mmshare_version>
43012

> <i_f3d_flags>
0

> <s_epik_input>
TzFbQ0gyXVtDSDJdW0NIMl1bQ0BIXTFbQ0BIXShbQ0gzXSlbTkhdQyg9TylbTkhdYzJbY0hdbltuSF1bY0hdMg==

> <s_epik_cmdline>
J2VwaWtfcHl0aG9uJywgJy1waCcsICc3LjAnLCAnLXRuJywgJzgnLCAnLW1hJywgJzIwMCcsICctbWV0YWxfYmluZGluZycsICctaW1hZScsICc8aW5maWxlLm1hZT4nLCAnLW9tYWUnLCAnPG91dGZpbGUubWFlPic=

> <r_lp_tautomer_probability>
1

> <r_epik_Ionization_Penalty>
4.95841e-05

> <r_epik_Ionization_Penalty_Charging>
0

> <r_epik_Ionization_Penalty_Neutral>
4.95841e-05

> <r_epik_State_Penalty>
-0

> <r_epik_Charging_Adjusted_Penalty>
0

> <i_epik_Tot_Q>
0

> <i_epik_Tot_abs_Q>
0

> <r_epik_Metal_State_Penalty>
-0

> <b_epik_Metal_Only>
0

> <s_lp_Force_Field>
OPLS_2005

> <r_lp_Energy>
20.531

> <b_lp_Chiralities_Consistent>
1

> <s_lp_Variant>
AV-unprocessed.smi:1720-4

> <Gold.Version>
5.8.1

> <Gold.Id.Protein>
6NUR|6NUR_protein|mol2

> <Gold.PLP.Fitness>
34.4084

> <Gold.PLP.PLP>
-22.8074

> <Gold.PLP.part.hbond>
-2.5662

> <Gold.PLP.part.metal>
0.0000

> <Gold.PLP.part.buried>
1.9789

> <Gold.PLP.part.nonpolar>
-23.7955

> <Gold.PLP.part.repulsive>
1.2562

> <Gold.PLP.ligand.clash>
0.0000

> <Gold.PLP.ligand.torsion>
0.1510

> <Gold.PLP.Chemscore.Hbond>
2.9600

> <Gold.PLP.Chemscore.CHOScore>
1.0000

> <Gold.PLP.Chemscore.Metal>
0.0000

> <Gold.Chemscore.Hbonds>
donor molecule, donor type, donor heavy atom, donor atom, acceptor molecule, acceptor atom, score
      L1  H     3    22       P1  7948  0.96
      L1  H     6    23       P1  7948  1.00
      L1  H    10    17       P1 10186  1.00
      L1  C    11    25       P1 10171  1.00

> <Gold.PLP.Chemscore.Internal.Correction>
0.0229

> <Gold.Rescore>
     Score         DG    S(hbond)    S(metal)    S(lipo)     H(rot)  DE(clash)    DE(int)     intcor
     16.10     -17.87       2.85        0.00      53.07       1.31       0.40       1.38       ----

> <Gold.Chemscore.Fitness>
16.0993

> <Gold.Chemscore.DG>
-17.8723

> <Gold.Chemscore.ZeroCoef>
-5.4800

> <Gold.Chemscore.Hbond>
2.8539

> <Gold.Chemscore.Metal>
0.0000

> <Gold.Chemscore.Lipo>
53.0658

> <Gold.Chemscore.Internal_Hbond>
0.0000

> <Gold.Chemscore.DEClash>
0.3962

> <Gold.Chemscore.DEInternal>
1.3769

> <Gold.Chemscore.Rot>
1.3079

> <Gold.Chemscore.Internal.Correction>
   9.000000E+99

> <Gold.Chemscore.Hbonds>
donor molecule, donor type, donor heavy atom, donor atom, acceptor molecule, acceptor atom, score
      L1  H     3    22       P1  7948  0.89
      L1  H     6    23       P1  7948  0.88
      L1  H    10    17       P1 10186  0.98

> <Gold.Chemscore.Hbond.Weighted>
-9.5320

> <Gold.Chemscore.Metal.Weighted>
-0.0000

> <Gold.Chemscore.Lipo.Weighted>
-6.2087

> <Gold.Chemscore.Internal_Hbond.Weighted>
0.0000

> <Gold.Chemscore.DEClash.Weighted>
0.3962

> <Gold.Chemscore.DEInternal.Weighted>
1.3769

> <Gold.Chemscore.Rot.Weighted>
3.3483

> <Gold.Chemscore.Internal.Correction.Weighted>
   9.000000E+99

> <Gold.Protein.RotatedTorsions>
[ 6907 6896 6895 6894 ] final  119.40 input  -60.11 | X-H torsion
[ 7974 7965 7964 7962 ] final   97.79 input  175.53 | X-H torsion
[ 8008 7997 7996 7995 ] final  120.14 input   59.86 | X-H torsion
[ 10167 10162 10161 10158 ] final -176.49 input  -65.29 | X-H torsion
[ 10718 10713 10712 10709 ] final  148.72 input   66.30 | X-H torsion
[ 10763 10752 10751 10750 ] final   21.95 input  -60.55 | X-H torsion
[ 11005 11000 10999 10996 ] final  -72.05 input  -57.11 | X-H torsion

> <Gold.Protein.ActiveResidues>
 VAL166  LYS551  ARG553  GLY616  TRP617  ASP618  TYR619  PRO620  LYS621  CYS622 
 ASP623  PHE694  ASN695  SER759  ASP760  ASP761  ALA762  ILE779  LEU786  VAL792 
 PHE793  MET794  SER795  GLU796  ALA797  LYS798  CYS799  TRP800  GLU811  SER814 

> <Gold.Protein.RotatedAtoms>
  152.4475  133.7564  159.6721 H   0  0  0  0  0  0  0  0  0  0  0  0  # atno 6907 bound_to 6896
  150.8378  133.7975  159.3079 H   0  0  0  0  0  0  0  0  0  0  0  0  # atno 6908 bound_to 6896
  151.5609  135.1068  160.0024 H   0  0  0  0  0  0  0  0  0  0  0  0  # atno 6909 bound_to 6896
  145.4208  139.2322  143.3197 H   0  0  0  0  0  0  0  0  0  0  0  0  # atno 7974 bound_to 7965
  156.2628  140.2837  156.1102 H   0  0  0  0  0  0  0  0  0  0  0  0  # atno 8008 bound_to 7997
  155.1266  140.0393  157.2781 H   0  0  0  0  0  0  0  0  0  0  0  0  # atno 8009 bound_to 7997
  154.6631  140.2571  155.7094 H   0  0  0  0  0  0  0  0  0  0  0  0  # atno 8010 bound_to 7997
  139.5527  144.2067  152.1106 H   0  0  0  0  0  0  0  0  0  0  0  0  # atno 10167 bound_to 10162
  157.3051  131.0878  151.1360 H   0  0  0  0  0  0  0  0  0  0  0  0  # atno 10718 bound_to 10713
  153.0954  135.6658  153.9774 H   0  0  0  0  0  0  0  0  0  0  0  0  # atno 10763 bound_to 10752
  153.9359  135.2999  155.3445 H   0  0  0  0  0  0  0  0  0  0  0  0  # atno 10764 bound_to 10752
  154.7372  135.5096  153.9135 H   0  0  0  0  0  0  0  0  0  0  0  0  # atno 10765 bound_to 10752
  141.1602  133.6835  156.6999 H   0  0  0  0  0  0  0  0  0  0  0  0  # atno 11005 bound_to 11000
  146.2658  140.4932  142.8835 LP  0  0  0  0  0  0  0  0  0  0  0  0  # atno 17320 bound_to 7965
  144.8247  140.6608  143.6330 LP  0  0  0  0  0  0  0  0  0  0  0  0  # atno 17321 bound_to 7965
  140.1566  144.5065  150.6657 LP  0  0  0  0  0  0  0  0  0  0  0  0  # atno 17342 bound_to 10162
  140.6794  143.2319  151.5424 LP  0  0  0  0  0  0  0  0  0  0  0  0  # atno 17343 bound_to 10162
  157.2704  130.6701  149.6016 LP  0  0  0  0  0  0  0  0  0  0  0  0  # atno 17370 bound_to 10713
  155.9674  130.4481  150.5606 LP  0  0  0  0  0  0  0  0  0  0  0  0  # atno 17371 bound_to 10713
  140.2966  134.8197  157.4062 LP  0  0  0  0  0  0  0  0  0  0  0  0  # atno 17394 bound_to 11000
  140.1299  134.5109  155.8114 LP  0  0  0  0  0  0  0  0  0  0  0  0  # atno 17395 bound_to 11000

$$$$
