#       Name:                AV-unprocessed.smi:2270
#       Creating user name   scv26
#       Creation time:       Fri Mar 27 12:36:33 2020


#       File generated by GOLD software.
#

@<TRIPOS>MOLECULE
AV-unprocessed.smi:2270
    57    58     1
SMALL
NO_CHARGES


@<TRIPOS>ATOM
      1 ****        -0.5515   3.6684  -5.1532 C.3            1 S1                 0.0000
      2 ****        -1.2542   3.7173  -3.8127 C.ar           1 S1                 0.0000
      3 ****        -1.9111   4.8864  -3.3815 C.ar           1 S1                 0.0000
      4 ****        -2.5487   4.8646  -2.1282 C.ar           1 S1                 0.0000
      5 ****        -2.5053   3.6825  -1.3639 C.ar           1 S1                 0.0000
      6 ****        -1.8255   2.5522  -1.8708 C.ar           1 S1                 0.0000
      7 ****        -1.8407   1.4112  -1.0255 N.am           1 S1                 0.0000
      8 ****        -1.2685   0.2132  -1.2384 C.2            1 S1                 0.0000
      9 ****        -0.6172  -0.1018  -2.2345 O.2            1 S1                 0.0000
     10 ****        -1.4802  -0.6161  -0.2064 N.am           1 S1                 0.0000
     11 ****        -1.0059  -1.9950  -0.1331 C.3            1 S1                 0.0000
     12 ****         0.5209  -2.1380   0.1473 C.3            1 S1                 0.0000
     13 ****         0.9778  -3.6239   0.2219 C.3            1 S1                 0.0000
     14 ****         2.4971  -3.7486   0.4547 C.3            1 S1                 0.0000
     15 ****         0.6012  -4.4328  -1.0344 C.3            1 S1                 0.0000
     16 ****         0.9896  -1.4052   1.3656 N.4            1 S1                 1.0000
     17 ****         0.1223  -1.4951   2.5674 C.3            1 S1                 0.0000
     18 ****         0.8635  -0.9314   3.7975 C.3            1 S1                 0.0000
     19 ****         1.3142   0.4468   3.5883 N.3            1 S1                 0.0000
     20 ****         0.2215   1.4138   3.5801 C.3            1 S1                 0.0000
     21 ****         2.1587   0.5238   2.3941 C.3            1 S1                 0.0000
     22 ****         1.4390  -0.0094   1.1381 C.3            1 S1                 0.0000
     23 ****        -1.2117   2.5837  -3.0797 N.ar           1 S1                 0.0000
     24 ****        -0.4420   4.6668  -5.5774 H              1 S1                 0.0000
     25 ****        -1.1218   3.0595  -5.8549 H              1 S1                 0.0000
     26 ****         0.4434   3.2340  -5.0500 H              1 S1                 0.0000
     27 ****        -1.9284   5.7766  -3.9930 H              1 S1                 0.0000
     28 ****        -3.0638   5.7391  -1.7588 H              1 S1                 0.0000
     29 ****        -2.9917   3.6495  -0.3998 H              1 S1                 0.0000
     30 ****        -2.3450   1.5226  -0.1586 H              1 S1                 0.0000
     31 ****        -2.0292  -0.2793   0.5713 H              1 S1                 0.0000
     32 ****        -1.5834  -2.5113   0.6340 H              1 S1                 0.0000
     33 ****        -1.2700  -2.4773  -1.0741 H              1 S1                 0.0000
     34 ****         1.0471  -1.7098  -0.7072 H              1 S1                 0.0000
     35 ****         0.4791  -4.0972   1.0683 H              1 S1                 0.0000
     36 ****         3.0609  -3.2577  -0.3394 H              1 S1                 0.0000
     37 ****         2.8058  -4.7942   0.4802 H              1 S1                 0.0000
     38 ****         2.8046  -3.3087   1.4035 H              1 S1                 0.0000
     39 ****         0.9813  -3.9597  -1.9405 H              1 S1                 0.0000
     40 ****        -0.4769  -4.5480  -1.1396 H              1 S1                 0.0000
     41 ****         1.0151  -5.4408  -0.9917 H              1 S1                 0.0000
     42 ****        -0.8153  -0.9619   2.4135 H              1 S1                 0.0000
     43 ****        -0.1375  -2.5369   2.7549 H              1 S1                 0.0000
     44 ****         0.2261  -0.9789   4.6810 H              1 S1                 0.0000
     45 ****         1.7350  -1.5515   4.0123 H              1 S1                 0.0000
     46 ****         0.6158   2.4264   3.4901 H              1 S1                 0.0000
     47 ****        -0.3369   1.3595   4.5150 H              1 S1                 0.0000
     48 ****        -0.4776   1.2515   2.7606 H              1 S1                 0.0000
     49 ****         2.4839   1.5533   2.2391 H              1 S1                 0.0000
     50 ****         3.0620  -0.0617   2.5713 H              1 S1                 0.0000
     51 ****         2.1308   0.0204   0.2958 H              1 S1                 0.0000
     52 ****         0.6026   0.6362   0.8782 H              1 S1                 0.0000
     53 ****         1.8383  -1.8888   1.6220 H              1 S1                 0.0000
     54 ****        -0.4783   0.5602  -2.9710 LP             1 S1                 0.0000
     55 ****        -0.2270  -1.0196  -2.3071 LP             1 S1                 0.0000
     56 ****         1.8717   0.7087   4.3761 LP             1 S1                 0.0000
     57 ****        -0.7328   1.7764  -3.4246 LP             1 S1                 0.0000
@<TRIPOS>BOND
    1    1    2 1     
    2    1   24 1     
    3    1   25 1     
    4    1   26 1     
    5    2   23 ar    
    6    2    3 ar    
    7    3    4 ar    
    8    3   27 1     
    9    4    5 ar    
   10    4   28 1     
   11    5    6 ar    
   12    5   29 1     
   13    6    7 1     
   14    6   23 ar    
   15    7    8 am    
   16    7   30 1     
   17    8    9 2     
   18    8   10 am    
   19   10   11 1     
   20   10   31 1     
   21   11   12 1     
   22   11   32 1     
   23   11   33 1     
   24   12   13 1     
   25   12   16 1     
   26   12   34 1     
   27   13   14 1     
   28   13   15 1     
   29   13   35 1     
   30   14   36 1     
   31   14   37 1     
   32   14   38 1     
   33   15   39 1     
   34   15   40 1     
   35   15   41 1     
   36   16   22 1     
   37   16   17 1     
   38   16   53 1     
   39   17   18 1     
   40   17   42 1     
   41   17   43 1     
   42   18   19 1     
   43   18   44 1     
   44   18   45 1     
   45   19   20 1     
   46   19   21 1     
   47   20   46 1     
   48   20   47 1     
   49   20   48 1     
   50   21   22 1     
   51   21   49 1     
   52   21   50 1     
   53   22   51 1     
   54   22   52 1     
   55    9   54 1     
   56    9   55 1     
   57   19   56 1     
   58   23   57 1     
@<TRIPOS>SUBSTRUCTURE
      1 S1             1
@<TRIPOS>SET
LONE_PAIRS      STATIC     ATOMS    <user>   **** ""
4 54 55 56 57
DONOR_HYDROGENS      STATIC     ATOMS    <user>   **** ""
3 30 31 53
ATOM$BLUE        STATIC     ATOMS    COLORGROUP SYSTEM
4 54 55 56 57
ATOM$RED        STATIC     ATOMS    COLORGROUP SYSTEM
3 30 31 53
