AV-unprocessed.smi:17|AV-procd|sdf|104|dock1
  -GOLD-   2262015253D 1   1.00000     0.00000
 Structure written by MMmdl.
 57 59  0  0  0  0  0  0  0  0  1 V2000
  147.8181  133.7783  161.8875 C   0  0  0  0  0  0  0  0  0  0  0  0
  148.1055  134.7319  160.7157 C   0  0  0  0  0  0  0  0  0  0  0  0
  147.2330  135.9081  160.6882 N   0  0  0  0  0  0  0  0  0  0  0  0
  147.5488  136.8459  159.7581 C   0  0  0  0  0  0  0  0  0  0  0  0
  146.5236  137.4308  159.0896 N   0  0  0  0  0  0  0  0  0  0  0  0
  146.7664  138.3534  158.1549 C   0  0  0  0  0  0  0  0  0  0  0  0
  147.9409  138.8280  157.7368 N   0  0  0  0  0  0  0  0  0  0  0  0
  148.9770  138.2369  158.3977 C   0  0  0  0  0  0  0  0  0  0  0  0
  148.8738  137.2421  159.4112 C   0  0  0  0  0  0  0  0  0  0  0  0
  150.1442  136.8802  159.8451 N   0  0  0  0  0  0  0  0  0  0  0  0
  150.9500  137.6174  159.1316 C   0  0  0  0  0  0  0  0  0  0  0  0
  150.3324  138.4762  158.2516 N   0  0  0  0  0  0  0  0  0  0  0  0
  150.9859  139.4005  157.3417 C   0  0  0  0  0  0  0  0  0  0  0  0
  151.0575  140.8644  157.8567 C   0  0  1  0  0  0  0  0  0  0  0  0
  149.6372  141.4792  157.8401 C   0  0  0  0  0  0  0  0  0  0  0  0
  149.6888  142.8912  157.8304 O   0  0  0  0  0  0  0  0  0  0  0  0
  151.7079  140.9791  159.2681 C   0  0  2  0  0  0  0  0  0  0  0  0
  152.0652  142.3944  159.6999 C   0  0  0  0  0  0  0  0  0  0  0  0
  153.0661  142.1502  160.8189 C   0  0  0  0  0  0  0  0  0  0  0  0
  153.8353  141.0501  160.3624 O   0  0  0  0  0  0  0  0  0  0  0  0
  153.0690  140.2809  159.4399 C   0  0  0  0  0  0  0  0  0  0  0  0
  146.7814  136.4151  161.9942 C   0  0  1  0  0  0  0  0  0  0  0  0
  147.9463  136.8046  162.9245 C   0  0  0  0  0  0  0  0  0  0  0  0
  145.7392  137.5510  161.8992 C   0  0  0  0  0  0  0  0  0  0  0  0
  144.0440  136.8983  161.5662 S   0  0  0  0  0  0  0  0  0  0  0  0
  143.7645  135.8177  163.0269 C   0  0  0  0  0  0  0  0  0  0  0  0
  143.0810  138.0082  161.6217 O   0  0  0  0  0  0  0  0  0  0  0  0
  144.1034  136.0525  160.3642 O   0  0  0  0  0  0  0  0  0  0  0  0
  148.5460  132.9673  161.9081 H   0  0  0  0  0  0  0  0  0  0  0  0
  146.8294  133.3250  161.8134 H   0  0  0  0  0  0  0  0  0  0  0  0
  147.8782  134.3016  162.8424 H   0  0  0  0  0  0  0  0  0  0  0  0
  149.1369  135.0749  160.8004 H   0  0  0  0  0  0  0  0  0  0  0  0
  148.0467  134.1922  159.7715 H   0  0  0  0  0  0  0  0  0  0  0  0
  145.8940  138.7702  157.6737 H   0  0  0  0  0  0  0  0  0  0  0  0
  152.0240  137.5622  159.2350 H   0  0  0  0  0  0  0  0  0  0  0  0
  151.9865  139.0049  157.1677 H   0  0  0  0  0  0  0  0  0  0  0  0
  150.4792  139.3688  156.3767 H   0  0  0  0  0  0  0  0  0  0  0  0
  151.6654  141.4481  157.1637 H   0  0  0  0  0  0  0  0  0  0  0  0
  149.0735  141.1316  156.9736 H   0  0  0  0  0  0  0  0  0  0  0  0
  149.0684  141.1995  158.7257 H   0  0  0  0  0  0  0  0  0  0  0  0
  149.2187  143.2037  157.0724 H   0  0  0  0  0  0  0  0  0  0  0  0
  151.0186  140.5720  160.0098 H   0  0  0  0  0  0  0  0  0  0  0  0
  152.5426  142.9372  158.8829 H   0  0  0  0  0  0  0  0  0  0  0  0
  151.2057  142.9716  160.0420 H   0  0  0  0  0  0  0  0  0  0  0  0
  153.6901  143.0198  161.0264 H   0  0  0  0  0  0  0  0  0  0  0  0
  152.5513  141.8689  161.7388 H   0  0  0  0  0  0  0  0  0  0  0  0
  152.9589  139.2625  159.8109 H   0  0  0  0  0  0  0  0  0  0  0  0
  153.6202  140.2424  158.5000 H   0  0  0  0  0  0  0  0  0  0  0  0
  146.2765  135.5818  162.4840 H   0  0  0  0  0  0  0  0  0  0  0  0
  147.5806  137.0493  163.9218 H   0  0  0  0  0  0  0  0  0  0  0  0
  148.4845  137.6773  162.5538 H   0  0  0  0  0  0  0  0  0  0  0  0
  148.6613  135.9892  163.0357 H   0  0  0  0  0  0  0  0  0  0  0  0
  145.6838  138.0811  162.8501 H   0  0  0  0  0  0  0  0  0  0  0  0
  145.9940  138.2949  161.1455 H   0  0  0  0  0  0  0  0  0  0  0  0
  142.7820  135.3530  162.9495 H   0  0  0  0  0  0  0  0  0  0  0  0
  143.8104  136.4164  163.9365 H   0  0  0  0  0  0  0  0  0  0  0  0
  144.5301  135.0431  163.0608 H   0  0  0  0  0  0  0  0  0  0  0  0
  1  2  1  0  0  0  0
  1 29  1  0  0  0  0
  1 30  1  0  0  0  0
  1 31  1  0  0  0  0
  2  3  1  0  0  0  0
  2 32  1  0  0  0  0
  2 33  1  0  0  0  0
  3  4  1  0  0  0  0
  3 22  1  0  0  0  0
  4  9  1  0  0  0  0
  4  5  2  0  0  0  0
  5  6  1  0  0  0  0
  6  7  2  0  0  0  0
  6 34  1  0  0  0  0
  7  8  1  0  0  0  0
  8 12  1  0  0  0  0
  8  9  2  0  0  0  0
  9 10  1  0  0  0  0
 10 11  2  0  0  0  0
 11 12  1  0  0  0  0
 11 35  1  0  0  0  0
 12 13  1  0  0  0  0
 13 14  1  0  0  0  0
 13 36  1  0  0  0  0
 13 37  1  0  0  0  0
 14 15  1  0  0  0  0
 14 17  1  0  0  0  0
 14 38  1  0  0  0  0
 15 16  1  0  0  0  0
 15 39  1  0  0  0  0
 15 40  1  0  0  0  0
 16 41  1  0  0  0  0
 17 21  1  0  0  0  0
 17 18  1  0  0  0  0
 17 42  1  0  0  0  0
 18 19  1  0  0  0  0
 18 43  1  0  0  0  0
 18 44  1  0  0  0  0
 19 20  1  0  0  0  0
 19 45  1  0  0  0  0
 19 46  1  0  0  0  0
 20 21  1  0  0  0  0
 21 47  1  0  0  0  0
 21 48  1  0  0  0  0
 22 23  1  0  0  0  0
 22 24  1  0  0  0  0
 22 49  1  0  0  0  0
 23 50  1  0  0  0  0
 23 51  1  0  0  0  0
 23 52  1  0  0  0  0
 24 25  1  0  0  0  0
 24 53  1  0  0  0  0
 24 54  1  0  0  0  0
 25 26  1  0  0  0  0
 25 27  2  0  0  0  0
 25 28  2  0  0  0  0
 26 55  1  0  0  0  0
 26 56  1  0  0  0  0
 26 57  1  0  0  0  0
M  END
> <s_m_source_file>
AV-unprocessed.smi

> <i_m_source_file_index>
17

> <i_lp_mmshare_version>
43012

> <i_f3d_flags>
0

> <s_epik_input>
W0NIM11TKD1PKSg9TylbQ0gyXVtDQEBIXShbQ0gzXSlOKFtDSDJdW0NIM10pYyhuW2NIXW4xKWMoYzEyKW5bY0hdbjJbQ0gyXVtDQEhdKFtDSDJdW09IXSlbQ0BASF0zW0NIMl1bQ0gyXU9bQ0gyXTM=

> <s_epik_cmdline>
J2VwaWtfcHl0aG9uJywgJy1waCcsICc3LjAnLCAnLXRuJywgJzgnLCAnLW1hJywgJzIwMCcsICctbWV0YWxfYmluZGluZycsICctaW1hZScsICc8aW5maWxlLm1hZT4nLCAnLW9tYWUnLCAnPG91dGZpbGUubWFlPic=

> <r_lp_tautomer_probability>
1

> <r_epik_Ionization_Penalty>
0.00119955

> <r_epik_Ionization_Penalty_Charging>
0

> <r_epik_Ionization_Penalty_Neutral>
0.00119955

> <r_epik_State_Penalty>
0.000665399

> <r_epik_Charging_Adjusted_Penalty>
0.000665399

> <i_epik_Tot_Q>
0

> <i_epik_Tot_abs_Q>
0

> <r_epik_Metal_State_Penalty>
-0

> <b_epik_Metal_Only>
0

> <s_lp_Force_Field>
OPLS_2005

> <r_lp_Energy>
33.8653

> <b_lp_Chiralities_Consistent>
1

> <s_lp_Variant>
AV-unprocessed.smi:17-6

> <Gold.Version>
5.8.1

> <Gold.Id.Protein>
6NUR|6NUR_protein|mol2

> <Gold.PLP.Fitness>
45.8728

> <Gold.PLP.PLP>
-42.2342

> <Gold.PLP.part.hbond>
-3.2935

> <Gold.PLP.part.metal>
0.0000

> <Gold.PLP.part.buried>
-5.2958

> <Gold.PLP.part.nonpolar>
-32.9959

> <Gold.PLP.part.repulsive>
0.0000

> <Gold.PLP.ligand.clash>
0.0000

> <Gold.PLP.ligand.torsion>
1.7979

> <Gold.PLP.Chemscore.Hbond>
1.8034

> <Gold.PLP.Chemscore.CHOScore>
0.0000

> <Gold.PLP.Chemscore.Metal>
0.0000

> <Gold.Chemscore.Hbonds>
donor molecule, donor type, donor heavy atom, donor atom, acceptor molecule, acceptor atom, score
      L1  H    16    41       P1  8028  0.82
      P1  H  6896  6907       L1    10  0.93

> <Gold.PLP.Chemscore.Internal.Correction>
1.8244

> <Gold.Rescore>
     Score         DG    S(hbond)    S(metal)    S(lipo)     H(rot)  DE(clash)    DE(int)     intcor
      9.06     -12.17       1.69        0.00      91.91       3.79       0.06       3.05       ----

> <Gold.Chemscore.Fitness>
9.0583

> <Gold.Chemscore.DG>
-12.1697

> <Gold.Chemscore.ZeroCoef>
-5.4800

> <Gold.Chemscore.Hbond>
1.6877

> <Gold.Chemscore.Metal>
0.0000

> <Gold.Chemscore.Lipo>
91.9119

> <Gold.Chemscore.Internal_Hbond>
0.0000

> <Gold.Chemscore.DEClash>
0.0592

> <Gold.Chemscore.DEInternal>
3.0521

> <Gold.Chemscore.Rot>
3.7894

> <Gold.Chemscore.Internal.Correction>
   9.000000E+99

> <Gold.Chemscore.Hbonds>
donor molecule, donor type, donor heavy atom, donor atom, acceptor molecule, acceptor atom, score
      L1  H    16    41       P1  8028  0.68
      P1  H  6896  6907       L1    10  0.44

> <Gold.Chemscore.Hbond.Weighted>
-5.6369

> <Gold.Chemscore.Metal.Weighted>
-0.0000

> <Gold.Chemscore.Lipo.Weighted>
-10.7537

> <Gold.Chemscore.Internal_Hbond.Weighted>
0.0000

> <Gold.Chemscore.DEClash.Weighted>
0.0592

> <Gold.Chemscore.DEInternal.Weighted>
3.0521

> <Gold.Chemscore.Rot.Weighted>
9.7010

> <Gold.Chemscore.Internal.Correction.Weighted>
   9.000000E+99

> <Gold.Protein.RotatedTorsions>
[ 6907 6896 6895 6894 ] final  -37.94 input  -60.11 | X-H torsion
[ 7974 7965 7964 7962 ] final   64.30 input  175.53 | X-H torsion
[ 8008 7997 7996 7995 ] final   20.66 input   59.86 | X-H torsion
[ 10167 10162 10161 10158 ] final  -49.38 input  -65.29 | X-H torsion
[ 10718 10713 10712 10709 ] final   23.25 input   66.30 | X-H torsion
[ 10763 10752 10751 10750 ] final   91.99 input  -60.55 | X-H torsion
[ 11005 11000 10999 10996 ] final  101.46 input  -57.11 | X-H torsion

> <Gold.Protein.ActiveResidues>
 VAL166  LYS551  ARG553  GLY616  TRP617  ASP618  TYR619  PRO620  LYS621  CYS622 
 ASP623  PHE694  ASN695  SER759  ASP760  ASP761  ALA762  ILE779  LEU786  VAL792 
 PHE793  MET794  SER795  GLU796  ALA797  LYS798  CYS799  TRP800  GLU811  SER814 

> <Gold.Protein.RotatedAtoms>
  151.0085  134.9378  159.7993 H   0  0  0  0  0  0  0  0  0  0  0  0  # atno 6907 bound_to 6896
  152.5296  134.3060  159.9106 H   0  0  0  0  0  0  0  0  0  0  0  0  # atno 6908 bound_to 6896
  151.3066  133.4057  159.2678 H   0  0  0  0  0  0  0  0  0  0  0  0  # atno 6909 bound_to 6896
  145.8518  139.3259  143.0871 H   0  0  0  0  0  0  0  0  0  0  0  0  # atno 7974 bound_to 7965
  154.9389  140.3050  155.5130 H   0  0  0  0  0  0  0  0  0  0  0  0  # atno 8008 bound_to 7997
  156.2997  140.2340  156.4393 H   0  0  0  0  0  0  0  0  0  0  0  0  # atno 8009 bound_to 7997
  154.8165  140.0425  157.1369 H   0  0  0  0  0  0  0  0  0  0  0  0  # atno 8010 bound_to 7997
  140.6687  143.2700  151.4207 H   0  0  0  0  0  0  0  0  0  0  0  0  # atno 10167 bound_to 10162
  157.1635  130.6728  149.6052 H   0  0  0  0  0  0  0  0  0  0  0  0  # atno 10718 bound_to 10713
  153.2142  135.4378  155.0415 H   0  0  0  0  0  0  0  0  0  0  0  0  # atno 10763 bound_to 10752
  154.8216  135.3340  154.7023 H   0  0  0  0  0  0  0  0  0  0  0  0  # atno 10764 bound_to 10752
  153.7459  135.7001  153.5012 H   0  0  0  0  0  0  0  0  0  0  0  0  # atno 10765 bound_to 10752
  139.8773  134.9184  156.4910 H   0  0  0  0  0  0  0  0  0  0  0  0  # atno 11005 bound_to 11000
  145.9349  140.9022  143.0337 LP  0  0  0  0  0  0  0  0  0  0  0  0  # atno 17320 bound_to 7965
  144.6729  140.1469  143.7433 LP  0  0  0  0  0  0  0  0  0  0  0  0  # atno 17321 bound_to 7965
  139.5947  144.1424  152.2129 LP  0  0  0  0  0  0  0  0  0  0  0  0  # atno 17342 bound_to 10162
  140.0789  144.5717  150.7137 LP  0  0  0  0  0  0  0  0  0  0  0  0  # atno 17343 bound_to 10162
  155.9750  130.4703  150.6426 LP  0  0  0  0  0  0  0  0  0  0  0  0  # atno 17370 bound_to 10713
  157.4110  131.0823  151.1221 LP  0  0  0  0  0  0  0  0  0  0  0  0  # atno 17371 bound_to 10713
  140.8658  133.8025  155.9313 LP  0  0  0  0  0  0  0  0  0  0  0  0  # atno 17394 bound_to 11000
  140.9003  134.2387  157.5045 LP  0  0  0  0  0  0  0  0  0  0  0  0  # atno 17395 bound_to 11000

$$$$
