AV-unprocessed.smi:2776|AV-procd|sdf|10706|dock2
  -GOLD-   2272015143D 1   1.00000     0.00000
 Structure written by MMmdl.
 26 27  0  0  0  0  0  0  0  0  2 V2000
  148.8655  142.4816  157.3344 O   0  0  0  0  0  0  0  0  0  0  0  0
  149.9998  141.6379  157.2710 C   0  0  2  0  0  0  0  0  0  0  0  0
  151.2890  142.4807  157.3611 C   0  0  0  0  0  0  0  0  0  0  0  0
  151.3348  143.3268  158.5628 N   0  0  0  0  0  0  0  0  0  0  0  0
  150.7456  144.5302  158.7999 C   0  0  0  0  0  0  0  0  0  0  0  0
  151.0861  144.9143  160.0613 N   0  3  0  0  0  0  0  0  0  0  0  0
  151.9065  143.9428  160.6390 C   0  0  0  0  0  0  0  0  0  0  0  0
  152.5035  143.8838  161.8942 C   0  0  0  0  0  0  0  0  0  0  0  0
  153.2893  142.7458  162.1712 C   0  0  0  0  0  0  0  0  0  0  0  0
  153.8938  142.6384  163.3780 F   0  0  0  0  0  0  0  0  0  0  0  0
  153.4579  141.7205  161.2165 C   0  0  0  0  0  0  0  0  0  0  0  0
  154.2228  140.6458  161.5217 F   0  0  0  0  0  0  0  0  0  0  0  0
  152.8461  141.7912  159.9475 C   0  0  0  0  0  0  0  0  0  0  0  0
  152.0706  142.9192  159.6821 C   0  0  0  0  0  0  0  0  0  0  0  0
  149.9264  140.7905  155.9863 C   0  0  0  0  0  0  0  0  0  0  0  0
  149.5495  141.5519  154.9589 F   0  0  0  0  0  0  0  0  0  0  0  0
  151.1054  140.2284  155.7174 F   0  0  0  0  0  0  0  0  0  0  0  0
  149.0186  139.8269  156.1409 F   0  0  0  0  0  0  0  0  0  0  0  0
  148.9914  143.1962  156.7282 H   0  0  0  0  0  0  0  0  0  0  0  0
  149.9552  140.9699  158.1322 H   0  0  0  0  0  0  0  0  0  0  0  0
  152.1595  141.8252  157.3996 H   0  0  0  0  0  0  0  0  0  0  0  0
  151.4183  143.1052  156.4770 H   0  0  0  0  0  0  0  0  0  0  0  0
  150.1211  145.0814  158.1114 H   0  0  0  0  0  0  0  0  0  0  0  0
  152.3784  144.6669  162.6273 H   0  0  0  0  0  0  0  0  0  0  0  0
  152.9875  141.0028  159.2233 H   0  0  0  0  0  0  0  0  0  0  0  0
  150.7805  145.7774  160.4928 H   0  0  0  0  0  0  0  0  0  0  0  0
  1  2  1  0  0  0  0
  1 19  1  0  0  0  0
  2  3  1  0  0  0  0
  2 15  1  0  0  0  0
  2 20  1  0  0  0  0
  3  4  1  0  0  0  0
  3 21  1  0  0  0  0
  3 22  1  0  0  0  0
  4 14  1  0  0  0  0
  4  5  1  0  0  0  0
  5  6  2  0  0  0  0
  5 23  1  0  0  0  0
  6  7  1  0  0  0  0
  6 26  1  0  0  0  0
  7 14  2  0  0  0  0
  7  8  1  0  0  0  0
  8  9  2  0  0  0  0
  8 24  1  0  0  0  0
  9 10  1  0  0  0  0
  9 11  1  0  0  0  0
 11 12  1  0  0  0  0
 11 13  2  0  0  0  0
 13 14  1  0  0  0  0
 13 25  1  0  0  0  0
 15 16  1  0  0  0  0
 15 17  1  0  0  0  0
 15 18  1  0  0  0  0
M  CHG  1   6   1
M  END
> <s_m_source_file>
AV-unprocessed.smi

> <i_m_source_file_index>
2776

> <i_lp_mmshare_version>
43012

> <i_f3d_flags>
0

> <s_epik_input>
RkMoRikoRilbQ0BIXShbT0hdKVtDSDJdbihbY0hdbjEpYyhjMTIpW2NIXWMoRiljKEYpW2NIXTI=

> <s_epik_cmdline>
J2VwaWtfcHl0aG9uJywgJy1waCcsICc3LjAnLCAnLXRuJywgJzgnLCAnLW1hJywgJzIwMCcsICctbWV0YWxfYmluZGluZycsICctaW1hZScsICc8aW5maWxlLm1hZT4nLCAnLW9tYWUnLCAnPG91dGZpbGUubWFlPic=

> <r_epik_Ionization_Penalty>
2.38424

> <r_epik_Ionization_Penalty_Charging>
2.37244

> <r_epik_Ionization_Penalty_Neutral>
0.0117937

> <r_epik_State_Penalty>
2.52832

> <r_epik_Charging_Adjusted_Penalty>
4.90076

> <i_epik_Tot_Q>
1

> <i_epik_Tot_abs_Q>
1

> <r_epik_Metal_State_Penalty>
6.61271

> <b_epik_Metal_Only>
0

> <s_lp_Force_Field>
OPLS_2005

> <r_lp_Energy>
13.8942

> <b_lp_Chiralities_Consistent>
1

> <s_lp_Variant>
AV-unprocessed.smi:2776-3

> <Gold.Version>
5.8.1

> <Gold.Id.Protein>
6NUR|6NUR_protein|mol2

> <Gold.PLP.Fitness>
51.3333

> <Gold.PLP.PLP>
-46.7819

> <Gold.PLP.part.hbond>
-1.0000

> <Gold.PLP.part.metal>
0.0000

> <Gold.PLP.part.buried>
-4.5165

> <Gold.PLP.part.nonpolar>
-40.1248

> <Gold.PLP.part.repulsive>
0.1577

> <Gold.PLP.ligand.clash>
0.0000

> <Gold.PLP.ligand.torsion>
0.7081

> <Gold.PLP.Chemscore.Hbond>
1.0000

> <Gold.PLP.Chemscore.CHOScore>
0.9769

> <Gold.PLP.Chemscore.Metal>
0.0000

> <Gold.Chemscore.Hbonds>
donor molecule, donor type, donor heavy atom, donor atom, acceptor molecule, acceptor atom, score
      L1  H     1    19       P1  8028  1.00
      L1  C     5    23       P1  8028  0.18
      L1  C     5    23       P1  8029  0.81

> <Gold.PLP.Chemscore.Internal.Correction>
0.0368

> <Gold.Rescore>
     Score         DG    S(hbond)    S(metal)    S(lipo)     H(rot)  DE(clash)    DE(int)     intcor
     12.74     -13.57       0.97        0.00      87.75       2.12       0.33       0.50       ----

> <Gold.Chemscore.Fitness>
12.7396

> <Gold.Chemscore.DG>
-13.5712

> <Gold.Chemscore.ZeroCoef>
-5.4800

> <Gold.Chemscore.Hbond>
0.9715

> <Gold.Chemscore.Metal>
0.0000

> <Gold.Chemscore.Lipo>
87.7495

> <Gold.Chemscore.Internal_Hbond>
0.0000

> <Gold.Chemscore.DEClash>
0.3302

> <Gold.Chemscore.DEInternal>
0.5014

> <Gold.Chemscore.Rot>
2.1173

> <Gold.Chemscore.Internal.Correction>
   9.000000E+99

> <Gold.Chemscore.Hbonds>
donor molecule, donor type, donor heavy atom, donor atom, acceptor molecule, acceptor atom, score
      L1  H     1    19       P1  8028  0.93

> <Gold.Chemscore.Hbond.Weighted>
-3.2447

> <Gold.Chemscore.Metal.Weighted>
-0.0000

> <Gold.Chemscore.Lipo.Weighted>
-10.2667

> <Gold.Chemscore.Internal_Hbond.Weighted>
0.0000

> <Gold.Chemscore.DEClash.Weighted>
0.3302

> <Gold.Chemscore.DEInternal.Weighted>
0.5014

> <Gold.Chemscore.Rot.Weighted>
5.4202

> <Gold.Chemscore.Internal.Correction.Weighted>
   9.000000E+99

> <Gold.Protein.RotatedTorsions>
[ 6907 6896 6895 6894 ] final -147.45 input  -60.11 | X-H torsion
[ 7974 7965 7964 7962 ] final   30.38 input  175.53 | X-H torsion
[ 8008 7997 7996 7995 ] final  -72.53 input   59.86 | X-H torsion
[ 10167 10162 10161 10158 ] final  109.03 input  -65.29 | X-H torsion
[ 10718 10713 10712 10709 ] final  -82.22 input   66.30 | X-H torsion
[ 10763 10752 10751 10750 ] final  -73.47 input  -60.55 | X-H torsion
[ 11005 11000 10999 10996 ] final  -85.22 input  -57.11 | X-H torsion

> <Gold.Protein.ActiveResidues>
 VAL166  LYS551  ARG553  GLY616  TRP617  ASP618  TYR619  PRO620  LYS621  CYS622 
 ASP623  PHE694  ASN695  SER759  ASP760  ASP761  ALA762  ILE779  LEU786  VAL792 
 PHE793  MET794  SER795  GLU796  ALA797  LYS798  CYS799  TRP800  GLU811  SER814 

> <Gold.Protein.RotatedAtoms>
  151.1558  133.4877  159.2594 H   0  0  0  0  0  0  0  0  0  0  0  0  # atno 6907 bound_to 6896
  151.1506  135.0225  159.8676 H   0  0  0  0  0  0  0  0  0  0  0  0  # atno 6908 bound_to 6896
  152.5463  134.1442  159.8545 H   0  0  0  0  0  0  0  0  0  0  0  0  # atno 6909 bound_to 6896
  146.1615  139.6797  142.9030 H   0  0  0  0  0  0  0  0  0  0  0  0  # atno 7974 bound_to 7965
  154.5174  140.0795  156.8107 H   0  0  0  0  0  0  0  0  0  0  0  0  # atno 8008 bound_to 7997
  155.3650  140.3420  155.4223 H   0  0  0  0  0  0  0  0  0  0  0  0  # atno 8009 bound_to 7997
  156.1643  140.1598  156.8546 H   0  0  0  0  0  0  0  0  0  0  0  0  # atno 8010 bound_to 7997
  139.6798  144.7119  151.1535 H   0  0  0  0  0  0  0  0  0  0  0  0  # atno 10167 bound_to 10162
  156.0036  130.4628  150.4072 H   0  0  0  0  0  0  0  0  0  0  0  0  # atno 10718 bound_to 10713
  154.4598  135.5896  153.6248 H   0  0  0  0  0  0  0  0  0  0  0  0  # atno 10763 bound_to 10752
  152.9822  135.6041  154.3500 H   0  0  0  0  0  0  0  0  0  0  0  0  # atno 10764 bound_to 10752
  154.3370  135.2842  155.2421 H   0  0  0  0  0  0  0  0  0  0  0  0  # atno 10765 bound_to 10752
  141.1643  133.7387  156.8983 H   0  0  0  0  0  0  0  0  0  0  0  0  # atno 11005 bound_to 11000
  145.4575  141.0431  143.2770 LP  0  0  0  0  0  0  0  0  0  0  0  0  # atno 17320 bound_to 7965
  144.8034  139.6098  143.7061 LP  0  0  0  0  0  0  0  0  0  0  0  0  # atno 17321 bound_to 7965
  140.7648  143.5716  150.8990 LP  0  0  0  0  0  0  0  0  0  0  0  0  # atno 17342 bound_to 10162
  139.9387  143.6407  152.3059 LP  0  0  0  0  0  0  0  0  0  0  0  0  # atno 17343 bound_to 10162
  157.2137  131.0466  151.2585 LP  0  0  0  0  0  0  0  0  0  0  0  0  # atno 17370 bound_to 10713
  157.3864  130.7259  149.6666 LP  0  0  0  0  0  0  0  0  0  0  0  0  # atno 17371 bound_to 10713
  140.1601  134.9172  157.2703 LP  0  0  0  0  0  0  0  0  0  0  0  0  # atno 17394 bound_to 11000
  140.2622  134.3558  155.7402 LP  0  0  0  0  0  0  0  0  0  0  0  0  # atno 17395 bound_to 11000

$$$$
