#       Name:                AV-unprocessed.smi:279
#       Creating user name   scv26
#       Creation time:       Thu Mar 26 21:37:45 2020


#       File generated by GOLD software.
#

@<TRIPOS>MOLECULE
AV-unprocessed.smi:279
    57    61     1
SMALL
NO_CHARGES


@<TRIPOS>ATOM
      1 ****        -6.0123   2.7849  -1.5903 O.2            1 S1                 0.0000
      2 ****        -6.5385   1.5809  -0.9288 S.o2           1 S1                 0.0000
      3 ****        -7.7967   1.6286  -0.1685 O.2            1 S1                 0.0000
      4 ****        -6.6274   0.2170  -2.1458 C.3            1 S1                 0.0000
      5 ****        -5.2809  -0.5040  -2.0390 C.3            1 S1                 0.0000
      6 ****        -4.8520  -0.5290  -0.5567 C.3            1 S1                 0.0000
      7 ****        -3.3342  -0.6737  -0.3537 C.3            1 S1                 0.0000
      8 ****        -2.8773   0.5689   0.2552 N.pl3          1 S1                 0.0000
      9 ****        -1.5607   0.9078   0.2154 C.ar           1 S1                 0.0000
     10 ****        -1.2255   2.2256   0.2449 N.ar           1 S1                 0.0000
     11 ****         0.0544   2.6048   0.2040 C.ar           1 S1                 0.0000
     12 ****         1.1469   1.8434   0.1423 N.ar           1 S1                 0.0000
     13 ****         0.8253   0.5186   0.1290 C.ar           1 S1                 0.0000
     14 ****        -0.4888  -0.0331   0.1581 C.ar           1 S1                 0.0000
     15 ****        -0.4091  -1.4216   0.1231 N.2            1 S1                 0.0000
     16 ****         0.8697  -1.6728   0.0624 C.2            1 S1                 0.0000
     17 ****         1.6849  -0.5652   0.0901 N.pl3          1 S1                 0.0000
     18 ****         3.1153  -0.5483  -0.0028 C.3            1 S1                 0.0000
     19 ****         3.9626  -1.7005   0.5423 C.3            1 S1                 0.0000
     20 ****         5.0865  -0.6974   0.8893 C.3            1 S1                 0.0000
     21 ****         5.7846  -0.9258   2.2404 C.3            1 S1                 0.0000
     22 ****         6.4715   0.2336   2.6664 O.3            1 S1                 0.0000
     23 ****         6.1545  -0.4996  -0.2056 C.3            1 S1                 0.0000
     24 ****         6.8939  -1.6835  -0.4252 O.3            1 S1                 0.0000
     25 ****         3.9567   0.3557   0.9011 C.3            1 S1                 0.0000
     26 ****        -3.9062   1.5873   0.1091 C.3            1 S1                 0.0000
     27 ****        -5.2214   0.8075   0.0992 C.3            1 S1                 0.0000
     28 ****        -5.3846  -1.3366  -0.0526 H              1 S1                 0.0000
     29 ****        -5.5886   0.6539   1.1145 H              1 S1                 0.0000
     30 ****        -7.4437  -0.4447  -1.8550 H              1 S1                 0.0000
     31 ****        -6.8296   0.6103  -3.1420 H              1 S1                 0.0000
     32 ****        -5.3243  -1.5067  -2.4650 H              1 S1                 0.0000
     33 ****        -4.5462   0.0565  -2.6190 H              1 S1                 0.0000
     34 ****        -3.1237  -1.5048   0.3201 H              1 S1                 0.0000
     35 ****        -2.8176  -0.8639  -1.2955 H              1 S1                 0.0000
     36 ****         0.2273   3.6707   0.2248 H              1 S1                 0.0000
     37 ****         1.2539  -2.6807   0.0021 H              1 S1                 0.0000
     38 ****         3.3447  -0.3647  -1.0539 H              1 S1                 0.0000
     39 ****         3.5188  -2.1636   1.4258 H              1 S1                 0.0000
     40 ****         4.2265  -2.4548  -0.1996 H              1 S1                 0.0000
     41 ****         5.0588  -1.1832   3.0123 H              1 S1                 0.0000
     42 ****         6.4877  -1.7577   2.1938 H              1 S1                 0.0000
     43 ****         6.8792   0.0516   3.4995 H              1 S1                 0.0000
     44 ****         5.6995  -0.2126  -1.1536 H              1 S1                 0.0000
     45 ****         6.8456   0.3036   0.0508 H              1 S1                 0.0000
     46 ****         7.5346  -1.5157  -1.0994 H              1 S1                 0.0000
     47 ****         4.2207   1.3170   0.4590 H              1 S1                 0.0000
     48 ****         3.5089   0.4906   1.8878 H              1 S1                 0.0000
     49 ****        -3.8794   2.3152   0.9207 H              1 S1                 0.0000
     50 ****        -3.7438   2.1116  -0.8330 H              1 S1                 0.0000
     51 ****        -1.9451   2.9180   0.2978 LP             1 S1                 0.0000
     52 ****         2.0813   2.1980   0.1100 LP             1 S1                 0.0000
     53 ****        -1.1624  -2.0791   0.1406 LP             1 S1                 0.0000
     54 ****         5.8260   0.9909   2.7651 LP             1 S1                 0.0000
     55 ****         7.1710   0.4772   1.9946 LP             1 S1                 0.0000
     56 ****         6.2792  -2.4157  -0.7185 LP             1 S1                 0.0000
     57 ****         7.3558  -1.9544   0.4194 LP             1 S1                 0.0000
@<TRIPOS>BOND
    1    1    2 2     
    2    2   27 1     
    3    2    3 2     
    4    2    4 1     
    5    4    5 1     
    6    4   30 1     
    7    4   31 1     
    8    5    6 1     
    9    5   32 1     
   10    5   33 1     
   11    6   28 1     
   12    6   27 1     
   13    6    7 1     
   14    7    8 1     
   15    7   34 1     
   16    7   35 1     
   17    8    9 1     
   18    8   26 1     
   19    9   14 ar    
   20    9   10 ar    
   21   10   11 ar    
   22   11   12 ar    
   23   11   36 1     
   24   12   13 ar    
   25   13   17 1     
   26   13   14 ar    
   27   14   15 1     
   28   15   16 2     
   29   16   17 1     
   30   16   37 1     
   31   17   18 1     
   32   18   25 1     
   33   18   19 1     
   34   18   38 1     
   35   19   20 1     
   36   19   39 1     
   37   19   40 1     
   38   20   21 1     
   39   20   23 1     
   40   20   25 1     
   41   21   22 1     
   42   21   41 1     
   43   21   42 1     
   44   22   43 1     
   45   23   24 1     
   46   23   44 1     
   47   23   45 1     
   48   24   46 1     
   49   25   47 1     
   50   25   48 1     
   51   26   27 1     
   52   26   49 1     
   53   26   50 1     
   54   27   29 1     
   55   10   51 1     
   56   12   52 1     
   57   15   53 1     
   58   22   54 1     
   59   22   55 1     
   60   24   56 1     
   61   24   57 1     
@<TRIPOS>SUBSTRUCTURE
      1 S1             1
@<TRIPOS>SET
LONE_PAIRS      STATIC     ATOMS    <user>   **** ""
9 1 3 51 52 53 54 55 56 57
DONOR_HYDROGENS      STATIC     ATOMS    <user>   **** ""
2 43 46
ATOM$BLUE        STATIC     ATOMS    COLORGROUP SYSTEM
9 1 3 51 52 53 54 55 56 57
ATOM$RED        STATIC     ATOMS    COLORGROUP SYSTEM
2 43 46
