#       Name:                AV-unprocessed.smi:24
#       Creating user name   scv26
#       Creation time:       Thu Mar 26 15:43:57 2020


#       File generated by GOLD software.
#

@<TRIPOS>MOLECULE
AV-unprocessed.smi:24
    72    76     1
SMALL
NO_CHARGES


@<TRIPOS>ATOM
      1 ****        -5.7453  -0.1638   1.6260 C.3            1 S1                 0.0000
      2 ****        -5.0975   0.9829   2.1573 O.3            1 S1                 0.0000
      3 ****        -3.7195   0.9934   2.1862 C.ar           1 S1                 0.0000
      4 ****        -3.0978   2.1533   2.6909 C.ar           1 S1                 0.0000
      5 ****        -1.6946   2.2536   2.7489 C.ar           1 S1                 0.0000
      6 ****        -0.8854   1.1913   2.2986 C.ar           1 S1                 0.0000
      7 ****         0.6355   1.3255   2.3643 C.3            1 S1                 0.0000
      8 ****         1.2183   0.7002   3.6348 C.3            1 S1                 0.0000
      9 ****         2.1982  -0.2729   3.0696 C.2            1 S1                 0.0000
     10 ****         3.0301  -1.1348   3.9388 C.ar           1 S1                 0.0000
     11 ****         3.9096  -2.0719   3.3499 C.ar           1 S1                 0.0000
     12 ****         4.7077  -2.8874   4.1759 C.ar           1 S1                 0.0000
     13 ****         4.6286  -2.7678   5.5775 C.ar           1 S1                 0.0000
     14 ****         3.7499  -1.8328   6.1598 C.ar           1 S1                 0.0000
     15 ****         2.9461  -1.0117   5.3443 C.ar           1 S1                 0.0000
     16 ****         2.2400  -0.2806   1.7888 N.2            1 S1                 0.0000
     17 ****         1.3653   0.6311   1.2949 N.am           1 S1                 0.0000
     18 ****         1.2694   0.9280  -0.0201 C.2            1 S1                 0.0000
     19 ****         0.5671   1.8546  -0.4290 O.2            1 S1                 0.0000
     20 ****         2.0753   0.0753  -1.0227 C.3            1 S1                 0.0000
     21 ****         1.7039   0.3212  -2.4331 N.am           1 S1                 0.0000
     22 ****         2.4418   1.2731  -3.1790 C.2            1 S1                 0.0000
     23 ****         3.3840   1.8877  -2.6770 O.2            1 S1                 0.0000
     24 ****         2.0033   1.4703  -4.5562 C.2            1 S1                 0.0000
     25 ****         2.6532   2.3451  -5.3425 F              1 S1                 0.0000
     26 ****         0.9530   0.7874  -5.0566 C.2            1 S1                 0.0000
     27 ****         0.2314  -0.1275  -4.3108 N.am           1 S1                 0.0000
     28 ****        -0.9553  -0.8736  -4.8815 C.3            1 S1                 0.0000
     29 ****        -2.2726  -0.2828  -4.3462 C.3            1 S1                 0.0000
     30 ****        -3.0798  -0.0718  -5.6112 C.3            1 S1                 0.0000
     31 ****        -1.9893   0.1937  -6.6381 C.3            1 S1                 0.0000
     32 ****        -0.9784  -0.7377  -6.2745 O.3            1 S1                 0.0000
     33 ****         0.5993  -0.3805  -2.9719 C.2            1 S1                 0.0000
     34 ****        -0.0351  -1.1876  -2.2883 O.2            1 S1                 0.0000
     35 ****        -1.5010   0.0195   1.8058 C.ar           1 S1                 0.0000
     36 ****        -2.9044  -0.0791   1.7453 C.ar           1 S1                 0.0000
     37 ****        -6.8242  -0.0120   1.6537 H              1 S1                 0.0000
     38 ****        -5.5225  -1.0553   2.2140 H              1 S1                 0.0000
     39 ****        -5.4634  -0.3359   0.5863 H              1 S1                 0.0000
     40 ****        -3.7044   2.9783   3.0347 H              1 S1                 0.0000
     41 ****        -1.2410   3.1542   3.1362 H              1 S1                 0.0000
     42 ****         0.9019   2.3836   2.3248 H              1 S1                 0.0000
     43 ****         1.7108   1.4476   4.2579 H              1 S1                 0.0000
     44 ****         0.4622   0.1878   4.2316 H              1 S1                 0.0000
     45 ****         3.9859  -2.1780   2.2773 H              1 S1                 0.0000
     46 ****         5.3825  -3.6053   3.7333 H              1 S1                 0.0000
     47 ****         5.2434  -3.3943   6.2069 H              1 S1                 0.0000
     48 ****         3.6929  -1.7445   7.2349 H              1 S1                 0.0000
     49 ****         2.2823  -0.3018   5.8148 H              1 S1                 0.0000
     50 ****         3.1376   0.2562  -0.8528 H              1 S1                 0.0000
     51 ****         1.9425  -0.9815  -0.7841 H              1 S1                 0.0000
     52 ****         0.6816   0.9785  -6.0833 H              1 S1                 0.0000
     53 ****        -0.7991  -1.9232  -4.6259 H              1 S1                 0.0000
     54 ****        -2.7479  -0.9617  -3.6377 H              1 S1                 0.0000
     55 ****        -2.0848   0.6718  -3.8518 H              1 S1                 0.0000
     56 ****        -3.6218  -0.9828  -5.8680 H              1 S1                 0.0000
     57 ****        -3.7980   0.7446  -5.5299 H              1 S1                 0.0000
     58 ****        -2.3267   0.0397  -7.6631 H              1 S1                 0.0000
     59 ****        -1.6123   1.2133  -6.5479 H              1 S1                 0.0000
     60 ****        -0.9005  -0.8116   1.4660 H              1 S1                 0.0000
     61 ****        -3.3316  -0.9903   1.3552 H              1 S1                 0.0000
     62 ****        -5.4154   1.0943   3.0988 LP             1 S1                 0.0000
     63 ****        -5.3893   1.7686   1.6118 LP             1 S1                 0.0000
     64 ****         2.8291  -0.8703   1.2362 LP             1 S1                 0.0000
     65 ****         0.0474   2.4116   0.2188 LP             1 S1                 0.0000
     66 ****         0.5169   2.0494  -1.4086 LP             1 S1                 0.0000
     67 ****         3.6409   1.7187  -1.7255 LP             1 S1                 0.0000
     68 ****         3.8919   2.5556  -3.2211 LP             1 S1                 0.0000
     69 ****        -1.1744  -1.6242  -6.6936 LP             1 S1                 0.0000
     70 ****        -0.0897  -0.4077  -6.5929 LP             1 S1                 0.0000
     71 ****         0.2287  -1.3543  -1.3383 LP             1 S1                 0.0000
     72 ****        -0.8132  -1.6753  -2.6841 LP             1 S1                 0.0000
@<TRIPOS>BOND
    1    1    2 1     
    2    1   37 1     
    3    1   38 1     
    4    1   39 1     
    5    2    3 1     
    6    3   36 ar    
    7    3    4 ar    
    8    4    5 ar    
    9    4   40 1     
   10    5    6 ar    
   11    5   41 1     
   12    6    7 1     
   13    6   35 ar    
   14    7   17 1     
   15    7    8 1     
   16    7   42 1     
   17    8    9 1     
   18    8   43 1     
   19    8   44 1     
   20    9   10 1     
   21    9   16 2     
   22   10   15 ar    
   23   10   11 ar    
   24   11   12 ar    
   25   11   45 1     
   26   12   13 ar    
   27   12   46 1     
   28   13   14 ar    
   29   13   47 1     
   30   14   15 ar    
   31   14   48 1     
   32   15   49 1     
   33   16   17 1     
   34   17   18 am    
   35   18   19 2     
   36   18   20 1     
   37   20   21 1     
   38   20   50 1     
   39   20   51 1     
   40   21   33 am    
   41   21   22 am    
   42   22   23 2     
   43   22   24 1     
   44   24   25 1     
   45   24   26 2     
   46   26   27 1     
   47   26   52 1     
   48   27   28 1     
   49   27   33 am    
   50   28   32 1     
   51   28   29 1     
   52   28   53 1     
   53   29   30 1     
   54   29   54 1     
   55   29   55 1     
   56   30   31 1     
   57   30   56 1     
   58   30   57 1     
   59   31   32 1     
   60   31   58 1     
   61   31   59 1     
   62   33   34 2     
   63   35   36 ar    
   64   35   60 1     
   65   36   61 1     
   66    2   62 1     
   67    2   63 1     
   68   16   64 1     
   69   19   65 1     
   70   19   66 1     
   71   23   67 1     
   72   23   68 1     
   73   32   69 1     
   74   32   70 1     
   75   34   71 1     
   76   34   72 1     
@<TRIPOS>SUBSTRUCTURE
      1 S1             1
@<TRIPOS>SET
LONE_PAIRS      STATIC     ATOMS    <user>   **** ""
11 62 63 64 65 66 67 68 69 70 71 72
ATOM$BLUE        STATIC     ATOMS    COLORGROUP SYSTEM
11 62 63 64 65 66 67 68 69 70 71 72
