#       Name:                AV-unprocessed.smi:1444
#       Creating user name   scv26
#       Creation time:       Fri Mar 27 05:56:02 2020


#       File generated by GOLD software.
#

@<TRIPOS>MOLECULE
AV-unprocessed.smi:1444
    51    52     1
SMALL
NO_CHARGES


@<TRIPOS>ATOM
      1 ****        -6.1074  -0.3613  -1.6410 C.3            1 S1                 0.0000
      2 ****        -4.7706   0.0006  -1.3116 O.3            1 S1                 0.0000
      3 ****        -4.5332   1.2677  -0.8130 C.ar           1 S1                 0.0000
      4 ****        -5.5845   2.1156  -0.6840 N.ar           1 S1                 0.0000
      5 ****        -5.3579   3.3503  -0.1915 C.ar           1 S1                 0.0000
      6 ****        -4.0847   3.8003   0.2013 C.ar           1 S1                 0.0000
      7 ****        -2.9922   2.9231   0.0682 C.ar           1 S1                 0.0000
      8 ****        -3.2108   1.6266  -0.4598 C.ar           1 S1                 0.0000
      9 ****        -2.1900   0.6489  -0.6302 N.am           1 S1                 0.0000
     10 ****        -0.8541   0.7972  -0.6127 C.2            1 S1                 0.0000
     11 ****        -0.2530   1.8572  -0.4423 O.2            1 S1                 0.0000
     12 ****        -0.2388  -0.3771  -0.8150 N.am           1 S1                 0.0000
     13 ****         1.2071  -0.5862  -0.8517 C.3            1 S1                 0.0000
     14 ****         1.4859  -1.7386  -1.8297 C.3            1 S1                 0.0000
     15 ****         1.7143  -0.8121   0.5945 C.3            1 S1                 0.0000
     16 ****         3.1644  -0.7490   0.8013 N.3            1 S1                 0.0000
     17 ****         3.8296  -2.0273   0.5469 C.3            1 S1                 0.0000
     18 ****         5.3457  -1.9500   0.7992 C.3            1 S1                 0.0000
     19 ****         5.5865  -1.5257   2.1362 O.3            1 S1                 0.0000
     20 ****         4.9898  -0.2663   2.4245 C.3            1 S1                 0.0000
     21 ****         3.4743  -0.3439   2.1704 C.3            1 S1                 0.0000
     22 ****        -6.1235  -1.3877  -2.0070 H              1 S1                 0.0000
     23 ****        -6.5122   0.2766  -2.4279 H              1 S1                 0.0000
     24 ****        -6.7601  -0.3124  -0.7682 H              1 S1                 0.0000
     25 ****        -6.2184   3.9968  -0.1027 H              1 S1                 0.0000
     26 ****        -3.9494   4.7950   0.5996 H              1 S1                 0.0000
     27 ****        -2.0198   3.2635   0.3851 H              1 S1                 0.0000
     28 ****        -2.5249  -0.2811  -0.8354 H              1 S1                 0.0000
     29 ****        -0.8155  -1.1946  -0.9500 H              1 S1                 0.0000
     30 ****         1.6777   0.3126  -1.2548 H              1 S1                 0.0000
     31 ****         2.5331  -1.7692  -2.1249 H              1 S1                 0.0000
     32 ****         0.9168  -1.6145  -2.7520 H              1 S1                 0.0000
     33 ****         1.2162  -2.7043  -1.4010 H              1 S1                 0.0000
     34 ****         1.2563  -0.0295   1.2017 H              1 S1                 0.0000
     35 ****         1.3172  -1.7461   0.9949 H              1 S1                 0.0000
     36 ****         3.4008  -2.8005   1.1863 H              1 S1                 0.0000
     37 ****         3.6711  -2.3547  -0.4755 H              1 S1                 0.0000
     38 ****         5.8058  -2.9267   0.6478 H              1 S1                 0.0000
     39 ****         5.8196  -1.2599   0.0993 H              1 S1                 0.0000
     40 ****         5.1873  -0.0087   3.4650 H              1 S1                 0.0000
     41 ****         5.4457   0.5104   1.8087 H              1 S1                 0.0000
     42 ****         3.0317   0.6312   2.3771 H              1 S1                 0.0000
     43 ****         3.0256  -1.0456   2.8754 H              1 S1                 0.0000
     44 ****        -4.2252  -0.0958  -2.1442 LP             1 S1                 0.0000
     45 ****        -4.4491  -0.6516  -0.6252 LP             1 S1                 0.0000
     46 ****        -6.5062   1.8314  -0.9481 LP             1 S1                 0.0000
     47 ****        -0.7644   2.7049  -0.3010 LP             1 S1                 0.0000
     48 ****         0.7469   1.8710  -0.4451 LP             1 S1                 0.0000
     49 ****         3.5042  -0.0750   0.1453 LP             1 S1                 0.0000
     50 ****         6.5739  -1.4523   2.2763 LP             1 S1                 0.0000
     51 ****         5.2109  -2.2092   2.7620 LP             1 S1                 0.0000
@<TRIPOS>BOND
    1    1    2 1     
    2    1   22 1     
    3    1   23 1     
    4    1   24 1     
    5    2    3 1     
    6    3    8 ar    
    7    3    4 ar    
    8    4    5 ar    
    9    5    6 ar    
   10    5   25 1     
   11    6    7 ar    
   12    6   26 1     
   13    7    8 ar    
   14    7   27 1     
   15    8    9 1     
   16    9   10 am    
   17    9   28 1     
   18   10   11 2     
   19   10   12 am    
   20   12   13 1     
   21   12   29 1     
   22   13   14 1     
   23   13   15 1     
   24   13   30 1     
   25   14   31 1     
   26   14   32 1     
   27   14   33 1     
   28   15   16 1     
   29   15   34 1     
   30   15   35 1     
   31   16   21 1     
   32   16   17 1     
   33   17   18 1     
   34   17   36 1     
   35   17   37 1     
   36   18   19 1     
   37   18   38 1     
   38   18   39 1     
   39   19   20 1     
   40   20   21 1     
   41   20   40 1     
   42   20   41 1     
   43   21   42 1     
   44   21   43 1     
   45    2   44 1     
   46    2   45 1     
   47    4   46 1     
   48   11   47 1     
   49   11   48 1     
   50   16   49 1     
   51   19   50 1     
   52   19   51 1     
@<TRIPOS>SUBSTRUCTURE
      1 S1             1
@<TRIPOS>SET
LONE_PAIRS      STATIC     ATOMS    <user>   **** ""
8 44 45 46 47 48 49 50 51
DONOR_HYDROGENS      STATIC     ATOMS    <user>   **** ""
2 28 29
ATOM$BLUE        STATIC     ATOMS    COLORGROUP SYSTEM
8 44 45 46 47 48 49 50 51
ATOM$RED        STATIC     ATOMS    COLORGROUP SYSTEM
2 28 29
