AV-unprocessed.smi:691|AV-procd|sdf|3365|dock7
  -GOLD-   22720 0343D 1   1.00000     0.00000
 Structure written by MMmdl.
 37 38  0  0  0  0  0  0  0  0  1 V2000
  143.8708  133.6475  151.6574 C   0  0  0  0  0  0  0  0  0  0  0  0
  145.2404  134.3562  151.5217 C   0  0  2  0  0  0  0  0  0  0  0  0
  145.1000  135.5678  150.5612 C   0  0  0  0  0  0  0  0  0  0  0  0
  144.2373  136.5573  151.0859 O   0  0  0  0  0  0  0  0  0  0  0  0
  146.3073  133.3598  151.0351 C   0  0  0  0  0  0  0  0  0  0  0  0
  146.7282  132.5567  152.2683 C   0  0  0  0  0  0  0  0  0  0  0  0
  146.4489  133.4581  153.4778 C   0  0  0  0  0  0  0  0  0  0  0  0
  145.7573  134.7260  152.9407 C   0  0  1  0  0  0  0  0  0  0  0  0
  146.7230  135.8284  152.9351 N   0  0  0  0  0  0  0  0  0  0  0  0
  146.5512  137.0259  153.5140 C   0  0  0  0  0  0  0  0  0  0  0  0
  145.5352  137.3426  154.1315 O   0  0  0  0  0  0  0  0  0  0  0  0
  147.6284  137.8083  153.3294 N   0  0  0  0  0  0  0  0  0  0  0  0
  147.8569  139.1398  153.7740 C   0  0  0  0  0  0  0  0  0  0  0  0
  149.1146  139.6515  154.1780 C   0  0  0  0  0  0  0  0  0  0  0  0
  149.1980  140.9896  154.6096 C   0  0  0  0  0  0  0  0  0  0  0  0
  148.0233  141.7658  154.6271 C   0  0  0  0  0  0  0  0  0  0  0  0
  146.8167  141.2891  154.2562 N   0  0  0  0  0  0  0  0  0  0  0  0
  146.7445  140.0055  153.8441 C   0  0  0  0  0  0  0  0  0  0  0  0
  143.5306  133.2386  150.7057 H   0  0  0  0  0  0  0  0  0  0  0  0
  143.1050  134.3400  152.0083 H   0  0  0  0  0  0  0  0  0  0  0  0
  143.9048  132.8192  152.3653 H   0  0  0  0  0  0  0  0  0  0  0  0
  146.0748  136.0183  150.3715 H   0  0  0  0  0  0  0  0  0  0  0  0
  144.6949  135.2676  149.5948 H   0  0  0  0  0  0  0  0  0  0  0  0
  144.0199  137.1636  150.3944 H   0  0  0  0  0  0  0  0  0  0  0  0
  145.9540  132.7196  150.2259 H   0  0  0  0  0  0  0  0  0  0  0  0
  147.1735  133.9045  150.6566 H   0  0  0  0  0  0  0  0  0  0  0  0
  146.1315  131.6464  152.3418 H   0  0  0  0  0  0  0  0  0  0  0  0
  147.7747  132.2548  152.2133 H   0  0  0  0  0  0  0  0  0  0  0  0
  145.7899  132.9387  154.1747 H   0  0  0  0  0  0  0  0  0  0  0  0
  147.3644  133.6859  154.0260 H   0  0  0  0  0  0  0  0  0  0  0  0
  144.9224  134.9834  153.5953 H   0  0  0  0  0  0  0  0  0  0  0  0
  147.5929  135.6592  152.4519 H   0  0  0  0  0  0  0  0  0  0  0  0
  148.4035  137.3809  152.8437 H   0  0  0  0  0  0  0  0  0  0  0  0
  150.0109  139.0522  154.1792 H   0  0  0  0  0  0  0  0  0  0  0  0
  150.1421  141.4100  154.9233 H   0  0  0  0  0  0  0  0  0  0  0  0
  148.0531  142.7951  154.9532 H   0  0  0  0  0  0  0  0  0  0  0  0
  145.7624  139.6585  153.5575 H   0  0  0  0  0  0  0  0  0  0  0  0
  1  2  1  0  0  0  0
  1 19  1  0  0  0  0
  1 20  1  0  0  0  0
  1 21  1  0  0  0  0
  2  8  1  0  0  0  0
  2  3  1  0  0  0  0
  2  5  1  0  0  0  0
  3  4  1  0  0  0  0
  3 22  1  0  0  0  0
  3 23  1  0  0  0  0
  4 24  1  0  0  0  0
  5  6  1  0  0  0  0
  5 25  1  0  0  0  0
  5 26  1  0  0  0  0
  6  7  1  0  0  0  0
  6 27  1  0  0  0  0
  6 28  1  0  0  0  0
  7  8  1  0  0  0  0
  7 29  1  0  0  0  0
  7 30  1  0  0  0  0
  8  9  1  0  0  0  0
  8 31  1  0  0  0  0
  9 10  1  0  0  0  0
  9 32  1  0  0  0  0
 10 11  2  0  0  0  0
 10 12  1  0  0  0  0
 12 13  1  0  0  0  0
 12 33  1  0  0  0  0
 13 18  1  0  0  0  0
 13 14  2  0  0  0  0
 14 15  1  0  0  0  0
 14 34  1  0  0  0  0
 15 16  2  0  0  0  0
 15 35  1  0  0  0  0
 16 17  1  0  0  0  0
 16 36  1  0  0  0  0
 17 18  2  0  0  0  0
 18 37  1  0  0  0  0
M  END
> <s_m_source_file>
AV-unprocessed.smi

> <i_m_source_file_index>
691

> <i_lp_mmshare_version>
43012

> <i_f3d_flags>
0

> <s_epik_input>
W09IXVtDSDJdW0NAXTEoW0NIM10pW0NIMl1bQ0gyXVtDSDJdW0NASF0xW05IXUMoPU8pW05IXWMyW2NIXVtjSF1bY0hdbltjSF0y

> <s_epik_cmdline>
J2VwaWtfcHl0aG9uJywgJy1waCcsICc3LjAnLCAnLXRuJywgJzgnLCAnLW1hJywgJzIwMCcsICctbWV0YWxfYmluZGluZycsICctaW1hZScsICc8aW5maWxlLm1hZT4nLCAnLW9tYWUnLCAnPG91dGZpbGUubWFlPic=

> <r_epik_Ionization_Penalty>
0.00496828

> <r_epik_Ionization_Penalty_Charging>
0

> <r_epik_Ionization_Penalty_Neutral>
0.00496828

> <r_epik_State_Penalty>
0.00358054

> <r_epik_Charging_Adjusted_Penalty>
0.00358054

> <i_epik_Tot_Q>
0

> <i_epik_Tot_abs_Q>
0

> <r_epik_Metal_State_Penalty>
-0

> <b_epik_Metal_Only>
0

> <s_lp_Force_Field>
OPLS_2005

> <r_lp_Energy>
30.5868

> <b_lp_Chiralities_Consistent>
1

> <s_lp_Variant>
AV-unprocessed.smi:691-2

> <Gold.Version>
5.8.1

> <Gold.Id.Protein>
6NUR|6NUR_protein|mol2

> <Gold.PLP.Fitness>
41.6777

> <Gold.PLP.PLP>
-27.2295

> <Gold.PLP.part.hbond>
-2.4989

> <Gold.PLP.part.metal>
0.0000

> <Gold.PLP.part.buried>
-1.6827

> <Gold.PLP.part.nonpolar>
-23.6390

> <Gold.PLP.part.repulsive>
0.2710

> <Gold.PLP.ligand.clash>
0.0000

> <Gold.PLP.ligand.torsion>
0.2809

> <Gold.PLP.Chemscore.Hbond>
3.0000

> <Gold.PLP.Chemscore.CHOScore>
2.0000

> <Gold.PLP.Chemscore.Metal>
0.0000

> <Gold.Chemscore.Hbonds>
donor molecule, donor type, donor heavy atom, donor atom, acceptor molecule, acceptor atom, score
      L1  H     4    24       P1 10171  1.00
      L1  H     9    32       P1  7948  1.00
      L1  H    12    33       P1  7948  1.00
      L1  C    16    36       P1  8028  1.00
      L1  C    18    37       P1 10175  1.00

> <Gold.PLP.Chemscore.Internal.Correction>
0.0100

> <Gold.Rescore>
     Score         DG    S(hbond)    S(metal)    S(lipo)     H(rot)  DE(clash)    DE(int)     intcor
     16.82     -18.39       2.89        0.00      66.82       1.78       0.09       1.47       ----

> <Gold.Chemscore.Fitness>
16.8229

> <Gold.Chemscore.DG>
-18.3875

> <Gold.Chemscore.ZeroCoef>
-5.4800

> <Gold.Chemscore.Hbond>
2.8910

> <Gold.Chemscore.Metal>
0.0000

> <Gold.Chemscore.Lipo>
66.8212

> <Gold.Chemscore.Internal_Hbond>
0.0000

> <Gold.Chemscore.DEClash>
0.0914

> <Gold.Chemscore.DEInternal>
1.4732

> <Gold.Chemscore.Rot>
1.7838

> <Gold.Chemscore.Internal.Correction>
   9.000000E+99

> <Gold.Chemscore.Hbonds>
donor molecule, donor type, donor heavy atom, donor atom, acceptor molecule, acceptor atom, score
      L1  H     4    24       P1 10171  0.91
      L1  H     9    32       P1  7948  0.91
      L1  H    12    33       P1  7948  0.93

> <Gold.Chemscore.Hbond.Weighted>
-9.6560

> <Gold.Chemscore.Metal.Weighted>
-0.0000

> <Gold.Chemscore.Lipo.Weighted>
-7.8181

> <Gold.Chemscore.Internal_Hbond.Weighted>
0.0000

> <Gold.Chemscore.DEClash.Weighted>
0.0914

> <Gold.Chemscore.DEInternal.Weighted>
1.4732

> <Gold.Chemscore.Rot.Weighted>
4.5666

> <Gold.Chemscore.Internal.Correction.Weighted>
   9.000000E+99

> <Gold.Protein.RotatedTorsions>
[ 6907 6896 6895 6894 ] final -134.94 input  -60.11 | X-H torsion
[ 7974 7965 7964 7962 ] final   77.59 input  175.53 | X-H torsion
[ 8008 7997 7996 7995 ] final  115.41 input   59.86 | X-H torsion
[ 10167 10162 10161 10158 ] final  -19.95 input  -65.29 | X-H torsion
[ 10718 10713 10712 10709 ] final   50.65 input   66.30 | X-H torsion
[ 10763 10752 10751 10750 ] final  -25.58 input  -60.55 | X-H torsion
[ 11005 11000 10999 10996 ] final  -26.53 input  -57.11 | X-H torsion

> <Gold.Protein.ActiveResidues>
 VAL166  LYS551  ARG553  GLY616  TRP617  ASP618  TYR619  PRO620  LYS621  CYS622 
 ASP623  PHE694  ASN695  SER759  ASP760  ASP761  ALA762  ILE779  LEU786  VAL792 
 PHE793  MET794  SER795  GLU796  ALA797  LYS798  CYS799  TRP800  GLU811  SER814 

> <Gold.Protein.RotatedAtoms>
  150.9919  133.6141  159.2706 H   0  0  0  0  0  0  0  0  0  0  0  0  # atno 6907 bound_to 6896
  151.3359  135.0851  159.9364 H   0  0  0  0  0  0  0  0  0  0  0  0  # atno 6908 bound_to 6896
  152.5248  133.9540  159.7740 H   0  0  0  0  0  0  0  0  0  0  0  0  # atno 6909 bound_to 6896
  145.6881  139.2544  143.1775 H   0  0  0  0  0  0  0  0  0  0  0  0  # atno 7974 bound_to 7965
  156.2380  140.2939  156.0365 H   0  0  0  0  0  0  0  0  0  0  0  0  # atno 8008 bound_to 7997
  155.2035  140.0410  157.2938 H   0  0  0  0  0  0  0  0  0  0  0  0  # atno 8009 bound_to 7997
  154.6114  140.2453  155.7671 H   0  0  0  0  0  0  0  0  0  0  0  0  # atno 8010 bound_to 7997
  140.7272  143.4769  151.0170 H   0  0  0  0  0  0  0  0  0  0  0  0  # atno 10167 bound_to 10162
  157.4905  130.8373  149.8197 H   0  0  0  0  0  0  0  0  0  0  0  0  # atno 10718 bound_to 10713
  153.7021  135.6955  153.5060 H   0  0  0  0  0  0  0  0  0  0  0  0  # atno 10763 bound_to 10752
  153.2335  135.4330  155.0620 H   0  0  0  0  0  0  0  0  0  0  0  0  # atno 10764 bound_to 10752
  154.8341  135.3490  154.6560 H   0  0  0  0  0  0  0  0  0  0  0  0  # atno 10765 bound_to 10752
  140.9037  133.7506  156.0578 H   0  0  0  0  0  0  0  0  0  0  0  0  # atno 11005 bound_to 11000
  146.0906  140.7660  142.9597 LP  0  0  0  0  0  0  0  0  0  0  0  0  # atno 17320 bound_to 7965
  144.7005  140.3631  143.7160 LP  0  0  0  0  0  0  0  0  0  0  0  0  # atno 17321 bound_to 7965
  139.8465  143.7495  152.3179 LP  0  0  0  0  0  0  0  0  0  0  0  0  # atno 17342 bound_to 10162
  139.7662  144.7491  151.0292 LP  0  0  0  0  0  0  0  0  0  0  0  0  # atno 17343 bound_to 10162
  156.0171  130.3809  150.2078 LP  0  0  0  0  0  0  0  0  0  0  0  0  # atno 17370 bound_to 10713
  157.0266  130.9995  151.3324 LP  0  0  0  0  0  0  0  0  0  0  0  0  # atno 17371 bound_to 10713
  140.8197  134.3303  157.5385 LP  0  0  0  0  0  0  0  0  0  0  0  0  # atno 17394 bound_to 11000
  139.8746  134.9302  156.3496 LP  0  0  0  0  0  0  0  0  0  0  0  0  # atno 17395 bound_to 11000

$$$$
