AV-unprocessed.smi:2104|AV-procd|sdf|8589|dock3
  -GOLD-   2272011323D 1   1.00000     0.00000
 Structure written by MMmdl.
 42 43  0  0  0  0  0  0  0  0  2 V2000
  146.6018  133.5266  162.1000 C   0  0  0  0  0  0  0  0  0  0  0  0
  147.3070  134.4958  161.2148 C   0  0  0  0  0  0  0  0  0  0  0  0
  147.6106  135.8215  161.3436 C   0  0  0  0  0  0  0  0  0  0  0  0
  148.2842  136.1192  160.1278 C   0  0  0  0  0  0  0  0  0  0  0  0
  148.7903  137.3106  159.7749 N   0  5  0  0  0  0  0  0  0  0  0  0
  149.8523  137.3732  158.9391 C   0  0  0  0  0  0  0  0  0  0  0  0
  150.5086  136.4163  158.5212 O   0  0  0  0  0  0  0  0  0  0  0  0
  150.1864  138.6222  158.5836 N   0  0  0  0  0  0  0  0  0  0  0  0
  151.3585  139.0050  157.8021 C   0  0  0  0  0  0  0  0  0  0  0  0
  151.5068  140.5329  157.7437 C   0  0  0  0  0  0  0  0  0  0  0  0
  151.9257  141.0075  159.0140 O   0  0  0  0  0  0  0  0  0  0  0  0
  153.0074  141.9297  158.9883 C   0  0  2  0  0  0  0  0  0  0  0  0
  153.8438  141.6895  160.2587 C   0  0  0  0  0  0  0  0  0  0  0  0
  153.0607  142.0415  161.5356 C   0  0  0  0  0  0  0  0  0  0  0  0
  152.5337  143.4832  161.4882 C   0  0  0  0  0  0  0  0  0  0  0  0
  151.6902  143.7278  160.2272 C   0  0  0  0  0  0  0  0  0  0  0  0
  152.4747  143.3837  158.9453 C   0  0  2  0  0  0  0  0  0  0  0  0
  151.6535  143.6874  157.6831 C   0  0  0  0  0  0  0  0  0  0  0  0
  148.3947  135.0632  159.3387 N   0  0  0  0  0  0  0  0  0  0  0  0
  147.7652  134.0191  160.0262 O   0  0  0  0  0  0  0  0  0  0  0  0
  147.3170  132.9544  162.6910 H   0  0  0  0  0  0  0  0  0  0  0  0
  146.0073  132.8253  161.5140 H   0  0  0  0  0  0  0  0  0  0  0  0
  145.9324  134.0451  162.7868 H   0  0  0  0  0  0  0  0  0  0  0  0
  147.3827  136.4767  162.1709 H   0  0  0  0  0  0  0  0  0  0  0  0
  149.6149  139.3721  158.9440 H   0  0  0  0  0  0  0  0  0  0  0  0
  152.2644  138.5403  158.1943 H   0  0  0  0  0  0  0  0  0  0  0  0
  151.2226  138.6151  156.7935 H   0  0  0  0  0  0  0  0  0  0  0  0
  152.2519  140.8117  156.9977 H   0  0  0  0  0  0  0  0  0  0  0  0
  150.5615  140.9860  157.4429 H   0  0  0  0  0  0  0  0  0  0  0  0
  153.6484  141.7488  158.1230 H   0  0  0  0  0  0  0  0  0  0  0  0
  154.1707  140.6500  160.2981 H   0  0  0  0  0  0  0  0  0  0  0  0
  154.7503  142.2942  160.2140 H   0  0  0  0  0  0  0  0  0  0  0  0
  152.2239  141.3518  161.6548 H   0  0  0  0  0  0  0  0  0  0  0  0
  153.6972  141.9072  162.4104 H   0  0  0  0  0  0  0  0  0  0  0  0
  151.9387  143.6907  162.3780 H   0  0  0  0  0  0  0  0  0  0  0  0
  153.3727  144.1799  161.5073 H   0  0  0  0  0  0  0  0  0  0  0  0
  150.7784  143.1313  160.2764 H   0  0  0  0  0  0  0  0  0  0  0  0
  151.3698  144.7698  160.2008 H   0  0  0  0  0  0  0  0  0  0  0  0
  153.3451  144.0409  158.9132 H   0  0  0  0  0  0  0  0  0  0  0  0
  150.7276  143.1130  157.6609 H   0  0  0  0  0  0  0  0  0  0  0  0
  152.2170  143.4526  156.7800 H   0  0  0  0  0  0  0  0  0  0  0  0
  151.3832  144.7425  157.6378 H   0  0  0  0  0  0  0  0  0  0  0  0
  1  2  1  0  0  0  0
  1 21  1  0  0  0  0
  1 22  1  0  0  0  0
  1 23  1  0  0  0  0
  2 20  1  0  0  0  0
  2  3  2  0  0  0  0
  3  4  1  0  0  0  0
  3 24  1  0  0  0  0
  4  5  1  0  0  0  0
  4 19  2  0  0  0  0
  5  6  1  0  0  0  0
  6  7  2  0  0  0  0
  6  8  1  0  0  0  0
  8  9  1  0  0  0  0
  8 25  1  0  0  0  0
  9 10  1  0  0  0  0
  9 26  1  0  0  0  0
  9 27  1  0  0  0  0
 10 11  1  0  0  0  0
 10 28  1  0  0  0  0
 10 29  1  0  0  0  0
 11 12  1  0  0  0  0
 12 17  1  0  0  0  0
 12 13  1  0  0  0  0
 12 30  1  0  0  0  0
 13 14  1  0  0  0  0
 13 31  1  0  0  0  0
 13 32  1  0  0  0  0
 14 15  1  0  0  0  0
 14 33  1  0  0  0  0
 14 34  1  0  0  0  0
 15 16  1  0  0  0  0
 15 35  1  0  0  0  0
 15 36  1  0  0  0  0
 16 17  1  0  0  0  0
 16 37  1  0  0  0  0
 16 38  1  0  0  0  0
 17 18  1  0  0  0  0
 17 39  1  0  0  0  0
 18 40  1  0  0  0  0
 18 41  1  0  0  0  0
 18 42  1  0  0  0  0
 19 20  1  0  0  0  0
M  CHG  1   5  -1
M  END
> <s_m_source_file>
AV-unprocessed.smi

> <i_m_source_file_index>
2104

> <i_lp_mmshare_version>
43012

> <i_f3d_flags>
0

> <s_epik_input>
W0NIM11jMVtjSF1jKG5vMSlbTkhdQyg9TylbTkhdW0NIMl1bQ0gyXU9bQ0BASF0yW0NIMl1bQ0gyXVtDSDJdW0NIMl1bQ0BIXTJbQ0gzXQ==

> <s_epik_cmdline>
J2VwaWtfcHl0aG9uJywgJy1waCcsICc3LjAnLCAnLXRuJywgJzgnLCAnLW1hJywgJzIwMCcsICctbWV0YWxfYmluZGluZycsICctaW1hZScsICc8aW5maWxlLm1hZT4nLCAnLW9tYWUnLCAnPG91dGZpbGUubWFlPic=

> <r_lp_tautomer_probability>
1

> <r_epik_Ionization_Penalty>
6.47137

> <r_epik_Ionization_Penalty_Charging>
6.47125

> <r_epik_Ionization_Penalty_Neutral>
0.000118933

> <r_epik_State_Penalty>
6.47124

> <r_epik_Charging_Adjusted_Penalty>
12.9425

> <i_epik_Tot_Q>
-1

> <i_epik_Tot_abs_Q>
1

> <r_epik_Metal_State_Penalty>
2.3995

> <b_epik_Metal_Only>
1

> <s_lp_Force_Field>
OPLS_2005

> <r_lp_Energy>
3.94735

> <b_lp_Chiralities_Consistent>
1

> <s_lp_Variant>
AV-unprocessed.smi:2104-7

> <Gold.Version>
5.8.1

> <Gold.Id.Protein>
6NUR|6NUR_protein|mol2

> <Gold.PLP.Fitness>
50.0188

> <Gold.PLP.PLP>
-46.5836

> <Gold.PLP.part.hbond>
-3.7300

> <Gold.PLP.part.metal>
0.0000

> <Gold.PLP.part.buried>
-5.0080

> <Gold.PLP.part.nonpolar>
-39.0970

> <Gold.PLP.part.repulsive>
0.2045

> <Gold.PLP.ligand.clash>
0.0000

> <Gold.PLP.ligand.torsion>
1.0030

> <Gold.PLP.Chemscore.Hbond>
1.7200

> <Gold.PLP.Chemscore.CHOScore>
0.0000

> <Gold.PLP.Chemscore.Metal>
0.0000

> <Gold.Chemscore.Hbonds>
donor molecule, donor type, donor heavy atom, donor atom, acceptor molecule, acceptor atom, score
      P1  H  6896  6909       L1     7  0.94
      P1  H  6931  6943       L1     5  0.23

> <Gold.PLP.Chemscore.Internal.Correction>
0.2811

> <Gold.Rescore>
     Score         DG    S(hbond)    S(metal)    S(lipo)     H(rot)  DE(clash)    DE(int)     intcor
     17.14     -19.44       1.60        0.00     111.13       1.71       0.12       2.18       ----

> <Gold.Chemscore.Fitness>
17.1355

> <Gold.Chemscore.DG>
-19.4370

> <Gold.Chemscore.ZeroCoef>
-5.4800

> <Gold.Chemscore.Hbond>
1.5968

> <Gold.Chemscore.Metal>
0.0000

> <Gold.Chemscore.Lipo>
111.1274

> <Gold.Chemscore.Internal_Hbond>
0.0000

> <Gold.Chemscore.DEClash>
0.1210

> <Gold.Chemscore.DEInternal>
2.1804

> <Gold.Chemscore.Rot>
1.7103

> <Gold.Chemscore.Internal.Correction>
   9.000000E+99

> <Gold.Chemscore.Hbonds>
donor molecule, donor type, donor heavy atom, donor atom, acceptor molecule, acceptor atom, score
      P1  H  6896  6909       L1     7  0.87
      P1  H  6931  6943       L1     5  0.03

> <Gold.Chemscore.Hbond.Weighted>
-5.3334

> <Gold.Chemscore.Metal.Weighted>
-0.0000

> <Gold.Chemscore.Lipo.Weighted>
-13.0019

> <Gold.Chemscore.Internal_Hbond.Weighted>
0.0000

> <Gold.Chemscore.DEClash.Weighted>
0.1210

> <Gold.Chemscore.DEInternal.Weighted>
2.1804

> <Gold.Chemscore.Rot.Weighted>
4.3784

> <Gold.Chemscore.Internal.Correction.Weighted>
   9.000000E+99

> <Gold.Protein.RotatedTorsions>
[ 6907 6896 6895 6894 ] final   83.87 input  -60.11 | X-H torsion
[ 7974 7965 7964 7962 ] final  -79.09 input  175.53 | X-H torsion
[ 8008 7997 7996 7995 ] final -167.48 input   59.86 | X-H torsion
[ 10167 10162 10161 10158 ] final -149.64 input  -65.29 | X-H torsion
[ 10718 10713 10712 10709 ] final  177.27 input   66.30 | X-H torsion
[ 10763 10752 10751 10750 ] final   -3.89 input  -60.55 | X-H torsion
[ 11005 11000 10999 10996 ] final -123.65 input  -57.11 | X-H torsion

> <Gold.Protein.ActiveResidues>
 VAL166  LYS551  ARG553  GLY616  TRP617  ASP618  TYR619  PRO620  LYS621  CYS622 
 ASP623  PHE694  ASN695  SER759  ASP760  ASP761  ALA762  ILE779  LEU786  VAL792 
 PHE793  MET794  SER795  GLU796  ALA797  LYS798  CYS799  TRP800  GLU811  SER814 

> <Gold.Protein.RotatedAtoms>
  152.5338  134.2829  159.9013 H   0  0  0  0  0  0  0  0  0  0  0  0  # atno 6907 bound_to 6896
  151.2783  133.4215  159.2633 H   0  0  0  0  0  0  0  0  0  0  0  0  # atno 6908 bound_to 6896
  151.0306  134.9552  159.8166 H   0  0  0  0  0  0  0  0  0  0  0  0  # atno 6909 bound_to 6896
  145.5779  140.9454  143.1360 H   0  0  0  0  0  0  0  0  0  0  0  0  # atno 7974 bound_to 7965
  155.8783  140.1005  157.1503 H   0  0  0  0  0  0  0  0  0  0  0  0  # atno 8008 bound_to 7997
  154.4003  140.1334  156.4228 H   0  0  0  0  0  0  0  0  0  0  0  0  # atno 8009 bound_to 7997
  155.7672  140.3462  155.5230 H   0  0  0  0  0  0  0  0  0  0  0  0  # atno 8010 bound_to 7997
  139.7424  143.8642  152.2566 H   0  0  0  0  0  0  0  0  0  0  0  0  # atno 10167 bound_to 10162
  156.9078  130.9900  151.3025 H   0  0  0  0  0  0  0  0  0  0  0  0  # atno 10718 bound_to 10713
  153.3774  135.6997  153.6591 H   0  0  0  0  0  0  0  0  0  0  0  0  # atno 10763 bound_to 10752
  153.5216  135.3611  155.2635 H   0  0  0  0  0  0  0  0  0  0  0  0  # atno 10764 bound_to 10752
  154.8688  135.4159  154.3065 H   0  0  0  0  0  0  0  0  0  0  0  0  # atno 10765 bound_to 10752
  140.9902  134.0549  157.3663 H   0  0  0  0  0  0  0  0  0  0  0  0  # atno 11005 bound_to 11000
  144.7407  139.7456  143.7312 LP  0  0  0  0  0  0  0  0  0  0  0  0  # atno 17320 bound_to 7965
  146.1737  139.4899  142.9911 LP  0  0  0  0  0  0  0  0  0  0  0  0  # atno 17321 bound_to 7965
  139.8596  144.7124  150.9115 LP  0  0  0  0  0  0  0  0  0  0  0  0  # atno 17342 bound_to 10162
  140.7787  143.3829  151.1445 LP  0  0  0  0  0  0  0  0  0  0  0  0  # atno 17343 bound_to 10162
  157.5986  130.8496  149.8768 LP  0  0  0  0  0  0  0  0  0  0  0  0  # atno 17370 bound_to 10713
  156.0551  130.3710  150.1111 LP  0  0  0  0  0  0  0  0  0  0  0  0  # atno 17371 bound_to 10713
  139.8989  135.0156  156.7170 LP  0  0  0  0  0  0  0  0  0  0  0  0  # atno 17394 bound_to 11000
  140.7051  133.9272  155.8049 LP  0  0  0  0  0  0  0  0  0  0  0  0  # atno 17395 bound_to 11000

$$$$
