AV-unprocessed.smi:1203|AV-procd|sdf|5035|dock2
  -GOLD-   22720 4 63D 1   1.00000     0.00000
 Structure written by MMmdl.
 40 41  0  0  0  0  0  0  0  0  2 V2000
  147.5195  133.0281  159.4366 C   0  0  0  0  0  0  0  0  0  0  0  0
  148.2421  133.8545  157.9611 S   0  0  0  0  0  0  0  0  0  0  0  0
  147.1496  134.1942  157.0367 O   0  0  0  0  0  0  0  0  0  0  0  0
  149.1773  134.8988  158.4055 O   0  0  0  0  0  0  0  0  0  0  0  0
  149.1693  132.5926  157.2256 N   0  0  0  0  0  0  0  0  0  0  0  0
  150.0554  131.7841  158.0734 C   0  0  0  0  0  0  0  0  0  0  0  0
  151.1135  131.2130  157.1341 C   0  0  0  0  0  0  0  0  0  0  0  0
  151.2491  132.2965  156.0742 C   0  0  0  0  0  0  0  0  0  0  0  0
  149.8279  132.8707  155.9378 C   0  0  1  0  0  0  0  0  0  0  0  0
  149.0557  132.3006  154.7410 C   0  0  0  0  0  0  0  0  0  0  0  0
  148.8370  131.0921  154.6519 O   0  0  0  0  0  0  0  0  0  0  0  0
  148.6290  133.1929  153.8350 N   0  0  0  0  0  0  0  0  0  0  0  0
  147.8674  132.8766  152.6308 C   0  0  0  0  0  0  0  0  0  0  0  0
  146.4524  133.4897  152.6309 C   0  0  0  0  0  0  0  0  0  0  0  0
  145.5897  133.0415  151.4631 C   0  0  0  0  0  0  0  0  0  0  0  0
  146.0550  132.0611  150.5591 C   0  0  0  0  0  0  0  0  0  0  0  0
  145.2348  131.6697  149.4806 C   0  0  0  0  0  0  0  0  0  0  0  0
  143.9653  132.2646  149.3327 C   0  0  0  0  0  0  0  0  0  0  0  0
  143.5525  133.1969  150.2191 N   0  3  0  0  0  0  0  0  0  0  0  0
  144.3098  133.6025  151.2617 C   0  0  0  0  0  0  0  0  0  0  0  0
  146.8421  133.7166  159.9414 H   0  0  0  0  0  0  0  0  0  0  0  0
  148.3170  132.7434  160.1229 H   0  0  0  0  0  0  0  0  0  0  0  0
  146.9742  132.1375  159.1281 H   0  0  0  0  0  0  0  0  0  0  0  0
  150.5253  132.4242  158.8212 H   0  0  0  0  0  0  0  0  0  0  0  0
  149.4952  131.0057  158.5919 H   0  0  0  0  0  0  0  0  0  0  0  0
  152.0544  130.9939  157.6395 H   0  0  0  0  0  0  0  0  0  0  0  0
  150.7505  130.2896  156.6808 H   0  0  0  0  0  0  0  0  0  0  0  0
  151.9259  133.0757  156.4279 H   0  0  0  0  0  0  0  0  0  0  0  0
  151.6613  131.9105  155.1406 H   0  0  0  0  0  0  0  0  0  0  0  0
  149.9123  133.9511  155.8059 H   0  0  0  0  0  0  0  0  0  0  0  0
  148.8463  134.1663  153.9941 H   0  0  0  0  0  0  0  0  0  0  0  0
  148.4311  133.2681  151.7838 H   0  0  0  0  0  0  0  0  0  0  0  0
  147.8144  131.7958  152.4905 H   0  0  0  0  0  0  0  0  0  0  0  0
  145.9432  133.2358  153.5611 H   0  0  0  0  0  0  0  0  0  0  0  0
  146.5262  134.5780  152.6187 H   0  0  0  0  0  0  0  0  0  0  0  0
  147.0310  131.6161  150.6876 H   0  0  0  0  0  0  0  0  0  0  0  0
  145.5749  130.9242  148.7768 H   0  0  0  0  0  0  0  0  0  0  0  0
  143.2737  132.0261  148.5379 H   0  0  0  0  0  0  0  0  0  0  0  0
  143.8734  134.3611  151.8952 H   0  0  0  0  0  0  0  0  0  0  0  0
  142.6305  133.6149  150.0941 H   0  0  0  0  0  0  0  0  0  0  0  0
  1  2  1  0  0  0  0
  1 21  1  0  0  0  0
  1 22  1  0  0  0  0
  1 23  1  0  0  0  0
  2  3  2  0  0  0  0
  2  4  2  0  0  0  0
  2  5  1  0  0  0  0
  5  9  1  0  0  0  0
  5  6  1  0  0  0  0
  6  7  1  0  0  0  0
  6 24  1  0  0  0  0
  6 25  1  0  0  0  0
  7  8  1  0  0  0  0
  7 26  1  0  0  0  0
  7 27  1  0  0  0  0
  8  9  1  0  0  0  0
  8 28  1  0  0  0  0
  8 29  1  0  0  0  0
  9 10  1  0  0  0  0
  9 30  1  0  0  0  0
 10 11  2  0  0  0  0
 10 12  1  0  0  0  0
 12 13  1  0  0  0  0
 12 31  1  0  0  0  0
 13 14  1  0  0  0  0
 13 32  1  0  0  0  0
 13 33  1  0  0  0  0
 14 15  1  0  0  0  0
 14 34  1  0  0  0  0
 14 35  1  0  0  0  0
 15 20  1  0  0  0  0
 15 16  2  0  0  0  0
 16 17  1  0  0  0  0
 16 36  1  0  0  0  0
 17 18  2  0  0  0  0
 17 37  1  0  0  0  0
 18 19  1  0  0  0  0
 18 38  1  0  0  0  0
 19 20  2  0  0  0  0
 19 40  1  0  0  0  0
 20 39  1  0  0  0  0
M  CHG  1  19   1
M  END
> <s_m_source_file>
AV-unprocessed.smi

> <i_m_source_file_index>
1203

> <i_lp_mmshare_version>
43012

> <i_f3d_flags>
0

> <s_epik_input>
W0NIM11TKD1PKSg9TylOMVtDSDJdW0NIMl1bQ0gyXVtDQEhdMUMoPU8pW05IXVtDSDJdW0NIMl1jMltjSF1bY0hdW2NIXW5bY0hdMg==

> <s_epik_cmdline>
J2VwaWtfcHl0aG9uJywgJy1waCcsICc3LjAnLCAnLXRuJywgJzgnLCAnLW1hJywgJzIwMCcsICctbWV0YWxfYmluZGluZycsICctaW1hZScsICc8aW5maWxlLm1hZT4nLCAnLW9tYWUnLCAnPG91dGZpbGUubWFlPic=

> <r_epik_Ionization_Penalty>
2.2835

> <r_epik_Ionization_Penalty_Charging>
2.2835

> <r_epik_Ionization_Penalty_Neutral>
1.4017e-07

> <r_epik_State_Penalty>
2.43297

> <r_epik_Charging_Adjusted_Penalty>
4.71647

> <i_epik_Tot_Q>
1

> <i_epik_Tot_abs_Q>
1

> <r_epik_Metal_State_Penalty>
2.44558

> <b_epik_Metal_Only>
0

> <s_lp_Force_Field>
OPLS_2005

> <r_lp_Energy>
11.8017

> <b_lp_Chiralities_Consistent>
1

> <s_lp_Variant>
AV-unprocessed.smi:1203-3

> <Gold.Version>
5.8.1

> <Gold.Id.Protein>
6NUR|6NUR_protein|mol2

> <Gold.PLP.Fitness>
39.7154

> <Gold.PLP.PLP>
-30.8646

> <Gold.PLP.part.hbond>
-2.0000

> <Gold.PLP.part.metal>
0.0000

> <Gold.PLP.part.buried>
-4.9358

> <Gold.PLP.part.nonpolar>
-24.6369

> <Gold.PLP.part.repulsive>
0.0795

> <Gold.PLP.ligand.clash>
0.0000

> <Gold.PLP.ligand.torsion>
0.3274

> <Gold.PLP.Chemscore.Hbond>
3.0000

> <Gold.PLP.Chemscore.CHOScore>
0.0000

> <Gold.PLP.Chemscore.Metal>
0.0000

> <Gold.Chemscore.Hbonds>
donor molecule, donor type, donor heavy atom, donor atom, acceptor molecule, acceptor atom, score
      L1  H    19    40       P1 10186  2.00
      P1  H  6896  6908       L1     4  0.86

> <Gold.PLP.Chemscore.Internal.Correction>
0.5056

> <Gold.Rescore>
     Score         DG    S(hbond)    S(metal)    S(lipo)     H(rot)  DE(clash)    DE(int)     intcor
     16.03     -16.42       2.00        0.00      80.27       2.00       0.01       0.37       ----

> <Gold.Chemscore.Fitness>
16.0311

> <Gold.Chemscore.DG>
-16.4152

> <Gold.Chemscore.ZeroCoef>
-5.4800

> <Gold.Chemscore.Hbond>
1.9985

> <Gold.Chemscore.Metal>
0.0000

> <Gold.Chemscore.Lipo>
80.2653

> <Gold.Chemscore.Internal_Hbond>
0.0000

> <Gold.Chemscore.DEClash>
0.0126

> <Gold.Chemscore.DEInternal>
0.3715

> <Gold.Chemscore.Rot>
2.0043

> <Gold.Chemscore.Internal.Correction>
   9.000000E+99

> <Gold.Chemscore.Hbonds>
donor molecule, donor type, donor heavy atom, donor atom, acceptor molecule, acceptor atom, score
      L1  H    19    40       P1 10186  1.00
      P1  H  6896  6908       L1     4  0.50

> <Gold.Chemscore.Hbond.Weighted>
-6.6751

> <Gold.Chemscore.Metal.Weighted>
-0.0000

> <Gold.Chemscore.Lipo.Weighted>
-9.3910

> <Gold.Chemscore.Internal_Hbond.Weighted>
0.0000

> <Gold.Chemscore.DEClash.Weighted>
0.0126

> <Gold.Chemscore.DEInternal.Weighted>
0.3715

> <Gold.Chemscore.Rot.Weighted>
5.1309

> <Gold.Chemscore.Internal.Correction.Weighted>
   9.000000E+99

> <Gold.Protein.RotatedTorsions>
[ 6907 6896 6895 6894 ] final  130.04 input  -60.11 | X-H torsion
[ 7974 7965 7964 7962 ] final  -44.22 input  175.53 | X-H torsion
[ 8008 7997 7996 7995 ] final  -26.23 input   59.86 | X-H torsion
[ 10167 10162 10161 10158 ] final  -61.19 input  -65.29 | X-H torsion
[ 10718 10713 10712 10709 ] final -131.73 input   66.30 | X-H torsion
[ 10763 10752 10751 10750 ] final   -8.82 input  -60.55 | X-H torsion
[ 11005 11000 10999 10996 ] final  107.75 input  -57.11 | X-H torsion

> <Gold.Protein.ActiveResidues>
 VAL166  LYS551  ARG553  GLY616  TRP617  ASP618  TYR619  PRO620  LYS621  CYS622 
 ASP623  PHE694  ASN695  SER759  ASP760  ASP761  ALA762  ILE779  LEU786  VAL792 
 PHE793  MET794  SER795  GLU796  ALA797  LYS798  CYS799  TRP800  GLU811  SER814 

> <Gold.Protein.RotatedAtoms>
  152.3565  133.6243  159.5982 H   0  0  0  0  0  0  0  0  0  0  0  0  # atno 6907 bound_to 6896
  150.7572  133.9492  159.3489 H   0  0  0  0  0  0  0  0  0  0  0  0  # atno 6908 bound_to 6896
  151.7336  135.0870  160.0355 H   0  0  0  0  0  0  0  0  0  0  0  0  # atno 6909 bound_to 6896
  145.9942  140.7147  142.9302 H   0  0  0  0  0  0  0  0  0  0  0  0  # atno 7974 bound_to 7965
  154.4436  140.1905  156.0742 H   0  0  0  0  0  0  0  0  0  0  0  0  # atno 8008 bound_to 7997
  156.0488  140.3311  155.7300 H   0  0  0  0  0  0  0  0  0  0  0  0  # atno 8009 bound_to 7997
  155.5589  140.0602  157.2824 H   0  0  0  0  0  0  0  0  0  0  0  0  # atno 8010 bound_to 7997
  140.6022  143.2364  151.5902 H   0  0  0  0  0  0  0  0  0  0  0  0  # atno 10167 bound_to 10162
  156.2274  130.7016  151.0821 H   0  0  0  0  0  0  0  0  0  0  0  0  # atno 10718 bound_to 10713
  153.4460  135.7014  153.6139 H   0  0  0  0  0  0  0  0  0  0  0  0  # atno 10763 bound_to 10752
  153.4494  135.3761  155.2275 H   0  0  0  0  0  0  0  0  0  0  0  0  # atno 10764 bound_to 10752
  154.8728  135.3993  154.3865 H   0  0  0  0  0  0  0  0  0  0  0  0  # atno 10765 bound_to 10752
  139.8833  134.9410  156.5867 H   0  0  0  0  0  0  0  0  0  0  0  0  # atno 11005 bound_to 11000
  144.6898  140.3121  143.7246 LP  0  0  0  0  0  0  0  0  0  0  0  0  # atno 17320 bound_to 7965
  145.7585  139.1817  143.2280 LP  0  0  0  0  0  0  0  0  0  0  0  0  # atno 17321 bound_to 7965
  139.5299  144.2946  152.1123 LP  0  0  0  0  0  0  0  0  0  0  0  0  # atno 17342 bound_to 10162
  140.2129  144.4544  150.6377 LP  0  0  0  0  0  0  0  0  0  0  0  0  # atno 17343 bound_to 10162
  157.7117  131.0731  150.6477 LP  0  0  0  0  0  0  0  0  0  0  0  0  # atno 17370 bound_to 10713
  156.6543  130.4494  149.5709 LP  0  0  0  0  0  0  0  0  0  0  0  0  # atno 17371 bound_to 10713
  140.7986  133.8523  155.8707 LP  0  0  0  0  0  0  0  0  0  0  0  0  # atno 17394 bound_to 11000
  140.9613  134.1652  157.4652 LP  0  0  0  0  0  0  0  0  0  0  0  0  # atno 17395 bound_to 11000

$$$$
