AV-unprocessed.smi:607|AV-procd|sdf|3042|dock1
  -GOLD-   2262023563D 1   1.00000     0.00000
 Structure written by MMmdl.
 42 43  0  0  0  0  0  0  0  0  1 V2000
  149.6239  134.4527  155.1567 C   0  0  0  0  0  0  0  0  0  0  0  0
  150.1858  135.6831  155.8097 C   0  0  0  0  0  0  0  0  0  0  0  0
  151.3947  136.0979  155.4723 N   0  0  0  0  0  0  0  0  0  0  0  0
  151.6018  137.1982  156.2211 N   0  0  0  0  0  0  0  0  0  0  0  0
  152.8586  137.9110  156.0986 C   0  0  0  0  0  0  0  0  0  0  0  0
  150.5189  137.4842  157.0300 C   0  0  0  0  0  0  0  0  0  0  0  0
  150.5174  138.6612  157.9548 C   0  0  0  0  0  0  0  0  0  0  0  0
  149.5770  136.5118  156.7985 C   0  0  0  0  0  0  0  0  0  0  0  0
  148.2062  136.3141  157.4162 C   0  0  2  0  0  0  0  0  0  0  0  0
  147.2800  137.5096  157.1254 C   0  0  0  0  0  0  0  0  0  0  0  0
  148.3388  135.9980  158.9155 C   0  0  0  0  0  0  0  0  0  0  0  0
  149.4411  135.9855  159.4640 O   0  0  0  0  0  0  0  0  0  0  0  0
  147.1950  135.7322  159.5679 N   0  0  0  0  0  0  0  0  0  0  0  0
  147.0792  135.3197  160.9655 C   0  0  0  0  0  0  0  0  0  0  0  0
  147.7480  136.2719  161.8736 C   0  0  0  0  0  0  0  0  0  0  0  0
  148.2729  137.0172  162.5863 N   0  0  0  0  0  0  0  0  0  0  0  0
  145.6122  135.0945  161.3799 C   0  0  0  0  0  0  0  0  0  0  0  0
  145.6171  133.9710  162.4265 C   0  0  0  0  0  0  0  0  0  0  0  0
  147.0152  133.3444  162.3835 C   0  0  0  0  0  0  0  0  0  0  0  0
  147.6863  133.9213  161.1365 C   0  0  0  0  0  0  0  0  0  0  0  0
  149.5107  133.6458  155.8808 H   0  0  0  0  0  0  0  0  0  0  0  0
  150.2667  134.0899  154.3538 H   0  0  0  0  0  0  0  0  0  0  0  0
  148.6426  134.6543  154.7268 H   0  0  0  0  0  0  0  0  0  0  0  0
  153.2642  138.1161  157.0896 H   0  0  0  0  0  0  0  0  0  0  0  0
  152.6944  138.8544  155.5774 H   0  0  0  0  0  0  0  0  0  0  0  0
  153.5847  137.3185  155.5399 H   0  0  0  0  0  0  0  0  0  0  0  0
  149.5068  138.9306  158.2574 H   0  0  0  0  0  0  0  0  0  0  0  0
  150.9593  139.5366  157.4791 H   0  0  0  0  0  0  0  0  0  0  0  0
  151.0882  138.4410  158.8569 H   0  0  0  0  0  0  0  0  0  0  0  0
  147.7280  135.4381  156.9768 H   0  0  0  0  0  0  0  0  0  0  0  0
  147.6788  138.4423  157.5245 H   0  0  0  0  0  0  0  0  0  0  0  0
  146.2896  137.3594  157.5567 H   0  0  0  0  0  0  0  0  0  0  0  0
  147.1486  137.6426  156.0513 H   0  0  0  0  0  0  0  0  0  0  0  0
  146.3372  135.7673  159.0366 H   0  0  0  0  0  0  0  0  0  0  0  0
  145.1430  136.0040  161.7576 H   0  0  0  0  0  0  0  0  0  0  0  0
  145.0250  134.7670  160.5202 H   0  0  0  0  0  0  0  0  0  0  0  0
  145.4083  134.3631  163.4225 H   0  0  0  0  0  0  0  0  0  0  0  0
  144.8467  133.2336  162.1989 H   0  0  0  0  0  0  0  0  0  0  0  0
  147.5754  133.6434  163.2701 H   0  0  0  0  0  0  0  0  0  0  0  0
  146.9835  132.2547  162.3676 H   0  0  0  0  0  0  0  0  0  0  0  0
  147.4365  133.2938  160.2790 H   0  0  0  0  0  0  0  0  0  0  0  0
  148.7737  133.9401  161.2203 H   0  0  0  0  0  0  0  0  0  0  0  0
  1  2  1  0  0  0  0
  1 21  1  0  0  0  0
  1 22  1  0  0  0  0
  1 23  1  0  0  0  0
  2  8  1  0  0  0  0
  2  3  2  0  0  0  0
  3  4  1  0  0  0  0
  4  5  1  0  0  0  0
  4  6  1  0  0  0  0
  5 24  1  0  0  0  0
  5 25  1  0  0  0  0
  5 26  1  0  0  0  0
  6  7  1  0  0  0  0
  6  8  2  0  0  0  0
  7 27  1  0  0  0  0
  7 28  1  0  0  0  0
  7 29  1  0  0  0  0
  8  9  1  0  0  0  0
  9 10  1  0  0  0  0
  9 11  1  0  0  0  0
  9 30  1  0  0  0  0
 10 31  1  0  0  0  0
 10 32  1  0  0  0  0
 10 33  1  0  0  0  0
 11 12  2  0  0  0  0
 11 13  1  0  0  0  0
 13 14  1  0  0  0  0
 13 34  1  0  0  0  0
 14 20  1  0  0  0  0
 14 15  1  0  0  0  0
 14 17  1  0  0  0  0
 15 16  3  0  0  0  0
 17 18  1  0  0  0  0
 17 35  1  0  0  0  0
 17 36  1  0  0  0  0
 18 19  1  0  0  0  0
 18 37  1  0  0  0  0
 18 38  1  0  0  0  0
 19 20  1  0  0  0  0
 19 39  1  0  0  0  0
 19 40  1  0  0  0  0
 20 41  1  0  0  0  0
 20 42  1  0  0  0  0
M  END
> <s_m_source_file>
AV-unprocessed.smi

> <i_m_source_file_index>
607

> <i_lp_mmshare_version>
43012

> <i_f3d_flags>
0

> <s_epik_input>
W0NIM11jMW5uKFtDSDNdKWMoW0NIM10pYzFbQ0BIXShbQ0gzXSlDKD1PKVtOSF1DMihDI04pW0NIMl1bQ0gyXVtDSDJdW0NIMl0y

> <s_epik_cmdline>
J2VwaWtfcHl0aG9uJywgJy1waCcsICc3LjAnLCAnLXRuJywgJzgnLCAnLW1hJywgJzIwMCcsICctbWV0YWxfYmluZGluZycsICctaW1hZScsICc8aW5maWxlLm1hZT4nLCAnLW9tYWUnLCAnPG91dGZpbGUubWFlPic=

> <r_lp_tautomer_probability>
1

> <r_epik_Ionization_Penalty>
0.00342632

> <r_epik_Ionization_Penalty_Charging>
0

> <r_epik_Ionization_Penalty_Neutral>
0.00342632

> <r_epik_State_Penalty>
0.00242724

> <r_epik_Charging_Adjusted_Penalty>
0.00242724

> <i_epik_Tot_Q>
0

> <i_epik_Tot_abs_Q>
0

> <r_epik_Metal_State_Penalty>
-0

> <b_epik_Metal_Only>
0

> <s_lp_Force_Field>
OPLS_2005

> <r_lp_Energy>
13.4407

> <b_lp_Chiralities_Consistent>
1

> <s_lp_Variant>
AV-unprocessed.smi:607-1

> <Gold.Version>
5.8.1

> <Gold.Id.Protein>
6NUR|6NUR_protein|mol2

> <Gold.PLP.Fitness>
34.7460

> <Gold.PLP.PLP>
-25.8716

> <Gold.PLP.part.hbond>
-2.8453

> <Gold.PLP.part.metal>
0.0000

> <Gold.PLP.part.buried>
-5.1507

> <Gold.PLP.part.nonpolar>
-18.8354

> <Gold.PLP.part.repulsive>
0.1326

> <Gold.PLP.ligand.clash>
0.0000

> <Gold.PLP.ligand.torsion>
0.0844

> <Gold.PLP.Chemscore.Hbond>
2.9760

> <Gold.PLP.Chemscore.CHOScore>
0.0000

> <Gold.PLP.Chemscore.Metal>
0.0000

> <Gold.Chemscore.Hbonds>
donor molecule, donor type, donor heavy atom, donor atom, acceptor molecule, acceptor atom, score
      P1  H  6896  6907       L1    12  1.00
      P1  H  6931  6943       L1    16  0.99
      P1  H 10752 10764       L1     3  1.00

> <Gold.PLP.Chemscore.Internal.Correction>
0.1151

> <Gold.Rescore>
     Score         DG    S(hbond)    S(metal)    S(lipo)     H(rot)  DE(clash)    DE(int)     intcor
     17.48     -18.63       2.92        0.00      59.11       1.37       0.03       1.12       ----

> <Gold.Chemscore.Fitness>
17.4848

> <Gold.Chemscore.DG>
-18.6274

> <Gold.Chemscore.ZeroCoef>
-5.4800

> <Gold.Chemscore.Hbond>
2.9172

> <Gold.Chemscore.Metal>
0.0000

> <Gold.Chemscore.Lipo>
59.1130

> <Gold.Chemscore.Internal_Hbond>
0.0000

> <Gold.Chemscore.DEClash>
0.0255

> <Gold.Chemscore.DEInternal>
1.1172

> <Gold.Chemscore.Rot>
1.3720

> <Gold.Chemscore.Internal.Correction>
   9.000000E+99

> <Gold.Chemscore.Hbonds>
donor molecule, donor type, donor heavy atom, donor atom, acceptor molecule, acceptor atom, score
      P1  H  6896  6907       L1    12  1.00
      P1  H  6931  6943       L1    16  0.87
      P1  H 10752 10764       L1     3  0.60

> <Gold.Chemscore.Hbond.Weighted>
-9.7435

> <Gold.Chemscore.Metal.Weighted>
-0.0000

> <Gold.Chemscore.Lipo.Weighted>
-6.9162

> <Gold.Chemscore.Internal_Hbond.Weighted>
0.0000

> <Gold.Chemscore.DEClash.Weighted>
0.0255

> <Gold.Chemscore.DEInternal.Weighted>
1.1172

> <Gold.Chemscore.Rot.Weighted>
3.5123

> <Gold.Chemscore.Internal.Correction.Weighted>
   9.000000E+99

> <Gold.Protein.RotatedTorsions>
[ 6907 6896 6895 6894 ] final  -54.61 input  -60.11 | X-H torsion
[ 7974 7965 7964 7962 ] final    2.29 input  175.53 | X-H torsion
[ 8008 7997 7996 7995 ] final   34.82 input   59.86 | X-H torsion
[ 10167 10162 10161 10158 ] final  113.94 input  -65.29 | X-H torsion
[ 10718 10713 10712 10709 ] final  -10.33 input   66.30 | X-H torsion
[ 10763 10752 10751 10750 ] final  -38.61 input  -60.55 | X-H torsion
[ 11005 11000 10999 10996 ] final   96.88 input  -57.11 | X-H torsion

> <Gold.Protein.ActiveResidues>
 VAL166  LYS551  ARG553  GLY616  TRP617  ASP618  TYR619  PRO620  LYS621  CYS622 
 ASP623  PHE694  ASN695  SER759  ASP760  ASP761  ALA762  ILE779  LEU786  VAL792 
 PHE793  MET794  SER795  GLU796  ALA797  LYS798  CYS799  TRP800  GLU811  SER814 

> <Gold.Protein.RotatedAtoms>
  150.8323  134.7581  159.6863 H   0  0  0  0  0  0  0  0  0  0  0  0  # atno 6907 bound_to 6896
  152.4425  134.5558  159.9890 H   0  0  0  0  0  0  0  0  0  0  0  0  # atno 6908 bound_to 6896
  151.5717  133.3351  159.3026 H   0  0  0  0  0  0  0  0  0  0  0  0  # atno 6909 bound_to 6896
  146.2443  140.0858  142.8354 H   0  0  0  0  0  0  0  0  0  0  0  0  # atno 7974 bound_to 7965
  155.1611  140.3283  155.4411 H   0  0  0  0  0  0  0  0  0  0  0  0  # atno 8008 bound_to 7997
  156.2542  140.1960  156.6669 H   0  0  0  0  0  0  0  0  0  0  0  0  # atno 8009 bound_to 7997
  154.6404  140.0571  156.9825 H   0  0  0  0  0  0  0  0  0  0  0  0  # atno 8010 bound_to 7997
  139.6425  144.7124  151.2209 H   0  0  0  0  0  0  0  0  0  0  0  0  # atno 10167 bound_to 10162
  156.6751  130.5020  149.5988 H   0  0  0  0  0  0  0  0  0  0  0  0  # atno 10718 bound_to 10713
  153.9156  135.6788  153.4749 H   0  0  0  0  0  0  0  0  0  0  0  0  # atno 10763 bound_to 10752
  153.1055  135.4807  154.8941 H   0  0  0  0  0  0  0  0  0  0  0  0  # atno 10764 bound_to 10752
  154.7504  135.3183  154.8523 H   0  0  0  0  0  0  0  0  0  0  0  0  # atno 10765 bound_to 10752
  139.8779  134.8973  156.4224 H   0  0  0  0  0  0  0  0  0  0  0  0  # atno 11005 bound_to 11000
  145.0693  140.9144  143.4891 LP  0  0  0  0  0  0  0  0  0  0  0  0  # atno 17320 bound_to 7965
  145.0989  139.2837  143.5696 LP  0  0  0  0  0  0  0  0  0  0  0  0  # atno 17321 bound_to 7965
  140.7498  143.6288  150.8443 LP  0  0  0  0  0  0  0  0  0  0  0  0  # atno 17342 bound_to 10162
  139.9927  143.5830  152.2904 LP  0  0  0  0  0  0  0  0  0  0  0  0  # atno 17343 bound_to 10162
  156.1909  130.6559  151.1060 LP  0  0  0  0  0  0  0  0  0  0  0  0  # atno 17370 bound_to 10713
  157.7063  131.0754  150.6654 LP  0  0  0  0  0  0  0  0  0  0  0  0  # atno 17371 bound_to 10713
  140.9124  133.7702  155.9808 LP  0  0  0  0  0  0  0  0  0  0  0  0  # atno 17394 bound_to 11000
  140.8531  134.2930  157.5267 LP  0  0  0  0  0  0  0  0  0  0  0  0  # atno 17395 bound_to 11000

$$$$
