AV-unprocessed.smi:1011|AV-procd|sdf|4421|dock4
  -GOLD-   22720 2373D 1   1.00000     0.00000
 Structure written by MMmdl.
 44 46  0  0  0  0  0  0  0  0  2 V2000
  145.6752  136.1362  151.4580 C   0  0  0  0  0  0  0  0  0  0  0  0
  146.1492  137.3316  152.2332 C   0  0  0  0  0  0  0  0  0  0  0  0
  146.5120  137.3939  153.6088 C   0  0  0  0  0  0  0  0  0  0  0  0
  146.8855  138.6053  153.9878 N   0  0  0  0  0  0  0  0  0  0  0  0
  146.7782  139.3561  152.8710 N   0  0  0  0  0  0  0  0  0  0  0  0
  147.1046  140.7682  152.9181 C   0  0  0  0  0  0  0  0  0  0  0  0
  147.4145  141.2334  154.3483 C   0  0  0  0  0  0  0  0  0  0  0  0
  148.6267  142.0360  154.3460 N   0  0  0  0  0  0  0  0  0  0  0  0
  149.7759  141.1913  154.6272 C   0  0  0  0  0  0  0  0  0  0  0  0
  150.4159  141.5329  155.9336 C   0  0  0  0  0  0  0  0  0  0  0  0
  150.2495  142.7042  156.6111 N   0  3  0  0  0  0  0  0  0  0  0  0
  150.9826  142.6747  157.7973 C   0  0  0  0  0  0  0  0  0  0  0  0
  151.1247  143.6236  158.8049 C   0  0  0  0  0  0  0  0  0  0  0  0
  151.9488  143.2733  159.8948 C   0  0  0  0  0  0  0  0  0  0  0  0
  152.1701  144.3986  161.1833 Cl  0  0  0  0  0  0  0  0  0  0  0  0
  152.5932  142.0199  159.9512 C   0  0  0  0  0  0  0  0  0  0  0  0
  152.4429  141.0662  158.9228 C   0  0  0  0  0  0  0  0  0  0  0  0
  151.6277  141.4226  157.8489 C   0  0  0  0  0  0  0  0  0  0  0  0
  151.2545  140.7534  156.6777 N   0  0  0  0  0  0  0  0  0  0  0  0
  151.7689  139.3955  156.4372 C   0  0  0  0  0  0  0  0  0  0  0  0
  152.1123  139.1474  154.9591 C   0  0  0  0  0  0  0  0  0  0  0  0
  153.4152  139.6056  154.6628 O   0  0  0  0  0  0  0  0  0  0  0  0
  146.3354  138.6130  151.7975 C   0  0  0  0  0  0  0  0  0  0  0  0
  145.3192  135.3427  152.1154 H   0  0  0  0  0  0  0  0  0  0  0  0
  146.4713  135.7135  150.8452 H   0  0  0  0  0  0  0  0  0  0  0  0
  144.8530  136.3900  150.7885 H   0  0  0  0  0  0  0  0  0  0  0  0
  146.5126  136.5988  154.3398 H   0  0  0  0  0  0  0  0  0  0  0  0
  147.9597  140.9474  152.2646 H   0  0  0  0  0  0  0  0  0  0  0  0
  146.2655  141.3300  152.5047 H   0  0  0  0  0  0  0  0  0  0  0  0
  146.5843  141.8235  154.7393 H   0  0  0  0  0  0  0  0  0  0  0  0
  147.5434  140.3713  155.0043 H   0  0  0  0  0  0  0  0  0  0  0  0
  148.7335  142.4408  153.4266 H   0  0  0  0  0  0  0  0  0  0  0  0
  149.4634  140.1469  154.6684 H   0  0  0  0  0  0  0  0  0  0  0  0
  150.4998  141.2769  153.8172 H   0  0  0  0  0  0  0  0  0  0  0  0
  150.6301  144.5829  158.7622 H   0  0  0  0  0  0  0  0  0  0  0  0
  153.2166  141.7834  160.8013 H   0  0  0  0  0  0  0  0  0  0  0  0
  152.9407  140.1097  158.9790 H   0  0  0  0  0  0  0  0  0  0  0  0
  152.6507  139.2512  157.0614 H   0  0  0  0  0  0  0  0  0  0  0  0
  151.0320  138.6730  156.7891 H   0  0  0  0  0  0  0  0  0  0  0  0
  152.0522  138.0829  154.7313 H   0  0  0  0  0  0  0  0  0  0  0  0
  151.4014  139.6564  154.3077 H   0  0  0  0  0  0  0  0  0  0  0  0
  153.6299  139.3511  153.7782 H   0  0  0  0  0  0  0  0  0  0  0  0
  146.1889  139.0530  150.8217 H   0  0  0  0  0  0  0  0  0  0  0  0
  149.6727  143.4664  156.2785 H   0  0  0  0  0  0  0  0  0  0  0  0
  1  2  1  0  0  0  0
  1 24  1  0  0  0  0
  1 25  1  0  0  0  0
  1 26  1  0  0  0  0
  2 23  2  0  0  0  0
  2  3  1  0  0  0  0
  3  4  2  0  0  0  0
  3 27  1  0  0  0  0
  4  5  1  0  0  0  0
  5  6  1  0  0  0  0
  5 23  1  0  0  0  0
  6  7  1  0  0  0  0
  6 28  1  0  0  0  0
  6 29  1  0  0  0  0
  7  8  1  0  0  0  0
  7 30  1  0  0  0  0
  7 31  1  0  0  0  0
  8  9  1  0  0  0  0
  8 32  1  0  0  0  0
  9 10  1  0  0  0  0
  9 33  1  0  0  0  0
  9 34  1  0  0  0  0
 10 19  1  0  0  0  0
 10 11  2  0  0  0  0
 11 12  1  0  0  0  0
 11 44  1  0  0  0  0
 12 18  2  0  0  0  0
 12 13  1  0  0  0  0
 13 14  2  0  0  0  0
 13 35  1  0  0  0  0
 14 15  1  0  0  0  0
 14 16  1  0  0  0  0
 16 17  2  0  0  0  0
 16 36  1  0  0  0  0
 17 18  1  0  0  0  0
 17 37  1  0  0  0  0
 18 19  1  0  0  0  0
 19 20  1  0  0  0  0
 20 21  1  0  0  0  0
 20 38  1  0  0  0  0
 20 39  1  0  0  0  0
 21 22  1  0  0  0  0
 21 40  1  0  0  0  0
 21 41  1  0  0  0  0
 22 42  1  0  0  0  0
 23 43  1  0  0  0  0
M  CHG  1  11   1
M  END
> <s_m_source_file>
AV-unprocessed.smi

> <i_m_source_file_index>
1011

> <i_lp_mmshare_version>
43012

> <i_f3d_flags>
0

> <s_epik_input>
W0NIM11jMVtjSF1ubihbY0hdMSlbQ0gyXVtDSDJdW05IXVtDSDJdYyhuMiluKFtDSDJdW0NIMl1bT0hdKWMoYzIzKVtjSF1bY0hdYyhDbClbY0hdMw==

> <s_epik_cmdline>
J2VwaWtfcHl0aG9uJywgJy1waCcsICc3LjAnLCAnLXRuJywgJzgnLCAnLW1hJywgJzIwMCcsICctbWV0YWxfYmluZGluZycsICctaW1hZScsICc8aW5maWxlLm1hZT4nLCAnLW9tYWUnLCAnPG91dGZpbGUubWFlPic=

> <r_epik_Ionization_Penalty>
1.62414

> <r_epik_Ionization_Penalty_Charging>
1.50824

> <r_epik_Ionization_Penalty_Neutral>
0.115896

> <r_epik_State_Penalty>
2.25317

> <r_epik_Charging_Adjusted_Penalty>
3.76141

> <i_epik_Tot_Q>
1

> <i_epik_Tot_abs_Q>
1

> <r_epik_Metal_State_Penalty>
2.26539

> <b_epik_Metal_Only>
0

> <s_lp_Force_Field>
OPLS_2005

> <r_lp_Energy>
12.3838

> <b_lp_Chiralities_Consistent>
1

> <s_lp_Variant>
AV-unprocessed.smi:1011-3

> <Gold.Version>
5.8.1

> <Gold.Id.Protein>
6NUR|6NUR_protein|mol2

> <Gold.PLP.Fitness>
58.0136

> <Gold.PLP.PLP>
-50.1572

> <Gold.PLP.part.hbond>
-5.0000

> <Gold.PLP.part.metal>
0.0000

> <Gold.PLP.part.buried>
-0.6924

> <Gold.PLP.part.nonpolar>
-44.6963

> <Gold.PLP.part.repulsive>
0.2137

> <Gold.PLP.ligand.clash>
0.0000

> <Gold.PLP.ligand.torsion>
1.6561

> <Gold.PLP.Chemscore.Hbond>
3.0000

> <Gold.PLP.Chemscore.CHOScore>
0.6801

> <Gold.PLP.Chemscore.Metal>
0.0000

> <Gold.Chemscore.Hbonds>
donor molecule, donor type, donor heavy atom, donor atom, acceptor molecule, acceptor atom, score
      L1  H    11    44       P1  8028  2.00
      P1  H  7997  8008       L1    22  1.00
      L1  C    23    43       P1 10171  0.67

> <Gold.PLP.Chemscore.Internal.Correction>
0.1283

> <Gold.Rescore>
     Score         DG    S(hbond)    S(metal)    S(lipo)     H(rot)  DE(clash)    DE(int)     intcor
     16.60     -19.78       1.89        0.00     132.49       2.93       1.57       1.61       ----

> <Gold.Chemscore.Fitness>
16.5985

> <Gold.Chemscore.DG>
-19.7779

> <Gold.Chemscore.ZeroCoef>
-5.4800

> <Gold.Chemscore.Hbond>
1.8886

> <Gold.Chemscore.Metal>
0.0000

> <Gold.Chemscore.Lipo>
132.4887

> <Gold.Chemscore.Internal_Hbond>
0.0000

> <Gold.Chemscore.DEClash>
1.5714

> <Gold.Chemscore.DEInternal>
1.6081

> <Gold.Chemscore.Rot>
2.9340

> <Gold.Chemscore.Internal.Correction>
   9.000000E+99

> <Gold.Chemscore.Hbonds>
donor molecule, donor type, donor heavy atom, donor atom, acceptor molecule, acceptor atom, score
      L1  H    11    44       P1  8028  0.99
      P1  H  7997  8008       L1    22  0.95

> <Gold.Chemscore.Hbond.Weighted>
-6.3078

> <Gold.Chemscore.Metal.Weighted>
-0.0000

> <Gold.Chemscore.Lipo.Weighted>
-15.5012

> <Gold.Chemscore.Internal_Hbond.Weighted>
0.0000

> <Gold.Chemscore.DEClash.Weighted>
1.5714

> <Gold.Chemscore.DEInternal.Weighted>
1.6081

> <Gold.Chemscore.Rot.Weighted>
7.5111

> <Gold.Chemscore.Internal.Correction.Weighted>
   9.000000E+99

> <Gold.Protein.RotatedTorsions>
[ 6907 6896 6895 6894 ] final  -52.73 input  -60.11 | X-H torsion
[ 7974 7965 7964 7962 ] final   -5.62 input  175.53 | X-H torsion
[ 8008 7997 7996 7995 ] final  -22.07 input   59.86 | X-H torsion
[ 10167 10162 10161 10158 ] final  115.39 input  -65.29 | X-H torsion
[ 10718 10713 10712 10709 ] final   69.52 input   66.30 | X-H torsion
[ 10763 10752 10751 10750 ] final  155.24 input  -60.55 | X-H torsion
[ 11005 11000 10999 10996 ] final -114.96 input  -57.11 | X-H torsion

> <Gold.Protein.ActiveResidues>
 VAL166  LYS551  ARG553  GLY616  TRP617  ASP618  TYR619  PRO620  LYS621  CYS622 
 ASP623  PHE694  ASN695  SER759  ASP760  ASP761  ALA762  ILE779  LEU786  VAL792 
 PHE793  MET794  SER795  GLU796  ALA797  LYS798  CYS799  TRP800  GLU811  SER814 

> <Gold.Protein.RotatedAtoms>
  150.8491  134.7810  159.6993 H   0  0  0  0  0  0  0  0  0  0  0  0  # atno 6907 bound_to 6896
  152.4560  134.5287  159.9814 H   0  0  0  0  0  0  0  0  0  0  0  0  # atno 6908 bound_to 6896
  151.5411  133.3394  159.2971 H   0  0  0  0  0  0  0  0  0  0  0  0  # atno 6909 bound_to 6896
  146.2349  140.2048  142.8334 H   0  0  0  0  0  0  0  0  0  0  0  0  # atno 7974 bound_to 7965
  154.4666  140.2017  156.0102 H   0  0  0  0  0  0  0  0  0  0  0  0  # atno 8008 bound_to 7997
  156.0938  140.3254  155.7822 H   0  0  0  0  0  0  0  0  0  0  0  0  # atno 8009 bound_to 7997
  155.4912  140.0546  157.2944 H   0  0  0  0  0  0  0  0  0  0  0  0  # atno 8010 bound_to 7997
  139.6320  144.7116  151.2412 H   0  0  0  0  0  0  0  0  0  0  0  0  # atno 10167 bound_to 10162
  157.6350  130.9430  150.0524 H   0  0  0  0  0  0  0  0  0  0  0  0  # atno 10718 bound_to 10713
  154.1652  135.2807  155.3097 H   0  0  0  0  0  0  0  0  0  0  0  0  # atno 10763 bound_to 10752
  154.6116  135.5497  153.7483 H   0  0  0  0  0  0  0  0  0  0  0  0  # atno 10764 bound_to 10752
  153.0180  135.6417  154.1794 H   0  0  0  0  0  0  0  0  0  0  0  0  # atno 10765 bound_to 10752
  141.0518  133.9675  157.2822 H   0  0  0  0  0  0  0  0  0  0  0  0  # atno 11005 bound_to 11000
  144.9753  140.8408  143.5430 LP  0  0  0  0  0  0  0  0  0  0  0  0  # atno 17320 bound_to 7965
  145.2034  139.2240  143.5180 LP  0  0  0  0  0  0  0  0  0  0  0  0  # atno 17321 bound_to 7965
  140.7444  143.6463  150.8289 LP  0  0  0  0  0  0  0  0  0  0  0  0  # atno 17342 bound_to 10162
  140.0089  143.5664  152.2847 LP  0  0  0  0  0  0  0  0  0  0  0  0  # atno 17343 bound_to 10162
  156.1582  130.3643  149.9338 LP  0  0  0  0  0  0  0  0  0  0  0  0  # atno 17370 bound_to 10713
  156.7342  130.9055  151.3628 LP  0  0  0  0  0  0  0  0  0  0  0  0  # atno 17371 bound_to 10713
  139.9357  135.0196  156.8547 LP  0  0  0  0  0  0  0  0  0  0  0  0  # atno 17394 bound_to 11000
  140.6040  134.0145  155.7549 LP  0  0  0  0  0  0  0  0  0  0  0  0  # atno 17395 bound_to 11000

$$$$
