AV-unprocessed.smi:2617|AV-procd|sdf|10217|dock9
  -GOLD-   2272014223D 1   1.00000     0.00000
 Structure written by MMmdl.
 35 35  0  0  0  0  0  0  0  0  1 V2000
  151.2445  137.5798  158.0727 C   0  0  0  0  0  0  0  0  0  0  0  0
  151.9945  137.4602  156.7426 C   0  0  0  0  0  0  0  0  0  0  0  0
  152.1236  138.8118  156.0203 C   0  0  0  0  0  0  0  0  0  0  0  0
  150.8470  139.3264  155.5661 N   0  0  0  0  0  0  0  0  0  0  0  0
  150.0565  138.6967  154.6006 C   0  0  0  0  0  0  0  0  0  0  0  0
  150.5294  137.5253  154.0281 N   0  0  0  0  0  0  0  0  0  0  0  0
  148.8628  139.2143  154.1910 C   0  0  0  0  0  0  0  0  0  0  0  0
  148.0803  138.5753  153.2343 N   0  0  0  0  0  0  0  0  0  0  0  0
  146.7961  139.0325  152.7235 C   0  0  0  0  0  0  0  0  0  0  0  0
  146.3696  138.2211  151.4956 C   0  0  0  0  0  0  0  0  0  0  0  0
  145.9168  136.9451  151.9184 O   0  0  0  0  0  0  0  0  0  0  0  0
  145.5352  136.1171  150.8343 C   0  0  0  0  0  0  0  0  0  0  0  0
  148.3561  140.4621  154.7807 C   0  0  0  0  0  0  0  0  0  0  0  0
  147.2760  140.9961  154.5308 O   0  0  0  0  0  0  0  0  0  0  0  0
  149.2033  141.0574  155.7127 N   0  0  0  0  0  0  0  0  0  0  0  0
  150.4338  140.5589  156.1243 C   0  0  0  0  0  0  0  0  0  0  0  0
  151.1005  141.1939  156.9423 O   0  0  0  0  0  0  0  0  0  0  0  0
  148.8962  141.9263  156.1249 H   0  0  0  0  0  0  0  0  0  0  0  0
  151.1656  136.6093  158.5630 H   0  0  0  0  0  0  0  0  0  0  0  0
  150.2339  137.9599  157.9215 H   0  0  0  0  0  0  0  0  0  0  0  0
  151.7600  138.2566  158.7547 H   0  0  0  0  0  0  0  0  0  0  0  0
  152.9845  137.0419  156.9273 H   0  0  0  0  0  0  0  0  0  0  0  0
  151.4747  136.7487  156.1000 H   0  0  0  0  0  0  0  0  0  0  0  0
  152.5604  139.5716  156.6679 H   0  0  0  0  0  0  0  0  0  0  0  0
  152.7930  138.7560  155.1599 H   0  0  0  0  0  0  0  0  0  0  0  0
  151.4199  137.1323  154.2968 H   0  0  0  0  0  0  0  0  0  0  0  0
  149.9228  136.9221  153.4919 H   0  0  0  0  0  0  0  0  0  0  0  0
  148.6118  138.0754  152.5366 H   0  0  0  0  0  0  0  0  0  0  0  0
  146.0577  138.9206  153.5177 H   0  0  0  0  0  0  0  0  0  0  0  0
  146.8270  140.0911  152.4638 H   0  0  0  0  0  0  0  0  0  0  0  0
  145.5896  138.7460  150.9414 H   0  0  0  0  0  0  0  0  0  0  0  0
  147.2215  138.0991  150.8251 H   0  0  0  0  0  0  0  0  0  0  0  0
  145.1985  135.1517  151.2116 H   0  0  0  0  0  0  0  0  0  0  0  0
  146.3730  135.9415  150.1582 H   0  0  0  0  0  0  0  0  0  0  0  0
  144.7154  136.5618  150.2685 H   0  0  0  0  0  0  0  0  0  0  0  0
  1  2  1  0  0  0  0
  1 19  1  0  0  0  0
  1 20  1  0  0  0  0
  1 21  1  0  0  0  0
  2  3  1  0  0  0  0
  2 22  1  0  0  0  0
  2 23  1  0  0  0  0
  3  4  1  0  0  0  0
  3 24  1  0  0  0  0
  3 25  1  0  0  0  0
  4 16  1  0  0  0  0
  4  5  1  0  0  0  0
  5  6  1  0  0  0  0
  5  7  2  0  0  0  0
  6 26  1  0  0  0  0
  6 27  1  0  0  0  0
  7  8  1  0  0  0  0
  7 13  1  0  0  0  0
  8  9  1  0  0  0  0
  8 28  1  0  0  0  0
  9 10  1  0  0  0  0
  9 29  1  0  0  0  0
  9 30  1  0  0  0  0
 10 11  1  0  0  0  0
 10 31  1  0  0  0  0
 10 32  1  0  0  0  0
 11 12  1  0  0  0  0
 12 33  1  0  0  0  0
 12 34  1  0  0  0  0
 12 35  1  0  0  0  0
 13 14  2  0  0  0  0
 13 15  1  0  0  0  0
 15 18  1  0  0  0  0
 15 16  1  0  0  0  0
 16 17  2  0  0  0  0
M  END
> <s_m_source_file>
AV-unprocessed.smi

> <i_m_source_file_index>
2617

> <i_lp_mmshare_version>
43012

> <i_f3d_flags>
0

> <s_epik_input>
W0NIM11bQ0gyXVtDSDJdbjFjKFtOSDJdKWMoYyg9TylbbkhdYzE9TylbTkhdW0NIMl1bQ0gyXU9bQ0gzXQ==

> <s_epik_cmdline>
J2VwaWtfcHl0aG9uJywgJy1waCcsICc3LjAnLCAnLXRuJywgJzgnLCAnLW1hJywgJzIwMCcsICctbWV0YWxfYmluZGluZycsICctaW1hZScsICc8aW5maWxlLm1hZT4nLCAnLW9tYWUnLCAnPG91dGZpbGUubWFlPic=

> <r_lp_tautomer_probability>
1

> <r_epik_Ionization_Penalty>
1.06398e-05

> <r_epik_Ionization_Penalty_Charging>
2.62604e-06

> <r_epik_Ionization_Penalty_Neutral>
8.01376e-06

> <r_epik_State_Penalty>
-0

> <r_epik_Charging_Adjusted_Penalty>
2.62604e-06

> <i_epik_Tot_Q>
0

> <i_epik_Tot_abs_Q>
0

> <r_epik_Metal_State_Penalty>
-0

> <b_epik_Metal_Only>
0

> <s_epik_Chemistry_Notes>
This compound has an imine and may undergo hydrolysis.

> <s_lp_Force_Field>
OPLS_2005

> <r_lp_Energy>
15.6594

> <b_lp_Chiralities_Consistent>
1

> <s_lp_Variant>
AV-unprocessed.smi:2617-1

> <Gold.Version>
5.8.1

> <Gold.Id.Protein>
6NUR|6NUR_protein|mol2

> <Gold.PLP.Fitness>
35.0345

> <Gold.PLP.PLP>
-29.6494

> <Gold.PLP.part.hbond>
-4.0000

> <Gold.PLP.part.metal>
0.0000

> <Gold.PLP.part.buried>
-1.1475

> <Gold.PLP.part.nonpolar>
-26.6804

> <Gold.PLP.part.repulsive>
0.7578

> <Gold.PLP.ligand.clash>
1.3886

> <Gold.PLP.ligand.torsion>
0.1382

> <Gold.PLP.Chemscore.Hbond>
1.8800

> <Gold.PLP.Chemscore.CHOScore>
0.0000

> <Gold.PLP.Chemscore.Metal>
0.0000

> <Gold.Chemscore.Hbonds>
donor molecule, donor type, donor heavy atom, donor atom, acceptor molecule, acceptor atom, score
      L1  H     6    27       P1  7948  1.00
      L1  H     8    28       P1  7948  0.86

> <Gold.PLP.Chemscore.Internal.Correction>
1.4102

> <Gold.Rescore>
     Score         DG    S(hbond)    S(metal)    S(lipo)     H(rot)  DE(clash)    DE(int)     intcor
      8.00      -9.83       1.41        0.00      44.50       2.17       0.13       1.70       ----

> <Gold.Chemscore.Fitness>
8.0007

> <Gold.Chemscore.DG>
-9.8334

> <Gold.Chemscore.ZeroCoef>
-5.4800

> <Gold.Chemscore.Hbond>
1.4100

> <Gold.Chemscore.Metal>
0.0000

> <Gold.Chemscore.Lipo>
44.5033

> <Gold.Chemscore.Internal_Hbond>
0.0000

> <Gold.Chemscore.DEClash>
0.1277

> <Gold.Chemscore.DEInternal>
1.7049

> <Gold.Chemscore.Rot>
2.1730

> <Gold.Chemscore.Internal.Correction>
   9.000000E+99

> <Gold.Chemscore.Hbonds>
donor molecule, donor type, donor heavy atom, donor atom, acceptor molecule, acceptor atom, score
      L1  H     6    27       P1  7948  0.33
      L1  H     8    28       P1  7948  0.83

> <Gold.Chemscore.Hbond.Weighted>
-4.7093

> <Gold.Chemscore.Metal.Weighted>
-0.0000

> <Gold.Chemscore.Lipo.Weighted>
-5.2069

> <Gold.Chemscore.Internal_Hbond.Weighted>
0.0000

> <Gold.Chemscore.DEClash.Weighted>
0.1277

> <Gold.Chemscore.DEInternal.Weighted>
1.7049

> <Gold.Chemscore.Rot.Weighted>
5.5628

> <Gold.Chemscore.Internal.Correction.Weighted>
   9.000000E+99

> <Gold.Protein.RotatedTorsions>
[ 6907 6896 6895 6894 ] final  -50.11 input  -60.11 | X-H torsion
[ 7974 7965 7964 7962 ] final -150.75 input  175.53 | X-H torsion
[ 8008 7997 7996 7995 ] final -178.68 input   59.86 | X-H torsion
[ 10167 10162 10161 10158 ] final   26.21 input  -65.29 | X-H torsion
[ 10718 10713 10712 10709 ] final  -77.86 input   66.30 | X-H torsion
[ 10763 10752 10751 10750 ] final  -64.95 input  -60.55 | X-H torsion
[ 11005 11000 10999 10996 ] final -105.32 input  -57.11 | X-H torsion

> <Gold.Protein.ActiveResidues>
 VAL166  LYS551  ARG553  GLY616  TRP617  ASP618  TYR619  PRO620  LYS621  CYS622 
 ASP623  PHE694  ASN695  SER759  ASP760  ASP761  ALA762  ILE779  LEU786  VAL792 
 PHE793  MET794  SER795  GLU796  ALA797  LYS798  CYS799  TRP800  GLU811  SER814 

> <Gold.Protein.RotatedAtoms>
  150.8739  134.8118  159.7175 H   0  0  0  0  0  0  0  0  0  0  0  0  # atno 6907 bound_to 6896
  152.4733  134.4902  159.9703 H   0  0  0  0  0  0  0  0  0  0  0  0  # atno 6908 bound_to 6896
  151.4987  133.3470  159.2901 H   0  0  0  0  0  0  0  0  0  0  0  0  # atno 6909 bound_to 6896
  144.7889  140.4890  143.5786 H   0  0  0  0  0  0  0  0  0  0  0  0  # atno 7974 bound_to 7965
  156.0217  140.1262  157.0350 H   0  0  0  0  0  0  0  0  0  0  0  0  # atno 8008 bound_to 7997
  154.4314  140.1067  156.6043 H   0  0  0  0  0  0  0  0  0  0  0  0  # atno 8009 bound_to 7997
  155.5935  140.3469  155.4575 H   0  0  0  0  0  0  0  0  0  0  0  0  # atno 8010 bound_to 7997
  140.5041  144.0267  150.6345 H   0  0  0  0  0  0  0  0  0  0  0  0  # atno 10167 bound_to 10162
  156.0133  130.4502  150.3409 H   0  0  0  0  0  0  0  0  0  0  0  0  # atno 10718 bound_to 10713
  154.3378  135.6163  153.5582 H   0  0  0  0  0  0  0  0  0  0  0  0  # atno 10763 bound_to 10752
  152.9806  135.5762  154.4888 H   0  0  0  0  0  0  0  0  0  0  0  0  # atno 10764 bound_to 10752
  154.4586  135.2855  155.1706 H   0  0  0  0  0  0  0  0  0  0  0  0  # atno 10765 bound_to 10752
  141.1059  133.8798  157.1719 H   0  0  0  0  0  0  0  0  0  0  0  0  # atno 11005 bound_to 11000
  145.5846  139.1491  143.3216 LP  0  0  0  0  0  0  0  0  0  0  0  0  # atno 17320 bound_to 7965
  146.2133  140.5975  142.9049 LP  0  0  0  0  0  0  0  0  0  0  0  0  # atno 17321 bound_to 7965
  140.3571  143.2929  152.0424 LP  0  0  0  0  0  0  0  0  0  0  0  0  # atno 17342 bound_to 10162
  139.4879  144.6331  151.7030 LP  0  0  0  0  0  0  0  0  0  0  0  0  # atno 17343 bound_to 10162
  157.1504  131.0319  151.2887 LP  0  0  0  0  0  0  0  0  0  0  0  0  # atno 17370 bound_to 10713
  157.4397  130.7537  149.7058 LP  0  0  0  0  0  0  0  0  0  0  0  0  # atno 17371 bound_to 10713
  139.9929  135.0058  157.0016 LP  0  0  0  0  0  0  0  0  0  0  0  0  # atno 17394 bound_to 11000
  140.4903  134.1199  155.7231 LP  0  0  0  0  0  0  0  0  0  0  0  0  # atno 17395 bound_to 11000

$$$$
