AV-unprocessed.smi:2283|AV-procd|sdf|9200|dock6
  -GOLD-   2272012413D 1   1.00000     0.00000
 Structure written by MMmdl.
 37 38  0  0  0  0  0  0  0  0  1 V2000
  151.5402  144.6930  160.3250 C   0  0  0  0  0  0  0  0  0  0  0  0
  152.2584  143.3696  160.1215 C   0  0  0  0  0  0  0  0  0  0  0  0
  153.3045  143.0271  161.0056 C   0  0  0  0  0  0  0  0  0  0  0  0
  153.9890  141.8061  160.8667 C   0  0  0  0  0  0  0  0  0  0  0  0
  153.6285  140.9144  159.8418 C   0  0  0  0  0  0  0  0  0  0  0  0
  152.5887  141.2482  158.9547 C   0  0  0  0  0  0  0  0  0  0  0  0
  151.8993  142.4774  159.0760 C   0  0  0  0  0  0  0  0  0  0  0  0
  150.7709  142.8001  158.0964 C   0  0  1  0  0  0  0  0  0  0  0  0
  151.0750  143.9363  157.3108 O   0  0  0  0  0  0  0  0  0  0  0  0
  150.5016  141.6009  157.1590 C   0  0  0  0  0  0  0  0  0  0  0  0
  149.1430  141.6253  156.5883 N   0  0  0  0  0  0  0  0  0  0  0  0
  148.1140  142.0503  157.4454 C   0  0  0  0  0  0  0  0  0  0  0  0
  146.8847  142.1182  157.0515 N   0  0  0  0  0  0  0  0  0  0  0  0
  146.5527  141.7643  155.7408 C   0  0  0  0  0  0  0  0  0  0  0  0
  145.0820  141.8830  155.3819 C   0  0  0  0  0  0  0  0  0  0  0  0
  147.5016  141.3437  154.8603 C   0  0  0  0  0  0  0  0  0  0  0  0
  147.1990  140.9460  153.4209 C   0  0  0  0  0  0  0  0  0  0  0  0
  148.9053  141.2595  155.2954 C   0  0  0  0  0  0  0  0  0  0  0  0
  149.8122  140.8854  154.5494 O   0  0  0  0  0  0  0  0  0  0  0  0
  151.8683  145.1865  161.2402 H   0  0  0  0  0  0  0  0  0  0  0  0
  150.4641  144.5388  160.4014 H   0  0  0  0  0  0  0  0  0  0  0  0
  151.7398  145.3678  159.4923 H   0  0  0  0  0  0  0  0  0  0  0  0
  153.5868  143.7013  161.8011 H   0  0  0  0  0  0  0  0  0  0  0  0
  154.7869  141.5522  161.5489 H   0  0  0  0  0  0  0  0  0  0  0  0
  154.1479  139.9733  159.7362 H   0  0  0  0  0  0  0  0  0  0  0  0
  152.3204  140.5478  158.1773 H   0  0  0  0  0  0  0  0  0  0  0  0
  149.8674  143.0510  158.6500 H   0  0  0  0  0  0  0  0  0  0  0  0
  150.2663  144.2989  156.9826 H   0  0  0  0  0  0  0  0  0  0  0  0
  151.2704  141.5387  156.3866 H   0  0  0  0  0  0  0  0  0  0  0  0
  150.6191  140.6745  157.7254 H   0  0  0  0  0  0  0  0  0  0  0  0
  148.4263  142.3187  158.4560 H   0  0  0  0  0  0  0  0  0  0  0  0
  144.9447  142.5873  154.5610 H   0  0  0  0  0  0  0  0  0  0  0  0
  144.4934  142.2384  156.2285 H   0  0  0  0  0  0  0  0  0  0  0  0
  144.6831  140.9138  155.0813 H   0  0  0  0  0  0  0  0  0  0  0  0
  147.4929  139.9104  153.2468 H   0  0  0  0  0  0  0  0  0  0  0  0
  147.7601  141.5777  152.7314 H   0  0  0  0  0  0  0  0  0  0  0  0
  146.1454  141.0356  153.1624 H   0  0  0  0  0  0  0  0  0  0  0  0
  1  2  1  0  0  0  0
  1 20  1  0  0  0  0
  1 21  1  0  0  0  0
  1 22  1  0  0  0  0
  2  7  1  0  0  0  0
  2  3  2  0  0  0  0
  3  4  1  0  0  0  0
  3 23  1  0  0  0  0
  4  5  2  0  0  0  0
  4 24  1  0  0  0  0
  5  6  1  0  0  0  0
  5 25  1  0  0  0  0
  6  7  2  0  0  0  0
  6 26  1  0  0  0  0
  7  8  1  0  0  0  0
  8  9  1  0  0  0  0
  8 10  1  0  0  0  0
  8 27  1  0  0  0  0
  9 28  1  0  0  0  0
 10 11  1  0  0  0  0
 10 29  1  0  0  0  0
 10 30  1  0  0  0  0
 11 18  1  0  0  0  0
 11 12  1  0  0  0  0
 12 13  2  0  0  0  0
 12 31  1  0  0  0  0
 13 14  1  0  0  0  0
 14 15  1  0  0  0  0
 14 16  2  0  0  0  0
 15 32  1  0  0  0  0
 15 33  1  0  0  0  0
 15 34  1  0  0  0  0
 16 17  1  0  0  0  0
 16 18  1  0  0  0  0
 17 35  1  0  0  0  0
 17 36  1  0  0  0  0
 17 37  1  0  0  0  0
 18 19  2  0  0  0  0
M  END
> <s_m_source_file>
AV-unprocessed.smi

> <i_m_source_file_index>
2283

> <i_lp_mmshare_version>
43012

> <i_f3d_flags>
0

> <s_epik_input>
W0NIM11jMVtjSF1bY0hdW2NIXVtjSF1jMVtDQEhdKFtPSF0pW0NIMl1uMltjSF1uYyhbQ0gzXSljKFtDSDNdKWMyPU8=

> <s_epik_cmdline>
J2VwaWtfcHl0aG9uJywgJy1waCcsICc3LjAnLCAnLXRuJywgJzgnLCAnLW1hJywgJzIwMCcsICctbWV0YWxfYmluZGluZycsICctaW1hZScsICc8aW5maWxlLm1hZT4nLCAnLW9tYWUnLCAnPG91dGZpbGUubWFlPic=

> <r_lp_tautomer_probability>
1

> <r_epik_Ionization_Penalty>
5.07259e-05

> <r_epik_Ionization_Penalty_Charging>
7.56727e-08

> <r_epik_Ionization_Penalty_Neutral>
5.06502e-05

> <r_epik_State_Penalty>
-0

> <r_epik_Charging_Adjusted_Penalty>
7.56727e-08

> <i_epik_Tot_Q>
0

> <i_epik_Tot_abs_Q>
0

> <r_epik_Metal_State_Penalty>
-0

> <b_epik_Metal_Only>
0

> <s_lp_Force_Field>
OPLS_2005

> <r_lp_Energy>
21.1785

> <b_lp_Chiralities_Consistent>
1

> <s_lp_Variant>
AV-unprocessed.smi:2283-2

> <Gold.Version>
5.8.1

> <Gold.Id.Protein>
6NUR|6NUR_protein|mol2

> <Gold.PLP.Fitness>
44.3302

> <Gold.PLP.PLP>
-40.2692

> <Gold.PLP.part.hbond>
-2.0000

> <Gold.PLP.part.metal>
0.0000

> <Gold.PLP.part.buried>
-4.4182

> <Gold.PLP.part.nonpolar>
-33.4140

> <Gold.PLP.part.repulsive>
0.2859

> <Gold.PLP.ligand.clash>
0.0000

> <Gold.PLP.ligand.torsion>
0.5537

> <Gold.PLP.Chemscore.Hbond>
1.7200

> <Gold.PLP.Chemscore.CHOScore>
0.0000

> <Gold.PLP.Chemscore.Metal>
0.0000

> <Gold.Chemscore.Hbonds>
donor molecule, donor type, donor heavy atom, donor atom, acceptor molecule, acceptor atom, score
      L1  H     9    28       P1  8028  1.00
      P1  H  7989  7998       L1    19  0.56

> <Gold.PLP.Chemscore.Internal.Correction>
0.0083

> <Gold.Rescore>
     Score         DG    S(hbond)    S(metal)    S(lipo)     H(rot)  DE(clash)    DE(int)     intcor
     18.07     -19.05       1.71        0.00     108.94       1.91       0.59       0.39       ----

> <Gold.Chemscore.Fitness>
18.0672

> <Gold.Chemscore.DG>
-19.0460

> <Gold.Chemscore.ZeroCoef>
-5.4800

> <Gold.Chemscore.Hbond>
1.7064

> <Gold.Chemscore.Metal>
0.0000

> <Gold.Chemscore.Lipo>
108.9438

> <Gold.Chemscore.Internal_Hbond>
0.0000

> <Gold.Chemscore.DEClash>
0.5929

> <Gold.Chemscore.DEInternal>
0.3859

> <Gold.Chemscore.Rot>
1.9061

> <Gold.Chemscore.Internal.Correction>
   9.000000E+99

> <Gold.Chemscore.Hbonds>
donor molecule, donor type, donor heavy atom, donor atom, acceptor molecule, acceptor atom, score
      L1  H     9    28       P1  8028  0.87
      P1  H  7989  7998       L1    19  0.55

> <Gold.Chemscore.Hbond.Weighted>
-5.6993

> <Gold.Chemscore.Metal.Weighted>
-0.0000

> <Gold.Chemscore.Lipo.Weighted>
-12.7464

> <Gold.Chemscore.Internal_Hbond.Weighted>
0.0000

> <Gold.Chemscore.DEClash.Weighted>
0.5929

> <Gold.Chemscore.DEInternal.Weighted>
0.3859

> <Gold.Chemscore.Rot.Weighted>
4.8797

> <Gold.Chemscore.Internal.Correction.Weighted>
   9.000000E+99

> <Gold.Protein.RotatedTorsions>
[ 6907 6896 6895 6894 ] final  -32.25 input  -60.11 | X-H torsion
[ 7974 7965 7964 7962 ] final   68.18 input  175.53 | X-H torsion
[ 8008 7997 7996 7995 ] final   -3.68 input   59.86 | X-H torsion
[ 10167 10162 10161 10158 ] final   38.84 input  -65.29 | X-H torsion
[ 10718 10713 10712 10709 ] final   35.45 input   66.30 | X-H torsion
[ 10763 10752 10751 10750 ] final  -53.76 input  -60.55 | X-H torsion
[ 11005 11000 10999 10996 ] final   43.93 input  -57.11 | X-H torsion

> <Gold.Protein.ActiveResidues>
 VAL166  LYS551  ARG553  GLY616  TRP617  ASP618  TYR619  PRO620  LYS621  CYS622 
 ASP623  PHE694  ASN695  SER759  ASP760  ASP761  ALA762  ILE779  LEU786  VAL792 
 PHE793  MET794  SER795  GLU796  ALA797  LYS798  CYS799  TRP800  GLU811  SER814 

> <Gold.Protein.RotatedAtoms>
  151.0812  134.9859  159.8356 H   0  0  0  0  0  0  0  0  0  0  0  0  # atno 6907 bound_to 6896
  152.5420  134.2179  159.8786 H   0  0  0  0  0  0  0  0  0  0  0  0  # atno 6908 bound_to 6896
  151.2210  133.4459  159.2634 H   0  0  0  0  0  0  0  0  0  0  0  0  # atno 6909 bound_to 6896
  145.8057  139.3005  143.1128 H   0  0  0  0  0  0  0  0  0  0  0  0  # atno 7974 bound_to 7965
  154.6223  140.2503  155.7534 H   0  0  0  0  0  0  0  0  0  0  0  0  # atno 8008 bound_to 7997
  156.2434  140.2924  156.0456 H   0  0  0  0  0  0  0  0  0  0  0  0  # atno 8009 bound_to 7997
  155.1877  140.0390  157.2884 H   0  0  0  0  0  0  0  0  0  0  0  0  # atno 8010 bound_to 7997
  140.3897  144.1869  150.6131 H   0  0  0  0  0  0  0  0  0  0  0  0  # atno 10167 bound_to 10162
  157.3228  130.7457  149.6796 H   0  0  0  0  0  0  0  0  0  0  0  0  # atno 10718 bound_to 10713
  154.1640  135.6470  153.4993 H   0  0  0  0  0  0  0  0  0  0  0  0  # atno 10763 bound_to 10752
  153.0102  135.5367  154.6681 H   0  0  0  0  0  0  0  0  0  0  0  0  # atno 10764 bound_to 10752
  154.6003  135.2943  155.0514 H   0  0  0  0  0  0  0  0  0  0  0  0  # atno 10765 bound_to 10752
  140.1599  134.4354  155.8325 H   0  0  0  0  0  0  0  0  0  0  0  0  # atno 11005 bound_to 11000
  145.9831  140.8666  143.0104 LP  0  0  0  0  0  0  0  0  0  0  0  0  # atno 17320 bound_to 7965
  144.6763  140.2108  143.7377 LP  0  0  0  0  0  0  0  0  0  0  0  0  # atno 17321 bound_to 7965
  140.4852  143.2365  151.8898 LP  0  0  0  0  0  0  0  0  0  0  0  0  # atno 17342 bound_to 10162
  139.4790  144.5226  151.8780 LP  0  0  0  0  0  0  0  0  0  0  0  0  # atno 17343 bound_to 10162
  155.9687  130.4218  150.4486 LP  0  0  0  0  0  0  0  0  0  0  0  0  # atno 17370 bound_to 10713
  157.2504  131.0545  151.2382 LP  0  0  0  0  0  0  0  0  0  0  0  0  # atno 17371 bound_to 10713
  141.2208  133.6909  156.7575 LP  0  0  0  0  0  0  0  0  0  0  0  0  # atno 17394 bound_to 11000
  140.2502  134.8546  157.3660 LP  0  0  0  0  0  0  0  0  0  0  0  0  # atno 17395 bound_to 11000

$$$$
