AV-unprocessed.smi:1046|AV-procd|sdf|4550|dock10
  -GOLD-   22720 2583D 1   1.00000     0.00000
 Structure written by MMmdl.
 53 55  0  0  0  0  0  0  0  0  2 V2000
  153.6709  142.2172  161.8558 C   0  0  0  0  0  0  0  0  0  0  0  0
  153.0086  141.9997  160.5067 C   0  0  0  0  0  0  0  0  0  0  0  0
  153.3681  140.8689  159.7392 C   0  0  0  0  0  0  0  0  0  0  0  0
  152.7770  140.6313  158.4789 C   0  0  0  0  0  0  0  0  0  0  0  0
  152.9758  139.6049  157.5715 N   0  0  0  0  0  0  0  0  0  0  0  0
  152.1369  139.9431  156.5964 C   0  0  0  0  0  0  0  0  0  0  0  0
  151.4176  141.0696  156.7648 N   0  0  0  0  0  0  0  0  0  0  0  0
  150.4468  141.6376  155.8475 C   0  0  0  0  0  0  0  0  0  0  0  0
  149.7494  140.5559  155.0005 C   0  0  2  0  0  0  0  0  0  0  0  0
  149.8028  140.8887  153.6277 O   0  0  0  0  0  0  0  0  0  0  0  0
  148.2941  140.2069  155.3856 C   0  0  0  0  0  0  0  0  0  0  0  0
  147.3107  140.1642  154.2921 N   0  0  0  0  0  0  0  0  0  0  0  0
  146.1200  139.3862  154.6377 C   0  0  0  0  0  0  0  0  0  0  0  0
  145.2185  140.0812  155.6769 C   0  0  0  0  0  0  0  0  0  0  0  0
  144.7830  141.4069  155.1705 N   0  3  0  0  0  0  0  0  0  0  0  0
  143.8370  142.0839  156.0932 C   0  0  0  0  0  0  0  0  0  0  0  0
  142.5082  141.3235  156.2451 C   0  0  0  0  0  0  0  0  0  0  0  0
  142.0206  140.9425  154.9758 O   0  0  0  0  0  0  0  0  0  0  0  0
  145.9607  142.2358  154.8025 C   0  0  0  0  0  0  0  0  0  0  0  0
  146.8655  141.4770  153.8082 C   0  0  0  0  0  0  0  0  0  0  0  0
  151.8090  141.5637  158.0039 C   0  0  0  0  0  0  0  0  0  0  0  0
  151.4419  142.6918  158.7584 C   0  0  0  0  0  0  0  0  0  0  0  0
  152.0410  142.9134  160.0161 C   0  0  0  0  0  0  0  0  0  0  0  0
  151.6369  144.1336  160.8243 C   0  0  0  0  0  0  0  0  0  0  0  0
  154.4290  141.4592  162.0543 H   0  0  0  0  0  0  0  0  0  0  0  0
  152.9309  142.1688  162.6551 H   0  0  0  0  0  0  0  0  0  0  0  0
  154.1573  143.1923  161.8914 H   0  0  0  0  0  0  0  0  0  0  0  0
  154.1031  140.1716  160.1133 H   0  0  0  0  0  0  0  0  0  0  0  0
  152.0377  139.3359  155.7085 H   0  0  0  0  0  0  0  0  0  0  0  0
  149.7133  142.1941  156.4323 H   0  0  0  0  0  0  0  0  0  0  0  0
  150.9669  142.3533  155.2110 H   0  0  0  0  0  0  0  0  0  0  0  0
  150.3228  139.6343  155.1097 H   0  0  0  0  0  0  0  0  0  0  0  0
  149.5818  140.1196  153.1248 H   0  0  0  0  0  0  0  0  0  0  0  0
  148.3361  139.2235  155.8565 H   0  0  0  0  0  0  0  0  0  0  0  0
  147.9583  140.8776  156.1755 H   0  0  0  0  0  0  0  0  0  0  0  0
  145.5389  139.2033  153.7327 H   0  0  0  0  0  0  0  0  0  0  0  0
  146.4125  138.4003  155.0012 H   0  0  0  0  0  0  0  0  0  0  0  0
  144.3442  139.4574  155.8674 H   0  0  0  0  0  0  0  0  0  0  0  0
  145.7390  140.1968  156.6289 H   0  0  0  0  0  0  0  0  0  0  0  0
  144.2933  142.1782  157.0798 H   0  0  0  0  0  0  0  0  0  0  0  0
  143.6535  143.1008  155.7438 H   0  0  0  0  0  0  0  0  0  0  0  0
  142.6675  140.4197  156.8338 H   0  0  0  0  0  0  0  0  0  0  0  0
  141.7548  141.9099  156.7699 H   0  0  0  0  0  0  0  0  0  0  0  0
  142.7569  140.7452  154.4162 H   0  0  0  0  0  0  0  0  0  0  0  0
  145.6333  143.1635  154.3347 H   0  0  0  0  0  0  0  0  0  0  0  0
  146.5135  142.5199  155.6985 H   0  0  0  0  0  0  0  0  0  0  0  0
  147.7100  142.1066  153.5452 H   0  0  0  0  0  0  0  0  0  0  0  0
  146.3133  141.3362  152.8781 H   0  0  0  0  0  0  0  0  0  0  0  0
  150.7041  143.3792  158.3720 H   0  0  0  0  0  0  0  0  0  0  0  0
  150.8393  144.6904  160.3314 H   0  0  0  0  0  0  0  0  0  0  0  0
  152.4865  144.8048  160.9508 H   0  0  0  0  0  0  0  0  0  0  0  0
  151.2773  143.8392  161.8104 H   0  0  0  0  0  0  0  0  0  0  0  0
  144.2698  141.2274  154.3190 H   0  0  0  0  0  0  0  0  0  0  0  0
  1  2  1  0  0  0  0
  1 25  1  0  0  0  0
  1 26  1  0  0  0  0
  1 27  1  0  0  0  0
  2 23  1  0  0  0  0
  2  3  2  0  0  0  0
  3  4  1  0  0  0  0
  3 28  1  0  0  0  0
  4 21  2  0  0  0  0
  4  5  1  0  0  0  0
  5  6  2  0  0  0  0
  6  7  1  0  0  0  0
  6 29  1  0  0  0  0
  7  8  1  0  0  0  0
  7 21  1  0  0  0  0
  8  9  1  0  0  0  0
  8 30  1  0  0  0  0
  8 31  1  0  0  0  0
  9 10  1  0  0  0  0
  9 11  1  0  0  0  0
  9 32  1  0  0  0  0
 10 33  1  0  0  0  0
 11 12  1  0  0  0  0
 11 34  1  0  0  0  0
 11 35  1  0  0  0  0
 12 20  1  0  0  0  0
 12 13  1  0  0  0  0
 13 14  1  0  0  0  0
 13 36  1  0  0  0  0
 13 37  1  0  0  0  0
 14 15  1  0  0  0  0
 14 38  1  0  0  0  0
 14 39  1  0  0  0  0
 15 16  1  0  0  0  0
 15 19  1  0  0  0  0
 15 53  1  0  0  0  0
 16 17  1  0  0  0  0
 16 40  1  0  0  0  0
 16 41  1  0  0  0  0
 17 18  1  0  0  0  0
 17 42  1  0  0  0  0
 17 43  1  0  0  0  0
 18 44  1  0  0  0  0
 19 20  1  0  0  0  0
 19 45  1  0  0  0  0
 19 46  1  0  0  0  0
 20 47  1  0  0  0  0
 20 48  1  0  0  0  0
 21 22  1  0  0  0  0
 22 23  2  0  0  0  0
 22 49  1  0  0  0  0
 23 24  1  0  0  0  0
 24 50  1  0  0  0  0
 24 51  1  0  0  0  0
 24 52  1  0  0  0  0
M  CHG  1  15   1
M  END
> <s_m_source_file>
AV-unprocessed.smi

> <i_m_source_file_index>
1046

> <i_lp_mmshare_version>
43012

> <i_f3d_flags>
0

> <s_epik_input>
W0NIM11jKFtjSF0xKWMoW0NIM10pW2NIXWMoYzEyKW4oW2NIXW4yKVtDSDJdW0NASF0oW09IXSlbQ0gyXU4zW0NIMl1bQ0gyXU4oW0NIMl1bQ0gyXTMpW0NIMl1bQ0gyXVtPSF0=

> <s_epik_cmdline>
J2VwaWtfcHl0aG9uJywgJy1waCcsICc3LjAnLCAnLXRuJywgJzgnLCAnLW1hJywgJzIwMCcsICctbWV0YWxfYmluZGluZycsICctaW1hZScsICc8aW5maWxlLm1hZT4nLCAnLW9tYWUnLCAnPG91dGZpbGUubWFlPic=

> <r_epik_Ionization_Penalty>
0.218081

> <r_epik_Ionization_Penalty_Charging>
0.0909554

> <r_epik_Ionization_Penalty_Neutral>
0.127126

> <r_epik_State_Penalty>
0.825642

> <r_epik_Charging_Adjusted_Penalty>
0.916597

> <i_epik_Tot_Q>
1

> <i_epik_Tot_abs_Q>
1

> <r_epik_Metal_State_Penalty>
0.740189

> <b_epik_Metal_Only>
0

> <s_lp_Force_Field>
OPLS_2005

> <r_lp_Energy>
40.3597

> <b_lp_Chiralities_Consistent>
1

> <s_lp_Variant>
AV-unprocessed.smi:1046-3

> <Gold.Version>
5.8.1

> <Gold.Id.Protein>
6NUR|6NUR_protein|mol2

> <Gold.PLP.Fitness>
60.5374

> <Gold.PLP.PLP>
-46.8584

> <Gold.PLP.part.hbond>
-6.6821

> <Gold.PLP.part.metal>
0.0000

> <Gold.PLP.part.buried>
-4.6484

> <Gold.PLP.part.nonpolar>
-35.5087

> <Gold.PLP.part.repulsive>
0.1133

> <Gold.PLP.ligand.clash>
0.0000

> <Gold.PLP.ligand.torsion>
2.0029

> <Gold.PLP.Chemscore.Hbond>
5.8160

> <Gold.PLP.Chemscore.CHOScore>
0.0000

> <Gold.PLP.Chemscore.Metal>
0.0000

> <Gold.Chemscore.Hbonds>
donor molecule, donor type, donor heavy atom, donor atom, acceptor molecule, acceptor atom, score
      L1  H    10    33       P1  7957  0.48
      L1  H    15    53       P1 10175  1.92
      L1  H    18    44       P1 10175  0.83
      P1  H  7989  7998       L1    10  0.33
      P1  H  7997  8010       L1     5  0.95
      P1  H  8011  8017       L1    10  1.00

> <Gold.PLP.Chemscore.Internal.Correction>
0.2367

> <Gold.Rescore>
     Score         DG    S(hbond)    S(metal)    S(lipo)     H(rot)  DE(clash)    DE(int)     intcor
     20.36     -22.62       3.64        0.00     112.60       3.21       0.10       2.15       ----

> <Gold.Chemscore.Fitness>
20.3632

> <Gold.Chemscore.DG>
-22.6173

> <Gold.Chemscore.ZeroCoef>
-5.4800

> <Gold.Chemscore.Hbond>
3.6436

> <Gold.Chemscore.Metal>
0.0000

> <Gold.Chemscore.Lipo>
112.6014

> <Gold.Chemscore.Internal_Hbond>
0.0000

> <Gold.Chemscore.DEClash>
0.1042

> <Gold.Chemscore.DEInternal>
2.1499

> <Gold.Chemscore.Rot>
3.2058

> <Gold.Chemscore.Internal.Correction>
   9.000000E+99

> <Gold.Chemscore.Hbonds>
donor molecule, donor type, donor heavy atom, donor atom, acceptor molecule, acceptor atom, score
      L1  H    10    33       P1  7957  0.47
      L1  H    15    53       P1 10175  0.64
      L1  H    18    44       P1 10175  0.57
      P1  H  7989  7998       L1    10  0.02
      P1  H  7997  8010       L1     5  0.11
      P1  H  8011  8017       L1    10  0.51

> <Gold.Chemscore.Hbond.Weighted>
-12.1697

> <Gold.Chemscore.Metal.Weighted>
-0.0000

> <Gold.Chemscore.Lipo.Weighted>
-13.1744

> <Gold.Chemscore.Internal_Hbond.Weighted>
0.0000

> <Gold.Chemscore.DEClash.Weighted>
0.1042

> <Gold.Chemscore.DEInternal.Weighted>
2.1499

> <Gold.Chemscore.Rot.Weighted>
8.2067

> <Gold.Chemscore.Internal.Correction.Weighted>
   9.000000E+99

> <Gold.Protein.RotatedTorsions>
[ 6907 6896 6895 6894 ] final  -26.15 input  -60.11 | X-H torsion
[ 7974 7965 7964 7962 ] final -141.83 input  175.53 | X-H torsion
[ 8008 7997 7996 7995 ] final   36.01 input   59.86 | X-H torsion
[ 10167 10162 10161 10158 ] final  -39.65 input  -65.29 | X-H torsion
[ 10718 10713 10712 10709 ] final   78.70 input   66.30 | X-H torsion
[ 10763 10752 10751 10750 ] final  136.06 input  -60.55 | X-H torsion
[ 11005 11000 10999 10996 ] final  127.84 input  -57.11 | X-H torsion

> <Gold.Protein.ActiveResidues>
 VAL166  LYS551  ARG553  GLY616  TRP617  ASP618  TYR619  PRO620  LYS621  CYS622 
 ASP623  PHE694  ASN695  SER759  ASP760  ASP761  ALA762  ILE779  LEU786  VAL792 
 PHE793  MET794  SER795  GLU796  ALA797  LYS798  CYS799  TRP800  GLU811  SER814 

> <Gold.Protein.RotatedAtoms>
  151.1650  135.0291  159.8726 H   0  0  0  0  0  0  0  0  0  0  0  0  # atno 6907 bound_to 6896
  152.5450  134.1235  159.8419 H   0  0  0  0  0  0  0  0  0  0  0  0  # atno 6908 bound_to 6896
  151.1335  133.4974  159.2631 H   0  0  0  0  0  0  0  0  0  0  0  0  # atno 6909 bound_to 6896
  144.8489  140.6032  143.5403 H   0  0  0  0  0  0  0  0  0  0  0  0  # atno 7974 bound_to 7965
  155.1804  140.3299  155.4376 H   0  0  0  0  0  0  0  0  0  0  0  0  # atno 8008 bound_to 7997
  156.2479  140.1928  156.6853 H   0  0  0  0  0  0  0  0  0  0  0  0  # atno 8009 bound_to 7997
  154.6275  140.0587  156.9678 H   0  0  0  0  0  0  0  0  0  0  0  0  # atno 8010 bound_to 7997
  140.7058  143.3201  151.2813 H   0  0  0  0  0  0  0  0  0  0  0  0  # atno 10167 bound_to 10162
  157.6753  130.9880  150.1825 H   0  0  0  0  0  0  0  0  0  0  0  0  # atno 10718 bound_to 10713
  153.8503  135.3080  155.3432 H   0  0  0  0  0  0  0  0  0  0  0  0  # atno 10763 bound_to 10752
  154.7894  135.4791  154.0021 H   0  0  0  0  0  0  0  0  0  0  0  0  # atno 10764 bound_to 10752
  153.1522  135.6845  153.8958 H   0  0  0  0  0  0  0  0  0  0  0  0  # atno 10765 bound_to 10752
  139.9528  134.9619  156.8914 H   0  0  0  0  0  0  0  0  0  0  0  0  # atno 11005 bound_to 11000
  145.4540  139.1520  143.3903 LP  0  0  0  0  0  0  0  0  0  0  0  0  # atno 17320 bound_to 7965
  146.2768  140.4667  142.8792 LP  0  0  0  0  0  0  0  0  0  0  0  0  # atno 17321 bound_to 7965
  139.6652  144.0117  152.2718 LP  0  0  0  0  0  0  0  0  0  0  0  0  # atno 17342 bound_to 10162
  139.9698  144.6501  150.8000 LP  0  0  0  0  0  0  0  0  0  0  0  0  # atno 17343 bound_to 10162
  156.2554  130.3705  149.8187 LP  0  0  0  0  0  0  0  0  0  0  0  0  # atno 17370 bound_to 10713
  156.5947  130.8521  151.3417 LP  0  0  0  0  0  0  0  0  0  0  0  0  # atno 17371 bound_to 10713
  140.5678  134.0473  155.7420 LP  0  0  0  0  0  0  0  0  0  0  0  0  # atno 17394 bound_to 11000
  141.1195  133.9485  157.2758 LP  0  0  0  0  0  0  0  0  0  0  0  0  # atno 17395 bound_to 11000

$$$$
