AV-unprocessed.smi:1605|AV-procd|sdf|6452|dock3
  -GOLD-   22720 7103D 1   1.00000     0.00000
 Structure written by MMmdl.
 51 53  0  0  0  0  0  0  0  0  2 V2000
  143.5220  143.7456  157.5291 C   0  0  0  0  0  0  0  0  0  0  0  0
  144.1784  144.3237  156.4117 O   0  0  0  0  0  0  0  0  0  0  0  0
  144.9142  143.4006  155.6200 C   0  0  2  0  0  0  0  0  0  0  0  0
  146.0004  142.7870  156.5155 C   0  0  0  0  0  0  0  0  0  0  0  0
  146.9212  141.8510  155.7158 C   0  0  0  0  0  0  0  0  0  0  0  0
  147.5429  142.5640  154.5700 N   0  3  1  0  0  0  0  0  0  0  0  0
  148.5505  141.7270  153.8685 C   0  0  0  0  0  0  0  0  0  0  0  0
  149.4924  140.9741  154.8356 C   0  0  1  0  0  0  0  0  0  0  0  0
  150.1269  139.9232  154.1324 O   0  0  0  0  0  0  0  0  0  0  0  0
  150.5724  141.8821  155.4660 C   0  0  0  0  0  0  0  0  0  0  0  0
  151.0799  141.3961  156.7396 N   0  0  0  0  0  0  0  0  0  0  0  0
  151.3203  140.1155  157.0823 C   0  0  0  0  0  0  0  0  0  0  0  0
  151.7762  139.8878  158.3100 N   0  0  0  0  0  0  0  0  0  0  0  0
  151.8562  141.1722  158.8205 C   0  0  0  0  0  0  0  0  0  0  0  0
  152.2739  141.6303  160.0893 C   0  0  0  0  0  0  0  0  0  0  0  0
  152.2761  143.0094  160.3976 C   0  0  0  0  0  0  0  0  0  0  0  0
  152.7325  143.4580  161.7750 C   0  0  0  0  0  0  0  0  0  0  0  0
  151.8584  143.9548  159.4268 C   0  0  0  0  0  0  0  0  0  0  0  0
  151.8554  145.4420  159.7331 C   0  0  0  0  0  0  0  0  0  0  0  0
  151.4357  143.5140  158.1555 C   0  0  0  0  0  0  0  0  0  0  0  0
  151.4340  142.1390  157.8614 C   0  0  0  0  0  0  0  0  0  0  0  0
  146.5107  143.1338  153.6630 C   0  0  0  0  0  0  0  0  0  0  0  0
  145.5796  144.0973  154.4183 C   0  0  0  0  0  0  0  0  0  0  0  0
  143.0230  144.5288  158.0997 H   0  0  0  0  0  0  0  0  0  0  0  0
  144.2322  143.2516  158.1931 H   0  0  0  0  0  0  0  0  0  0  0  0
  142.7633  143.0240  157.2266 H   0  0  0  0  0  0  0  0  0  0  0  0
  144.2578  142.6005  155.2721 H   0  0  0  0  0  0  0  0  0  0  0  0
  146.5958  143.5804  156.9695 H   0  0  0  0  0  0  0  0  0  0  0  0
  145.5387  142.2389  157.3376 H   0  0  0  0  0  0  0  0  0  0  0  0
  147.6976  141.4672  156.3787 H   0  0  0  0  0  0  0  0  0  0  0  0
  146.3605  140.9889  155.3506 H   0  0  0  0  0  0  0  0  0  0  0  0
  148.0373  140.9954  153.2427 H   0  0  0  0  0  0  0  0  0  0  0  0
  149.1258  142.3567  153.1880 H   0  0  0  0  0  0  0  0  0  0  0  0
  148.9272  140.5279  155.6527 H   0  0  0  0  0  0  0  0  0  0  0  0
  149.7170  139.8251  153.2870 H   0  0  0  0  0  0  0  0  0  0  0  0
  151.4152  141.9800  154.7803 H   0  0  0  0  0  0  0  0  0  0  0  0
  150.1817  142.8902  155.6118 H   0  0  0  0  0  0  0  0  0  0  0  0
  151.1407  139.3028  156.3935 H   0  0  0  0  0  0  0  0  0  0  0  0
  152.5952  140.9102  160.8274 H   0  0  0  0  0  0  0  0  0  0  0  0
  153.6311  144.0702  161.6975 H   0  0  0  0  0  0  0  0  0  0  0  0
  152.9611  142.6061  162.4160 H   0  0  0  0  0  0  0  0  0  0  0  0
  151.9546  144.0434  162.2656 H   0  0  0  0  0  0  0  0  0  0  0  0
  151.5589  146.0270  158.8620 H   0  0  0  0  0  0  0  0  0  0  0  0
  152.8491  145.7740  160.0353 H   0  0  0  0  0  0  0  0  0  0  0  0
  151.1554  145.6634  160.5391 H   0  0  0  0  0  0  0  0  0  0  0  0
  151.1120  144.2235  157.4083 H   0  0  0  0  0  0  0  0  0  0  0  0
  146.9782  143.6727  152.8402 H   0  0  0  0  0  0  0  0  0  0  0  0
  145.9294  142.3250  153.2174 H   0  0  0  0  0  0  0  0  0  0  0  0
  144.8267  144.4801  153.7296 H   0  0  0  0  0  0  0  0  0  0  0  0
  146.1507  144.9604  154.7636 H   0  0  0  0  0  0  0  0  0  0  0  0
  148.0497  143.3410  154.9694 H   0  0  0  0  0  0  0  0  0  0  0  0
  1  2  1  0  0  0  0
  1 24  1  0  0  0  0
  1 25  1  0  0  0  0
  1 26  1  0  0  0  0
  2  3  1  0  0  0  0
  3 23  1  0  0  0  0
  3  4  1  0  0  0  0
  3 27  1  0  0  0  0
  4  5  1  0  0  0  0
  4 28  1  0  0  0  0
  4 29  1  0  0  0  0
  5  6  1  0  0  0  0
  5 30  1  0  0  0  0
  5 31  1  0  0  0  0
  6  7  1  0  0  0  0
  6 22  1  0  0  0  0
  6 51  1  0  0  0  0
  7  8  1  0  0  0  0
  7 32  1  0  0  0  0
  7 33  1  0  0  0  0
  8  9  1  0  0  0  0
  8 10  1  0  0  0  0
  8 34  1  0  0  0  0
  9 35  1  0  0  0  0
 10 11  1  0  0  0  0
 10 36  1  0  0  0  0
 10 37  1  0  0  0  0
 11 21  1  0  0  0  0
 11 12  1  0  0  0  0
 12 13  2  0  0  0  0
 12 38  1  0  0  0  0
 13 14  1  0  0  0  0
 14 21  2  0  0  0  0
 14 15  1  0  0  0  0
 15 16  2  0  0  0  0
 15 39  1  0  0  0  0
 16 17  1  0  0  0  0
 16 18  1  0  0  0  0
 17 40  1  0  0  0  0
 17 41  1  0  0  0  0
 17 42  1  0  0  0  0
 18 19  1  0  0  0  0
 18 20  2  0  0  0  0
 19 43  1  0  0  0  0
 19 44  1  0  0  0  0
 19 45  1  0  0  0  0
 20 21  1  0  0  0  0
 20 46  1  0  0  0  0
 22 23  1  0  0  0  0
 22 47  1  0  0  0  0
 22 48  1  0  0  0  0
 23 49  1  0  0  0  0
 23 50  1  0  0  0  0
M  CHG  1   6   1
M  END
> <s_m_source_file>
AV-unprocessed.smi

> <i_m_source_file_index>
1605

> <i_lp_mmshare_version>
43012

> <i_f3d_flags>
0

> <s_epik_input>
W0NIM11PW0NIXTFbQ0gyXVtDSDJdTihbQ0gyXVtDSDJdMSlbQ0gyXVtDQEhdKFtPSF0pW0NIMl1uKFtjSF1uMiljKGMyMylbY0hdYyhbQ0gzXSljKFtjSF0zKVtDSDNd

> <s_epik_cmdline>
J2VwaWtfcHl0aG9uJywgJy1waCcsICc3LjAnLCAnLXRuJywgJzgnLCAnLW1hJywgJzIwMCcsICctbWV0YWxfYmluZGluZycsICctaW1hZScsICc8aW5maWxlLm1hZT4nLCAnLW9tYWUnLCAnPG91dGZpbGUubWFlPic=

> <r_epik_Ionization_Penalty>
0.110943

> <r_epik_Ionization_Penalty_Charging>
0.0229283

> <r_epik_Ionization_Penalty_Neutral>
0.0880146

> <r_epik_State_Penalty>
0.0947554

> <r_epik_Charging_Adjusted_Penalty>
0.117684

> <i_epik_Tot_Q>
1

> <i_epik_Tot_abs_Q>
1

> <r_epik_Metal_State_Penalty>
0.0192456

> <b_epik_Metal_Only>
0

> <s_lp_Force_Field>
OPLS_2005

> <r_lp_Energy>
23.4204

> <b_lp_Chiralities_Consistent>
1

> <s_lp_Variant>
AV-unprocessed.smi:1605-2

> <Gold.Version>
5.8.1

> <Gold.Id.Protein>
6NUR|6NUR_protein|mol2

> <Gold.PLP.Fitness>
58.8391

> <Gold.PLP.PLP>
-48.5245

> <Gold.PLP.part.hbond>
-3.0000

> <Gold.PLP.part.metal>
0.0000

> <Gold.PLP.part.buried>
-5.8549

> <Gold.PLP.part.nonpolar>
-38.4388

> <Gold.PLP.part.repulsive>
0.1346

> <Gold.PLP.ligand.clash>
0.0000

> <Gold.PLP.ligand.torsion>
0.7885

> <Gold.PLP.Chemscore.Hbond>
3.9513

> <Gold.PLP.Chemscore.CHOScore>
0.0000

> <Gold.PLP.Chemscore.Metal>
0.0000

> <Gold.Chemscore.Hbonds>
donor molecule, donor type, donor heavy atom, donor atom, acceptor molecule, acceptor atom, score
      L1  H     6    51       P1  8028  2.00
      L1  H     9    35       P1  7957  0.73
      P1  H  7989  7998       L1     9  0.71

> <Gold.PLP.Chemscore.Internal.Correction>
0.0379

> <Gold.Rescore>
     Score         DG    S(hbond)    S(metal)    S(lipo)     H(rot)  DE(clash)    DE(int)     intcor
     18.10     -20.09       1.74        0.00     123.64       2.22       0.90       1.10       ----

> <Gold.Chemscore.Fitness>
18.0966

> <Gold.Chemscore.DG>
-20.0907

> <Gold.Chemscore.ZeroCoef>
-5.4800

> <Gold.Chemscore.Hbond>
1.7425

> <Gold.Chemscore.Metal>
0.0000

> <Gold.Chemscore.Lipo>
123.6429

> <Gold.Chemscore.Internal_Hbond>
0.0000

> <Gold.Chemscore.DEClash>
0.8983

> <Gold.Chemscore.DEInternal>
1.0957

> <Gold.Chemscore.Rot>
2.2169

> <Gold.Chemscore.Internal.Correction>
   9.000000E+99

> <Gold.Chemscore.Hbonds>
donor molecule, donor type, donor heavy atom, donor atom, acceptor molecule, acceptor atom, score
      L1  H     6    51       P1  8028  0.85
      L1  H     9    35       P1  7957  0.71
      P1  H  7989  7998       L1     9  0.02

> <Gold.Chemscore.Hbond.Weighted>
-5.8198

> <Gold.Chemscore.Metal.Weighted>
-0.0000

> <Gold.Chemscore.Lipo.Weighted>
-14.4662

> <Gold.Chemscore.Internal_Hbond.Weighted>
0.0000

> <Gold.Chemscore.DEClash.Weighted>
0.8983

> <Gold.Chemscore.DEInternal.Weighted>
1.0957

> <Gold.Chemscore.Rot.Weighted>
5.6753

> <Gold.Chemscore.Internal.Correction.Weighted>
   9.000000E+99

> <Gold.Protein.RotatedTorsions>
[ 6907 6896 6895 6894 ] final  160.21 input  -60.11 | X-H torsion
[ 7974 7965 7964 7962 ] final  113.68 input  175.53 | X-H torsion
[ 8008 7997 7996 7995 ] final  142.33 input   59.86 | X-H torsion
[ 10167 10162 10161 10158 ] final -179.54 input  -65.29 | X-H torsion
[ 10718 10713 10712 10709 ] final  -64.14 input   66.30 | X-H torsion
[ 10763 10752 10751 10750 ] final  122.74 input  -60.55 | X-H torsion
[ 11005 11000 10999 10996 ] final   79.33 input  -57.11 | X-H torsion

> <Gold.Protein.ActiveResidues>
 VAL166  LYS551  ARG553  GLY616  TRP617  ASP618  TYR619  PRO620  LYS621  CYS622 
 ASP623  PHE694  ASN695  SER759  ASP760  ASP761  ALA762  ILE779  LEU786  VAL792 
 PHE793  MET794  SER795  GLU796  ALA797  LYS798  CYS799  TRP800  GLU811  SER814 

> <Gold.Protein.RotatedAtoms>
  151.9741  133.3735  159.4081 H   0  0  0  0  0  0  0  0  0  0  0  0  # atno 6907 bound_to 6896
  150.6944  134.4109  159.5170 H   0  0  0  0  0  0  0  0  0  0  0  0  # atno 6908 bound_to 6896
  152.1817  134.8748  160.0576 H   0  0  0  0  0  0  0  0  0  0  0  0  # atno 6909 bound_to 6896
  145.2139  139.2893  143.4254 H   0  0  0  0  0  0  0  0  0  0  0  0  # atno 7974 bound_to 7965
  156.2951  140.2291  156.4710 H   0  0  0  0  0  0  0  0  0  0  0  0  # atno 8008 bound_to 7997
  154.7935  140.0453  157.1240 H   0  0  0  0  0  0  0  0  0  0  0  0  # atno 8009 bound_to 7997
  154.9617  140.3055  155.5031 H   0  0  0  0  0  0  0  0  0  0  0  0  # atno 8010 bound_to 7997
  139.5382  144.2438  152.0839 H   0  0  0  0  0  0  0  0  0  0  0  0  # atno 10167 bound_to 10162
  156.0747  130.4229  150.1377 H   0  0  0  0  0  0  0  0  0  0  0  0  # atno 10718 bound_to 10713
  153.6345  135.3390  155.3052 H   0  0  0  0  0  0  0  0  0  0  0  0  # atno 10763 bound_to 10752
  154.8573  135.4303  154.2070 H   0  0  0  0  0  0  0  0  0  0  0  0  # atno 10764 bound_to 10752
  153.2974  135.7022  153.7309 H   0  0  0  0  0  0  0  0  0  0  0  0  # atno 10765 bound_to 10752
  139.9177  134.7834  156.1765 H   0  0  0  0  0  0  0  0  0  0  0  0  # atno 11005 bound_to 11000
  146.3391  140.2423  142.8596 LP  0  0  0  0  0  0  0  0  0  0  0  0  # atno 17320 bound_to 7965
  144.9830  140.8477  143.5386 LP  0  0  0  0  0  0  0  0  0  0  0  0  # atno 17321 bound_to 7965
  140.1912  144.4750  150.6478 LP  0  0  0  0  0  0  0  0  0  0  0  0  # atno 17342 bound_to 10162
  140.6599  143.2249  151.5881 LP  0  0  0  0  0  0  0  0  0  0  0  0  # atno 17343 bound_to 10162
  156.9421  130.9748  151.3514 LP  0  0  0  0  0  0  0  0  0  0  0  0  # atno 17370 bound_to 10713
  157.5837  130.8394  149.8558 LP  0  0  0  0  0  0  0  0  0  0  0  0  # atno 17371 bound_to 10713
  141.0669  133.6815  156.2062 LP  0  0  0  0  0  0  0  0  0  0  0  0  # atno 17394 bound_to 11000
  140.6571  134.5006  157.5581 LP  0  0  0  0  0  0  0  0  0  0  0  0  # atno 17395 bound_to 11000

$$$$
