AV-unprocessed.smi:1522|AV-procd|sdf|6136|dock9
  -GOLD-   22720 6283D 1   1.00000     0.00000
 Structure written by MMmdl.
 34 35  0  0  0  0  0  0  0  0  3 V2000
  149.7863  134.4448  154.9591 C   0  0  0  0  0  0  0  0  0  0  0  0
  149.0576  135.7682  155.2829 C   0  0  2  0  0  0  0  0  0  0  0  0
  147.5583  135.6582  154.9115 C   0  0  0  0  0  0  0  0  0  0  0  0
  147.3566  135.2222  153.5302 N   0  0  0  0  0  0  0  0  0  0  0  0
  146.5023  134.2823  153.1022 C   0  0  0  0  0  0  0  0  0  0  0  0
  145.8291  133.6435  153.9129 O   0  0  0  0  0  0  0  0  0  0  0  0
  146.4684  134.1536  151.7578 N   0  5  0  0  0  0  0  0  0  0  0  0
  145.4907  133.4377  151.1784 C   0  0  0  0  0  0  0  0  0  0  0  0
  145.7187  132.6265  150.1328 N   0  0  0  0  0  0  0  0  0  0  0  0
  144.5751  131.9801  149.6845 N   0  0  0  0  0  0  0  0  0  0  0  0
  143.5104  132.3145  150.4135 C   0  0  0  0  0  0  0  0  0  0  0  0
  143.8080  133.4503  151.7126 S   0  0  0  0  0  0  0  0  0  0  0  0
  149.6951  136.9445  154.6220 N   0  3  0  0  0  0  0  0  0  0  0  0
  148.9932  138.2290  154.8241 C   0  0  0  0  0  0  0  0  0  0  0  0
  149.9828  139.2913  154.3540 C   0  0  0  0  0  0  0  0  0  0  0  0
  151.3600  138.6949  154.6553 C   0  0  0  0  0  0  0  0  0  0  0  0
  151.1058  137.2160  154.9777 C   0  0  0  0  0  0  0  0  0  0  0  0
  149.2523  133.5938  155.3830 H   0  0  0  0  0  0  0  0  0  0  0  0
  150.7935  134.4193  155.3746 H   0  0  0  0  0  0  0  0  0  0  0  0
  149.8657  134.2806  153.8837 H   0  0  0  0  0  0  0  0  0  0  0  0
  149.1272  135.9152  156.3617 H   0  0  0  0  0  0  0  0  0  0  0  0
  147.0804  134.9203  155.5565 H   0  0  0  0  0  0  0  0  0  0  0  0
  147.0313  136.5933  155.1046 H   0  0  0  0  0  0  0  0  0  0  0  0
  147.8930  135.7045  152.8234 H   0  0  0  0  0  0  0  0  0  0  0  0
  142.5445  131.8887  150.1861 H   0  0  0  0  0  0  0  0  0  0  0  0
  148.0474  138.2877  154.2872 H   0  0  0  0  0  0  0  0  0  0  0  0
  148.7832  138.3677  155.8859 H   0  0  0  0  0  0  0  0  0  0  0  0
  149.8755  139.4398  153.2783 H   0  0  0  0  0  0  0  0  0  0  0  0
  149.8234  140.2542  154.8401 H   0  0  0  0  0  0  0  0  0  0  0  0
  152.0232  138.8066  153.7966 H   0  0  0  0  0  0  0  0  0  0  0  0
  151.8309  139.1953  155.5022 H   0  0  0  0  0  0  0  0  0  0  0  0
  151.2536  137.0539  156.0466 H   0  0  0  0  0  0  0  0  0  0  0  0
  151.7858  136.5569  154.4366 H   0  0  0  0  0  0  0  0  0  0  0  0
  149.6857  136.7651  153.6270 H   0  0  0  0  0  0  0  0  0  0  0  0
  1  2  1  0  0  0  0
  1 18  1  0  0  0  0
  1 19  1  0  0  0  0
  1 20  1  0  0  0  0
  2  3  1  0  0  0  0
  2 13  1  0  0  0  0
  2 21  1  0  0  0  0
  3  4  1  0  0  0  0
  3 22  1  0  0  0  0
  3 23  1  0  0  0  0
  4  5  1  0  0  0  0
  4 24  1  0  0  0  0
  5  6  2  0  0  0  0
  5  7  1  0  0  0  0
  7  8  1  0  0  0  0
  8 12  1  0  0  0  0
  8  9  2  0  0  0  0
  9 10  1  0  0  0  0
 10 11  2  0  0  0  0
 11 12  1  0  0  0  0
 11 25  1  0  0  0  0
 13 17  1  0  0  0  0
 13 14  1  0  0  0  0
 13 34  1  0  0  0  0
 14 15  1  0  0  0  0
 14 26  1  0  0  0  0
 14 27  1  0  0  0  0
 15 16  1  0  0  0  0
 15 28  1  0  0  0  0
 15 29  1  0  0  0  0
 16 17  1  0  0  0  0
 16 30  1  0  0  0  0
 16 31  1  0  0  0  0
 17 32  1  0  0  0  0
 17 33  1  0  0  0  0
M  CHG  1   7  -1
M  CHG  1  13   1
M  END
> <s_m_source_file>
AV-unprocessed.smi

> <i_m_source_file_index>
1522

> <i_lp_mmshare_version>
43012

> <i_f3d_flags>
0

> <s_epik_input>
W0NIMl0xW0NIMl1bQ0gyXVtDSDJdTjFbQ0BIXShbQ0gzXSlbQ0gyXVtOSF1DKD1PKVtOSF1jMm5uW2NIXXMy

> <s_epik_cmdline>
J2VwaWtfcHl0aG9uJywgJy1waCcsICc3LjAnLCAnLXRuJywgJzgnLCAnLW1hJywgJzIwMCcsICctbWV0YWxfYmluZGluZycsICctaW1hZScsICc8aW5maWxlLm1hZT4nLCAnLW9tYWUnLCAnPG91dGZpbGUubWFlPic=

> <r_lp_tautomer_probability>
1

> <r_epik_Ionization_Penalty>
3.04208

> <r_epik_Ionization_Penalty_Charging>
3.00964

> <r_epik_Ionization_Penalty_Neutral>
0.0324455

> <r_epik_State_Penalty>
3.0051

> <r_epik_Charging_Adjusted_Penalty>
6.01474

> <i_epik_Tot_Q>
0

> <i_epik_Tot_abs_Q>
2

> <r_epik_Metal_State_Penalty>
0.454155

> <b_epik_Metal_Only>
1

> <s_lp_Force_Field>
OPLS_2005

> <r_lp_Energy>
27.863

> <b_lp_Chiralities_Consistent>
1

> <s_lp_Variant>
AV-unprocessed.smi:1522-3

> <Gold.Version>
5.8.1

> <Gold.Id.Protein>
6NUR|6NUR_protein|mol2

> <Gold.PLP.Fitness>
37.1175

> <Gold.PLP.PLP>
-26.1983

> <Gold.PLP.part.hbond>
-2.2100

> <Gold.PLP.part.metal>
0.0000

> <Gold.PLP.part.buried>
-6.0153

> <Gold.PLP.part.nonpolar>
-19.4998

> <Gold.PLP.part.repulsive>
0.6167

> <Gold.PLP.ligand.clash>
0.0000

> <Gold.PLP.ligand.torsion>
0.4935

> <Gold.PLP.Chemscore.Hbond>
2.9263

> <Gold.PLP.Chemscore.CHOScore>
1.0185

> <Gold.PLP.Chemscore.Metal>
0.0000

> <Gold.Chemscore.Hbonds>
donor molecule, donor type, donor heavy atom, donor atom, acceptor molecule, acceptor atom, score
      L1  H     4    24       P1  7948  0.96
      L1  H    13    34       P1  7948  2.00
      L1  C    11    25       P1 10952  1.00

> <Gold.PLP.Chemscore.Internal.Correction>
0.0717

> <Gold.Rescore>
     Score         DG    S(hbond)    S(metal)    S(lipo)     H(rot)  DE(clash)    DE(int)     intcor
     14.08     -14.85       2.22        0.00      53.43       1.68       0.01       0.76       ----

> <Gold.Chemscore.Fitness>
14.0770

> <Gold.Chemscore.DG>
-14.8524

> <Gold.Chemscore.ZeroCoef>
-5.4800

> <Gold.Chemscore.Hbond>
2.2191

> <Gold.Chemscore.Metal>
0.0000

> <Gold.Chemscore.Lipo>
53.4326

> <Gold.Chemscore.Internal_Hbond>
0.0000

> <Gold.Chemscore.DEClash>
0.0130

> <Gold.Chemscore.DEInternal>
0.7624

> <Gold.Chemscore.Rot>
1.6762

> <Gold.Chemscore.Internal.Correction>
   9.000000E+99

> <Gold.Chemscore.Hbonds>
donor molecule, donor type, donor heavy atom, donor atom, acceptor molecule, acceptor atom, score
      L1  H     4    24       P1  7948  0.91
      L1  H    13    34       P1  7948  0.64

> <Gold.Chemscore.Hbond.Weighted>
-7.4118

> <Gold.Chemscore.Metal.Weighted>
-0.0000

> <Gold.Chemscore.Lipo.Weighted>
-6.2516

> <Gold.Chemscore.Internal_Hbond.Weighted>
0.0000

> <Gold.Chemscore.DEClash.Weighted>
0.0130

> <Gold.Chemscore.DEInternal.Weighted>
0.7624

> <Gold.Chemscore.Rot.Weighted>
4.2910

> <Gold.Chemscore.Internal.Correction.Weighted>
   9.000000E+99

> <Gold.Protein.RotatedTorsions>
[ 6907 6896 6895 6894 ] final   78.60 input  -60.11 | X-H torsion
[ 7974 7965 7964 7962 ] final   17.00 input  175.53 | X-H torsion
[ 8008 7997 7996 7995 ] final  -49.07 input   59.86 | X-H torsion
[ 10167 10162 10161 10158 ] final   76.05 input  -65.29 | X-H torsion
[ 10718 10713 10712 10709 ] final -160.02 input   66.30 | X-H torsion
[ 10763 10752 10751 10750 ] final   70.00 input  -60.55 | X-H torsion
[ 11005 11000 10999 10996 ] final  -51.98 input  -57.11 | X-H torsion

> <Gold.Protein.ActiveResidues>
 VAL166  LYS551  ARG553  GLY616  TRP617  ASP618  TYR619  PRO620  LYS621  CYS622 
 ASP623  PHE694  ASN695  SER759  ASP760  ASP761  ALA762  ILE779  LEU786  VAL792 
 PHE793  MET794  SER795  GLU796  ALA797  LYS798  CYS799  TRP800  GLU811  SER814 

> <Gold.Protein.RotatedAtoms>
  152.5166  134.3639  159.9294 H   0  0  0  0  0  0  0  0  0  0  0  0  # atno 6907 bound_to 6896
  151.3592  133.3889  159.2695 H   0  0  0  0  0  0  0  0  0  0  0  0  # atno 6908 bound_to 6896
  150.9665  134.9064  159.7820 H   0  0  0  0  0  0  0  0  0  0  0  0  # atno 6909 bound_to 6896
  146.2232  139.8666  142.8595 H   0  0  0  0  0  0  0  0  0  0  0  0  # atno 7974 bound_to 7965
  154.4038  140.1306  156.4442 H   0  0  0  0  0  0  0  0  0  0  0  0  # atno 8008 bound_to 7997
  155.7429  140.3489  155.5093 H   0  0  0  0  0  0  0  0  0  0  0  0  # atno 8009 bound_to 7997
  155.9022  140.1021  157.1332 H   0  0  0  0  0  0  0  0  0  0  0  0  # atno 8010 bound_to 7997
  139.9964  144.5719  150.7774 H   0  0  0  0  0  0  0  0  0  0  0  0  # atno 10167 bound_to 10162
  156.5762  130.8710  151.2852 H   0  0  0  0  0  0  0  0  0  0  0  0  # atno 10718 bound_to 10713
  153.0317  135.5190  154.7374 H   0  0  0  0  0  0  0  0  0  0  0  0  # atno 10763 bound_to 10752
  154.6384  135.2909  155.0136 H   0  0  0  0  0  0  0  0  0  0  0  0  # atno 10764 bound_to 10752
  154.1062  135.6629  153.4929 H   0  0  0  0  0  0  0  0  0  0  0  0  # atno 10765 bound_to 10752
  141.0900  133.6634  156.3957 H   0  0  0  0  0  0  0  0  0  0  0  0  # atno 11005 bound_to 11000
  145.2650  141.0090  143.3804 LP  0  0  0  0  0  0  0  0  0  0  0  0  # atno 17320 bound_to 7965
  144.9268  139.4345  143.6514 LP  0  0  0  0  0  0  0  0  0  0  0  0  # atno 17321 bound_to 7965
  140.7435  143.2847  151.3496 LP  0  0  0  0  0  0  0  0  0  0  0  0  # atno 17342 bound_to 10162
  139.6303  144.0734  152.2470 LP  0  0  0  0  0  0  0  0  0  0  0  0  # atno 17343 bound_to 10162
  157.7337  130.9734  150.1991 LP  0  0  0  0  0  0  0  0  0  0  0  0  # atno 17370 bound_to 10713
  156.2671  130.3717  149.8070 LP  0  0  0  0  0  0  0  0  0  0  0  0  # atno 17371 bound_to 10713
  140.5274  134.6246  157.5338 LP  0  0  0  0  0  0  0  0  0  0  0  0  # atno 17394 bound_to 11000
  139.9724  134.7270  156.0015 LP  0  0  0  0  0  0  0  0  0  0  0  0  # atno 17395 bound_to 11000

$$$$
