#       Name:                AV-unprocessed.smi:2061
#       Creating user name   scv26
#       Creation time:       Fri Mar 27 11:03:40 2020


#       File generated by GOLD software.
#

@<TRIPOS>MOLECULE
AV-unprocessed.smi:2061
    53    54     1
SMALL
NO_CHARGES


@<TRIPOS>ATOM
      1 ****        -4.6994   6.8424   2.1554 C.3            1 S1                 0.0000
      2 ****        -4.0908   5.5072   1.8957 C.2            1 S1                 0.0000
      3 ****        -3.3190   5.0191   0.8790 C.2            1 S1                 0.0000
      4 ****        -3.0945   3.6714   1.2670 C.2            1 S1                 0.0000
      5 ****        -2.3193   2.8015   0.4585 N.am           1 S1                 0.0000
      6 ****        -2.0146   1.5146   0.6976 C.2            1 S1                 0.0000
      7 ****        -2.3664   0.8767   1.6902 O.2            1 S1                 0.0000
      8 ****        -1.2645   1.0030  -0.2896 N.am           1 S1                 0.0000
      9 ****        -0.7555  -0.3655  -0.3522 C.3            1 S1                 0.0000
     10 ****         0.7983  -0.4334  -0.3570 C.3            1 S1                 0.0000
     11 ****         1.3375   0.2808   0.9088 C.3            1 S1                 0.0000
     12 ****         1.3213  -1.8131  -0.5031 N.3            1 S1                 0.0000
     13 ****         2.7865  -1.8657  -0.5094 C.3            1 S1                 0.0000
     14 ****         3.3335  -3.2990  -0.6339 C.3            1 S1                 0.0000
     15 ****         4.8634  -3.3261  -0.7183 C.3            1 S1                 0.0000
     16 ****         2.8170  -3.9037  -1.8144 O.3            1 S1                 0.0000
     17 ****         1.3947  -3.9031  -1.9106 C.3            1 S1                 0.0000
     18 ****         0.7546  -4.9350  -0.9661 C.3            1 S1                 0.0000
     19 ****         0.8420  -2.4762  -1.7216 C.3            1 S1                 0.0000
     20 ****        -3.6766   3.3645   2.4162 N.2            1 S1                 0.0000
     21 ****        -4.3189   4.5394   2.8245 O.3            1 S1                 0.0000
     22 ****        -4.2680   7.6000   1.5008 H              1 S1                 0.0000
     23 ****        -4.5310   7.1516   3.1872 H              1 S1                 0.0000
     24 ****        -5.7750   6.8165   1.9805 H              1 S1                 0.0000
     25 ****        -2.9728   5.5443   0.0010 H              1 S1                 0.0000
     26 ****        -1.9586   3.2025  -0.3945 H              1 S1                 0.0000
     27 ****        -1.0246   1.6069  -1.0620 H              1 S1                 0.0000
     28 ****        -1.1519  -0.9804   0.4576 H              1 S1                 0.0000
     29 ****        -1.1734  -0.7662  -1.2734 H              1 S1                 0.0000
     30 ****         1.1386   0.1464  -1.2165 H              1 S1                 0.0000
     31 ****         0.9160   1.2766   1.0386 H              1 S1                 0.0000
     32 ****         2.4143   0.4379   0.8697 H              1 S1                 0.0000
     33 ****         1.1102  -0.2899   1.8099 H              1 S1                 0.0000
     34 ****         3.1745  -1.2516  -1.3237 H              1 S1                 0.0000
     35 ****         3.1894  -1.4563   0.4148 H              1 S1                 0.0000
     36 ****         3.0299  -3.8809   0.2368 H              1 S1                 0.0000
     37 ****         5.3142  -2.8793   0.1682 H              1 S1                 0.0000
     38 ****         5.2201  -2.7758  -1.5894 H              1 S1                 0.0000
     39 ****         5.2310  -4.3494  -0.7974 H              1 S1                 0.0000
     40 ****         1.1594  -4.2181  -2.9276 H              1 S1                 0.0000
     41 ****        -0.3189  -5.0067  -1.1424 H              1 S1                 0.0000
     42 ****         0.8940  -4.6747   0.0829 H              1 S1                 0.0000
     43 ****         1.1816  -5.9253  -1.1254 H              1 S1                 0.0000
     44 ****        -0.2432  -2.5529  -1.7244 H              1 S1                 0.0000
     45 ****         1.1152  -1.8744  -2.5898 H              1 S1                 0.0000
     46 ****        -2.9230   1.3159   2.3954 LP             1 S1                 0.0000
     47 ****        -2.0955  -0.0806   1.7912 LP             1 S1                 0.0000
     48 ****         0.9721  -2.2962   0.2998 LP             1 S1                 0.0000
     49 ****         3.1306  -4.8529  -1.8410 LP             1 S1                 0.0000
     50 ****         3.1828  -3.4096  -2.6031 LP             1 S1                 0.0000
     51 ****        -3.6608   2.4839   2.8899 LP             1 S1                 0.0000
     52 ****        -5.3020   4.3749   2.9046 LP             1 S1                 0.0000
     53 ****        -3.9565   4.8307   3.7099 LP             1 S1                 0.0000
@<TRIPOS>BOND
    1    1    2 1     
    2    1   22 1     
    3    1   23 1     
    4    1   24 1     
    5    2   21 1     
    6    2    3 2     
    7    3    4 1     
    8    3   25 1     
    9    4    5 1     
   10    4   20 2     
   11    5    6 am    
   12    5   26 1     
   13    6    7 2     
   14    6    8 am    
   15    8    9 1     
   16    8   27 1     
   17    9   10 1     
   18    9   28 1     
   19    9   29 1     
   20   10   11 1     
   21   10   12 1     
   22   10   30 1     
   23   11   31 1     
   24   11   32 1     
   25   11   33 1     
   26   12   19 1     
   27   12   13 1     
   28   13   14 1     
   29   13   34 1     
   30   13   35 1     
   31   14   15 1     
   32   14   16 1     
   33   14   36 1     
   34   15   37 1     
   35   15   38 1     
   36   15   39 1     
   37   16   17 1     
   38   17   18 1     
   39   17   19 1     
   40   17   40 1     
   41   18   41 1     
   42   18   42 1     
   43   18   43 1     
   44   19   44 1     
   45   19   45 1     
   46   20   21 1     
   47    7   46 1     
   48    7   47 1     
   49   12   48 1     
   50   16   49 1     
   51   16   50 1     
   52   20   51 1     
   53   21   52 1     
   54   21   53 1     
@<TRIPOS>SUBSTRUCTURE
      1 S1             1
@<TRIPOS>SET
LONE_PAIRS      STATIC     ATOMS    <user>   **** ""
8 46 47 48 49 50 51 52 53
DONOR_HYDROGENS      STATIC     ATOMS    <user>   **** ""
2 26 27
ATOM$BLUE        STATIC     ATOMS    COLORGROUP SYSTEM
8 46 47 48 49 50 51 52 53
ATOM$RED        STATIC     ATOMS    COLORGROUP SYSTEM
2 26 27
