AV-unprocessed.smi:49|AV-procd|sdf|463|dock10
  -GOLD-   2262016333D 1   1.00000     0.00000
 Structure written by MMmdl.
 28 29  0  0  0  0  0  0  0  0  2 V2000
  149.8878  130.6874  154.4925 C   0  0  0  0  0  0  0  0  0  0  0  0
  149.7835  132.2122  154.3792 C   0  0  0  0  0  0  0  0  0  0  0  0
  148.5494  132.6518  153.6619 C   0  0  0  0  0  0  0  0  0  0  0  0
  147.5386  131.8596  153.3201 N   0  0  0  0  0  0  0  0  0  0  0  0
  146.7016  132.7683  152.7351 C   0  0  0  0  0  0  0  0  0  0  0  0
  145.3967  132.3668  152.1158 C   0  0  2  0  0  0  0  0  0  0  0  0
  145.3836  132.5623  150.5907 C   0  0  0  0  0  0  0  0  0  0  0  0
  144.5884  133.8496  150.3877 C   0  0  1  0  0  0  0  0  0  0  0  0
  143.9788  133.9059  149.1157 O   0  0  0  0  0  0  0  0  0  0  0  0
  143.5625  133.7915  151.5177 C   0  0  0  0  0  0  0  0  0  0  0  0
  144.2730  133.1698  152.6492 N   0  3  0  0  0  0  0  0  0  0  0  0
  147.1482  134.0248  152.6900 N   0  0  0  0  0  0  0  0  0  0  0  0
  148.3427  133.9222  153.3098 N   0  0  0  0  0  0  0  0  0  0  0  0
  145.2121  131.3176  152.3499 H   0  0  0  0  0  0  0  0  0  0  0  0
  145.2405  134.7142  150.5210 H   0  0  0  0  0  0  0  0  0  0  0  0
  148.9592  134.7090  153.4575 H   0  0  0  0  0  0  0  0  0  0  0  0
  150.7976  130.3984  155.0190 H   0  0  0  0  0  0  0  0  0  0  0  0
  149.9106  130.2199  153.5077 H   0  0  0  0  0  0  0  0  0  0  0  0
  149.0402  130.2747  155.0405 H   0  0  0  0  0  0  0  0  0  0  0  0
  149.7972  132.6598  155.3736 H   0  0  0  0  0  0  0  0  0  0  0  0
  150.6529  132.6043  153.8503 H   0  0  0  0  0  0  0  0  0  0  0  0
  146.3775  132.5903  150.1417 H   0  0  0  0  0  0  0  0  0  0  0  0
  144.8441  131.7302  150.1346 H   0  0  0  0  0  0  0  0  0  0  0  0
  144.6467  134.0649  148.4657 H   0  0  0  0  0  0  0  0  0  0  0  0
  143.1614  134.7711  151.7790 H   0  0  0  0  0  0  0  0  0  0  0  0
  142.7278  133.1440  151.2441 H   0  0  0  0  0  0  0  0  0  0  0  0
  143.6472  132.6019  153.2019 H   0  0  0  0  0  0  0  0  0  0  0  0
  144.6660  133.9015  153.2245 H   0  0  0  0  0  0  0  0  0  0  0  0
  1  2  1  0  0  0  0
  1 17  1  0  0  0  0
  1 18  1  0  0  0  0
  1 19  1  0  0  0  0
  2  3  1  0  0  0  0
  2 20  1  0  0  0  0
  2 21  1  0  0  0  0
  3 13  1  0  0  0  0
  3  4  2  0  0  0  0
  4  5  1  0  0  0  0
  5  6  1  0  0  0  0
  5 12  2  0  0  0  0
  6 14  1  0  0  0  0
  6 11  1  0  0  0  0
  6  7  1  0  0  0  0
  7  8  1  0  0  0  0
  7 22  1  0  0  0  0
  7 23  1  0  0  0  0
  8 15  1  0  0  0  0
  8  9  1  0  0  0  0
  8 10  1  0  0  0  0
  9 24  1  0  0  0  0
 10 11  1  0  0  0  0
 10 25  1  0  0  0  0
 10 26  1  0  0  0  0
 11 27  1  0  0  0  0
 11 28  1  0  0  0  0
 12 13  1  0  0  0  0
 13 16  1  0  0  0  0
M  CHG  1  11   1
M  END
> <s_m_source_file>
AV-unprocessed.smi

> <i_m_source_file_index>
49

> <i_lp_mmshare_version>
43012

> <i_f3d_flags>
0

> <s_epik_input>
W0NIM11bQ0gyXWMxbmMobltuSF0xKVtDQEBIXTJbQ0gyXVtDQEBIXShbT0hdKVtDSDJdW05IXTI=

> <s_epik_cmdline>
J2VwaWtfcHl0aG9uJywgJy1waCcsICc3LjAnLCAnLXRuJywgJzgnLCAnLW1hJywgJzIwMCcsICctbWV0YWxfYmluZGluZycsICctaW1hZScsICc8aW5maWxlLm1hZT4nLCAnLW9tYWUnLCAnPG91dGZpbGUubWFlPic=

> <r_lp_tautomer_probability>
0.948284

> <r_epik_Ionization_Penalty>
0.045643

> <r_epik_Ionization_Penalty_Charging>
0.0371552

> <r_epik_Ionization_Penalty_Neutral>
0.00848778

> <r_epik_State_Penalty>
0.283309

> <r_epik_Charging_Adjusted_Penalty>
0.320465

> <i_epik_Tot_Q>
1

> <i_epik_Tot_abs_Q>
1

> <r_epik_Metal_State_Penalty>
0.558162

> <b_epik_Metal_Only>
0

> <s_lp_Force_Field>
OPLS_2005

> <r_lp_Energy>
17.5806

> <b_lp_Chiralities_Consistent>
1

> <s_lp_Variant>
AV-unprocessed.smi:49-1

> <Gold.Version>
5.8.1

> <Gold.Id.Protein>
6NUR|6NUR_protein|mol2

> <Gold.PLP.Fitness>
32.3998

> <Gold.PLP.PLP>
-23.0819

> <Gold.PLP.part.hbond>
-3.9684

> <Gold.PLP.part.metal>
0.0000

> <Gold.PLP.part.buried>
-4.1157

> <Gold.PLP.part.nonpolar>
-15.8568

> <Gold.PLP.part.repulsive>
1.4878

> <Gold.PLP.ligand.clash>
0.0000

> <Gold.PLP.ligand.torsion>
0.1361

> <Gold.PLP.Chemscore.Hbond>
3.1924

> <Gold.PLP.Chemscore.CHOScore>
0.0000

> <Gold.PLP.Chemscore.Metal>
0.0000

> <Gold.Chemscore.Hbonds>
donor molecule, donor type, donor heavy atom, donor atom, acceptor molecule, acceptor atom, score
      L1  H     9    24       P1  7921  1.00
      L1  H    11    27       P1 10957  2.00
      L1  H    13    16       P1  7948  0.19

> <Gold.PLP.Chemscore.Internal.Correction>
0.0128

> <Gold.Rescore>
     Score         DG    S(hbond)    S(metal)    S(lipo)     H(rot)  DE(clash)    DE(int)     intcor
     10.27     -10.48       1.83        0.00      31.72       1.89       0.15       0.06       ----

> <Gold.Chemscore.Fitness>
10.2735

> <Gold.Chemscore.DG>
-10.4764

> <Gold.Chemscore.ZeroCoef>
-5.4800

> <Gold.Chemscore.Hbond>
1.8319

> <Gold.Chemscore.Metal>
0.0000

> <Gold.Chemscore.Lipo>
31.7247

> <Gold.Chemscore.Internal_Hbond>
0.0000

> <Gold.Chemscore.DEClash>
0.1461

> <Gold.Chemscore.DEInternal>
0.0568

> <Gold.Chemscore.Rot>
1.8883

> <Gold.Chemscore.Internal.Correction>
   9.000000E+99

> <Gold.Chemscore.Hbonds>
donor molecule, donor type, donor heavy atom, donor atom, acceptor molecule, acceptor atom, score
      L1  H     9    24       P1  7921  1.00
      L1  H    11    27       P1 10957  0.24
      L1  H    13    16       P1  7948  0.04

> <Gold.Chemscore.Hbond.Weighted>
-6.1186

> <Gold.Chemscore.Metal.Weighted>
-0.0000

> <Gold.Chemscore.Lipo.Weighted>
-3.7118

> <Gold.Chemscore.Internal_Hbond.Weighted>
0.0000

> <Gold.Chemscore.DEClash.Weighted>
0.1461

> <Gold.Chemscore.DEInternal.Weighted>
0.0568

> <Gold.Chemscore.Rot.Weighted>
4.8340

> <Gold.Chemscore.Internal.Correction.Weighted>
   9.000000E+99

> <Gold.Protein.RotatedTorsions>
[ 6907 6896 6895 6894 ] final  120.07 input  -60.11 | X-H torsion
[ 7974 7965 7964 7962 ] final -139.77 input  175.53 | X-H torsion
[ 8008 7997 7996 7995 ] final -147.25 input   59.86 | X-H torsion
[ 10167 10162 10161 10158 ] final  116.90 input  -65.29 | X-H torsion
[ 10718 10713 10712 10709 ] final   40.30 input   66.30 | X-H torsion
[ 10763 10752 10751 10750 ] final  -68.31 input  -60.55 | X-H torsion
[ 11005 11000 10999 10996 ] final   67.25 input  -57.11 | X-H torsion

> <Gold.Protein.ActiveResidues>
 VAL166  LYS551  ARG553  GLY616  TRP617  ASP618  TYR619  PRO620  LYS621  CYS622 
 ASP623  PHE694  ASN695  SER759  ASP760  ASP761  ALA762  ILE779  LEU786  VAL792 
 PHE793  MET794  SER795  GLU796  ALA797  LYS798  CYS799  TRP800  GLU811  SER814 

> <Gold.Protein.RotatedAtoms>
  152.4425  133.7475  159.6675 H   0  0  0  0  0  0  0  0  0  0  0  0  # atno 6907 bound_to 6896
  150.8319  133.8067  159.3101 H   0  0  0  0  0  0  0  0  0  0  0  0  # atno 6908 bound_to 6896
  151.5718  135.1064  160.0048 H   0  0  0  0  0  0  0  0  0  0  0  0  # atno 6909 bound_to 6896
  144.8650  140.6279  143.5304 H   0  0  0  0  0  0  0  0  0  0  0  0  # atno 7974 bound_to 7965
  155.5724  140.0635  157.2803 H   0  0  0  0  0  0  0  0  0  0  0  0  # atno 8008 bound_to 7997
  154.4357  140.1866  156.0939 H   0  0  0  0  0  0  0  0  0  0  0  0  # atno 8009 bound_to 7997
  156.0366  140.3300  155.7201 H   0  0  0  0  0  0  0  0  0  0  0  0  # atno 8010 bound_to 7997
  139.6215  144.7101  151.2624 H   0  0  0  0  0  0  0  0  0  0  0  0  # atno 10167 bound_to 10162
  157.3805  130.7751  149.7189 H   0  0  0  0  0  0  0  0  0  0  0  0  # atno 10718 bound_to 10713
  154.3872  135.6061  153.5823 H   0  0  0  0  0  0  0  0  0  0  0  0  # atno 10763 bound_to 10752
  152.9787  135.5875  154.4340 H   0  0  0  0  0  0  0  0  0  0  0  0  # atno 10764 bound_to 10752
  154.4119  135.2844  155.2009 H   0  0  0  0  0  0  0  0  0  0  0  0  # atno 10765 bound_to 10752
  139.9782  134.6787  156.0312 H   0  0  0  0  0  0  0  0  0  0  0  0  # atno 11005 bound_to 11000
  145.4239  139.1559  143.4059 LP  0  0  0  0  0  0  0  0  0  0  0  0  # atno 17320 bound_to 7965
  146.2889  140.4351  142.8747 LP  0  0  0  0  0  0  0  0  0  0  0  0  # atno 17321 bound_to 7965
  140.7385  143.6647  150.8134 LP  0  0  0  0  0  0  0  0  0  0  0  0  # atno 17342 bound_to 10162
  140.0258  143.5495  152.2781 LP  0  0  0  0  0  0  0  0  0  0  0  0  # atno 17343 bound_to 10162
  155.9775  130.4063  150.3710 LP  0  0  0  0  0  0  0  0  0  0  0  0  # atno 17370 bound_to 10713
  157.1813  131.0393  151.2747 LP  0  0  0  0  0  0  0  0  0  0  0  0  # atno 17371 bound_to 10713
  141.1457  133.6556  156.3861 LP  0  0  0  0  0  0  0  0  0  0  0  0  # atno 17394 bound_to 11000
  140.5150  134.6358  157.5298 LP  0  0  0  0  0  0  0  0  0  0  0  0  # atno 17395 bound_to 11000

$$$$
