AV-unprocessed.smi:86|AV-procd|sdf|814|dock6
  -GOLD-   2262017213D 1   1.00000     0.00000
 Structure written by MMmdl.
 51 55  0  0  0  0  0  0  0  0  1 V2000
  148.4821  132.9877  153.9370 O   0  0  0  0  0  0  0  0  0  0  0  0
  147.8712  133.7564  154.9538 C   0  0  0  0  0  0  0  0  0  0  0  0
  148.9001  134.4161  155.8943 C   0  0  0  0  0  0  0  0  0  0  0  0
  149.8174  135.3275  155.0581 C   0  0  0  0  0  0  0  0  0  0  0  0
  150.3910  136.4343  155.8087 N   0  0  0  0  0  0  0  0  0  0  0  0
  151.0477  136.3611  157.0156 C   0  0  0  0  0  0  0  0  0  0  0  0
  151.4657  137.5019  157.4905 N   0  0  0  0  0  0  0  0  0  0  0  0
  151.0661  138.4385  156.5430 C   0  0  0  0  0  0  0  0  0  0  0  0
  151.1858  139.8548  156.4235 C   0  0  0  0  0  0  0  0  0  0  0  0
  151.8039  140.6476  157.3353 N   0  0  0  0  0  0  0  0  0  0  0  0
  152.3871  140.1133  158.5644 C   0  0  0  0  0  0  0  0  0  0  0  0
  152.8246  141.3651  159.3205 C   0  0  2  0  0  0  0  0  0  0  0  0
  153.0288  141.2813  160.8369 C   0  0  0  0  0  0  0  0  0  0  0  0
  153.3741  142.6877  161.3768 C   0  0  0  0  0  0  0  0  0  0  0  0
  152.3576  143.7780  160.9493 C   0  0  2  0  0  0  0  0  0  0  0  0
  151.1588  143.6157  161.6810 O   0  0  0  0  0  0  0  0  0  0  0  0
  152.0511  143.7567  159.4314 C   0  0  0  0  0  0  0  0  0  0  0  0
  151.6981  142.3311  158.9849 C   0  0  1  0  0  0  0  0  0  0  0  0
  151.4661  142.0603  157.4971 C   0  0  0  0  0  0  0  0  0  0  0  0
  150.6238  140.4360  155.3306 N   0  0  0  0  0  0  0  0  0  0  0  0
  150.0047  139.6934  154.4091 C   0  0  0  0  0  0  0  0  0  0  0  0
  149.8287  138.3718  154.3846 N   0  0  0  0  0  0  0  0  0  0  0  0
  150.3774  137.7801  155.4837 C   0  0  0  0  0  0  0  0  0  0  0  0
  148.3392  135.0615  157.1698 C   0  0  0  0  0  0  0  0  0  0  0  0
  148.8302  133.9875  158.0021 O   0  0  0  0  0  0  0  0  0  0  0  0
  149.6007  133.4805  156.8899 C   0  0  0  0  0  0  0  0  0  0  0  0
  149.4108  132.9478  154.1073 H   0  0  0  0  0  0  0  0  0  0  0  0
  147.2513  134.5048  154.4602 H   0  0  0  0  0  0  0  0  0  0  0  0
  147.1979  133.1051  155.5120 H   0  0  0  0  0  0  0  0  0  0  0  0
  150.6305  134.7495  154.6174 H   0  0  0  0  0  0  0  0  0  0  0  0
  149.2695  135.7512  154.2153 H   0  0  0  0  0  0  0  0  0  0  0  0
  151.2067  135.4302  157.5399 H   0  0  0  0  0  0  0  0  0  0  0  0
  151.6327  139.5602  159.1261 H   0  0  0  0  0  0  0  0  0  0  0  0
  153.2273  139.4494  158.3580 H   0  0  0  0  0  0  0  0  0  0  0  0
  153.7497  141.7246  158.8644 H   0  0  0  0  0  0  0  0  0  0  0  0
  152.1263  140.9045  161.3198 H   0  0  0  0  0  0  0  0  0  0  0  0
  153.8291  140.5794  161.0731 H   0  0  0  0  0  0  0  0  0  0  0  0
  153.4655  142.6602  162.4633 H   0  0  0  0  0  0  0  0  0  0  0  0
  154.3593  142.9686  161.0023 H   0  0  0  0  0  0  0  0  0  0  0  0
  152.7556  144.7574  161.2167 H   0  0  0  0  0  0  0  0  0  0  0  0
  150.8914  144.4606  162.0093 H   0  0  0  0  0  0  0  0  0  0  0  0
  151.2414  144.4469  159.1918 H   0  0  0  0  0  0  0  0  0  0  0  0
  152.9262  144.1031  158.8802 H   0  0  0  0  0  0  0  0  0  0  0  0
  150.7978  142.0133  159.5147 H   0  0  0  0  0  0  0  0  0  0  0  0
  152.1304  142.6612  156.8751 H   0  0  0  0  0  0  0  0  0  0  0  0
  150.4346  142.2792  157.2198 H   0  0  0  0  0  0  0  0  0  0  0  0
  149.5909  140.2362  153.5720 H   0  0  0  0  0  0  0  0  0  0  0  0
  148.8045  136.0146  157.4255 H   0  0  0  0  0  0  0  0  0  0  0  0
  147.2525  135.1473  157.1925 H   0  0  0  0  0  0  0  0  0  0  0  0
  149.4258  132.4201  156.7058 H   0  0  0  0  0  0  0  0  0  0  0  0
  150.6646  133.6809  157.0181 H   0  0  0  0  0  0  0  0  0  0  0  0
  1  2  1  0  0  0  0
  1 27  1  0  0  0  0
  2  3  1  0  0  0  0
  2 28  1  0  0  0  0
  2 29  1  0  0  0  0
  3 26  1  0  0  0  0
  3  4  1  0  0  0  0
  3 24  1  0  0  0  0
  4  5  1  0  0  0  0
  4 30  1  0  0  0  0
  4 31  1  0  0  0  0
  5 23  1  0  0  0  0
  5  6  1  0  0  0  0
  6  7  2  0  0  0  0
  6 32  1  0  0  0  0
  7  8  1  0  0  0  0
  8 23  2  0  0  0  0
  8  9  1  0  0  0  0
  9 10  1  0  0  0  0
  9 20  2  0  0  0  0
 10 19  1  0  0  0  0
 10 11  1  0  0  0  0
 11 12  1  0  0  0  0
 11 33  1  0  0  0  0
 11 34  1  0  0  0  0
 12 18  1  0  0  0  0
 12 13  1  0  0  0  0
 12 35  1  0  0  0  0
 13 14  1  0  0  0  0
 13 36  1  0  0  0  0
 13 37  1  0  0  0  0
 14 15  1  0  0  0  0
 14 38  1  0  0  0  0
 14 39  1  0  0  0  0
 15 16  1  0  0  0  0
 15 17  1  0  0  0  0
 15 40  1  0  0  0  0
 16 41  1  0  0  0  0
 17 18  1  0  0  0  0
 17 42  1  0  0  0  0
 17 43  1  0  0  0  0
 18 19  1  0  0  0  0
 18 44  1  0  0  0  0
 19 45  1  0  0  0  0
 19 46  1  0  0  0  0
 20 21  1  0  0  0  0
 21 22  2  0  0  0  0
 21 47  1  0  0  0  0
 22 23  1  0  0  0  0
 24 25  1  0  0  0  0
 24 48  1  0  0  0  0
 24 49  1  0  0  0  0
 25 26  1  0  0  0  0
 26 50  1  0  0  0  0
 26 51  1  0  0  0  0
M  END
> <s_m_source_file>
AV-unprocessed.smi

> <i_m_source_file_index>
86

> <i_lp_mmshare_version>
43012

> <i_f3d_flags>
0

> <s_epik_input>
W0NIMl0xT1tDSDJdQzEoW0NIMl1bT0hdKVtDSDJdbihbY0hdbjIpYyhjMjMpbltjSF1uYzNOKFtDSDJdNClbQ0gyXVtDQEBIXShbQ0BIXTQ1KVtDSDJdW0NASF0oW09IXSlbQ0gyXVtDSDJdNQ==

> <s_epik_cmdline>
J2VwaWtfcHl0aG9uJywgJy1waCcsICc3LjAnLCAnLXRuJywgJzgnLCAnLW1hJywgJzIwMCcsICctbWV0YWxfYmluZGluZycsICctaW1hZScsICc8aW5maWxlLm1hZT4nLCAnLW9tYWUnLCAnPG91dGZpbGUubWFlPic=

> <r_lp_tautomer_probability>
1

> <r_epik_Ionization_Penalty>
0.00425795

> <r_epik_Ionization_Penalty_Charging>
0

> <r_epik_Ionization_Penalty_Neutral>
0.00425795

> <r_epik_State_Penalty>
0.00299946

> <r_epik_Charging_Adjusted_Penalty>
0.00299946

> <i_epik_Tot_Q>
0

> <i_epik_Tot_abs_Q>
0

> <r_epik_Metal_State_Penalty>
-0

> <b_epik_Metal_Only>
0

> <s_lp_Force_Field>
OPLS_2005

> <r_lp_Energy>
55.6071

> <b_lp_Chiralities_Consistent>
1

> <s_lp_Variant>
AV-unprocessed.smi:86-3

> <Gold.Version>
5.8.1

> <Gold.Id.Protein>
6NUR|6NUR_protein|mol2

> <Gold.PLP.Fitness>
50.7549

> <Gold.PLP.PLP>
-44.1528

> <Gold.PLP.part.hbond>
-3.8706

> <Gold.PLP.part.metal>
0.0000

> <Gold.PLP.part.buried>
-6.1588

> <Gold.PLP.part.nonpolar>
-34.5126

> <Gold.PLP.part.repulsive>
0.2732

> <Gold.PLP.ligand.clash>
0.0000

> <Gold.PLP.ligand.torsion>
0.7605

> <Gold.PLP.Chemscore.Hbond>
1.5600

> <Gold.PLP.Chemscore.CHOScore>
0.9887

> <Gold.PLP.Chemscore.Metal>
0.0000

> <Gold.Chemscore.Hbonds>
donor molecule, donor type, donor heavy atom, donor atom, acceptor molecule, acceptor atom, score
      P1  H  6896  6907       L1    25  0.01
      P1  H  6933  6945       L1    16  0.21
      L1  C    21    47       P1  7957  1.00

> <Gold.PLP.Chemscore.Internal.Correction>
0.4771

> <Gold.Rescore>
     Score         DG    S(hbond)    S(metal)    S(lipo)     H(rot)  DE(clash)    DE(int)     intcor
     11.27     -14.31       1.15        0.00     103.15       2.76       0.17       2.87       ----

> <Gold.Chemscore.Fitness>
11.2686

> <Gold.Chemscore.DG>
-14.3143

> <Gold.Chemscore.ZeroCoef>
-5.4800

> <Gold.Chemscore.Hbond>
1.1494

> <Gold.Chemscore.Metal>
0.0000

> <Gold.Chemscore.Lipo>
103.1497

> <Gold.Chemscore.Internal_Hbond>
0.0000

> <Gold.Chemscore.DEClash>
0.1745

> <Gold.Chemscore.DEInternal>
2.8712

> <Gold.Chemscore.Rot>
2.7630

> <Gold.Chemscore.Internal.Correction>
   9.000000E+99

> <Gold.Chemscore.Hbonds>
donor molecule, donor type, donor heavy atom, donor atom, acceptor molecule, acceptor atom, score
      P1  H  6933  6945       L1    16  0.21

> <Gold.Chemscore.Hbond.Weighted>
-3.8391

> <Gold.Chemscore.Metal.Weighted>
-0.0000

> <Gold.Chemscore.Lipo.Weighted>
-12.0685

> <Gold.Chemscore.Internal_Hbond.Weighted>
0.0000

> <Gold.Chemscore.DEClash.Weighted>
0.1745

> <Gold.Chemscore.DEInternal.Weighted>
2.8712

> <Gold.Chemscore.Rot.Weighted>
7.0734

> <Gold.Chemscore.Internal.Correction.Weighted>
   9.000000E+99

> <Gold.Protein.RotatedTorsions>
[ 6907 6896 6895 6894 ] final -130.08 input  -60.11 | X-H torsion
[ 7974 7965 7964 7962 ] final   97.90 input  175.53 | X-H torsion
[ 8008 7997 7996 7995 ] final -117.12 input   59.86 | X-H torsion
[ 10167 10162 10161 10158 ] final -100.74 input  -65.29 | X-H torsion
[ 10718 10713 10712 10709 ] final -130.17 input   66.30 | X-H torsion
[ 10763 10752 10751 10750 ] final   42.01 input  -60.55 | X-H torsion
[ 11005 11000 10999 10996 ] final -104.68 input  -57.11 | X-H torsion

> <Gold.Protein.ActiveResidues>
 VAL166  LYS551  ARG553  GLY616  TRP617  ASP618  TYR619  PRO620  LYS621  CYS622 
 ASP623  PHE694  ASN695  SER759  ASP760  ASP761  ALA762  ILE779  LEU786  VAL792 
 PHE793  MET794  SER795  GLU796  ALA797  LYS798  CYS799  TRP800  GLU811  SER814 

> <Gold.Protein.RotatedAtoms>
  150.9358  133.6714  159.2800 H   0  0  0  0  0  0  0  0  0  0  0  0  # atno 6907 bound_to 6896
  151.4120  135.0985  159.9597 H   0  0  0  0  0  0  0  0  0  0  0  0  # atno 6908 bound_to 6896
  152.5047  133.8829  159.7410 H   0  0  0  0  0  0  0  0  0  0  0  0  # atno 6909 bound_to 6896
  145.4193  139.2323  143.3205 H   0  0  0  0  0  0  0  0  0  0  0  0  # atno 7974 bound_to 7965
  155.0786  140.0394  157.2632 H   0  0  0  0  0  0  0  0  0  0  0  0  # atno 8008 bound_to 7997
  154.6925  140.2656  155.6774 H   0  0  0  0  0  0  0  0  0  0  0  0  # atno 8009 bound_to 7997
  156.2733  140.2757  156.1507 H   0  0  0  0  0  0  0  0  0  0  0  0  # atno 8010 bound_to 7997
  140.2487  143.3487  152.0734 H   0  0  0  0  0  0  0  0  0  0  0  0  # atno 10167 bound_to 10162
  156.2118  130.6923  151.0658 H   0  0  0  0  0  0  0  0  0  0  0  0  # atno 10718 bound_to 10713
  152.9893  135.6144  154.2880 H   0  0  0  0  0  0  0  0  0  0  0  0  # atno 10763 bound_to 10752
  154.2607  135.2782  155.2781 H   0  0  0  0  0  0  0  0  0  0  0  0  # atno 10764 bound_to 10752
  154.5208  135.5815  153.6737 H   0  0  0  0  0  0  0  0  0  0  0  0  # atno 10765 bound_to 10752
  141.1089  133.8744  157.1641 H   0  0  0  0  0  0  0  0  0  0  0  0  # atno 11005 bound_to 11000
  146.2665  140.4915  142.8832 LP  0  0  0  0  0  0  0  0  0  0  0  0  # atno 17320 bound_to 7965
  144.8256  140.6623  143.6324 LP  0  0  0  0  0  0  0  0  0  0  0  0  # atno 17321 bound_to 7965
  139.5053  144.6792  151.6051 LP  0  0  0  0  0  0  0  0  0  0  0  0  # atno 17342 bound_to 10162
  140.6057  143.9529  150.6417 LP  0  0  0  0  0  0  0  0  0  0  0  0  # atno 17343 bound_to 10162
  157.7042  131.0763  150.6720 LP  0  0  0  0  0  0  0  0  0  0  0  0  # atno 17370 bound_to 10713
  156.6780  130.4559  149.5636 LP  0  0  0  0  0  0  0  0  0  0  0  0  # atno 17371 bound_to 10713
  139.9972  135.0042  157.0110 LP  0  0  0  0  0  0  0  0  0  0  0  0  # atno 17394 bound_to 11000
  140.4828  134.1272  155.7220 LP  0  0  0  0  0  0  0  0  0  0  0  0  # atno 17395 bound_to 11000

$$$$
