AV-unprocessed.smi:3255|AV-procd|sdf|12458|dock6
  -GOLD-   2272018353D 1   1.00000     0.00000
 Structure written by MMmdl.
 39 40  0  0  0  0  0  0  0  0  2 V2000
  148.0484  140.2105  153.9818 C   0  0  0  0  0  0  0  0  0  0  0  0
  148.7111  138.8704  154.3323 C   0  0  1  0  0  0  0  0  0  0  0  0
  148.0566  137.7997  153.5818 N   0  0  0  0  0  0  0  0  0  0  0  0
  146.7335  137.5987  153.5098 C   0  0  0  0  0  0  0  0  0  0  0  0
  145.8919  138.3198  154.0465 O   0  0  0  0  0  0  0  0  0  0  0  0
  146.4329  136.5052  152.7958 N   0  0  0  0  0  0  0  0  0  0  0  0
  145.0790  136.0122  152.5747 C   0  0  0  0  0  0  0  0  0  0  0  0
  144.8507  135.6402  151.1000 C   0  0  0  0  0  0  0  0  0  0  0  0
  145.2182  134.2499  150.8306 N   0  0  0  0  0  0  0  0  0  0  0  0
  144.4166  133.2561  150.3311 C   0  0  0  0  0  0  0  0  0  0  0  0
  145.1945  132.1290  150.2556 C   0  0  0  0  0  0  0  0  0  0  0  0
  146.4358  132.4827  150.7131 N   0  3  0  0  0  0  0  0  0  0  0  0
  146.4480  133.7731  151.0627 C   0  0  0  0  0  0  0  0  0  0  0  0
  150.2371  138.8999  154.0812 C   0  0  2  0  0  0  0  0  0  0  0  0
  151.0083  137.6174  154.4223 C   0  0  0  0  0  0  0  0  0  0  0  0
  152.3818  138.1585  154.7479 C   0  0  0  0  0  0  0  0  0  0  0  0
  152.0313  139.4494  155.4782 C   0  0  0  0  0  0  0  0  0  0  0  0
  150.8606  139.9400  154.8340 O   0  0  0  0  0  0  0  0  0  0  0  0
  148.4902  141.0270  154.5537 H   0  0  0  0  0  0  0  0  0  0  0  0
  146.9819  140.1921  154.2082 H   0  0  0  0  0  0  0  0  0  0  0  0
  148.1597  140.4473  152.9233 H   0  0  0  0  0  0  0  0  0  0  0  0
  148.5472  138.7053  155.3988 H   0  0  0  0  0  0  0  0  0  0  0  0
  148.6617  137.1488  153.1032 H   0  0  0  0  0  0  0  0  0  0  0  0
  147.1894  135.9738  152.3900 H   0  0  0  0  0  0  0  0  0  0  0  0
  144.8909  135.1532  153.2214 H   0  0  0  0  0  0  0  0  0  0  0  0
  144.3755  136.7881  152.8781 H   0  0  0  0  0  0  0  0  0  0  0  0
  143.8035  135.7733  150.8253 H   0  0  0  0  0  0  0  0  0  0  0  0
  145.4391  136.2762  150.4363 H   0  0  0  0  0  0  0  0  0  0  0  0
  143.3800  133.4200  150.0738 H   0  0  0  0  0  0  0  0  0  0  0  0
  144.9638  131.1283  149.9204 H   0  0  0  0  0  0  0  0  0  0  0  0
  147.2854  134.3220  151.4562 H   0  0  0  0  0  0  0  0  0  0  0  0
  150.4197  139.1418  153.0330 H   0  0  0  0  0  0  0  0  0  0  0  0
  150.5992  137.1200  155.3019 H   0  0  0  0  0  0  0  0  0  0  0  0
  151.0172  136.8990  153.6023 H   0  0  0  0  0  0  0  0  0  0  0  0
  152.9817  137.4764  155.3511 H   0  0  0  0  0  0  0  0  0  0  0  0
  152.9282  138.3791  153.8300 H   0  0  0  0  0  0  0  0  0  0  0  0
  151.7915  139.2425  156.5221 H   0  0  0  0  0  0  0  0  0  0  0  0
  152.8393  140.1808  155.4526 H   0  0  0  0  0  0  0  0  0  0  0  0
  147.2315  131.8600  150.7791 H   0  0  0  0  0  0  0  0  0  0  0  0
  1  2  1  0  0  0  0
  1 19  1  0  0  0  0
  1 20  1  0  0  0  0
  1 21  1  0  0  0  0
  2  3  1  0  0  0  0
  2 14  1  0  0  0  0
  2 22  1  0  0  0  0
  3  4  1  0  0  0  0
  3 23  1  0  0  0  0
  4  5  2  0  0  0  0
  4  6  1  0  0  0  0
  6  7  1  0  0  0  0
  6 24  1  0  0  0  0
  7  8  1  0  0  0  0
  7 25  1  0  0  0  0
  7 26  1  0  0  0  0
  8  9  1  0  0  0  0
  8 27  1  0  0  0  0
  8 28  1  0  0  0  0
  9 13  1  0  0  0  0
  9 10  1  0  0  0  0
 10 11  2  0  0  0  0
 10 29  1  0  0  0  0
 11 12  1  0  0  0  0
 11 30  1  0  0  0  0
 12 13  2  0  0  0  0
 12 39  1  0  0  0  0
 13 31  1  0  0  0  0
 14 18  1  0  0  0  0
 14 15  1  0  0  0  0
 14 32  1  0  0  0  0
 15 16  1  0  0  0  0
 15 33  1  0  0  0  0
 15 34  1  0  0  0  0
 16 17  1  0  0  0  0
 16 35  1  0  0  0  0
 16 36  1  0  0  0  0
 17 18  1  0  0  0  0
 17 37  1  0  0  0  0
 17 38  1  0  0  0  0
M  CHG  1  12   1
M  END
> <s_m_source_file>
AV-unprocessed.smi

> <i_m_source_file_index>
3255

> <i_lp_mmshare_version>
43012

> <i_f3d_flags>
0

> <s_epik_input>
TzFbQ0gyXVtDSDJdW0NIMl1bQ0BIXTFbQ0BIXShbQ0gzXSlbTkhdQyg9TylbTkhdW0NIMl1bQ0gyXW4yW2NIXVtjSF1uW2NIXTI=

> <s_epik_cmdline>
J2VwaWtfcHl0aG9uJywgJy1waCcsICc3LjAnLCAnLXRuJywgJzgnLCAnLW1hJywgJzIwMCcsICctbWV0YWxfYmluZGluZycsICctaW1hZScsICc8aW5maWxlLm1hZT4nLCAnLW9tYWUnLCAnPG91dGZpbGUubWFlPic=

> <r_lp_tautomer_probability>
1

> <r_epik_Ionization_Penalty>
0.256241

> <r_epik_Ionization_Penalty_Charging>
0

> <r_epik_Ionization_Penalty_Neutral>
0.256241

> <r_epik_State_Penalty>
0.247735

> <r_epik_Charging_Adjusted_Penalty>
0.247735

> <i_epik_Tot_Q>
1

> <i_epik_Tot_abs_Q>
1

> <r_epik_Metal_State_Penalty>
0.537184

> <b_epik_Metal_Only>
0

> <s_lp_Force_Field>
OPLS_2005

> <r_lp_Energy>
18.6285

> <b_lp_Chiralities_Consistent>
1

> <s_lp_Variant>
AV-unprocessed.smi:3255-2

> <Gold.Version>
5.8.1

> <Gold.Id.Protein>
6NUR|6NUR_protein|mol2

> <Gold.PLP.Fitness>
50.6300

> <Gold.PLP.PLP>
-34.7581

> <Gold.PLP.part.hbond>
-3.7407

> <Gold.PLP.part.metal>
0.0000

> <Gold.PLP.part.buried>
-4.7707

> <Gold.PLP.part.nonpolar>
-27.8269

> <Gold.PLP.part.repulsive>
0.2971

> <Gold.PLP.ligand.clash>
0.0000

> <Gold.PLP.ligand.torsion>
0.3338

> <Gold.PLP.Chemscore.Hbond>
3.6775

> <Gold.PLP.Chemscore.CHOScore>
1.8295

> <Gold.PLP.Chemscore.Metal>
0.0000

> <Gold.Chemscore.Hbonds>
donor molecule, donor type, donor heavy atom, donor atom, acceptor molecule, acceptor atom, score
      L1  H     3    23       P1  7948  1.00
      L1  H     6    24       P1  7948  0.80
      L1  H    12    39       P1 10747  0.89
      P1  H  7989  7998       L1    18  0.95
      L1  C    10    29       P1 10186  0.76
      L1  C    13    31       P1  7948  1.00

> <Gold.PLP.Chemscore.Internal.Correction>
0.0184

> <Gold.Rescore>
     Score         DG    S(hbond)    S(metal)    S(lipo)     H(rot)  DE(clash)    DE(int)     intcor
     16.52     -17.63       2.92        0.00      70.13       2.26       0.02       1.08       ----

> <Gold.Chemscore.Fitness>
16.5240

> <Gold.Chemscore.DG>
-17.6278

> <Gold.Chemscore.ZeroCoef>
-5.4800

> <Gold.Chemscore.Hbond>
2.9156

> <Gold.Chemscore.Metal>
0.0000

> <Gold.Chemscore.Lipo>
70.1333

> <Gold.Chemscore.Internal_Hbond>
0.0000

> <Gold.Chemscore.DEClash>
0.0228

> <Gold.Chemscore.DEInternal>
1.0810

> <Gold.Chemscore.Rot>
2.2640

> <Gold.Chemscore.Internal.Correction>
   9.000000E+99

> <Gold.Chemscore.Hbonds>
donor molecule, donor type, donor heavy atom, donor atom, acceptor molecule, acceptor atom, score
      L1  H     3    23       P1  7948  0.91
      L1  H     6    24       P1  7948  0.80
      L1  H    12    39       P1 10747  0.87
      P1  H  7989  7998       L1    18  0.06

> <Gold.Chemscore.Hbond.Weighted>
-9.7380

> <Gold.Chemscore.Metal.Weighted>
-0.0000

> <Gold.Chemscore.Lipo.Weighted>
-8.2056

> <Gold.Chemscore.Internal_Hbond.Weighted>
0.0000

> <Gold.Chemscore.DEClash.Weighted>
0.0228

> <Gold.Chemscore.DEInternal.Weighted>
1.0810

> <Gold.Chemscore.Rot.Weighted>
5.7958

> <Gold.Chemscore.Internal.Correction.Weighted>
   9.000000E+99

> <Gold.Protein.RotatedTorsions>
[ 6907 6896 6895 6894 ] final -127.46 input  -60.11 | X-H torsion
[ 7974 7965 7964 7962 ] final -158.78 input  175.53 | X-H torsion
[ 8008 7997 7996 7995 ] final -140.79 input   59.86 | X-H torsion
[ 10167 10162 10161 10158 ] final -108.77 input  -65.29 | X-H torsion
[ 10718 10713 10712 10709 ] final -111.40 input   66.30 | X-H torsion
[ 10763 10752 10751 10750 ] final -160.73 input  -60.55 | X-H torsion
[ 11005 11000 10999 10996 ] final   18.41 input  -57.11 | X-H torsion

> <Gold.Protein.ActiveResidues>
 VAL166  LYS551  ARG553  GLY616  TRP617  ASP618  TYR619  PRO620  LYS621  CYS622 
 ASP623  PHE694  ASN695  SER759  ASP760  ASP761  ALA762  ILE779  LEU786  VAL792 
 PHE793  MET794  SER795  GLU796  ALA797  LYS798  CYS799  TRP800  GLU811  SER814 

> <Gold.Protein.RotatedAtoms>
  150.9075  133.7039  159.2862 H   0  0  0  0  0  0  0  0  0  0  0  0  # atno 6907 bound_to 6896
  151.4537  135.1031  159.9715 H   0  0  0  0  0  0  0  0  0  0  0  0  # atno 6908 bound_to 6896
  152.4911  133.8455  159.7230 H   0  0  0  0  0  0  0  0  0  0  0  0  # atno 6909 bound_to 6896
  144.7492  140.3779  143.6061 H   0  0  0  0  0  0  0  0  0  0  0  0  # atno 7974 bound_to 7965
  155.4672  140.0550  157.2984 H   0  0  0  0  0  0  0  0  0  0  0  0  # atno 8008 bound_to 7997
  154.4713  140.2041  155.9942 H   0  0  0  0  0  0  0  0  0  0  0  0  # atno 8009 bound_to 7997
  156.1060  140.3211  155.8012 H   0  0  0  0  0  0  0  0  0  0  0  0  # atno 8010 bound_to 7997
  140.1625  143.4108  152.1415 H   0  0  0  0  0  0  0  0  0  0  0  0  # atno 10167 bound_to 10162
  156.0645  130.5865  150.8368 H   0  0  0  0  0  0  0  0  0  0  0  0  # atno 10718 bound_to 10713
  154.7365  135.3058  154.8802 H   0  0  0  0  0  0  0  0  0  0  0  0  # atno 10763 bound_to 10752
  153.9629  135.6751  153.4749 H   0  0  0  0  0  0  0  0  0  0  0  0  # atno 10764 bound_to 10752
  153.0968  135.4932  154.8716 H   0  0  0  0  0  0  0  0  0  0  0  0  # atno 10765 bound_to 10752
  140.4252  134.1478  155.7676 H   0  0  0  0  0  0  0  0  0  0  0  0  # atno 11005 bound_to 11000
  145.7009  139.1661  143.2593 LP  0  0  0  0  0  0  0  0  0  0  0  0  # atno 17320 bound_to 7965
  146.1416  140.7049  142.9364 LP  0  0  0  0  0  0  0  0  0  0  0  0  # atno 17321 bound_to 7965
  139.5374  144.7223  151.4846 LP  0  0  0  0  0  0  0  0  0  0  0  0  # atno 17342 bound_to 10162
  140.6634  143.8450  150.6913 LP  0  0  0  0  0  0  0  0  0  0  0  0  # atno 17343 bound_to 10162
  157.5677  131.0946  150.9465 LP  0  0  0  0  0  0  0  0  0  0  0  0  # atno 17370 bound_to 10713
  156.9689  130.5483  149.5289 LP  0  0  0  0  0  0  0  0  0  0  0  0  # atno 17371 bound_to 10713
  141.1768  133.8497  157.1394 LP  0  0  0  0  0  0  0  0  0  0  0  0  # atno 17394 bound_to 11000
  140.0173  134.9962  157.0519 LP  0  0  0  0  0  0  0  0  0  0  0  0  # atno 17395 bound_to 11000

$$$$
