AV-unprocessed.smi:1085|AV-procd|sdf|4723|dock7
  -GOLD-   22720 3253D 1   1.00000     0.00000
 Structure written by MMmdl.
 33 34  0  0  0  0  0  0  0  0  1 V2000
  152.8292  139.9226  157.2906 O   0  0  0  0  0  0  0  0  0  0  0  0
  151.7263  139.5488  157.6877 C   0  0  0  0  0  0  0  0  0  0  0  0
  151.6006  138.2422  158.4707 C   0  0  0  0  0  0  0  0  0  0  0  0
  151.6517  137.0987  157.5796 N   0  0  0  0  0  0  0  0  0  0  0  0
  151.6015  137.0214  156.2478 C   0  0  0  0  0  0  0  0  0  0  0  0
  151.6699  135.7678  155.8277 N   0  0  0  0  0  0  0  0  0  0  0  0
  151.7694  135.0464  157.0058 N   0  0  0  0  0  0  0  0  0  0  0  0
  151.7587  135.8307  158.0485 N   0  0  0  0  0  0  0  0  0  0  0  0
  150.5876  140.2296  157.4833 N   0  0  0  0  0  0  0  0  0  0  0  0
  150.4602  141.5199  156.8069 C   0  0  1  0  0  0  0  0  0  0  0  0
  149.0146  142.0424  156.9073 C   0  0  0  0  0  0  0  0  0  0  0  0
  148.6534  142.4746  158.3380 C   0  0  0  0  0  0  0  0  0  0  0  0
  149.6571  143.5045  158.8796 C   0  0  0  0  0  0  0  0  0  0  0  0
  151.1045  142.9705  158.8327 C   0  0  2  0  0  0  0  0  0  0  0  0
  152.1163  143.9905  159.3945 C   0  0  0  0  0  0  0  0  0  0  0  0
  151.7669  144.3802  160.6209 F   0  0  0  0  0  0  0  0  0  0  0  0
  153.3325  143.4470  159.4450 F   0  0  0  0  0  0  0  0  0  0  0  0
  152.1726  145.0603  158.6012 F   0  0  0  0  0  0  0  0  0  0  0  0
  151.4637  142.5330  157.3937 C   0  0  0  0  0  0  0  0  0  0  0  0
  152.4089  138.1588  159.1986 H   0  0  0  0  0  0  0  0  0  0  0  0
  150.6621  138.2270  159.0272 H   0  0  0  0  0  0  0  0  0  0  0  0
  151.5101  137.8755  155.5932 H   0  0  0  0  0  0  0  0  0  0  0  0
  149.7338  139.8290  157.8440 H   0  0  0  0  0  0  0  0  0  0  0  0
  150.6944  141.3994  155.7480 H   0  0  0  0  0  0  0  0  0  0  0  0
  148.8975  142.8971  156.2393 H   0  0  0  0  0  0  0  0  0  0  0  0
  148.3132  141.2851  156.5552 H   0  0  0  0  0  0  0  0  0  0  0  0
  147.6471  142.8943  158.3539 H   0  0  0  0  0  0  0  0  0  0  0  0
  148.6319  141.6037  158.9941 H   0  0  0  0  0  0  0  0  0  0  0  0
  149.5827  144.4235  158.2970 H   0  0  0  0  0  0  0  0  0  0  0  0
  149.3865  143.7669  159.9026 H   0  0  0  0  0  0  0  0  0  0  0  0
  151.1514  142.0885  159.4733 H   0  0  0  0  0  0  0  0  0  0  0  0
  152.4683  142.1090  157.3681 H   0  0  0  0  0  0  0  0  0  0  0  0
  151.4927  143.4122  156.7490 H   0  0  0  0  0  0  0  0  0  0  0  0
  1  2  2  0  0  0  0
  2  3  1  0  0  0  0
  2  9  1  0  0  0  0
  3  4  1  0  0  0  0
  3 20  1  0  0  0  0
  3 21  1  0  0  0  0
  4  8  1  0  0  0  0
  4  5  1  0  0  0  0
  5  6  2  0  0  0  0
  5 22  1  0  0  0  0
  6  7  1  0  0  0  0
  7  8  2  0  0  0  0
  9 10  1  0  0  0  0
  9 23  1  0  0  0  0
 10 19  1  0  0  0  0
 10 11  1  0  0  0  0
 10 24  1  0  0  0  0
 11 12  1  0  0  0  0
 11 25  1  0  0  0  0
 11 26  1  0  0  0  0
 12 13  1  0  0  0  0
 12 27  1  0  0  0  0
 12 28  1  0  0  0  0
 13 14  1  0  0  0  0
 13 29  1  0  0  0  0
 13 30  1  0  0  0  0
 14 15  1  0  0  0  0
 14 19  1  0  0  0  0
 14 31  1  0  0  0  0
 15 16  1  0  0  0  0
 15 17  1  0  0  0  0
 15 18  1  0  0  0  0
 19 32  1  0  0  0  0
 19 33  1  0  0  0  0
M  END
> <s_m_source_file>
AV-unprocessed.smi

> <i_m_source_file_index>
1085

> <i_lp_mmshare_version>
43012

> <i_f3d_flags>
0

> <s_epik_input>
bjFubltjSF1uMVtDSDJdQyg9TylbTkhdW0NAQEhdMltDSDJdW0NIMl1bQ0gyXVtDQEBIXShDKEYpKEYpRilbQ0gyXTI=

> <s_epik_cmdline>
J2VwaWtfcHl0aG9uJywgJy1waCcsICc3LjAnLCAnLXRuJywgJzgnLCAnLW1hJywgJzIwMCcsICctbWV0YWxfYmluZGluZycsICctaW1hZScsICc8aW5maWxlLm1hZT4nLCAnLW9tYWUnLCAnPG91dGZpbGUubWFlPic=

> <r_lp_tautomer_probability>
1

> <r_epik_Ionization_Penalty>
8.41315e-07

> <r_epik_Ionization_Penalty_Charging>
0

> <r_epik_Ionization_Penalty_Neutral>
8.41315e-07

> <r_epik_State_Penalty>
-0

> <r_epik_Charging_Adjusted_Penalty>
0

> <i_epik_Tot_Q>
0

> <i_epik_Tot_abs_Q>
0

> <r_epik_Metal_State_Penalty>
-0

> <b_epik_Metal_Only>
0

> <s_lp_Force_Field>
OPLS_2005

> <r_lp_Energy>
12.3827

> <b_lp_Chiralities_Consistent>
1

> <s_lp_Variant>
AV-unprocessed.smi:1085-4

> <Gold.Version>
5.8.1

> <Gold.Id.Protein>
6NUR|6NUR_protein|mol2

> <Gold.PLP.Fitness>
38.4973

> <Gold.PLP.PLP>
-32.7651

> <Gold.PLP.part.hbond>
-3.8752

> <Gold.PLP.part.metal>
0.0000

> <Gold.PLP.part.buried>
-3.1427

> <Gold.PLP.part.nonpolar>
-25.0682

> <Gold.PLP.part.repulsive>
0.0904

> <Gold.PLP.ligand.clash>
0.0000

> <Gold.PLP.ligand.torsion>
0.4342

> <Gold.PLP.Chemscore.Hbond>
2.1920

> <Gold.PLP.Chemscore.CHOScore>
0.0000

> <Gold.PLP.Chemscore.Metal>
0.0000

> <Gold.Chemscore.Hbonds>
donor molecule, donor type, donor heavy atom, donor atom, acceptor molecule, acceptor atom, score
      P1  H  6896  6908       L1     8  0.19
      P1  H  7997  8008       L1     1  1.00
      P1  H 10752 10763       L1     6  1.00

> <Gold.PLP.Chemscore.Internal.Correction>
0.0247

> <Gold.Rescore>
     Score         DG    S(hbond)    S(metal)    S(lipo)     H(rot)  DE(clash)    DE(int)     intcor
     11.86     -13.98       2.22        0.00      54.02       2.05       0.50       1.63       ----

> <Gold.Chemscore.Fitness>
11.8555

> <Gold.Chemscore.DG>
-13.9850

> <Gold.Chemscore.ZeroCoef>
-5.4800

> <Gold.Chemscore.Hbond>
2.2219

> <Gold.Chemscore.Metal>
0.0000

> <Gold.Chemscore.Lipo>
54.0220

> <Gold.Chemscore.Internal_Hbond>
0.0000

> <Gold.Chemscore.DEClash>
0.5000

> <Gold.Chemscore.DEInternal>
1.6295

> <Gold.Chemscore.Rot>
2.0456

> <Gold.Chemscore.Internal.Correction>
   9.000000E+99

> <Gold.Chemscore.Hbonds>
donor molecule, donor type, donor heavy atom, donor atom, acceptor molecule, acceptor atom, score
      P1  H  6896  6908       L1     8  0.18
      P1  H  7997  8008       L1     1  0.98
      P1  H 10752 10763       L1     6  0.49

> <Gold.Chemscore.Hbond.Weighted>
-7.4211

> <Gold.Chemscore.Metal.Weighted>
-0.0000

> <Gold.Chemscore.Lipo.Weighted>
-6.3206

> <Gold.Chemscore.Internal_Hbond.Weighted>
0.0000

> <Gold.Chemscore.DEClash.Weighted>
0.5000

> <Gold.Chemscore.DEInternal.Weighted>
1.6295

> <Gold.Chemscore.Rot.Weighted>
5.2368

> <Gold.Chemscore.Internal.Correction.Weighted>
   9.000000E+99

> <Gold.Protein.RotatedTorsions>
[ 6907 6896 6895 6894 ] final -129.30 input  -60.11 | X-H torsion
[ 7974 7965 7964 7962 ] final  151.57 input  175.53 | X-H torsion
[ 8008 7997 7996 7995 ] final  -75.14 input   59.86 | X-H torsion
[ 10167 10162 10161 10158 ] final  -59.37 input  -65.29 | X-H torsion
[ 10718 10713 10712 10709 ] final  -54.20 input   66.30 | X-H torsion
[ 10763 10752 10751 10750 ] final   83.53 input  -60.55 | X-H torsion
[ 11005 11000 10999 10996 ] final  -84.73 input  -57.11 | X-H torsion

> <Gold.Protein.ActiveResidues>
 VAL166  LYS551  ARG553  GLY616  TRP617  ASP618  TYR619  PRO620  LYS621  CYS622 
 ASP623  PHE694  ASN695  SER759  ASP760  ASP761  ALA762  ILE779  LEU786  VAL792 
 PHE793  MET794  SER795  GLU796  ALA797  LYS798  CYS799  TRP800  GLU811  SER814 

> <Gold.Protein.RotatedAtoms>
  150.9272  133.6810  159.2818 H   0  0  0  0  0  0  0  0  0  0  0  0  # atno 6907 bound_to 6896
  151.4244  135.1000  159.9633 H   0  0  0  0  0  0  0  0  0  0  0  0  # atno 6908 bound_to 6896
  152.5008  133.8716  159.7356 H   0  0  0  0  0  0  0  0  0  0  0  0  # atno 6909 bound_to 6896
  144.8283  139.6555  143.6070 H   0  0  0  0  0  0  0  0  0  0  0  0  # atno 7974 bound_to 7965
  154.5391  140.0749  156.8479 H   0  0  0  0  0  0  0  0  0  0  0  0  # atno 8008 bound_to 7997
  155.3217  140.3396  155.4223 H   0  0  0  0  0  0  0  0  0  0  0  0  # atno 8009 bound_to 7997
  156.1857  140.1668  156.8176 H   0  0  0  0  0  0  0  0  0  0  0  0  # atno 8010 bound_to 7997
  140.6139  143.2396  151.5643 H   0  0  0  0  0  0  0  0  0  0  0  0  # atno 10167 bound_to 10162
  156.1471  130.4152  150.0006 H   0  0  0  0  0  0  0  0  0  0  0  0  # atno 10718 bound_to 10713
  153.1299  135.4688  154.9332 H   0  0  0  0  0  0  0  0  0  0  0  0  # atno 10763 bound_to 10752
  154.7654  135.3143  154.8298 H   0  0  0  0  0  0  0  0  0  0  0  0  # atno 10764 bound_to 10752
  153.8843  135.6891  153.4818 H   0  0  0  0  0  0  0  0  0  0  0  0  # atno 10765 bound_to 10752
  141.1648  133.7361  156.8910 H   0  0  0  0  0  0  0  0  0  0  0  0  # atno 11005 bound_to 11000
  146.2587  139.6361  142.9377 LP  0  0  0  0  0  0  0  0  0  0  0  0  # atno 17320 bound_to 7965
  145.4952  141.0438  143.2571 LP  0  0  0  0  0  0  0  0  0  0  0  0  # atno 17321 bound_to 7965
  139.5383  144.2718  152.1298 LP  0  0  0  0  0  0  0  0  0  0  0  0  # atno 17342 bound_to 10162
  140.1923  144.4739  150.6472 LP  0  0  0  0  0  0  0  0  0  0  0  0  # atno 17343 bound_to 10162
  156.7875  130.9244  151.3646 LP  0  0  0  0  0  0  0  0  0  0  0  0  # atno 17370 bound_to 10713
  157.6626  130.8979  149.9862 LP  0  0  0  0  0  0  0  0  0  0  0  0  # atno 17371 bound_to 10713
  140.1648  134.9140  157.2760 LP  0  0  0  0  0  0  0  0  0  0  0  0  # atno 17394 bound_to 11000
  140.2569  134.3617  155.7421 LP  0  0  0  0  0  0  0  0  0  0  0  0  # atno 17395 bound_to 11000

$$$$
