AV-unprocessed.smi:3116|AV-procd|sdf|11874|dock9
  -GOLD-   2272017253D 1   1.00000     0.00000
 Structure written by MMmdl.
 33 33  0  0  0  0  0  0  0  0  1 V2000
  147.5855  141.3401  154.1371 C   0  0  0  0  0  0  0  0  0  0  0  0
  148.6621  140.6243  154.9772 C   0  0  2  0  0  0  0  0  0  0  0  0
  149.9735  141.2625  154.7785 N   0  0  0  0  0  0  0  0  0  0  0  0
  150.9053  141.1447  155.9001 C   0  0  2  0  0  0  0  0  0  0  0  0
  151.3719  139.6851  156.0655 C   0  0  0  0  0  0  0  0  0  0  0  0
  150.2481  141.7050  157.1899 C   0  0  1  0  0  0  0  0  0  0  0  0
  149.6751  140.6075  158.1058 C   0  0  0  0  0  0  0  0  0  0  0  0
  151.1166  142.6194  157.9272 N   0  0  0  0  0  0  0  0  0  0  0  0
  151.5659  143.8752  157.5657 C   0  0  0  0  0  0  0  0  0  0  0  0
  152.3293  144.3501  158.5930 C   0  0  0  0  0  0  0  0  0  0  0  0
  152.2870  143.3043  159.5558 C   0  0  0  0  0  0  0  0  0  0  0  0
  151.5592  142.2742  159.1572 N   0  0  0  0  0  0  0  0  0  0  0  0
  148.7518  139.1266  154.6436 C   0  0  0  0  0  0  0  0  0  0  0  0
  149.0430  138.8099  153.3788 N   0  0  0  0  0  0  0  0  0  0  0  0
  148.5682  138.2638  155.5008 O   0  0  0  0  0  0  0  0  0  0  0  0
  146.6045  140.8849  154.2788 H   0  0  0  0  0  0  0  0  0  0  0  0
  147.8188  141.3041  153.0719 H   0  0  0  0  0  0  0  0  0  0  0  0
  147.4925  142.3899  154.4128 H   0  0  0  0  0  0  0  0  0  0  0  0
  148.3723  140.6836  156.0277 H   0  0  0  0  0  0  0  0  0  0  0  0
  149.8893  142.2233  154.4785 H   0  0  0  0  0  0  0  0  0  0  0  0
  151.7789  141.7642  155.6905 H   0  0  0  0  0  0  0  0  0  0  0  0
  151.9820  139.5726  156.9619 H   0  0  0  0  0  0  0  0  0  0  0  0
  151.9840  139.3613  155.2241 H   0  0  0  0  0  0  0  0  0  0  0  0
  150.5299  138.9972  156.1512 H   0  0  0  0  0  0  0  0  0  0  0  0
  149.3855  142.2895  156.8642 H   0  0  0  0  0  0  0  0  0  0  0  0
  148.9657  139.9803  157.5658 H   0  0  0  0  0  0  0  0  0  0  0  0
  149.1474  141.0441  158.9542 H   0  0  0  0  0  0  0  0  0  0  0  0
  150.4551  139.9565  158.5018 H   0  0  0  0  0  0  0  0  0  0  0  0
  151.3062  144.3242  156.6183 H   0  0  0  0  0  0  0  0  0  0  0  0
  152.8383  145.3008  158.6493 H   0  0  0  0  0  0  0  0  0  0  0  0
  152.7577  143.2641  160.5269 H   0  0  0  0  0  0  0  0  0  0  0  0
  149.1245  137.8400  153.1109 H   0  0  0  0  0  0  0  0  0  0  0  0
  149.1912  139.5421  152.6996 H   0  0  0  0  0  0  0  0  0  0  0  0
  1  2  1  0  0  0  0
  1 16  1  0  0  0  0
  1 17  1  0  0  0  0
  1 18  1  0  0  0  0
  2  3  1  0  0  0  0
  2 13  1  0  0  0  0
  2 19  1  0  0  0  0
  3  4  1  0  0  0  0
  3 20  1  0  0  0  0
  4  5  1  0  0  0  0
  4  6  1  0  0  0  0
  4 21  1  0  0  0  0
  5 22  1  0  0  0  0
  5 23  1  0  0  0  0
  5 24  1  0  0  0  0
  6  7  1  0  0  0  0
  6  8  1  0  0  0  0
  6 25  1  0  0  0  0
  7 26  1  0  0  0  0
  7 27  1  0  0  0  0
  7 28  1  0  0  0  0
  8 12  1  0  0  0  0
  8  9  1  0  0  0  0
  9 10  2  0  0  0  0
  9 29  1  0  0  0  0
 10 11  1  0  0  0  0
 10 30  1  0  0  0  0
 11 12  2  0  0  0  0
 11 31  1  0  0  0  0
 13 14  1  0  0  0  0
 13 15  2  0  0  0  0
 14 32  1  0  0  0  0
 14 33  1  0  0  0  0
M  END
> <s_m_source_file>
AV-unprocessed.smi

> <i_m_source_file_index>
3116

> <i_lp_mmshare_version>
43012

> <i_f3d_flags>
0

> <s_epik_input>
W05IMl1DKD1PKVtDQEhdKFtDSDNdKVtOSF1bQ0BIXShbQ0gzXSlbQ0BIXShbQ0gzXSluMVtjSF1bY0hdW2NIXW4x

> <s_epik_cmdline>
J2VwaWtfcHl0aG9uJywgJy1waCcsICc3LjAnLCAnLXRuJywgJzgnLCAnLW1hJywgJzIwMCcsICctbWV0YWxfYmluZGluZycsICctaW1hZScsICc8aW5maWxlLm1hZT4nLCAnLW9tYWUnLCAnPG91dGZpbGUubWFlPic=

> <r_lp_tautomer_probability>
1

> <r_epik_Ionization_Penalty>
0.865977

> <r_epik_Ionization_Penalty_Charging>
0

> <r_epik_Ionization_Penalty_Neutral>
0.865977

> <r_epik_State_Penalty>
0.901888

> <r_epik_Charging_Adjusted_Penalty>
0.901888

> <i_epik_Tot_Q>
0

> <i_epik_Tot_abs_Q>
0

> <r_epik_Metal_State_Penalty>
0.901181

> <b_epik_Metal_Only>
0

> <s_lp_Force_Field>
OPLS_2005

> <r_lp_Energy>
11.5103

> <b_lp_Chiralities_Consistent>
1

> <s_lp_Variant>
AV-unprocessed.smi:3116-13

> <Gold.Version>
5.8.1

> <Gold.Id.Protein>
6NUR|6NUR_protein|mol2

> <Gold.PLP.Fitness>
38.3223

> <Gold.PLP.PLP>
-31.9900

> <Gold.PLP.part.hbond>
-2.7901

> <Gold.PLP.part.metal>
0.0000

> <Gold.PLP.part.buried>
-2.6515

> <Gold.PLP.part.nonpolar>
-27.2005

> <Gold.PLP.part.repulsive>
0.1712

> <Gold.PLP.ligand.clash>
0.0000

> <Gold.PLP.ligand.torsion>
1.7396

> <Gold.PLP.Chemscore.Hbond>
2.2164

> <Gold.PLP.Chemscore.CHOScore>
0.9844

> <Gold.PLP.Chemscore.Metal>
0.0000

> <Gold.Chemscore.Hbonds>
donor molecule, donor type, donor heavy atom, donor atom, acceptor molecule, acceptor atom, score
      L1  H    14    32       P1  7948  1.00
      L1  H    14    33       P1  7957  1.00
      P1  H  7989  7998       L1     3  0.10
      L1  C     9    29       P1  8028  0.79

> <Gold.PLP.Chemscore.Internal.Correction>
0.2089

> <Gold.Rescore>
     Score         DG    S(hbond)    S(metal)    S(lipo)     H(rot)  DE(clash)    DE(int)     intcor
     12.50     -14.21       1.91        0.00      72.26       2.38       0.03       1.69       ----

> <Gold.Chemscore.Fitness>
12.4972

> <Gold.Chemscore.DG>
-14.2145

> <Gold.Chemscore.ZeroCoef>
-5.4800

> <Gold.Chemscore.Hbond>
1.9107

> <Gold.Chemscore.Metal>
0.0000

> <Gold.Chemscore.Lipo>
72.2622

> <Gold.Chemscore.Internal_Hbond>
0.0000

> <Gold.Chemscore.DEClash>
0.0299

> <Gold.Chemscore.DEInternal>
1.6873

> <Gold.Chemscore.Rot>
2.3836

> <Gold.Chemscore.Internal.Correction>
   9.000000E+99

> <Gold.Chemscore.Hbonds>
donor molecule, donor type, donor heavy atom, donor atom, acceptor molecule, acceptor atom, score
      L1  H    14    32       P1  7948  0.92
      L1  H    14    33       P1  7957  0.94

> <Gold.Chemscore.Hbond.Weighted>
-6.3818

> <Gold.Chemscore.Metal.Weighted>
-0.0000

> <Gold.Chemscore.Lipo.Weighted>
-8.4547

> <Gold.Chemscore.Internal_Hbond.Weighted>
0.0000

> <Gold.Chemscore.DEClash.Weighted>
0.0299

> <Gold.Chemscore.DEInternal.Weighted>
1.6873

> <Gold.Chemscore.Rot.Weighted>
6.1020

> <Gold.Chemscore.Internal.Correction.Weighted>
   9.000000E+99

> <Gold.Protein.RotatedTorsions>
[ 6907 6896 6895 6894 ] final   57.19 input  -60.11 | X-H torsion
[ 7974 7965 7964 7962 ] final  107.91 input  175.53 | X-H torsion
[ 8008 7997 7996 7995 ] final  -30.23 input   59.86 | X-H torsion
[ 10167 10162 10161 10158 ] final -136.41 input  -65.29 | X-H torsion
[ 10718 10713 10712 10709 ] final    2.37 input   66.30 | X-H torsion
[ 10763 10752 10751 10750 ] final   -5.74 input  -60.55 | X-H torsion
[ 11005 11000 10999 10996 ] final  -78.57 input  -57.11 | X-H torsion

> <Gold.Protein.ActiveResidues>
 VAL166  LYS551  ARG553  GLY616  TRP617  ASP618  TYR619  PRO620  LYS621  CYS622 
 ASP623  PHE694  ASN695  SER759  ASP760  ASP761  ALA762  ILE779  LEU786  VAL792 
 PHE793  MET794  SER795  GLU796  ALA797  LYS798  CYS799  TRP800  GLU811  SER814 

> <Gold.Protein.RotatedAtoms>
  152.3708  134.6736  160.0176 H   0  0  0  0  0  0  0  0  0  0  0  0  # atno 6907 bound_to 6896
  151.7030  133.3306  159.3279 H   0  0  0  0  0  0  0  0  0  0  0  0  # atno 6908 bound_to 6896
  150.7672  134.6534  159.6345 H   0  0  0  0  0  0  0  0  0  0  0  0  # atno 6909 bound_to 6896
  145.2875  139.2611  143.3882 H   0  0  0  0  0  0  0  0  0  0  0  0  # atno 7974 bound_to 7965
  154.4259  140.1797  156.1373 H   0  0  0  0  0  0  0  0  0  0  0  0  # atno 8008 bound_to 7997
  156.0020  140.3359  155.6830 H   0  0  0  0  0  0  0  0  0  0  0  0  # atno 8009 bound_to 7997
  155.6230  140.0662  157.2663 H   0  0  0  0  0  0  0  0  0  0  0  0  # atno 8010 bound_to 7997
  139.8680  143.6992  152.2643 H   0  0  0  0  0  0  0  0  0  0  0  0  # atno 10167 bound_to 10162
  156.8620  130.5590  149.5662 H   0  0  0  0  0  0  0  0  0  0  0  0  # atno 10718 bound_to 10713
  153.4027  135.7005  153.6415 H   0  0  0  0  0  0  0  0  0  0  0  0  # atno 10763 bound_to 10752
  153.4942  135.3666  155.2507 H   0  0  0  0  0  0  0  0  0  0  0  0  # atno 10764 bound_to 10752
  154.8711  135.4096  154.3364 H   0  0  0  0  0  0  0  0  0  0  0  0  # atno 10765 bound_to 10752
  141.1665  133.7069  156.7992 H   0  0  0  0  0  0  0  0  0  0  0  0  # atno 11005 bound_to 11000
  146.3196  140.3358  142.8644 LP  0  0  0  0  0  0  0  0  0  0  0  0  # atno 17320 bound_to 7965
  144.9200  140.7857  143.5754 LP  0  0  0  0  0  0  0  0  0  0  0  0  # atno 17321 bound_to 7965
  139.7310  144.7582  151.0802 LP  0  0  0  0  0  0  0  0  0  0  0  0  # atno 17342 bound_to 10162
  140.7765  143.5088  150.9678 LP  0  0  0  0  0  0  0  0  0  0  0  0  # atno 17343 bound_to 10162
  156.0771  130.5791  150.9495 LP  0  0  0  0  0  0  0  0  0  0  0  0  # atno 17370 bound_to 10713
  157.6244  131.0927  150.8561 LP  0  0  0  0  0  0  0  0  0  0  0  0  # atno 17371 bound_to 10713
  140.2269  134.8715  157.3436 LP  0  0  0  0  0  0  0  0  0  0  0  0  # atno 17394 bound_to 11000
  140.1931  134.4347  155.7704 LP  0  0  0  0  0  0  0  0  0  0  0  0  # atno 17395 bound_to 11000

$$$$
