#       Name:                AV-unprocessed.smi:2973
#       Creating user name   scv26
#       Creation time:       Fri Mar 27 16:25:07 2020


#       File generated by GOLD software.
#

@<TRIPOS>MOLECULE
AV-unprocessed.smi:2973
    56    58     1
SMALL
NO_CHARGES


@<TRIPOS>ATOM
      1 ****        -0.1390   2.0904  -0.3244 C.3            1 S1                 0.0000
      2 ****        -1.4590   2.4455  -1.0427 C.3            1 S1                 0.0000
      3 ****        -2.1328   3.6515  -0.3524 C.3            1 S1                 0.0000
      4 ****        -3.4167   4.0867  -1.0764 C.3            1 S1                 0.0000
      5 ****        -4.4088   2.9224  -1.2047 C.3            1 S1                 0.0000
      6 ****        -3.7560   1.7197  -1.9047 C.3            1 S1                 0.0000
      7 ****        -2.4657   1.2613  -1.1836 C.3            1 S1                 0.0000
      8 ****        -2.7764   0.6486   0.0974 N.am           1 S1                 0.0000
      9 ****        -2.4406  -0.6461   0.1523 C.2            1 S1                 0.0000
     10 ****        -2.5929  -1.3766   1.1297 O.2            1 S1                 0.0000
     11 ****        -1.9006  -0.9940  -1.0301 N.am           1 S1                 0.0000
     12 ****        -1.3744  -2.3328  -1.3374 C.3            1 S1                 0.0000
     13 ****         0.0924  -2.5639  -0.9327 C.2            1 S1                 0.0000
     14 ****         0.5885  -3.6773  -1.0998 O.2            1 S1                 0.0000
     15 ****         0.7776  -1.5368  -0.4018 N.am           1 S1                 0.0000
     16 ****         2.1598  -1.5907   0.0559 C.3            1 S1                 0.0000
     17 ****         2.2571  -2.1770   1.4736 C.3            1 S1                 0.0000
     18 ****         3.6860  -2.2190   1.9805 C.ar           1 S1                 0.0000
     19 ****         4.4318  -3.4160   1.9318 C.ar           1 S1                 0.0000
     20 ****         5.7568  -3.4007   2.4084 C.ar           1 S1                 0.0000
     21 ****         6.2827  -2.1952   2.9117 C.ar           1 S1                 0.0000
     22 ****         5.4563  -1.0537   2.9158 C.ar           1 S1                 0.0000
     23 ****         4.1847  -1.0573   2.4605 N.ar           1 S1                 0.0000
     24 ****        -1.8665   0.0442  -1.8774 C.2            1 S1                 0.0000
     25 ****        -1.4193   0.0536  -3.0244 O.2            1 S1                 0.0000
     26 ****        -0.3125   1.7465   0.6957 H              1 S1                 0.0000
     27 ****         0.5173   2.9591  -0.2682 H              1 S1                 0.0000
     28 ****         0.4127   1.3118  -0.8507 H              1 S1                 0.0000
     29 ****        -1.1897   2.7671  -2.0503 H              1 S1                 0.0000
     30 ****        -2.3660   3.4037   0.6838 H              1 S1                 0.0000
     31 ****        -1.4400   4.4929  -0.3158 H              1 S1                 0.0000
     32 ****        -3.8830   4.9138  -0.5404 H              1 S1                 0.0000
     33 ****        -3.1662   4.4638  -2.0688 H              1 S1                 0.0000
     34 ****        -4.7633   2.6299  -0.2156 H              1 S1                 0.0000
     35 ****        -5.2881   3.2440  -1.7636 H              1 S1                 0.0000
     36 ****        -4.4741   0.9005  -1.9675 H              1 S1                 0.0000
     37 ****        -3.5229   1.9963  -2.9343 H              1 S1                 0.0000
     38 ****        -3.1966   1.1604   0.8596 H              1 S1                 0.0000
     39 ****        -1.9880  -3.0893  -0.8453 H              1 S1                 0.0000
     40 ****        -1.4684  -2.5330  -2.4060 H              1 S1                 0.0000
     41 ****         0.2998  -0.6534  -0.2998 H              1 S1                 0.0000
     42 ****         2.7659  -2.1710  -0.6419 H              1 S1                 0.0000
     43 ****         2.5574  -0.5754   0.0435 H              1 S1                 0.0000
     44 ****         1.6539  -1.5859   2.1644 H              1 S1                 0.0000
     45 ****         1.8433  -3.1860   1.4934 H              1 S1                 0.0000
     46 ****         4.0009  -4.3246   1.5373 H              1 S1                 0.0000
     47 ****         6.3591  -4.2969   2.3871 H              1 S1                 0.0000
     48 ****         7.2949  -2.1464   3.2849 H              1 S1                 0.0000
     49 ****         5.8267  -0.1126   3.2941 H              1 S1                 0.0000
     50 ****        -2.9961  -1.0116   1.9688 LP             1 S1                 0.0000
     51 ****        -2.3134  -2.3358   1.0854 LP             1 S1                 0.0000
     52 ****         0.0401  -4.4152  -1.4932 LP             1 S1                 0.0000
     53 ****         1.5402  -3.8444  -0.8423 LP             1 S1                 0.0000
     54 ****         3.6290  -0.2262   2.4778 LP             1 S1                 0.0000
     55 ****        -1.4359   0.8975  -3.5606 LP             1 S1                 0.0000
     56 ****        -1.0394  -0.7827  -3.4198 LP             1 S1                 0.0000
@<TRIPOS>BOND
    1    1    2 1     
    2    1   26 1     
    3    1   27 1     
    4    1   28 1     
    5    2    7 1     
    6    2    3 1     
    7    2   29 1     
    8    3    4 1     
    9    3   30 1     
   10    3   31 1     
   11    4    5 1     
   12    4   32 1     
   13    4   33 1     
   14    5    6 1     
   15    5   34 1     
   16    5   35 1     
   17    6    7 1     
   18    6   36 1     
   19    6   37 1     
   20    7   24 1     
   21    7    8 1     
   22    8    9 am    
   23    8   38 1     
   24    9   10 2     
   25    9   11 am    
   26   11   12 1     
   27   11   24 am    
   28   12   13 1     
   29   12   39 1     
   30   12   40 1     
   31   13   14 2     
   32   13   15 am    
   33   15   16 1     
   34   15   41 1     
   35   16   17 1     
   36   16   42 1     
   37   16   43 1     
   38   17   18 1     
   39   17   44 1     
   40   17   45 1     
   41   18   23 ar    
   42   18   19 ar    
   43   19   20 ar    
   44   19   46 1     
   45   20   21 ar    
   46   20   47 1     
   47   21   22 ar    
   48   21   48 1     
   49   22   23 ar    
   50   22   49 1     
   51   24   25 2     
   52   10   50 1     
   53   10   51 1     
   54   14   52 1     
   55   14   53 1     
   56   23   54 1     
   57   25   55 1     
   58   25   56 1     
@<TRIPOS>SUBSTRUCTURE
      1 S1             1
@<TRIPOS>SET
LONE_PAIRS      STATIC     ATOMS    <user>   **** ""
7 50 51 52 53 54 55 56
DONOR_HYDROGENS      STATIC     ATOMS    <user>   **** ""
2 38 41
ATOM$BLUE        STATIC     ATOMS    COLORGROUP SYSTEM
7 50 51 52 53 54 55 56
ATOM$RED        STATIC     ATOMS    COLORGROUP SYSTEM
2 38 41
