AV-unprocessed.smi:566|AV-procd|sdf|2955|dock10
  -GOLD-   2262023453D 1   1.00000     0.00000
 Structure written by MMmdl.
 39 40  0  0  0  0  0  0  0  0  1 V2000
  148.3912  135.9571  155.1463 C   0  0  0  0  0  0  0  0  0  0  0  0
  148.7520  137.4292  154.9875 C   0  0  0  0  0  0  0  0  0  0  0  0
  147.6892  138.3574  154.6789 C   0  0  0  0  0  0  0  0  0  0  0  0
  147.9262  139.6745  154.5713 C   0  0  0  0  0  0  0  0  0  0  0  0
  146.7932  140.6453  154.2563 C   0  0  0  0  0  0  0  0  0  0  0  0
  149.2416  140.1876  154.7412 N   0  0  0  0  0  0  0  0  0  0  0  0
  149.4749  141.6464  154.6277 C   0  0  0  0  0  0  0  0  0  0  0  0
  149.7314  142.3112  155.9939 C   0  0  0  0  0  0  0  0  0  0  0  0
  150.6399  141.5242  156.7517 O   0  0  0  0  0  0  0  0  0  0  0  0
  151.2626  142.1035  157.8358 C   0  0  0  0  0  0  0  0  0  0  0  0
  152.0471  141.2584  158.6476 C   0  0  0  0  0  0  0  0  0  0  0  0
  152.7207  141.7644  159.7758 C   0  0  0  0  0  0  0  0  0  0  0  0
  152.6128  143.1278  160.1063 C   0  0  0  0  0  0  0  0  0  0  0  0
  151.8313  143.9825  159.3069 C   0  0  0  0  0  0  0  0  0  0  0  0
  151.7249  145.2945  159.6245 F   0  0  0  0  0  0  0  0  0  0  0  0
  151.1592  143.4762  158.1769 C   0  0  0  0  0  0  0  0  0  0  0  0
  150.3138  139.3713  155.0004 C   0  0  0  0  0  0  0  0  0  0  0  0
  151.4524  139.8440  155.0772 O   0  0  0  0  0  0  0  0  0  0  0  0
  150.0086  137.9221  155.1557 C   0  0  0  0  0  0  0  0  0  0  0  0
  151.1462  137.0377  155.4760 C   0  0  0  0  0  0  0  0  0  0  0  0
  152.2111  137.6505  156.0117 N   0  0  0  0  0  0  0  0  0  0  0  0
  151.1396  135.8135  155.3575 O   0  0  0  0  0  0  0  0  0  0  0  0
  147.3101  135.8142  155.1483 H   0  0  0  0  0  0  0  0  0  0  0  0
  148.7740  135.5584  156.0864 H   0  0  0  0  0  0  0  0  0  0  0  0
  148.8004  135.3709  154.3233 H   0  0  0  0  0  0  0  0  0  0  0  0
  146.6842  137.9850  154.5419 H   0  0  0  0  0  0  0  0  0  0  0  0
  145.9041  140.1052  153.9299 H   0  0  0  0  0  0  0  0  0  0  0  0
  147.0470  141.3389  153.4568 H   0  0  0  0  0  0  0  0  0  0  0  0
  146.5204  141.2135  155.1459 H   0  0  0  0  0  0  0  0  0  0  0  0
  150.3095  141.8546  153.9605 H   0  0  0  0  0  0  0  0  0  0  0  0
  148.6432  142.1498  154.1318 H   0  0  0  0  0  0  0  0  0  0  0  0
  150.1227  143.3206  155.8640 H   0  0  0  0  0  0  0  0  0  0  0  0
  148.7853  142.3855  156.5319 H   0  0  0  0  0  0  0  0  0  0  0  0
  152.1347  140.2105  158.4002 H   0  0  0  0  0  0  0  0  0  0  0  0
  153.3200  141.1062  160.3872 H   0  0  0  0  0  0  0  0  0  0  0  0
  153.1282  143.5173  160.9719 H   0  0  0  0  0  0  0  0  0  0  0  0
  150.5683  144.1616  157.5890 H   0  0  0  0  0  0  0  0  0  0  0  0
  153.0246  137.1127  156.2733 H   0  0  0  0  0  0  0  0  0  0  0  0
  152.1896  138.6482  156.1662 H   0  0  0  0  0  0  0  0  0  0  0  0
  1  2  1  0  0  0  0
  1 23  1  0  0  0  0
  1 24  1  0  0  0  0
  1 25  1  0  0  0  0
  2 19  2  0  0  0  0
  2  3  1  0  0  0  0
  3  4  2  0  0  0  0
  3 26  1  0  0  0  0
  4  5  1  0  0  0  0
  4  6  1  0  0  0  0
  5 27  1  0  0  0  0
  5 28  1  0  0  0  0
  5 29  1  0  0  0  0
  6  7  1  0  0  0  0
  6 17  1  0  0  0  0
  7  8  1  0  0  0  0
  7 30  1  0  0  0  0
  7 31  1  0  0  0  0
  8  9  1  0  0  0  0
  8 32  1  0  0  0  0
  8 33  1  0  0  0  0
  9 10  1  0  0  0  0
 10 16  1  0  0  0  0
 10 11  2  0  0  0  0
 11 12  1  0  0  0  0
 11 34  1  0  0  0  0
 12 13  2  0  0  0  0
 12 35  1  0  0  0  0
 13 14  1  0  0  0  0
 13 36  1  0  0  0  0
 14 15  1  0  0  0  0
 14 16  2  0  0  0  0
 16 37  1  0  0  0  0
 17 18  2  0  0  0  0
 17 19  1  0  0  0  0
 19 20  1  0  0  0  0
 20 21  1  0  0  0  0
 20 22  2  0  0  0  0
 21 38  1  0  0  0  0
 21 39  1  0  0  0  0
M  END
> <s_m_source_file>
AV-unprocessed.smi

> <i_m_source_file_index>
566

> <i_lp_mmshare_version>
43012

> <i_f3d_flags>
0

> <s_epik_input>
W0NIM11jMVtjSF1jKFtDSDNdKW4oYyg9TyljMUMoPU8pW05IMl0pW0NIMl1bQ0gyXU9jMltjSF1bY0hdW2NIXWMoRilbY0hdMg==

> <s_epik_cmdline>
J2VwaWtfcHl0aG9uJywgJy1waCcsICc3LjAnLCAnLXRuJywgJzgnLCAnLW1hJywgJzIwMCcsICctbWV0YWxfYmluZGluZycsICctaW1hZScsICc8aW5maWxlLm1hZT4nLCAnLW9tYWUnLCAnPG91dGZpbGUubWFlPic=

> <r_lp_tautomer_probability>
1

> <r_epik_Ionization_Penalty>
1.93248e-07

> <r_epik_Ionization_Penalty_Charging>
2.77691e-08

> <r_epik_Ionization_Penalty_Neutral>
1.65479e-07

> <r_epik_State_Penalty>
-0

> <r_epik_Charging_Adjusted_Penalty>
2.77691e-08

> <i_epik_Tot_Q>
0

> <i_epik_Tot_abs_Q>
0

> <r_epik_Metal_State_Penalty>
-0

> <b_epik_Metal_Only>
0

> <s_lp_Force_Field>
OPLS_2005

> <r_lp_Energy>
41.2098

> <b_lp_Chiralities_Consistent>
1

> <s_lp_Variant>
AV-unprocessed.smi:566-1

> <Gold.Version>
5.8.1

> <Gold.Id.Protein>
6NUR|6NUR_protein|mol2

> <Gold.PLP.Fitness>
43.3666

> <Gold.PLP.PLP>
-37.9927

> <Gold.PLP.part.hbond>
-2.0000

> <Gold.PLP.part.metal>
0.0000

> <Gold.PLP.part.buried>
-0.5744

> <Gold.PLP.part.nonpolar>
-36.0542

> <Gold.PLP.part.repulsive>
0.3608

> <Gold.PLP.ligand.clash>
0.0000

> <Gold.PLP.ligand.torsion>
0.4754

> <Gold.PLP.Chemscore.Hbond>
2.0000

> <Gold.PLP.Chemscore.CHOScore>
0.0000

> <Gold.PLP.Chemscore.Metal>
0.0000

> <Gold.Chemscore.Hbonds>
donor molecule, donor type, donor heavy atom, donor atom, acceptor molecule, acceptor atom, score
      P1  H  7989  7998       L1    18  1.00
      P1  H 10752 10764       L1    22  1.00

> <Gold.PLP.Chemscore.Internal.Correction>
0.3246

> <Gold.Rescore>
     Score         DG    S(hbond)    S(metal)    S(lipo)     H(rot)  DE(clash)    DE(int)     intcor
     11.94     -18.81       1.81        0.00      99.35       1.69       1.79       5.09       ----

> <Gold.Chemscore.Fitness>
11.9378

> <Gold.Chemscore.DG>
-18.8145

> <Gold.Chemscore.ZeroCoef>
-5.4800

> <Gold.Chemscore.Hbond>
1.8057

> <Gold.Chemscore.Metal>
0.0000

> <Gold.Chemscore.Lipo>
99.3517

> <Gold.Chemscore.Internal_Hbond>
0.0000

> <Gold.Chemscore.DEClash>
1.7880

> <Gold.Chemscore.DEInternal>
5.0887

> <Gold.Chemscore.Rot>
1.6878

> <Gold.Chemscore.Internal.Correction>
   9.000000E+99

> <Gold.Chemscore.Hbonds>
donor molecule, donor type, donor heavy atom, donor atom, acceptor molecule, acceptor atom, score
      P1  H  7989  7998       L1    18  0.50
      P1  H 10752 10764       L1    22  0.24

> <Gold.Chemscore.Hbond.Weighted>
-6.0310

> <Gold.Chemscore.Metal.Weighted>
-0.0000

> <Gold.Chemscore.Lipo.Weighted>
-11.6241

> <Gold.Chemscore.Internal_Hbond.Weighted>
0.0000

> <Gold.Chemscore.DEClash.Weighted>
1.7880

> <Gold.Chemscore.DEInternal.Weighted>
5.0887

> <Gold.Chemscore.Rot.Weighted>
4.3207

> <Gold.Chemscore.Internal.Correction.Weighted>
   9.000000E+99

> <Gold.Protein.RotatedTorsions>
[ 6907 6896 6895 6894 ] final -124.79 input  -60.11 | X-H torsion
[ 7974 7965 7964 7962 ] final   55.91 input  175.53 | X-H torsion
[ 8008 7997 7996 7995 ] final  134.63 input   59.86 | X-H torsion
[ 10167 10162 10161 10158 ] final -121.46 input  -65.29 | X-H torsion
[ 10718 10713 10712 10709 ] final  -94.44 input   66.30 | X-H torsion
[ 10763 10752 10751 10750 ] final  -36.97 input  -60.55 | X-H torsion
[ 11005 11000 10999 10996 ] final  -93.53 input  -57.11 | X-H torsion

> <Gold.Protein.ActiveResidues>
 VAL166  LYS551  ARG553  GLY616  TRP617  ASP618  TYR619  PRO620  LYS621  CYS622 
 ASP623  PHE694  ASN695  SER759  ASP760  ASP761  ALA762  ILE779  LEU786  VAL792 
 PHE793  MET794  SER795  GLU796  ALA797  LYS798  CYS799  TRP800  GLU811  SER814 

> <Gold.Protein.RotatedAtoms>
  150.8803  133.7381  159.2933 H   0  0  0  0  0  0  0  0  0  0  0  0  # atno 6907 bound_to 6896
  151.4964  135.1058  159.9827 H   0  0  0  0  0  0  0  0  0  0  0  0  # atno 6908 bound_to 6896
  152.4755  133.8083  159.7045 H   0  0  0  0  0  0  0  0  0  0  0  0  # atno 6909 bound_to 6896
  145.9454  139.3925  143.0338 H   0  0  0  0  0  0  0  0  0  0  0  0  # atno 7974 bound_to 7965
  156.3000  140.2491  156.3449 H   0  0  0  0  0  0  0  0  0  0  0  0  # atno 8008 bound_to 7997
  154.9020  140.0406  157.1918 H   0  0  0  0  0  0  0  0  0  0  0  0  # atno 8009 bound_to 7997
  154.8491  140.2903  155.5614 H   0  0  0  0  0  0  0  0  0  0  0  0  # atno 8010 bound_to 7997
  140.0248  143.5307  152.2204 H   0  0  0  0  0  0  0  0  0  0  0  0  # atno 10167 bound_to 10162
  156.0027  130.5068  150.5927 H   0  0  0  0  0  0  0  0  0  0  0  0  # atno 10718 bound_to 10713
  153.8886  135.6814  153.4762 H   0  0  0  0  0  0  0  0  0  0  0  0  # atno 10763 bound_to 10752
  153.1194  135.4747  154.9167 H   0  0  0  0  0  0  0  0  0  0  0  0  # atno 10764 bound_to 10752
  154.7634  135.3217  154.8287 H   0  0  0  0  0  0  0  0  0  0  0  0  # atno 10765 bound_to 10752
  141.1494  133.7894  157.0172 H   0  0  0  0  0  0  0  0  0  0  0  0  # atno 11005 bound_to 11000
  145.8243  140.9663  143.0882 LP  0  0  0  0  0  0  0  0  0  0  0  0  # atno 17320 bound_to 7965
  144.6786  140.0082  143.7484 LP  0  0  0  0  0  0  0  0  0  0  0  0  # atno 17321 bound_to 7965
  139.6115  144.7610  151.2941 LP  0  0  0  0  0  0  0  0  0  0  0  0  # atno 17342 bound_to 10162
  140.7327  143.6816  150.7996 LP  0  0  0  0  0  0  0  0  0  0  0  0  # atno 17343 bound_to 10162
  157.3789  131.0777  151.1494 LP  0  0  0  0  0  0  0  0  0  0  0  0  # atno 17370 bound_to 10713
  157.2223  130.6487  149.5816 LP  0  0  0  0  0  0  0  0  0  0  0  0  # atno 17371 bound_to 10713
  140.0839  134.9632  157.1668 LP  0  0  0  0  0  0  0  0  0  0  0  0  # atno 17394 bound_to 11000
  140.3539  134.2569  155.7195 LP  0  0  0  0  0  0  0  0  0  0  0  0  # atno 17395 bound_to 11000

$$$$
