#       Name:                AV-unprocessed.smi:1442
#       Creating user name   scv26
#       Creation time:       Fri Mar 27 05:55:30 2020


#       File generated by GOLD software.
#

@<TRIPOS>MOLECULE
AV-unprocessed.smi:1442
    49    50     1
SMALL
NO_CHARGES


@<TRIPOS>ATOM
      1 ****        -6.8200  -0.7491   0.2612 C.3            1 S1                 0.0000
      2 ****        -5.7332  -0.1423  -0.4923 N.am           1 S1                 0.0000
      3 ****        -4.4625  -0.0809  -0.0688 C.2            1 S1                 0.0000
      4 ****        -4.0906  -0.5401   1.0117 O.2            1 S1                 0.0000
      5 ****        -3.4589   0.6015  -1.0080 C.3            1 S1                 0.0000
      6 ****        -2.3401  -0.3786  -1.4348 C.3            1 S1                 0.0000
      7 ****        -1.2612   0.3407  -2.2643 C.3            1 S1                 0.0000
      8 ****        -0.7246   1.4590  -1.4699 N.am           1 S1                 0.0000
      9 ****         0.4730   1.4881  -0.8316 C.2            1 S1                 0.0000
     10 ****         0.7982   2.3806  -0.0473 O.2            1 S1                 0.0000
     11 ****         1.2962   0.4696  -1.1335 N.am           1 S1                 0.0000
     12 ****         2.6228   0.2612  -0.5663 C.3            1 S1                 0.0000
     13 ****         2.5442  -0.3763   0.8305 C.3            1 S1                 0.0000
     14 ****         3.9117  -0.6276   1.4005 C.2            1 S1                 0.0000
     15 ****         4.8435   0.3314   1.8909 C.2            1 S1                 0.0000
     16 ****         5.9666  -0.2172   2.3248 N.2            1 S1                 0.0000
     17 ****         5.7903  -1.5404   2.1313 N.pl3          1 S1                 0.0000
     18 ****         6.8428  -2.4623   2.5015 C.3            1 S1                 0.0000
     19 ****         4.5602  -1.8176   1.5748 C.2            1 S1                 0.0000
     20 ****        -1.7535   2.4792  -1.2347 C.3            1 S1                 0.0000
     21 ****        -2.8616   1.8710  -0.3554 C.3            1 S1                 0.0000
     22 ****        -7.7562  -0.6447  -0.2873 H              1 S1                 0.0000
     23 ****        -6.9379  -0.2660   1.2319 H              1 S1                 0.0000
     24 ****        -6.6351  -1.8123   0.4207 H              1 S1                 0.0000
     25 ****        -5.9602   0.2573  -1.3915 H              1 S1                 0.0000
     26 ****        -3.9873   0.9124  -1.9112 H              1 S1                 0.0000
     27 ****        -1.8725  -0.8302  -0.5582 H              1 S1                 0.0000
     28 ****        -2.7636  -1.1988  -2.0159 H              1 S1                 0.0000
     29 ****        -0.5061  -0.3747  -2.5897 H              1 S1                 0.0000
     30 ****        -1.6995   0.7320  -3.1836 H              1 S1                 0.0000
     31 ****         0.9699  -0.2203  -1.7943 H              1 S1                 0.0000
     32 ****         3.1785  -0.3906  -1.2412 H              1 S1                 0.0000
     33 ****         3.1666   1.2070  -0.5291 H              1 S1                 0.0000
     34 ****         1.9737   0.2718   1.4967 H              1 S1                 0.0000
     35 ****         1.9788  -1.3071   0.7688 H              1 S1                 0.0000
     36 ****         4.7371   1.4052   1.9406 H              1 S1                 0.0000
     37 ****         6.4795  -3.4884   2.4393 H              1 S1                 0.0000
     38 ****         7.1685  -2.2639   3.5232 H              1 S1                 0.0000
     39 ****         7.6899  -2.3434   1.8255 H              1 S1                 0.0000
     40 ****         4.2504  -2.8278   1.3505 H              1 S1                 0.0000
     41 ****        -1.3549   3.3788  -0.7636 H              1 S1                 0.0000
     42 ****        -2.1673   2.8062  -2.1897 H              1 S1                 0.0000
     43 ****        -3.6457   2.6109  -0.1898 H              1 S1                 0.0000
     44 ****        -2.4479   1.6353   0.6268 H              1 S1                 0.0000
     45 ****        -4.7489  -0.9844   1.6193 LP             1 S1                 0.0000
     46 ****        -3.1304  -0.4686   1.2815 LP             1 S1                 0.0000
     47 ****         0.1665   3.1316   0.1454 LP             1 S1                 0.0000
     48 ****         1.6938   2.3542   0.3968 LP             1 S1                 0.0000
     49 ****         6.7657   0.2449   2.7094 LP             1 S1                 0.0000
@<TRIPOS>BOND
    1    1    2 1     
    2    1   22 1     
    3    1   23 1     
    4    1   24 1     
    5    2    3 am    
    6    2   25 1     
    7    3    4 2     
    8    3    5 1     
    9    5   21 1     
   10    5    6 1     
   11    5   26 1     
   12    6    7 1     
   13    6   27 1     
   14    6   28 1     
   15    7    8 1     
   16    7   29 1     
   17    7   30 1     
   18    8    9 am    
   19    8   20 1     
   20    9   10 2     
   21    9   11 am    
   22   11   12 1     
   23   11   31 1     
   24   12   13 1     
   25   12   32 1     
   26   12   33 1     
   27   13   14 1     
   28   13   34 1     
   29   13   35 1     
   30   14   19 2     
   31   14   15 1     
   32   15   16 2     
   33   15   36 1     
   34   16   17 1     
   35   17   18 1     
   36   17   19 1     
   37   18   37 1     
   38   18   38 1     
   39   18   39 1     
   40   19   40 1     
   41   20   21 1     
   42   20   41 1     
   43   20   42 1     
   44   21   43 1     
   45   21   44 1     
   46    4   45 1     
   47    4   46 1     
   48   10   47 1     
   49   10   48 1     
   50   16   49 1     
@<TRIPOS>SUBSTRUCTURE
      1 S1             1
@<TRIPOS>SET
LONE_PAIRS      STATIC     ATOMS    <user>   **** ""
5 45 46 47 48 49
DONOR_HYDROGENS      STATIC     ATOMS    <user>   **** ""
2 25 31
ATOM$BLUE        STATIC     ATOMS    COLORGROUP SYSTEM
5 45 46 47 48 49
ATOM$RED        STATIC     ATOMS    COLORGROUP SYSTEM
2 25 31
