AV-unprocessed.smi:2153|AV-procd|sdf|8768|dock8
  -GOLD-   2272011553D 1   1.00000     0.00000
 Structure written by MMmdl.
 48 49  0  0  0  0  0  0  0  0  1 V2000
  151.7338  144.1746  161.7426 C   0  0  0  0  0  0  0  0  0  0  0  0
  151.8458  144.3819  160.2242 C   0  0  2  0  0  0  0  0  0  0  0  0
  150.5060  144.1082  159.5090 C   0  0  0  0  0  0  0  0  0  0  0  0
  150.6126  144.3532  157.9959 C   0  0  0  0  0  0  0  0  0  0  0  0
  151.7549  143.5340  157.3785 C   0  0  0  0  0  0  0  0  0  0  0  0
  153.0891  143.8112  158.0883 C   0  0  0  0  0  0  0  0  0  0  0  0
  152.9881  143.5439  159.6060 C   0  0  2  0  0  0  0  0  0  0  0  0
  152.7082  142.1733  159.8630 O   0  0  0  0  0  0  0  0  0  0  0  0
  153.2332  141.6510  161.0739 C   0  0  0  0  0  0  0  0  0  0  0  0
  154.5198  140.8703  160.7611 C   0  0  0  0  0  0  0  0  0  0  0  0
  155.4666  140.9235  161.8715 N   0  0  0  0  0  0  0  0  0  0  0  0
  156.6586  140.3072  161.8993 C   0  0  0  0  0  0  0  0  0  0  0  0
  157.0601  139.5747  160.9953 O   0  0  0  0  0  0  0  0  0  0  0  0
  157.5222  140.5361  163.1457 C   0  0  0  0  0  0  0  0  0  0  0  0
  158.7924  141.1953  162.8155 N   0  0  0  0  0  0  0  0  0  0  0  0
  158.9205  141.8391  161.5978 C   0  0  0  0  0  0  0  0  0  0  0  0
  160.0546  142.4502  161.1917 C   0  0  0  0  0  0  0  0  0  0  0  0
  161.2432  142.4555  162.0347 C   0  0  0  0  0  0  0  0  0  0  0  0
  162.2968  143.0052  161.7112 O   0  0  0  0  0  0  0  0  0  0  0  0
  161.0910  141.7824  163.2693 N   0  0  0  0  0  0  0  0  0  0  0  0
  162.2334  141.7532  164.1592 C   0  0  0  0  0  0  0  0  0  0  0  0
  159.8912  141.1732  163.7033 C   0  0  0  0  0  0  0  0  0  0  0  0
  159.7907  140.6414  164.8112 O   0  0  0  0  0  0  0  0  0  0  0  0
  151.4639  143.1465  161.9868 H   0  0  0  0  0  0  0  0  0  0  0  0
  150.9724  144.8265  162.1712 H   0  0  0  0  0  0  0  0  0  0  0  0
  152.6776  144.3990  162.2399 H   0  0  0  0  0  0  0  0  0  0  0  0
  152.0909  145.4332  160.0666 H   0  0  0  0  0  0  0  0  0  0  0  0
  150.1905  143.0795  159.6886 H   0  0  0  0  0  0  0  0  0  0  0  0
  149.7243  144.7444  159.9251 H   0  0  0  0  0  0  0  0  0  0  0  0
  149.6692  144.1006  157.5118 H   0  0  0  0  0  0  0  0  0  0  0  0
  150.7819  145.4141  157.8086 H   0  0  0  0  0  0  0  0  0  0  0  0
  151.5211  142.4726  157.4538 H   0  0  0  0  0  0  0  0  0  0  0  0
  151.8420  143.7589  156.3154 H   0  0  0  0  0  0  0  0  0  0  0  0
  153.8822  143.2177  157.6351 H   0  0  0  0  0  0  0  0  0  0  0  0
  153.3701  144.8526  157.9265 H   0  0  0  0  0  0  0  0  0  0  0  0
  153.9271  143.8196  160.0893 H   0  0  0  0  0  0  0  0  0  0  0  0
  153.4441  142.4407  161.7945 H   0  0  0  0  0  0  0  0  0  0  0  0
  152.4987  140.9836  161.5265 H   0  0  0  0  0  0  0  0  0  0  0  0
  154.2736  139.8227  160.5887 H   0  0  0  0  0  0  0  0  0  0  0  0
  154.9785  141.2354  159.8405 H   0  0  0  0  0  0  0  0  0  0  0  0
  155.2089  141.4943  162.6633 H   0  0  0  0  0  0  0  0  0  0  0  0
  156.9716  141.1306  163.8768 H   0  0  0  0  0  0  0  0  0  0  0  0
  157.7048  139.5758  163.6311 H   0  0  0  0  0  0  0  0  0  0  0  0
  158.0704  141.8528  160.9311 H   0  0  0  0  0  0  0  0  0  0  0  0
  160.0856  142.9349  160.2270 H   0  0  0  0  0  0  0  0  0  0  0  0
  162.1769  140.8803  164.8105 H   0  0  0  0  0  0  0  0  0  0  0  0
  162.2122  142.6806  164.7328 H   0  0  0  0  0  0  0  0  0  0  0  0
  163.1460  141.6689  163.5668 H   0  0  0  0  0  0  0  0  0  0  0  0
  1  2  1  0  0  0  0
  1 24  1  0  0  0  0
  1 25  1  0  0  0  0
  1 26  1  0  0  0  0
  2  7  1  0  0  0  0
  2  3  1  0  0  0  0
  2 27  1  0  0  0  0
  3  4  1  0  0  0  0
  3 28  1  0  0  0  0
  3 29  1  0  0  0  0
  4  5  1  0  0  0  0
  4 30  1  0  0  0  0
  4 31  1  0  0  0  0
  5  6  1  0  0  0  0
  5 32  1  0  0  0  0
  5 33  1  0  0  0  0
  6  7  1  0  0  0  0
  6 34  1  0  0  0  0
  6 35  1  0  0  0  0
  7  8  1  0  0  0  0
  7 36  1  0  0  0  0
  8  9  1  0  0  0  0
  9 10  1  0  0  0  0
  9 37  1  0  0  0  0
  9 38  1  0  0  0  0
 10 11  1  0  0  0  0
 10 39  1  0  0  0  0
 10 40  1  0  0  0  0
 11 12  1  0  0  0  0
 11 41  1  0  0  0  0
 12 13  2  0  0  0  0
 12 14  1  0  0  0  0
 14 15  1  0  0  0  0
 14 42  1  0  0  0  0
 14 43  1  0  0  0  0
 15 22  1  0  0  0  0
 15 16  1  0  0  0  0
 16 17  2  0  0  0  0
 16 44  1  0  0  0  0
 17 18  1  0  0  0  0
 17 45  1  0  0  0  0
 18 19  2  0  0  0  0
 18 20  1  0  0  0  0
 20 21  1  0  0  0  0
 20 22  1  0  0  0  0
 21 46  1  0  0  0  0
 21 47  1  0  0  0  0
 21 48  1  0  0  0  0
 22 23  2  0  0  0  0
M  END
> <s_m_source_file>
AV-unprocessed.smi

> <i_m_source_file_index>
2153

> <i_lp_mmshare_version>
43012

> <i_f3d_flags>
0

> <s_epik_input>
W0NIM11bQ0BASF0xW0NIMl1bQ0gyXVtDSDJdW0NIMl1bQ0BIXTFPW0NIMl1bQ0gyXVtOSF1DKD1PKVtDSDJdbjJbY0hdW2NIXWMoPU8pbihbQ0gzXSljMj1P

> <s_epik_cmdline>
J2VwaWtfcHl0aG9uJywgJy1waCcsICc3LjAnLCAnLXRuJywgJzgnLCAnLW1hJywgJzIwMCcsICctbWV0YWxfYmluZGluZycsICctaW1hZScsICc8aW5maWxlLm1hZT4nLCAnLW9tYWUnLCAnPG91dGZpbGUubWFlPic=

> <r_lp_tautomer_probability>
1

> <r_epik_Ionization_Penalty>
4.02205e-08

> <r_epik_Ionization_Penalty_Charging>
1.23606e-08

> <r_epik_Ionization_Penalty_Neutral>
2.78599e-08

> <r_epik_State_Penalty>
-0

> <r_epik_Charging_Adjusted_Penalty>
1.23606e-08

> <i_epik_Tot_Q>
0

> <i_epik_Tot_abs_Q>
0

> <r_epik_Metal_State_Penalty>
-0

> <b_epik_Metal_Only>
0

> <s_lp_Force_Field>
OPLS_2005

> <r_lp_Energy>
17.534

> <b_lp_Chiralities_Consistent>
1

> <s_lp_Variant>
AV-unprocessed.smi:2153-3

> <Gold.Version>
5.8.1

> <Gold.Id.Protein>
6NUR|6NUR_protein|mol2

> <Gold.PLP.Fitness>
46.6274

> <Gold.PLP.PLP>
-45.8083

> <Gold.PLP.part.hbond>
-3.0000

> <Gold.PLP.part.metal>
0.0000

> <Gold.PLP.part.buried>
-6.3630

> <Gold.PLP.part.nonpolar>
-37.8187

> <Gold.PLP.part.repulsive>
0.3462

> <Gold.PLP.ligand.clash>
0.0576

> <Gold.PLP.ligand.torsion>
1.1015

> <Gold.PLP.Chemscore.Hbond>
1.0000

> <Gold.PLP.Chemscore.CHOScore>
0.0000

> <Gold.PLP.Chemscore.Metal>
0.0000

> <Gold.PLP.Chemscore.Internal.Correction>
0.0798

> <Gold.Rescore>
     Score         DG    S(hbond)    S(metal)    S(lipo)     H(rot)  DE(clash)    DE(int)     intcor
     14.81     -18.39       1.00        0.00     129.86       2.20       1.16       2.41       ----

> <Gold.Chemscore.Fitness>
14.8137

> <Gold.Chemscore.DG>
-18.3885

> <Gold.Chemscore.ZeroCoef>
-5.4800

> <Gold.Chemscore.Hbond>
0.9997

> <Gold.Chemscore.Metal>
0.0000

> <Gold.Chemscore.Lipo>
129.8566

> <Gold.Chemscore.Internal_Hbond>
0.0000

> <Gold.Chemscore.DEClash>
1.1606

> <Gold.Chemscore.DEInternal>
2.4143

> <Gold.Chemscore.Rot>
2.1968

> <Gold.Chemscore.Internal.Correction>
   9.000000E+99

> <Gold.Chemscore.Hbond.Weighted>
-3.3391

> <Gold.Chemscore.Metal.Weighted>
-0.0000

> <Gold.Chemscore.Lipo.Weighted>
-15.1932

> <Gold.Chemscore.Internal_Hbond.Weighted>
0.0000

> <Gold.Chemscore.DEClash.Weighted>
1.1606

> <Gold.Chemscore.DEInternal.Weighted>
2.4143

> <Gold.Chemscore.Rot.Weighted>
5.6238

> <Gold.Chemscore.Internal.Correction.Weighted>
   9.000000E+99

> <Gold.Protein.RotatedTorsions>
[ 6907 6896 6895 6894 ] final   55.83 input  -60.11 | X-H torsion
[ 7974 7965 7964 7962 ] final  -18.06 input  175.53 | X-H torsion
[ 8008 7997 7996 7995 ] final   76.97 input   59.86 | X-H torsion
[ 10167 10162 10161 10158 ] final -142.95 input  -65.29 | X-H torsion
[ 10718 10713 10712 10709 ] final   27.18 input   66.30 | X-H torsion
[ 10763 10752 10751 10750 ] final   73.57 input  -60.55 | X-H torsion
[ 11005 11000 10999 10996 ] final   45.21 input  -57.11 | X-H torsion

> <Gold.Protein.ActiveResidues>
 VAL166  LYS551  ARG553  GLY616  TRP617  ASP618  TYR619  PRO620  LYS621  CYS622 
 ASP623  PHE694  ASN695  SER759  ASP760  ASP761  ALA762  ILE779  LEU786  VAL792 
 PHE793  MET794  SER795  GLU796  ALA797  LYS798  CYS799  TRP800  GLU811  SER814 

> <Gold.Protein.RotatedAtoms>
  152.3577  134.6916  160.0216 H   0  0  0  0  0  0  0  0  0  0  0  0  # atno 6907 bound_to 6896
  151.7250  133.3310  159.3333 H   0  0  0  0  0  0  0  0  0  0  0  0  # atno 6908 bound_to 6896
  150.7583  134.6348  159.6250 H   0  0  0  0  0  0  0  0  0  0  0  0  # atno 6909 bound_to 6896
  146.1911  140.3867  142.8458 H   0  0  0  0  0  0  0  0  0  0  0  0  # atno 7974 bound_to 7965
  155.8349  140.3464  155.5595 H   0  0  0  0  0  0  0  0  0  0  0  0  # atno 8008 bound_to 7997
  155.8203  140.0912  157.1873 H   0  0  0  0  0  0  0  0  0  0  0  0  # atno 8009 bound_to 7997
  154.4004  140.1431  156.3479 H   0  0  0  0  0  0  0  0  0  0  0  0  # atno 8010 bound_to 7997
  139.8039  143.7795  152.2660 H   0  0  0  0  0  0  0  0  0  0  0  0  # atno 10167 bound_to 10162
  157.2167  130.6959  149.6252 H   0  0  0  0  0  0  0  0  0  0  0  0  # atno 10718 bound_to 10713
  153.0530  135.5058  154.7913 H   0  0  0  0  0  0  0  0  0  0  0  0  # atno 10763 bound_to 10752
  154.6760  135.2960  154.9680 H   0  0  0  0  0  0  0  0  0  0  0  0  # atno 10764 bound_to 10752
  154.0482  135.6707  153.4850 H   0  0  0  0  0  0  0  0  0  0  0  0  # atno 10765 bound_to 10752
  140.1481  134.4497  155.8401 H   0  0  0  0  0  0  0  0  0  0  0  0  # atno 11005 bound_to 11000
  144.8488  140.6970  143.6181 LP  0  0  0  0  0  0  0  0  0  0  0  0  # atno 17320 bound_to 7965
  145.3790  139.1641  143.4291 LP  0  0  0  0  0  0  0  0  0  0  0  0  # atno 17321 bound_to 7965
  139.7924  144.7405  150.9937 LP  0  0  0  0  0  0  0  0  0  0  0  0  # atno 17342 bound_to 10162
  140.7819  143.4429  151.0525 LP  0  0  0  0  0  0  0  0  0  0  0  0  # atno 17343 bound_to 10162
  155.9686  130.4533  150.5807 LP  0  0  0  0  0  0  0  0  0  0  0  0  # atno 17370 bound_to 10713
  157.3617  131.0751  151.1631 LP  0  0  0  0  0  0  0  0  0  0  0  0  # atno 17371 bound_to 10713
  141.2195  133.6861  156.7371 LP  0  0  0  0  0  0  0  0  0  0  0  0  # atno 17394 bound_to 11000
  140.2639  134.8445  157.3784 LP  0  0  0  0  0  0  0  0  0  0  0  0  # atno 17395 bound_to 11000

$$$$
