#       Name:                AV-unprocessed.smi:470
#       Creating user name   scv26
#       Creation time:       Thu Mar 26 23:06:44 2020


#       File generated by GOLD software.
#

@<TRIPOS>MOLECULE
AV-unprocessed.smi:470
    38    39     1
SMALL
NO_CHARGES


@<TRIPOS>ATOM
      1 ****         8.0569  -0.8019  -0.9478 N.am           1 S1                 0.0000
      2 ****         8.1780   0.5106  -1.1655 C.2            1 S1                 0.0000
      3 ****         8.8510   0.9651  -2.0882 O.2            1 S1                 0.0000
      4 ****         7.4405   1.4487  -0.2083 C.3            1 S1                 0.0000
      5 ****         6.0065   1.5951  -0.6258 C.2            1 S1                 0.0000
      6 ****         5.4891   2.5238  -1.4962 C.2            1 S1                 0.0000
      7 ****         3.7698   2.3311  -1.7122 S.3            1 S1                 0.0000
      8 ****         3.8130   0.9987  -0.5684 C.2            1 S1                 0.0000
      9 ****         2.6536   0.2424  -0.2523 N.am           1 S1                 0.0000
     10 ****         2.3899  -0.5592   0.8003 C.2            1 S1                 0.0000
     11 ****         3.2480  -0.7240   1.6660 O.2            1 S1                 0.0000
     12 ****         1.0393  -1.2927   0.9388 C.3            1 S1                 0.0000
     13 ****         1.2129  -2.7426   1.4540 C.3            1 S1                 0.0000
     14 ****        -0.1195  -3.3866   1.7954 C.2            1 S1                 0.0000
     15 ****        -1.2518  -2.6857   1.9793 C.2            1 S1                 0.0000
     16 ****        -1.3239  -1.1725   1.8713 C.3            1 S1                 0.0000
     17 ****         0.0726  -0.5231   1.8623 C.3            1 S1                 0.0000
     18 ****         5.0394   0.7257  -0.1121 N.2            1 S1                 0.0000
     19 ****         8.5206  -1.4564  -1.5610 H              1 S1                 0.0000
     20 ****         7.4962  -1.1353  -0.1769 H              1 S1                 0.0000
     21 ****         7.5127   1.0610   0.8091 H              1 S1                 0.0000
     22 ****         7.9384   2.4188  -0.2025 H              1 S1                 0.0000
     23 ****         6.0170   3.3005  -2.0294 H              1 S1                 0.0000
     24 ****         1.9150   0.2994  -0.9384 H              1 S1                 0.0000
     25 ****         0.5853  -1.3891  -0.0463 H              1 S1                 0.0000
     26 ****         1.7084  -3.3482   0.6945 H              1 S1                 0.0000
     27 ****         1.8348  -2.7828   2.3491 H              1 S1                 0.0000
     28 ****        -0.1284  -4.4613   1.9036 H              1 S1                 0.0000
     29 ****        -2.1722  -3.2027   2.2080 H              1 S1                 0.0000
     30 ****        -1.8588  -0.9244   0.9539 H              1 S1                 0.0000
     31 ****        -1.9124  -0.7786   2.7001 H              1 S1                 0.0000
     32 ****         0.4725  -0.5166   2.8777 H              1 S1                 0.0000
     33 ****        -0.0129   0.5225   1.5644 H              1 S1                 0.0000
     34 ****         9.3322   0.3456  -2.7084 LP             1 S1                 0.0000
     35 ****         8.9173   1.9543  -2.2187 LP             1 S1                 0.0000
     36 ****         4.1330  -0.2654   1.5864 LP             1 S1                 0.0000
     37 ****         3.0605  -1.3165   2.4494 LP             1 S1                 0.0000
     38 ****         5.2426  -0.0175   0.5254 LP             1 S1                 0.0000
@<TRIPOS>BOND
    1    1    2 am    
    2    1   19 1     
    3    1   20 1     
    4    2    3 2     
    5    2    4 1     
    6    4    5 1     
    7    4   21 1     
    8    4   22 1     
    9    5   18 1     
   10    5    6 2     
   11    6    7 1     
   12    6   23 1     
   13    7    8 1     
   14    8    9 1     
   15    8   18 2     
   16    9   10 am    
   17    9   24 1     
   18   10   11 2     
   19   10   12 1     
   20   12   17 1     
   21   12   13 1     
   22   12   25 1     
   23   13   14 1     
   24   13   26 1     
   25   13   27 1     
   26   14   15 2     
   27   14   28 1     
   28   15   16 1     
   29   15   29 1     
   30   16   17 1     
   31   16   30 1     
   32   16   31 1     
   33   17   32 1     
   34   17   33 1     
   35    3   34 1     
   36    3   35 1     
   37   11   36 1     
   38   11   37 1     
   39   18   38 1     
@<TRIPOS>SUBSTRUCTURE
      1 S1             1
@<TRIPOS>SET
LONE_PAIRS      STATIC     ATOMS    <user>   **** ""
5 34 35 36 37 38
DONOR_HYDROGENS      STATIC     ATOMS    <user>   **** ""
3 19 20 24
ATOM$BLUE        STATIC     ATOMS    COLORGROUP SYSTEM
5 34 35 36 37 38
ATOM$RED        STATIC     ATOMS    COLORGROUP SYSTEM
3 19 20 24
