AV-unprocessed.smi:1762|AV-procd|sdf|7109|dock10
  -GOLD-   22720 8333D 1   1.00000     0.00000
 Structure written by MMmdl.
 53 54  0  0  0  0  0  0  0  0  2 V2000
  152.1724  139.1780  156.9052 C   0  0  0  0  0  0  0  0  0  0  0  0
  151.9945  139.0849  155.3792 C   0  0  1  0  0  0  0  0  0  0  0  0
  151.3375  137.7680  154.9199 C   0  0  0  0  0  0  0  0  0  0  0  0
  149.8995  137.6991  155.2098 N   0  0  0  0  0  0  0  0  0  0  0  0
  149.2841  136.4085  154.7899 C   0  0  2  0  0  0  0  0  0  0  0  0
  147.7393  136.4163  154.8711 C   0  0  0  0  0  0  0  0  0  0  0  0
  147.1715  136.4326  155.9638 O   0  0  0  0  0  0  0  0  0  0  0  0
  147.0752  136.4377  153.7045 N   0  0  0  0  0  0  0  0  0  0  0  0
  145.6246  136.4836  153.5714 C   0  0  0  0  0  0  0  0  0  0  0  0
  145.1978  136.6167  152.0996 C   0  0  0  0  0  0  0  0  0  0  0  0
  145.2963  135.3015  151.3521 C   0  0  0  0  0  0  0  0  0  0  0  0
  144.1676  134.6809  150.7743 C   0  0  0  0  0  0  0  0  0  0  0  0
  144.3273  133.4539  150.0970 C   0  0  0  0  0  0  0  0  0  0  0  0
  145.6098  132.8733  150.0136 C   0  0  0  0  0  0  0  0  0  0  0  0
  146.7020  133.5353  150.6105 C   0  0  0  0  0  0  0  0  0  0  0  0
  146.5086  134.7098  151.2502 N   0  3  0  0  0  0  0  0  0  0  0  0
  149.8702  135.1361  155.4902 C   0  0  0  0  0  0  0  0  0  0  0  0
  149.4270  133.8132  154.8330 C   0  0  0  0  0  0  0  0  0  0  0  0
  149.6217  135.0891  157.0108 C   0  0  0  0  0  0  0  0  0  0  0  0
  149.2528  138.8951  154.6439 C   0  0  0  0  0  0  0  0  0  0  0  0
  149.8868  140.2071  155.1408 C   0  0  2  0  0  0  0  0  0  0  0  0
  149.2715  141.4392  154.4676 C   0  0  0  0  0  0  0  0  0  0  0  0
  151.2815  140.2031  154.8567 O   0  0  0  0  0  0  0  0  0  0  0  0
  152.8272  138.3853  157.2675 H   0  0  0  0  0  0  0  0  0  0  0  0
  151.2255  139.0825  157.4364 H   0  0  0  0  0  0  0  0  0  0  0  0
  152.6206  140.1308  157.1871 H   0  0  0  0  0  0  0  0  0  0  0  0
  152.9924  139.1307  154.9418 H   0  0  0  0  0  0  0  0  0  0  0  0
  151.4986  137.6486  153.8472 H   0  0  0  0  0  0  0  0  0  0  0  0
  151.8770  136.9567  155.4042 H   0  0  0  0  0  0  0  0  0  0  0  0
  149.5168  136.2875  153.7296 H   0  0  0  0  0  0  0  0  0  0  0  0
  147.6155  136.4270  152.8514 H   0  0  0  0  0  0  0  0  0  0  0  0
  145.2167  135.5671  153.9987 H   0  0  0  0  0  0  0  0  0  0  0  0
  145.2231  137.3082  154.1631 H   0  0  0  0  0  0  0  0  0  0  0  0
  144.1719  136.9819  152.0338 H   0  0  0  0  0  0  0  0  0  0  0  0
  145.8191  137.3586  151.5955 H   0  0  0  0  0  0  0  0  0  0  0  0
  143.1910  135.1375  150.8488 H   0  0  0  0  0  0  0  0  0  0  0  0
  143.4761  132.9640  149.6471 H   0  0  0  0  0  0  0  0  0  0  0  0
  145.7533  131.9343  149.4989 H   0  0  0  0  0  0  0  0  0  0  0  0
  147.7164  133.1641  150.5953 H   0  0  0  0  0  0  0  0  0  0  0  0
  150.9494  135.1478  155.3473 H   0  0  0  0  0  0  0  0  0  0  0  0
  148.3701  133.6042  155.0012 H   0  0  0  0  0  0  0  0  0  0  0  0
  149.9894  132.9716  155.2383 H   0  0  0  0  0  0  0  0  0  0  0  0
  149.5987  133.8311  153.7564 H   0  0  0  0  0  0  0  0  0  0  0  0
  148.5646  134.9721  157.2478 H   0  0  0  0  0  0  0  0  0  0  0  0
  149.9761  135.9942  157.5039 H   0  0  0  0  0  0  0  0  0  0  0  0
  150.1492  134.2489  157.4629 H   0  0  0  0  0  0  0  0  0  0  0  0
  149.2968  138.8550  153.5540 H   0  0  0  0  0  0  0  0  0  0  0  0
  148.1979  138.9429  154.9109 H   0  0  0  0  0  0  0  0  0  0  0  0
  149.7353  140.2982  156.2167 H   0  0  0  0  0  0  0  0  0  0  0  0
  148.2007  141.5010  154.6634 H   0  0  0  0  0  0  0  0  0  0  0  0
  149.4140  141.4118  153.3869 H   0  0  0  0  0  0  0  0  0  0  0  0
  149.7299  142.3552  154.8407 H   0  0  0  0  0  0  0  0  0  0  0  0
  147.3132  135.1715  151.6749 H   0  0  0  0  0  0  0  0  0  0  0  0
  1  2  1  0  0  0  0
  1 24  1  0  0  0  0
  1 25  1  0  0  0  0
  1 26  1  0  0  0  0
  2 23  1  0  0  0  0
  2  3  1  0  0  0  0
  2 27  1  0  0  0  0
  3  4  1  0  0  0  0
  3 28  1  0  0  0  0
  3 29  1  0  0  0  0
  4  5  1  0  0  0  0
  4 20  1  0  0  0  0
  5  6  1  0  0  0  0
  5 17  1  0  0  0  0
  5 30  1  0  0  0  0
  6  7  2  0  0  0  0
  6  8  1  0  0  0  0
  8  9  1  0  0  0  0
  8 31  1  0  0  0  0
  9 10  1  0  0  0  0
  9 32  1  0  0  0  0
  9 33  1  0  0  0  0
 10 11  1  0  0  0  0
 10 34  1  0  0  0  0
 10 35  1  0  0  0  0
 11 16  1  0  0  0  0
 11 12  2  0  0  0  0
 12 13  1  0  0  0  0
 12 36  1  0  0  0  0
 13 14  2  0  0  0  0
 13 37  1  0  0  0  0
 14 15  1  0  0  0  0
 14 38  1  0  0  0  0
 15 16  2  0  0  0  0
 15 39  1  0  0  0  0
 16 53  1  0  0  0  0
 17 18  1  0  0  0  0
 17 19  1  0  0  0  0
 17 40  1  0  0  0  0
 18 41  1  0  0  0  0
 18 42  1  0  0  0  0
 18 43  1  0  0  0  0
 19 44  1  0  0  0  0
 19 45  1  0  0  0  0
 19 46  1  0  0  0  0
 20 21  1  0  0  0  0
 20 47  1  0  0  0  0
 20 48  1  0  0  0  0
 21 22  1  0  0  0  0
 21 23  1  0  0  0  0
 21 49  1  0  0  0  0
 22 50  1  0  0  0  0
 22 51  1  0  0  0  0
 22 52  1  0  0  0  0
M  CHG  1  16   1
M  END
> <s_m_source_file>
AV-unprocessed.smi

> <i_m_source_file_index>
1762

> <i_lp_mmshare_version>
43012

> <i_f3d_flags>
0

> <s_epik_input>
W0NIM11bQ0BASF0xW0NIMl1OKFtDSDJdW0NASF0oTzEpW0NIM10pW0NAQEhdKFtDSF0oW0NIM10pW0NIM10pQyg9TylbTkhdW0NIMl1bQ0gyXWMyW2NIXVtjSF1bY0hdW2NIXW4y

> <s_epik_cmdline>
J2VwaWtfcHl0aG9uJywgJy1waCcsICc3LjAnLCAnLXRuJywgJzgnLCAnLW1hJywgJzIwMCcsICctbWV0YWxfYmluZGluZycsICctaW1hZScsICc8aW5maWxlLm1hZT4nLCAnLW9tYWUnLCAnPG91dGZpbGUubWFlPic=

> <r_epik_Ionization_Penalty>
1.86475

> <r_epik_Ionization_Penalty_Charging>
1.85347

> <r_epik_Ionization_Penalty_Neutral>
0.0112771

> <r_epik_State_Penalty>
1.99714

> <r_epik_Charging_Adjusted_Penalty>
3.85061

> <i_epik_Tot_Q>
1

> <i_epik_Tot_abs_Q>
1

> <r_epik_Metal_State_Penalty>
2.02271

> <b_epik_Metal_Only>
0

> <s_lp_Force_Field>
OPLS_2005

> <r_lp_Energy>
35.2583

> <b_lp_Chiralities_Consistent>
1

> <s_lp_Variant>
AV-unprocessed.smi:1762-11

> <Gold.Version>
5.8.1

> <Gold.Id.Protein>
6NUR|6NUR_protein|mol2

> <Gold.PLP.Fitness>
48.8795

> <Gold.PLP.PLP>
-37.2633

> <Gold.PLP.part.hbond>
-2.8948

> <Gold.PLP.part.metal>
0.0000

> <Gold.PLP.part.buried>
-3.3998

> <Gold.PLP.part.nonpolar>
-30.6902

> <Gold.PLP.part.repulsive>
0.2701

> <Gold.PLP.ligand.clash>
0.0000

> <Gold.PLP.ligand.torsion>
0.3291

> <Gold.PLP.Chemscore.Hbond>
3.9913

> <Gold.PLP.Chemscore.CHOScore>
0.0000

> <Gold.PLP.Chemscore.Metal>
0.0000

> <Gold.Chemscore.Hbonds>
donor molecule, donor type, donor heavy atom, donor atom, acceptor molecule, acceptor atom, score
      L1  H     8    31       P1  7948  1.00
      L1  H    16    53       P1  7948  2.00
      P1  H  7989  7998       L1    23  1.00

> <Gold.PLP.Chemscore.Internal.Correction>
0.3005

> <Gold.Rescore>
     Score         DG    S(hbond)    S(metal)    S(lipo)     H(rot)  DE(clash)    DE(int)     intcor
     19.71     -22.12       2.80        0.00      99.94       1.72       0.15       2.25       ----

> <Gold.Chemscore.Fitness>
19.7127

> <Gold.Chemscore.DG>
-22.1153

> <Gold.Chemscore.ZeroCoef>
-5.4800

> <Gold.Chemscore.Hbond>
2.7962

> <Gold.Chemscore.Metal>
0.0000

> <Gold.Chemscore.Lipo>
99.9361

> <Gold.Chemscore.Internal_Hbond>
0.0000

> <Gold.Chemscore.DEClash>
0.1523

> <Gold.Chemscore.DEInternal>
2.2502

> <Gold.Chemscore.Rot>
1.7174

> <Gold.Chemscore.Internal.Correction>
   9.000000E+99

> <Gold.Chemscore.Hbonds>
donor molecule, donor type, donor heavy atom, donor atom, acceptor molecule, acceptor atom, score
      L1  H     8    31       P1  7948  0.99
      L1  H    16    53       P1  7948  0.90
      P1  H  7989  7998       L1    23  0.83

> <Gold.Chemscore.Hbond.Weighted>
-9.3393

> <Gold.Chemscore.Metal.Weighted>
-0.0000

> <Gold.Chemscore.Lipo.Weighted>
-11.6925

> <Gold.Chemscore.Internal_Hbond.Weighted>
0.0000

> <Gold.Chemscore.DEClash.Weighted>
0.1523

> <Gold.Chemscore.DEInternal.Weighted>
2.2502

> <Gold.Chemscore.Rot.Weighted>
4.3966

> <Gold.Chemscore.Internal.Correction.Weighted>
   9.000000E+99

> <Gold.Protein.RotatedTorsions>
[ 6907 6896 6895 6894 ] final   24.66 input  -60.11 | X-H torsion
[ 7974 7965 7964 7962 ] final  -61.86 input  175.53 | X-H torsion
[ 8008 7997 7996 7995 ] final -164.42 input   59.86 | X-H torsion
[ 10167 10162 10161 10158 ] final   74.37 input  -65.29 | X-H torsion
[ 10718 10713 10712 10709 ] final  -70.58 input   66.30 | X-H torsion
[ 10763 10752 10751 10750 ] final  177.70 input  -60.55 | X-H torsion
[ 11005 11000 10999 10996 ] final  110.80 input  -57.11 | X-H torsion

> <Gold.Protein.ActiveResidues>
 VAL166  LYS551  ARG553  GLY616  TRP617  ASP618  TYR619  PRO620  LYS621  CYS622 
 ASP623  PHE694  ASN695  SER759  ASP760  ASP761  ALA762  ILE779  LEU786  VAL792 
 PHE793  MET794  SER795  GLU796  ALA797  LYS798  CYS799  TRP800  GLU811  SER814 

> <Gold.Protein.RotatedAtoms>
  151.9608  135.0124  160.0547 H   0  0  0  0  0  0  0  0  0  0  0  0  # atno 6907 bound_to 6896
  152.1870  133.4742  159.4996 H   0  0  0  0  0  0  0  0  0  0  0  0  # atno 6908 bound_to 6896
  150.6928  134.1678  159.4243 H   0  0  0  0  0  0  0  0  0  0  0  0  # atno 6909 bound_to 6896
  145.7984  140.8669  143.0244 H   0  0  0  0  0  0  0  0  0  0  0  0  # atno 7974 bound_to 7965
  155.8354  140.0940  157.1767 H   0  0  0  0  0  0  0  0  0  0  0  0  # atno 8008 bound_to 7997
  154.3980  140.1411  156.3725 H   0  0  0  0  0  0  0  0  0  0  0  0  # atno 8009 bound_to 7997
  155.8122  140.3449  155.5466 H   0  0  0  0  0  0  0  0  0  0  0  0  # atno 8010 bound_to 7997
  140.0144  144.5589  150.7632 H   0  0  0  0  0  0  0  0  0  0  0  0  # atno 10167 bound_to 10162
  156.0401  130.4334  150.2316 H   0  0  0  0  0  0  0  0  0  0  0  0  # atno 10718 bound_to 10713
  154.4979  135.2782  155.1444 H   0  0  0  0  0  0  0  0  0  0  0  0  # atno 10763 bound_to 10752
  154.3089  135.6233  153.5460 H   0  0  0  0  0  0  0  0  0  0  0  0  # atno 10764 bound_to 10752
  152.9898  135.5715  154.5415 H   0  0  0  0  0  0  0  0  0  0  0  0  # atno 10765 bound_to 10752
  139.8890  134.9493  156.6335 H   0  0  0  0  0  0  0  0  0  0  0  0  # atno 11005 bound_to 11000
  144.6772  140.0223  143.7483 LP  0  0  0  0  0  0  0  0  0  0  0  0  # atno 17320 bound_to 7965
  145.9904  139.3010  143.0988 LP  0  0  0  0  0  0  0  0  0  0  0  0  # atno 17321 bound_to 7965
  140.7368  143.2758  151.3748 LP  0  0  0  0  0  0  0  0  0  0  0  0  # atno 17342 bound_to 10162
  139.6182  144.0959  152.2366 LP  0  0  0  0  0  0  0  0  0  0  0  0  # atno 17343 bound_to 10162
  157.0412  131.0035  151.3283 LP  0  0  0  0  0  0  0  0  0  0  0  0  # atno 17370 bound_to 10713
  157.5208  130.7997  149.7807 LP  0  0  0  0  0  0  0  0  0  0  0  0  # atno 17371 bound_to 10713
  140.7648  133.8787  155.8446 LP  0  0  0  0  0  0  0  0  0  0  0  0  # atno 17394 bound_to 11000
  140.9891  134.1302  157.4424 LP  0  0  0  0  0  0  0  0  0  0  0  0  # atno 17395 bound_to 11000

$$$$
