AV-unprocessed.smi:3335|AV-procd|sdf|12838|dock10
  -GOLD-   2272019223D 1   1.00000     0.00000
 Structure written by MMmdl.
 47 48  0  0  0  0  0  0  0  0  2 V2000
  151.2869  136.4989  156.2813 C   0  0  0  0  0  0  0  0  0  0  0  0
  151.0151  137.8516  155.6890 C   0  0  0  0  0  0  0  0  0  0  0  0
  150.9095  138.1997  154.3131 C   0  0  0  0  0  0  0  0  0  0  0  0
  150.6564  139.4847  154.1276 N   0  0  0  0  0  0  0  0  0  0  0  0
  150.6063  140.0093  155.3733 N   0  0  0  0  0  0  0  0  0  0  0  0
  150.3130  141.4233  155.5874 C   0  0  1  0  0  0  0  0  0  0  0  0
  149.0158  141.8636  154.8744 C   0  0  0  0  0  0  0  0  0  0  0  0
  150.3605  141.7949  157.0924 C   0  0  2  0  0  0  0  0  0  0  0  0
  149.0066  141.6596  157.8196 C   0  0  0  0  0  0  0  0  0  0  0  0
  150.9248  143.1584  157.2524 N   0  3  0  0  0  0  0  0  0  0  0  0
  151.2686  143.5820  158.6319 C   0  0  2  0  0  0  0  0  0  0  0  0
  151.8706  144.9959  158.5898 C   0  0  0  0  0  0  0  0  0  0  0  0
  152.2665  142.6099  159.2936 C   0  0  0  0  0  0  0  0  0  0  0  0
  152.7151  141.6759  158.6266 O   0  0  0  0  0  0  0  0  0  0  0  0
  152.6314  142.8087  160.5787 N   0  0  0  0  0  0  0  0  0  0  0  0
  153.5680  141.9377  161.2875 C   0  0  0  0  0  0  0  0  0  0  0  0
  153.5085  142.3654  162.7539 C   0  0  0  0  0  0  0  0  0  0  0  0
  153.0586  143.8182  162.6981 C   0  0  0  0  0  0  0  0  0  0  0  0
  152.1718  143.8868  161.4548 C   0  0  0  0  0  0  0  0  0  0  0  0
  150.8058  139.0379  156.3326 C   0  0  0  0  0  0  0  0  0  0  0  0
  151.6294  135.7877  155.5293 H   0  0  0  0  0  0  0  0  0  0  0  0
  150.3941  136.0752  156.7411 H   0  0  0  0  0  0  0  0  0  0  0  0
  152.0562  136.5444  157.0524 H   0  0  0  0  0  0  0  0  0  0  0  0
  151.0041  137.5586  153.4490 H   0  0  0  0  0  0  0  0  0  0  0  0
  151.1264  141.9652  155.1016 H   0  0  0  0  0  0  0  0  0  0  0  0
  148.8633  142.9399  154.9537 H   0  0  0  0  0  0  0  0  0  0  0  0
  148.1323  141.3755  155.2864 H   0  0  0  0  0  0  0  0  0  0  0  0
  149.0570  141.6224  153.8118 H   0  0  0  0  0  0  0  0  0  0  0  0
  151.0514  141.0928  157.5605 H   0  0  0  0  0  0  0  0  0  0  0  0
  148.5922  140.6579  157.7122 H   0  0  0  0  0  0  0  0  0  0  0  0
  148.2714  142.3673  157.4369 H   0  0  0  0  0  0  0  0  0  0  0  0
  149.1042  141.8386  158.8896 H   0  0  0  0  0  0  0  0  0  0  0  0
  151.7755  143.2098  156.7099 H   0  0  0  0  0  0  0  0  0  0  0  0
  150.3451  143.6272  159.2062 H   0  0  0  0  0  0  0  0  0  0  0  0
  152.1268  145.3543  159.5873 H   0  0  0  0  0  0  0  0  0  0  0  0
  151.1648  145.7080  158.1615 H   0  0  0  0  0  0  0  0  0  0  0  0
  152.7786  145.0269  157.9856 H   0  0  0  0  0  0  0  0  0  0  0  0
  153.3152  140.8821  161.1741 H   0  0  0  0  0  0  0  0  0  0  0  0
  154.5700  142.0917  160.8841 H   0  0  0  0  0  0  0  0  0  0  0  0
  152.7585  141.7714  163.2783 H   0  0  0  0  0  0  0  0  0  0  0  0
  154.4595  142.2356  163.2714 H   0  0  0  0  0  0  0  0  0  0  0  0
  152.5434  144.1374  163.6044 H   0  0  0  0  0  0  0  0  0  0  0  0
  153.9278  144.4634  162.5633 H   0  0  0  0  0  0  0  0  0  0  0  0
  152.2395  144.8678  160.9839 H   0  0  0  0  0  0  0  0  0  0  0  0
  151.1297  143.7073  161.7237 H   0  0  0  0  0  0  0  0  0  0  0  0
  150.7845  139.2697  157.3873 H   0  0  0  0  0  0  0  0  0  0  0  0
  150.2616  143.8143  156.8656 H   0  0  0  0  0  0  0  0  0  0  0  0
  1  2  1  0  0  0  0
  1 21  1  0  0  0  0
  1 22  1  0  0  0  0
  1 23  1  0  0  0  0
  2 20  2  0  0  0  0
  2  3  1  0  0  0  0
  3  4  2  0  0  0  0
  3 24  1  0  0  0  0
  4  5  1  0  0  0  0
  5  6  1  0  0  0  0
  5 20  1  0  0  0  0
  6  7  1  0  0  0  0
  6  8  1  0  0  0  0
  6 25  1  0  0  0  0
  7 26  1  0  0  0  0
  7 27  1  0  0  0  0
  7 28  1  0  0  0  0
  8  9  1  0  0  0  0
  8 10  1  0  0  0  0
  8 29  1  0  0  0  0
  9 30  1  0  0  0  0
  9 31  1  0  0  0  0
  9 32  1  0  0  0  0
 10 11  1  0  0  0  0
 10 33  1  0  0  0  0
 10 47  1  0  0  0  0
 11 12  1  0  0  0  0
 11 13  1  0  0  0  0
 11 34  1  0  0  0  0
 12 35  1  0  0  0  0
 12 36  1  0  0  0  0
 12 37  1  0  0  0  0
 13 14  2  0  0  0  0
 13 15  1  0  0  0  0
 15 19  1  0  0  0  0
 15 16  1  0  0  0  0
 16 17  1  0  0  0  0
 16 38  1  0  0  0  0
 16 39  1  0  0  0  0
 17 18  1  0  0  0  0
 17 40  1  0  0  0  0
 17 41  1  0  0  0  0
 18 19  1  0  0  0  0
 18 42  1  0  0  0  0
 18 43  1  0  0  0  0
 19 44  1  0  0  0  0
 19 45  1  0  0  0  0
 20 46  1  0  0  0  0
M  CHG  1  10   1
M  END
> <s_m_source_file>
AV-unprocessed.smi

> <i_m_source_file_index>
3335

> <i_lp_mmshare_version>
43012

> <i_f3d_flags>
0

> <s_epik_input>
W0NIM11jMVtjSF1ubihbY0hdMSlbQ0BIXShbQ0gzXSlbQ0BIXShbQ0gzXSlbTkhdW0NASF0oW0NIM10pQyg9TylOMltDSDJdW0NIMl1bQ0gyXVtDSDJdMg==

> <s_epik_cmdline>
J2VwaWtfcHl0aG9uJywgJy1waCcsICc3LjAnLCAnLXRuJywgJzgnLCAnLW1hJywgJzIwMCcsICctbWV0YWxfYmluZGluZycsICctaW1hZScsICc8aW5maWxlLm1hZT4nLCAnLW9tYWUnLCAnPG91dGZpbGUubWFlPic=

> <r_lp_tautomer_probability>
1

> <r_epik_Ionization_Penalty>
0.14175

> <r_epik_Ionization_Penalty_Charging>
0.141731

> <r_epik_Ionization_Penalty_Neutral>
1.91261e-05

> <r_epik_State_Penalty>
0.131043

> <r_epik_Charging_Adjusted_Penalty>
0.272773

> <i_epik_Tot_Q>
1

> <i_epik_Tot_abs_Q>
1

> <r_epik_Metal_State_Penalty>
0.131408

> <b_epik_Metal_Only>
0

> <s_lp_Force_Field>
OPLS_2005

> <r_lp_Energy>
39.0238

> <b_lp_Chiralities_Consistent>
1

> <s_lp_Variant>
AV-unprocessed.smi:3335-2

> <Gold.Version>
5.8.1

> <Gold.Id.Protein>
6NUR|6NUR_protein|mol2

> <Gold.PLP.Fitness>
56.8107

> <Gold.PLP.PLP>
-47.0678

> <Gold.PLP.part.hbond>
-2.0000

> <Gold.PLP.part.metal>
0.0000

> <Gold.PLP.part.buried>
-2.0966

> <Gold.PLP.part.nonpolar>
-41.4674

> <Gold.PLP.part.repulsive>
0.1879

> <Gold.PLP.ligand.clash>
0.0000

> <Gold.PLP.ligand.torsion>
0.8270

> <Gold.PLP.Chemscore.Hbond>
2.7000

> <Gold.PLP.Chemscore.CHOScore>
1.0357

> <Gold.PLP.Chemscore.Metal>
0.0000

> <Gold.Chemscore.Hbonds>
donor molecule, donor type, donor heavy atom, donor atom, acceptor molecule, acceptor atom, score
      L1  H    10    47       P1  8028  2.00
      P1  H  7989  7998       L1     4  0.65
      L1  C     3    24       P1  7948  0.06
      L1  C     3    24       P1  7949  1.00

> <Gold.PLP.Chemscore.Internal.Correction>
0.1899

> <Gold.Rescore>
     Score         DG    S(hbond)    S(metal)    S(lipo)     H(rot)  DE(clash)    DE(int)     intcor
     16.00     -18.50       1.03        0.00     118.58       1.68       0.34       2.16       ----

> <Gold.Chemscore.Fitness>
15.9998

> <Gold.Chemscore.DG>
-18.5013

> <Gold.Chemscore.ZeroCoef>
-5.4800

> <Gold.Chemscore.Hbond>
1.0307

> <Gold.Chemscore.Metal>
0.0000

> <Gold.Chemscore.Lipo>
118.5809

> <Gold.Chemscore.Internal_Hbond>
0.0000

> <Gold.Chemscore.DEClash>
0.3406

> <Gold.Chemscore.DEInternal>
2.1610

> <Gold.Chemscore.Rot>
1.6778

> <Gold.Chemscore.Internal.Correction>
   9.000000E+99

> <Gold.Chemscore.Hbonds>
donor molecule, donor type, donor heavy atom, donor atom, acceptor molecule, acceptor atom, score
      L1  H    10    47       P1  8028  0.93
      P1  H  7989  7998       L1     4  0.06

> <Gold.Chemscore.Hbond.Weighted>
-3.4425

> <Gold.Chemscore.Metal.Weighted>
-0.0000

> <Gold.Chemscore.Lipo.Weighted>
-13.8740

> <Gold.Chemscore.Internal_Hbond.Weighted>
0.0000

> <Gold.Chemscore.DEClash.Weighted>
0.3406

> <Gold.Chemscore.DEInternal.Weighted>
2.1610

> <Gold.Chemscore.Rot.Weighted>
4.2952

> <Gold.Chemscore.Internal.Correction.Weighted>
   9.000000E+99

> <Gold.Protein.RotatedTorsions>
[ 6907 6896 6895 6894 ] final  -56.78 input  -60.11 | X-H torsion
[ 7974 7965 7964 7962 ] final  -29.38 input  175.53 | X-H torsion
[ 8008 7997 7996 7995 ] final  -61.59 input   59.86 | X-H torsion
[ 10167 10162 10161 10158 ] final -179.67 input  -65.29 | X-H torsion
[ 10718 10713 10712 10709 ] final -146.79 input   66.30 | X-H torsion
[ 10763 10752 10751 10750 ] final  137.62 input  -60.55 | X-H torsion
[ 11005 11000 10999 10996 ] final  111.89 input  -57.11 | X-H torsion

> <Gold.Protein.ActiveResidues>
 VAL166  LYS551  ARG553  GLY616  TRP617  ASP618  TYR619  PRO620  LYS621  CYS622 
 ASP623  PHE694  ASN695  SER759  ASP760  ASP761  ALA762  ILE779  LEU786  VAL792 
 PHE793  MET794  SER795  GLU796  ALA797  LYS798  CYS799  TRP800  GLU811  SER814 

> <Gold.Protein.RotatedAtoms>
  150.8139  134.7310  159.6712 H   0  0  0  0  0  0  0  0  0  0  0  0  # atno 6907 bound_to 6896
  152.4259  134.5866  159.9972 H   0  0  0  0  0  0  0  0  0  0  0  0  # atno 6908 bound_to 6896
  151.6068  133.3313  159.3095 H   0  0  0  0  0  0  0  0  0  0  0  0  # atno 6909 bound_to 6896
  146.1221  140.5405  142.8731 H   0  0  0  0  0  0  0  0  0  0  0  0  # atno 7974 bound_to 7965
  154.4455  140.1014  156.6454 H   0  0  0  0  0  0  0  0  0  0  0  0  # atno 8008 bound_to 7997
  155.5456  140.3484  155.4438 H   0  0  0  0  0  0  0  0  0  0  0  0  # atno 8009 bound_to 7997
  156.0566  140.1316  156.9979 H   0  0  0  0  0  0  0  0  0  0  0  0  # atno 8010 bound_to 7997
  139.5376  144.2454  152.0827 H   0  0  0  0  0  0  0  0  0  0  0  0  # atno 10167 bound_to 10162
  156.3994  130.7926  151.2135 H   0  0  0  0  0  0  0  0  0  0  0  0  # atno 10718 bound_to 10713
  153.8760  135.3050  155.3444 H   0  0  0  0  0  0  0  0  0  0  0  0  # atno 10763 bound_to 10752
  154.7783  135.4849  153.9794 H   0  0  0  0  0  0  0  0  0  0  0  0  # atno 10764 bound_to 10752
  153.1378  135.6818  153.9171 H   0  0  0  0  0  0  0  0  0  0  0  0  # atno 10765 bound_to 10752
  139.8914  134.9518  156.6501 H   0  0  0  0  0  0  0  0  0  0  0  0  # atno 11005 bound_to 11000
  144.7607  140.5414  143.6738 LP  0  0  0  0  0  0  0  0  0  0  0  0  # atno 17320 bound_to 7965
  145.5445  139.1475  143.3429 LP  0  0  0  0  0  0  0  0  0  0  0  0  # atno 17321 bound_to 7965
  140.1927  144.4736  150.6471 LP  0  0  0  0  0  0  0  0  0  0  0  0  # atno 17342 bound_to 10162
  140.6590  143.2246  151.5901 LP  0  0  0  0  0  0  0  0  0  0  0  0  # atno 17343 bound_to 10162
  157.7503  131.0291  150.4079 LP  0  0  0  0  0  0  0  0  0  0  0  0  # atno 17370 bound_to 10713
  156.4356  130.3981  149.6731 LP  0  0  0  0  0  0  0  0  0  0  0  0  # atno 17371 bound_to 10713
  140.7527  133.8884  155.8359 LP  0  0  0  0  0  0  0  0  0  0  0  0  # atno 17394 bound_to 11000
  140.9987  134.1179  157.4338 LP  0  0  0  0  0  0  0  0  0  0  0  0  # atno 17395 bound_to 11000

$$$$
