#       Name:                AV-unprocessed.smi:1509
#       Creating user name   scv26
#       Creation time:       Fri Mar 27 06:21:39 2020


#       File generated by GOLD software.
#

@<TRIPOS>MOLECULE
AV-unprocessed.smi:1509
    47    48     1
SMALL
NO_CHARGES


@<TRIPOS>ATOM
      1 ****        -4.2595   0.4081  -1.9773 C.3            1 S1                 0.0000
      2 ****        -3.6394   0.9165  -0.6680 C.3            1 S1                 0.0000
      3 ****        -4.2371   2.2710  -0.2525 C.3            1 S1                 0.0000
      4 ****        -3.5815   2.7651   1.0428 C.3            1 S1                 0.0000
      5 ****        -2.0526   2.8222   0.8981 C.3            1 S1                 0.0000
      6 ****        -1.5010   1.5012   0.4997 N.4            1 S1                 1.0000
      7 ****        -0.0159   1.4982   0.4814 C.3            1 S1                 0.0000
      8 ****         0.5750   0.0873   0.6466 C.3            1 S1                 0.0000
      9 ****         2.1120   0.1042   0.6985 C.3            1 S1                 0.0000
     10 ****         2.6640  -1.2350   0.8678 N.am           1 S1                 0.0000
     11 ****         2.7947  -2.1425  -0.1126 C.2            1 S1                 0.0000
     12 ****         2.4361  -1.9407  -1.2726 O.2            1 S1                 0.0000
     13 ****         3.4317  -3.4792   0.2697 C.3            1 S1                 0.0000
     14 ****         4.7736  -3.5883  -0.2714 N.pl3          1 S1                 0.0000
     15 ****         5.9298  -3.0610   0.1369 C.2            1 S1                 0.0000
     16 ****         6.9333  -3.4106  -0.6533 N.2            1 S1                 0.0000
     17 ****         6.3207  -4.2095  -1.6044 N.2            1 S1                 0.0000
     18 ****         5.0394  -4.3190  -1.3826 N.2            1 S1                 0.0000
     19 ****        -2.1042   1.0197  -0.7729 C.3            1 S1                 0.0000
     20 ****        -4.0575   1.0903  -2.8037 H              1 S1                 0.0000
     21 ****        -5.3413   0.3071  -1.8861 H              1 S1                 0.0000
     22 ****        -3.8604  -0.5699  -2.2480 H              1 S1                 0.0000
     23 ****        -3.8759   0.1894   0.1105 H              1 S1                 0.0000
     24 ****        -4.0844   3.0056  -1.0447 H              1 S1                 0.0000
     25 ****        -5.3150   2.1830  -0.1122 H              1 S1                 0.0000
     26 ****        -3.9685   3.7507   1.3030 H              1 S1                 0.0000
     27 ****        -3.8482   2.1009   1.8660 H              1 S1                 0.0000
     28 ****        -1.7712   3.5740   0.1588 H              1 S1                 0.0000
     29 ****        -1.6179   3.1331   1.8488 H              1 S1                 0.0000
     30 ****         0.3452   1.9657  -0.4360 H              1 S1                 0.0000
     31 ****         0.3531   2.1123   1.3041 H              1 S1                 0.0000
     32 ****         0.1872  -0.3644   1.5607 H              1 S1                 0.0000
     33 ****         0.2542  -0.5532  -0.1742 H              1 S1                 0.0000
     34 ****         2.5205   0.5615  -0.2043 H              1 S1                 0.0000
     35 ****         2.4494   0.7160   1.5354 H              1 S1                 0.0000
     36 ****         2.9851  -1.4842   1.7924 H              1 S1                 0.0000
     37 ****         3.4820  -3.5898   1.3539 H              1 S1                 0.0000
     38 ****         2.8189  -4.2985  -0.1093 H              1 S1                 0.0000
     39 ****         6.0347  -2.4246   1.0033 H              1 S1                 0.0000
     40 ****        -1.7031   0.0401  -1.0303 H              1 S1                 0.0000
     41 ****        -1.8263   1.6951  -1.5840 H              1 S1                 0.0000
     42 ****        -1.7803   0.8526   1.2219 H              1 S1                 0.0000
     43 ****         2.0237  -1.0649  -1.5233 LP             1 S1                 0.0000
     44 ****         2.5571  -2.6526  -1.9644 LP             1 S1                 0.0000
     45 ****         7.8984  -3.1590  -0.5809 LP             1 S1                 0.0000
     46 ****         6.7999  -4.6473  -2.3652 LP             1 S1                 0.0000
     47 ****         4.3815  -4.8403  -1.9262 LP             1 S1                 0.0000
@<TRIPOS>BOND
    1    1    2 1     
    2    1   20 1     
    3    1   21 1     
    4    1   22 1     
    5    2   19 1     
    6    2    3 1     
    7    2   23 1     
    8    3    4 1     
    9    3   24 1     
   10    3   25 1     
   11    4    5 1     
   12    4   26 1     
   13    4   27 1     
   14    5    6 1     
   15    5   28 1     
   16    5   29 1     
   17    6    7 1     
   18    6   19 1     
   19    6   42 1     
   20    7    8 1     
   21    7   30 1     
   22    7   31 1     
   23    8    9 1     
   24    8   32 1     
   25    8   33 1     
   26    9   10 1     
   27    9   34 1     
   28    9   35 1     
   29   10   11 am    
   30   10   36 1     
   31   11   12 2     
   32   11   13 1     
   33   13   14 1     
   34   13   37 1     
   35   13   38 1     
   36   14   18 1     
   37   14   15 1     
   38   15   16 2     
   39   15   39 1     
   40   16   17 1     
   41   17   18 2     
   42   19   40 1     
   43   19   41 1     
   44   12   43 1     
   45   12   44 1     
   46   16   45 1     
   47   17   46 1     
   48   18   47 1     
@<TRIPOS>SUBSTRUCTURE
      1 S1             1
@<TRIPOS>SET
LONE_PAIRS      STATIC     ATOMS    <user>   **** ""
5 43 44 45 46 47
DONOR_HYDROGENS      STATIC     ATOMS    <user>   **** ""
2 42 36
ATOM$BLUE        STATIC     ATOMS    COLORGROUP SYSTEM
5 43 44 45 46 47
ATOM$RED        STATIC     ATOMS    COLORGROUP SYSTEM
2 42 36
