AV-unprocessed.smi:618|AV-procd|sdf|3083|dock4
  -GOLD-   22720 0 03D 1   1.00000     0.00000
 Structure written by MMmdl.
 40 42  0  0  0  0  0  0  0  0  1 V2000
  150.9633  134.6656  155.7802 O   0  0  0  0  0  0  0  0  0  0  0  0
  150.2668  135.0946  154.8609 C   0  0  0  0  0  0  0  0  0  0  0  0
  150.1894  136.3913  154.5306 N   0  0  0  0  0  0  0  0  0  0  0  0
  150.9312  137.4728  155.1703 C   0  0  0  0  0  0  0  0  0  0  0  0
  150.8642  138.7698  154.3365 C   0  0  1  0  0  0  0  0  0  0  0  0
  149.4776  139.4541  154.4007 C   0  0  0  0  0  0  0  0  0  0  0  0
  149.2954  140.1304  155.6711 N   0  0  0  0  0  0  0  0  0  0  0  0
  148.0789  140.8925  155.8328 C   0  0  0  0  0  0  0  0  0  0  0  0
  148.3549  141.7972  157.0462 C   0  0  0  0  0  0  0  0  0  0  0  0
  149.8950  141.8355  157.1552 C   0  0  0  0  0  0  0  0  0  0  0  0
  150.3429  141.0879  155.8978 C   0  0  1  0  0  0  0  0  0  0  0  0
  151.7099  140.3945  155.9398 C   0  0  0  0  0  0  0  0  0  0  0  0
  151.9005  139.6949  154.7054 O   0  0  0  0  0  0  0  0  0  0  0  0
  149.5063  134.3427  154.0472 N   0  0  0  0  0  0  0  0  0  0  0  0
  149.3275  132.9330  154.0572 C   0  0  0  0  0  0  0  0  0  0  0  0
  150.0928  132.0376  154.8433 C   0  0  0  0  0  0  0  0  0  0  0  0
  149.8067  130.6605  154.7767 C   0  0  0  0  0  0  0  0  0  0  0  0
  148.7630  130.2299  153.9348 C   0  0  0  0  0  0  0  0  0  0  0  0
  148.0164  131.0732  153.1910 N   0  0  0  0  0  0  0  0  0  0  0  0
  148.2966  132.3920  153.2599 C   0  0  0  0  0  0  0  0  0  0  0  0
  149.5907  136.6488  153.7598 H   0  0  0  0  0  0  0  0  0  0  0  0
  150.4741  137.6457  156.1449 H   0  0  0  0  0  0  0  0  0  0  0  0
  151.9626  137.1809  155.3734 H   0  0  0  0  0  0  0  0  0  0  0  0
  151.0463  138.4966  153.2965 H   0  0  0  0  0  0  0  0  0  0  0  0
  149.3986  140.1783  153.5884 H   0  0  0  0  0  0  0  0  0  0  0  0
  148.6830  138.7238  154.2451 H   0  0  0  0  0  0  0  0  0  0  0  0
  147.8976  141.5049  154.9480 H   0  0  0  0  0  0  0  0  0  0  0  0
  147.2143  140.2446  155.9794 H   0  0  0  0  0  0  0  0  0  0  0  0
  147.9302  142.7909  156.9005 H   0  0  0  0  0  0  0  0  0  0  0  0
  147.9210  141.3763  157.9539 H   0  0  0  0  0  0  0  0  0  0  0  0
  150.2904  142.8509  157.1929 H   0  0  0  0  0  0  0  0  0  0  0  0
  150.2205  141.3101  158.0540 H   0  0  0  0  0  0  0  0  0  0  0  0
  150.3518  141.8032  155.0727 H   0  0  0  0  0  0  0  0  0  0  0  0
  152.5087  141.1258  156.0626 H   0  0  0  0  0  0  0  0  0  0  0  0
  151.7727  139.7075  156.7836 H   0  0  0  0  0  0  0  0  0  0  0  0
  149.0540  134.8306  153.2879 H   0  0  0  0  0  0  0  0  0  0  0  0
  150.8776  132.3760  155.5017 H   0  0  0  0  0  0  0  0  0  0  0  0
  150.3722  129.9502  155.3618 H   0  0  0  0  0  0  0  0  0  0  0  0
  148.5172  129.1809  153.8616 H   0  0  0  0  0  0  0  0  0  0  0  0
  147.6779  133.0371  152.6528 H   0  0  0  0  0  0  0  0  0  0  0  0
  1  2  2  0  0  0  0
  2  3  1  0  0  0  0
  2 14  1  0  0  0  0
  3  4  1  0  0  0  0
  3 21  1  0  0  0  0
  4  5  1  0  0  0  0
  4 22  1  0  0  0  0
  4 23  1  0  0  0  0
  5 13  1  0  0  0  0
  5  6  1  0  0  0  0
  5 24  1  0  0  0  0
  6  7  1  0  0  0  0
  6 25  1  0  0  0  0
  6 26  1  0  0  0  0
  7 11  1  0  0  0  0
  7  8  1  0  0  0  0
  8  9  1  0  0  0  0
  8 27  1  0  0  0  0
  8 28  1  0  0  0  0
  9 10  1  0  0  0  0
  9 29  1  0  0  0  0
  9 30  1  0  0  0  0
 10 11  1  0  0  0  0
 10 31  1  0  0  0  0
 10 32  1  0  0  0  0
 11 12  1  0  0  0  0
 11 33  1  0  0  0  0
 12 13  1  0  0  0  0
 12 34  1  0  0  0  0
 12 35  1  0  0  0  0
 14 15  1  0  0  0  0
 14 36  1  0  0  0  0
 15 20  1  0  0  0  0
 15 16  2  0  0  0  0
 16 17  1  0  0  0  0
 16 37  1  0  0  0  0
 17 18  2  0  0  0  0
 17 38  1  0  0  0  0
 18 19  1  0  0  0  0
 18 39  1  0  0  0  0
 19 20  2  0  0  0  0
 20 40  1  0  0  0  0
M  END
> <s_m_source_file>
AV-unprocessed.smi

> <i_m_source_file_index>
618

> <i_lp_mmshare_version>
43012

> <i_f3d_flags>
0

> <s_epik_input>
W2NIXTFuW2NIXVtjSF1bY0hdYzFbTkhdQyg9TylbTkhdW0NIMl1bQ0BIXShbQ0gyXTIpT1tDSDJdW0NAQEhdKE4yMylbQ0gyXVtDSDJdW0NIMl0z

> <s_epik_cmdline>
J2VwaWtfcHl0aG9uJywgJy1waCcsICc3LjAnLCAnLXRuJywgJzgnLCAnLW1hJywgJzIwMCcsICctbWV0YWxfYmluZGluZycsICctaW1hZScsICc8aW5maWxlLm1hZT4nLCAnLW9tYWUnLCAnPG91dGZpbGUubWFlPic=

> <r_epik_Ionization_Penalty>
1.07277

> <r_epik_Ionization_Penalty_Charging>
0

> <r_epik_Ionization_Penalty_Neutral>
1.07277

> <r_epik_State_Penalty>
1.13623

> <r_epik_Charging_Adjusted_Penalty>
1.13623

> <i_epik_Tot_Q>
0

> <i_epik_Tot_abs_Q>
0

> <r_epik_Metal_State_Penalty>
1.13277

> <b_epik_Metal_Only>
0

> <s_lp_Force_Field>
OPLS_2005

> <r_lp_Energy>
52.4756

> <b_lp_Chiralities_Consistent>
1

> <s_lp_Variant>
AV-unprocessed.smi:618-10

> <Gold.Version>
5.8.1

> <Gold.Id.Protein>
6NUR|6NUR_protein|mol2

> <Gold.PLP.Fitness>
42.5488

> <Gold.PLP.PLP>
-34.6284

> <Gold.PLP.part.hbond>
-3.5605

> <Gold.PLP.part.metal>
0.0000

> <Gold.PLP.part.buried>
-4.5714

> <Gold.PLP.part.nonpolar>
-27.6321

> <Gold.PLP.part.repulsive>
0.4104

> <Gold.PLP.ligand.clash>
0.0000

> <Gold.PLP.ligand.torsion>
0.2259

> <Gold.PLP.Chemscore.Hbond>
2.7880

> <Gold.PLP.Chemscore.CHOScore>
0.0000

> <Gold.PLP.Chemscore.Metal>
0.0000

> <Gold.Chemscore.Hbonds>
donor molecule, donor type, donor heavy atom, donor atom, acceptor molecule, acceptor atom, score
      L1  H     3    21       P1  7948  0.93
      L1  H    14    36       P1  7948  0.80
      P1  H  7989  7998       L1    13  0.91

> <Gold.PLP.Chemscore.Internal.Correction>
0.0083

> <Gold.Rescore>
     Score         DG    S(hbond)    S(metal)    S(lipo)     H(rot)  DE(clash)    DE(int)     intcor
     13.67     -15.18       1.27        0.00      73.74       1.25       0.15       1.35       ----

> <Gold.Chemscore.Fitness>
13.6696

> <Gold.Chemscore.DG>
-15.1764

> <Gold.Chemscore.ZeroCoef>
-5.4800

> <Gold.Chemscore.Hbond>
1.2750

> <Gold.Chemscore.Metal>
0.0000

> <Gold.Chemscore.Lipo>
73.7435

> <Gold.Chemscore.Internal_Hbond>
0.0000

> <Gold.Chemscore.DEClash>
0.1520

> <Gold.Chemscore.DEInternal>
1.3547

> <Gold.Chemscore.Rot>
1.2461

> <Gold.Chemscore.Internal.Correction>
   9.000000E+99

> <Gold.Chemscore.Hbonds>
donor molecule, donor type, donor heavy atom, donor atom, acceptor molecule, acceptor atom, score
      L1  H     3    21       P1  7948  0.63
      L1  H    14    36       P1  7948  0.11
      P1  H  7989  7998       L1    13  0.10

> <Gold.Chemscore.Hbond.Weighted>
-4.2584

> <Gold.Chemscore.Metal.Weighted>
-0.0000

> <Gold.Chemscore.Lipo.Weighted>
-8.6280

> <Gold.Chemscore.Internal_Hbond.Weighted>
0.0000

> <Gold.Chemscore.DEClash.Weighted>
0.1520

> <Gold.Chemscore.DEInternal.Weighted>
1.3547

> <Gold.Chemscore.Rot.Weighted>
3.1901

> <Gold.Chemscore.Internal.Correction.Weighted>
   9.000000E+99

> <Gold.Protein.RotatedTorsions>
[ 6907 6896 6895 6894 ] final -145.09 input  -60.11 | X-H torsion
[ 7974 7965 7964 7962 ] final  -88.48 input  175.53 | X-H torsion
[ 8008 7997 7996 7995 ] final  157.23 input   59.86 | X-H torsion
[ 10167 10162 10161 10158 ] final -129.42 input  -65.29 | X-H torsion
[ 10718 10713 10712 10709 ] final  -89.47 input   66.30 | X-H torsion
[ 10763 10752 10751 10750 ] final  136.21 input  -60.55 | X-H torsion
[ 11005 11000 10999 10996 ] final   49.97 input  -57.11 | X-H torsion

> <Gold.Protein.ActiveResidues>
 VAL166  LYS551  ARG553  GLY616  TRP617  ASP618  TYR619  PRO620  LYS621  CYS622 
 ASP623  PHE694  ASN695  SER759  ASP760  ASP761  ALA762  ILE779  LEU786  VAL792 
 PHE793  MET794  SER795  GLU796  ALA797  LYS798  CYS799  TRP800  GLU811  SER814 

> <Gold.Protein.RotatedAtoms>
  151.1230  133.5090  159.2601 H   0  0  0  0  0  0  0  0  0  0  0  0  # atno 6907 bound_to 6896
  151.1841  135.0373  159.8815 H   0  0  0  0  0  0  0  0  0  0  0  0  # atno 6908 bound_to 6896
  152.5456  134.1078  159.8399 H   0  0  0  0  0  0  0  0  0  0  0  0  # atno 6909 bound_to 6896
  145.4526  140.9561  143.2014 H   0  0  0  0  0  0  0  0  0  0  0  0  # atno 7974 bound_to 7965
  156.2376  140.1891  156.7077 H   0  0  0  0  0  0  0  0  0  0  0  0  # atno 8008 bound_to 7997
  154.6136  140.0618  156.9552 H   0  0  0  0  0  0  0  0  0  0  0  0  # atno 8009 bound_to 7997
  155.1976  140.3289  155.4351 H   0  0  0  0  0  0  0  0  0  0  0  0  # atno 8010 bound_to 7997
  139.9399  143.6175  152.2506 H   0  0  0  0  0  0  0  0  0  0  0  0  # atno 10167 bound_to 10162
  155.9984  130.4873  150.5176 H   0  0  0  0  0  0  0  0  0  0  0  0  # atno 10718 bound_to 10713
  153.8528  135.3077  155.3433 H   0  0  0  0  0  0  0  0  0  0  0  0  # atno 10763 bound_to 10752
  154.7884  135.4797  153.9999 H   0  0  0  0  0  0  0  0  0  0  0  0  # atno 10764 bound_to 10752
  153.1508  135.6842  153.8978 H   0  0  0  0  0  0  0  0  0  0  0  0  # atno 10765 bound_to 10752
  140.1058  134.5021  155.8722 H   0  0  0  0  0  0  0  0  0  0  0  0  # atno 11005 bound_to 11000
  144.8052  139.6065  143.7054 LP  0  0  0  0  0  0  0  0  0  0  0  0  # atno 17320 bound_to 7965
  146.2496  139.6171  142.9436 LP  0  0  0  0  0  0  0  0  0  0  0  0  # atno 17321 bound_to 7965
  139.6713  144.7660  151.1778 LP  0  0  0  0  0  0  0  0  0  0  0  0  # atno 17342 bound_to 10162
  140.7614  143.5861  150.8844 LP  0  0  0  0  0  0  0  0  0  0  0  0  # atno 17343 bound_to 10162
  157.3142  131.0669  151.1979 LP  0  0  0  0  0  0  0  0  0  0  0  0  # atno 17370 bound_to 10713
  157.2915  130.6798  149.6116 LP  0  0  0  0  0  0  0  0  0  0  0  0  # atno 17371 bound_to 10713
  141.2117  133.6711  156.6607 LP  0  0  0  0  0  0  0  0  0  0  0  0  # atno 17394 bound_to 11000
  140.3158  134.8048  157.4213 LP  0  0  0  0  0  0  0  0  0  0  0  0  # atno 17395 bound_to 11000

$$$$
