#       Name:                AV-unprocessed.smi:990
#       Creating user name   scv26
#       Creation time:       Fri Mar 27 02:23:16 2020


#       File generated by GOLD software.
#

@<TRIPOS>MOLECULE
AV-unprocessed.smi:990
    49    50     1
SMALL
NO_CHARGES


@<TRIPOS>ATOM
      1 ****        -8.3545   1.4678   1.7768 C.2            1 S1                 0.0000
      2 ****        -7.1838   1.5309   1.1251 C.2            1 S1                 0.0000
      3 ****        -6.8981   0.8422  -0.1954 C.3            1 S1                 0.0000
      4 ****        -5.7235  -0.0177  -0.1090 N.am           1 S1                 0.0000
      5 ****        -4.4526   0.4048  -0.1739 C.2            1 S1                 0.0000
      6 ****        -4.1371   1.5847  -0.3275 O.2            1 S1                 0.0000
      7 ****        -3.5900  -0.6211  -0.0667 N.am           1 S1                 0.0000
      8 ****        -2.1692  -0.5838  -0.0708 C.ar           1 S1                 0.0000
      9 ****        -1.4058   0.5636   0.2615 C.ar           1 S1                 0.0000
     10 ****         0.0020   0.4921   0.2374 C.ar           1 S1                 0.0000
     11 ****         0.6311  -0.7255  -0.1095 C.ar           1 S1                 0.0000
     12 ****         2.0218  -0.8877  -0.1689 N.3            1 S1                 0.0000
     13 ****         2.6783  -0.6772   1.1149 C.3            1 S1                 0.0000
     14 ****         4.1746  -1.0251   1.0279 C.3            1 S1                 0.0000
     15 ****         4.8287  -0.2824  -0.0681 N.3            1 S1                 0.0000
     16 ****         6.5620  -0.2460  -0.0906 S.o2           1 S1                 0.0000
     17 ****         6.9387   1.3510  -0.9241 C.3            1 S1                 0.0000
     18 ****         7.0261  -0.1438   1.3014 O.2            1 S1                 0.0000
     19 ****         7.0221  -1.3555  -0.9394 O.2            1 S1                 0.0000
     20 ****         4.1311  -0.4278  -1.3613 C.3            1 S1                 0.0000
     21 ****         2.6358  -0.0928  -1.2245 C.3            1 S1                 0.0000
     22 ****        -0.1327  -1.8003  -0.4033 N.pl3          1 S1                 1.0000
     23 ****        -1.4833  -1.7744  -0.3908 C.ar           1 S1                 0.0000
     24 ****        -9.1858   0.8999   1.3855 H              1 S1                 0.0000
     25 ****        -8.4957   1.9861   2.7137 H              1 S1                 0.0000
     26 ****        -6.3782   2.1140   1.5478 H              1 S1                 0.0000
     27 ****        -7.7543   0.2366  -0.4939 H              1 S1                 0.0000
     28 ****        -6.7603   1.5972  -0.9711 H              1 S1                 0.0000
     29 ****        -5.8935  -1.0056   0.0123 H              1 S1                 0.0000
     30 ****        -4.0003  -1.5428  -0.0307 H              1 S1                 0.0000
     31 ****        -1.8698   1.4950   0.5462 H              1 S1                 0.0000
     32 ****         0.5863   1.3661   0.4853 H              1 S1                 0.0000
     33 ****         2.5619   0.3625   1.4243 H              1 S1                 0.0000
     34 ****         2.1996  -1.2923   1.8779 H              1 S1                 0.0000
     35 ****         4.6541  -0.7869   1.9770 H              1 S1                 0.0000
     36 ****         4.3101  -2.0948   0.8618 H              1 S1                 0.0000
     37 ****         8.0163   1.5135  -0.9169 H              1 S1                 0.0000
     38 ****         6.4493   2.1654  -0.3904 H              1 S1                 0.0000
     39 ****         6.5917   1.3282  -1.9560 H              1 S1                 0.0000
     40 ****         4.5838   0.2269  -2.1045 H              1 S1                 0.0000
     41 ****         4.2592  -1.4501  -1.7203 H              1 S1                 0.0000
     42 ****         2.1269  -0.2829  -2.1705 H              1 S1                 0.0000
     43 ****         2.5154   0.9692  -1.0051 H              1 S1                 0.0000
     44 ****        -1.9717  -2.7043  -0.6451 H              1 S1                 0.0000
     45 ****         0.3331  -2.6749  -0.6473 H              1 S1                 0.0000
     46 ****        -4.8460   2.2850  -0.4110 LP             1 S1                 0.0000
     47 ****        -3.1719   1.8428  -0.3688 LP             1 S1                 0.0000
     48 ****         2.1655  -1.8485  -0.4061 LP             1 S1                 0.0000
     49 ****         4.6893   0.6776   0.1744 LP             1 S1                 0.0000
@<TRIPOS>BOND
    1    1    2 2     
    2    1   24 1     
    3    1   25 1     
    4    2    3 1     
    5    2   26 1     
    6    3    4 1     
    7    3   27 1     
    8    3   28 1     
    9    4    5 am    
   10    4   29 1     
   11    5    6 2     
   12    5    7 am    
   13    7    8 1     
   14    7   30 1     
   15    8   23 ar    
   16    8    9 ar    
   17    9   10 ar    
   18    9   31 1     
   19   10   11 ar    
   20   10   32 1     
   21   11   12 1     
   22   11   22 ar    
   23   12   21 1     
   24   12   13 1     
   25   13   14 1     
   26   13   33 1     
   27   13   34 1     
   28   14   15 1     
   29   14   35 1     
   30   14   36 1     
   31   15   16 1     
   32   15   20 1     
   33   16   17 1     
   34   16   18 2     
   35   16   19 2     
   36   17   37 1     
   37   17   38 1     
   38   17   39 1     
   39   20   21 1     
   40   20   40 1     
   41   20   41 1     
   42   21   42 1     
   43   21   43 1     
   44   22   23 ar    
   45   22   45 1     
   46   23   44 1     
   47    6   46 1     
   48    6   47 1     
   49   12   48 1     
   50   15   49 1     
@<TRIPOS>SUBSTRUCTURE
      1 S1             1
@<TRIPOS>SET
LONE_PAIRS      STATIC     ATOMS    <user>   **** ""
6 46 47 48 49 18 19
DONOR_HYDROGENS      STATIC     ATOMS    <user>   **** ""
3 29 30 45
ATOM$BLUE        STATIC     ATOMS    COLORGROUP SYSTEM
6 46 47 48 49 18 19
ATOM$RED        STATIC     ATOMS    COLORGROUP SYSTEM
3 29 30 45
