#       Name:                AV-unprocessed.smi:1342
#       Creating user name   scv26
#       Creation time:       Fri Mar 27 05:09:05 2020


#       File generated by GOLD software.
#

@<TRIPOS>MOLECULE
AV-unprocessed.smi:1342
    42    42     1
SMALL
NO_CHARGES


@<TRIPOS>ATOM
      1 ****        -3.6070   1.0132   0.4110 C.3            1 S1                 0.0000
      2 ****        -3.9301  -0.4785   0.2498 C.3            1 S1                 0.0000
      3 ****        -3.1551  -1.0833  -0.8272 N.am           1 S1                 0.0000
      4 ****        -1.8729  -1.4655  -0.7313 C.2            1 S1                 0.0000
      5 ****        -1.2140  -1.3617   0.3050 O.2            1 S1                 0.0000
      6 ****        -1.2490  -2.0746  -1.9930 C.3            1 S1                 0.0000
      7 ****         0.1731  -1.7631  -2.0885 N.am           1 S1                 0.0000
      8 ****         0.6825  -0.6353  -2.6112 C.2            1 S1                 0.0000
      9 ****         0.0016   0.2098  -3.1924 O.2            1 S1                 0.0000
     10 ****         2.1872  -0.4148  -2.4297 C.3            1 S1                 0.0000
     11 ****         2.5432  -0.4137  -0.9682 C.2            1 S1                 0.0000
     12 ****         3.3619  -1.3051  -0.3201 C.2            1 S1                 0.0000
     13 ****         3.4578  -0.9773   1.3886 S.3            1 S1                 0.0000
     14 ****         2.3694   0.3867   1.1593 C.2            1 S1                 0.0000
     15 ****         1.8902   1.2555   2.2789 C.3            1 S1                 0.0000
     16 ****         0.3714   1.1432   2.4800 C.3            1 S1                 0.0000
     17 ****         2.3731   2.7057   2.1330 C.3            1 S1                 0.0000
     18 ****         2.0062   0.5567  -0.1145 N.2            1 S1                 0.0000
     19 ****        -4.2180   1.4580   1.1965 H              1 S1                 0.0000
     20 ****        -3.8012   1.5609  -0.5116 H              1 S1                 0.0000
     21 ****        -2.5614   1.1680   0.6791 H              1 S1                 0.0000
     22 ****        -3.7528  -1.0089   1.1866 H              1 S1                 0.0000
     23 ****        -4.9881  -0.6022   0.0184 H              1 S1                 0.0000
     24 ****        -3.6238  -1.2095  -1.7128 H              1 S1                 0.0000
     25 ****        -1.3640  -3.1577  -1.9499 H              1 S1                 0.0000
     26 ****        -1.7786  -1.7366  -2.8857 H              1 S1                 0.0000
     27 ****         0.8082  -2.4004  -1.6302 H              1 S1                 0.0000
     28 ****         2.7254  -1.1997  -2.9622 H              1 S1                 0.0000
     29 ****         2.4757   0.5301  -2.8922 H              1 S1                 0.0000
     30 ****         3.9003  -2.1418  -0.7400 H              1 S1                 0.0000
     31 ****         2.3509   0.8673   3.1879 H              1 S1                 0.0000
     32 ****         0.0745   0.1095   2.6597 H              1 S1                 0.0000
     33 ****        -0.1714   1.4959   1.6023 H              1 S1                 0.0000
     34 ****         0.0425   1.7355   3.3340 H              1 S1                 0.0000
     35 ****         3.4608   2.7525   2.0716 H              1 S1                 0.0000
     36 ****         2.0641   3.3101   2.9861 H              1 S1                 0.0000
     37 ****         1.9678   3.1698   1.2332 H              1 S1                 0.0000
     38 ****        -1.6330  -0.9771   1.1275 LP             1 S1                 0.0000
     39 ****        -0.2604  -1.6620   0.3234 LP             1 S1                 0.0000
     40 ****        -0.9839   0.0741  -3.2943 LP             1 S1                 0.0000
     41 ****         0.4340   1.0320  -3.5626 LP             1 S1                 0.0000
     42 ****         1.4130   1.2992  -0.4256 LP             1 S1                 0.0000
@<TRIPOS>BOND
    1    1    2 1     
    2    1   19 1     
    3    1   20 1     
    4    1   21 1     
    5    2    3 1     
    6    2   22 1     
    7    2   23 1     
    8    3    4 am    
    9    3   24 1     
   10    4    5 2     
   11    4    6 1     
   12    6    7 1     
   13    6   25 1     
   14    6   26 1     
   15    7    8 am    
   16    7   27 1     
   17    8    9 2     
   18    8   10 1     
   19   10   11 1     
   20   10   28 1     
   21   10   29 1     
   22   11   18 1     
   23   11   12 2     
   24   12   13 1     
   25   12   30 1     
   26   13   14 1     
   27   14   15 1     
   28   14   18 2     
   29   15   16 1     
   30   15   17 1     
   31   15   31 1     
   32   16   32 1     
   33   16   33 1     
   34   16   34 1     
   35   17   35 1     
   36   17   36 1     
   37   17   37 1     
   38    5   38 1     
   39    5   39 1     
   40    9   40 1     
   41    9   41 1     
   42   18   42 1     
@<TRIPOS>SUBSTRUCTURE
      1 S1             1
@<TRIPOS>SET
LONE_PAIRS      STATIC     ATOMS    <user>   **** ""
5 38 39 40 41 42
DONOR_HYDROGENS      STATIC     ATOMS    <user>   **** ""
2 24 27
ATOM$BLUE        STATIC     ATOMS    COLORGROUP SYSTEM
5 38 39 40 41 42
ATOM$RED        STATIC     ATOMS    COLORGROUP SYSTEM
2 24 27
