AV-unprocessed.smi:2655|AV-procd|sdf|10300|dock2
  -GOLD-   2272014313D 1   1.00000     0.00000
 Structure written by MMmdl.
 34 35  0  0  0  0  0  0  0  0  1 V2000
  145.6790  140.3595  156.0754 C   0  0  0  0  0  0  0  0  0  0  0  0
  146.0892  139.6370  154.8241 C   0  0  0  0  0  0  0  0  0  0  0  0
  145.5082  138.4771  154.5338 N   0  0  0  0  0  0  0  0  0  0  0  0
  146.0744  138.1007  153.3719 N   0  0  0  0  0  0  0  0  0  0  0  0
  146.9984  139.0162  152.9396 C   0  0  0  0  0  0  0  0  0  0  0  0
  147.6798  138.8267  151.7781 O   0  0  0  0  0  0  0  0  0  0  0  0
  147.0531  140.0355  153.8453 C   0  0  0  0  0  0  0  0  0  0  0  0
  147.9066  141.2745  153.8187 C   0  0  0  0  0  0  0  0  0  0  0  0
  149.3258  140.9891  154.3363 C   0  0  0  0  0  0  0  0  0  0  0  0
  149.7761  142.0151  155.2698 N   0  0  0  0  0  0  0  0  0  0  0  0
  150.6669  141.8199  156.2531 C   0  0  0  0  0  0  0  0  0  0  0  0
  151.2033  140.7343  156.4771 O   0  0  0  0  0  0  0  0  0  0  0  0
  150.8859  142.9501  156.9470 N   0  0  0  0  0  0  0  0  0  0  0  0
  151.7517  143.1288  158.0563 C   0  0  0  0  0  0  0  0  0  0  0  0
  152.2877  142.0118  158.7510 C   0  0  0  0  0  0  0  0  0  0  0  0
  153.0539  142.5922  159.7224 C   0  0  0  0  0  0  0  0  0  0  0  0
  153.9065  142.0358  160.8107 C   0  0  0  0  0  0  0  0  0  0  0  0
  152.9886  143.9482  159.6304 O   0  0  0  0  0  0  0  0  0  0  0  0
  152.1523  144.2860  158.5599 N   0  0  0  0  0  0  0  0  0  0  0  0
  146.3955  141.1365  156.3408 H   0  0  0  0  0  0  0  0  0  0  0  0
  145.6077  139.6758  156.9218 H   0  0  0  0  0  0  0  0  0  0  0  0
  144.7066  140.8359  155.9486 H   0  0  0  0  0  0  0  0  0  0  0  0
  145.8233  137.2424  152.9023 H   0  0  0  0  0  0  0  0  0  0  0  0
  147.4503  142.0612  154.4207 H   0  0  0  0  0  0  0  0  0  0  0  0
  147.9643  141.6780  152.8074 H   0  0  0  0  0  0  0  0  0  0  0  0
  149.3689  140.0073  154.8112 H   0  0  0  0  0  0  0  0  0  0  0  0
  150.0274  140.9609  153.5021 H   0  0  0  0  0  0  0  0  0  0  0  0
  149.3827  142.9379  155.1564 H   0  0  0  0  0  0  0  0  0  0  0  0
  150.3754  143.7697  156.6534 H   0  0  0  0  0  0  0  0  0  0  0  0
  152.1390  140.9579  158.5685 H   0  0  0  0  0  0  0  0  0  0  0  0
  154.0168  140.9561  160.7071 H   0  0  0  0  0  0  0  0  0  0  0  0
  153.4667  142.2395  161.7871 H   0  0  0  0  0  0  0  0  0  0  0  0
  154.9017  142.4802  160.7879 H   0  0  0  0  0  0  0  0  0  0  0  0
  148.0531  137.9587  151.8001 H   0  0  0  0  0  0  0  0  0  0  0  0
  1 20  1  0  0  0  0
  1 21  1  0  0  0  0
  1 22  1  0  0  0  0
  1  2  1  0  0  0  0
  2  7  1  0  0  0  0
  2  3  2  0  0  0  0
  3  4  1  0  0  0  0
  4 23  1  0  0  0  0
  4  5  1  0  0  0  0
  5  7  2  0  0  0  0
  5  6  1  0  0  0  0
  6 34  1  0  0  0  0
  7  8  1  0  0  0  0
  8  9  1  0  0  0  0
  8 24  1  0  0  0  0
  8 25  1  0  0  0  0
  9 10  1  0  0  0  0
  9 26  1  0  0  0  0
  9 27  1  0  0  0  0
 10 11  1  0  0  0  0
 10 28  1  0  0  0  0
 11 12  2  0  0  0  0
 11 13  1  0  0  0  0
 13 14  1  0  0  0  0
 13 29  1  0  0  0  0
 14 19  2  0  0  0  0
 14 15  1  0  0  0  0
 15 16  2  0  0  0  0
 15 30  1  0  0  0  0
 16 17  1  0  0  0  0
 16 18  1  0  0  0  0
 17 31  1  0  0  0  0
 17 32  1  0  0  0  0
 17 33  1  0  0  0  0
 18 19  1  0  0  0  0
M  END
> <s_m_source_file>
AV-unprocessed.smi

> <i_m_source_file_index>
2655

> <i_lp_mmshare_version>
43012

> <i_f3d_flags>
0

> <s_epik_input>
W0NIM11DMT1OW05IXUMoPU8pW0NASF0xW0NIMl1bQ0gyXVtOSF1DKD1PKVtOSF1jMltjSF1jKFtDSDNdKW9uMg==

> <s_epik_cmdline>
J2VwaWtfcHl0aG9uJywgJy1waCcsICc3LjAnLCAnLXRuJywgJzgnLCAnLW1hJywgJzIwMCcsICctbWV0YWxfYmluZGluZycsICctaW1hZScsICc8aW5maWxlLm1hZT4nLCAnLW9tYWUnLCAnPG91dGZpbGUubWFlPic=

> <r_lp_tautomer_probability>
0.0227396

> <r_epik_Ionization_Penalty>
3.51829

> <r_epik_Ionization_Penalty_Charging>
0

> <r_epik_Ionization_Penalty_Neutral>
3.51829

> <r_epik_State_Penalty>
1.61027

> <r_epik_Charging_Adjusted_Penalty>
1.61027

> <i_epik_Tot_Q>
0

> <i_epik_Tot_abs_Q>
0

> <r_epik_Metal_State_Penalty>
3.01397

> <b_epik_Metal_Only>
0

> <s_lp_Force_Field>
OPLS_2005

> <r_lp_Energy>
-1.25166

> <b_lp_Chiralities_Consistent>
1

> <s_lp_Variant>
AV-unprocessed.smi:2655-3

> <Gold.Version>
5.8.1

> <Gold.Id.Protein>
6NUR|6NUR_protein|mol2

> <Gold.PLP.Fitness>
41.9188

> <Gold.PLP.PLP>
-34.6167

> <Gold.PLP.part.hbond>
-4.7009

> <Gold.PLP.part.metal>
0.0000

> <Gold.PLP.part.buried>
-6.8212

> <Gold.PLP.part.nonpolar>
-24.5112

> <Gold.PLP.part.repulsive>
0.3842

> <Gold.PLP.ligand.clash>
0.0000

> <Gold.PLP.ligand.torsion>
0.8550

> <Gold.PLP.Chemscore.Hbond>
3.0000

> <Gold.PLP.Chemscore.CHOScore>
0.0000

> <Gold.PLP.Chemscore.Metal>
0.0000

> <Gold.Chemscore.Hbonds>
donor molecule, donor type, donor heavy atom, donor atom, acceptor molecule, acceptor atom, score
      L1  H     6    34       P1  7948  1.00
      L1  H    10    28       P1  8028  1.00
      L1  H    13    29       P1  8028  1.00

> <Gold.PLP.Chemscore.Internal.Correction>
0.0122

> <Gold.Rescore>
     Score         DG    S(hbond)    S(metal)    S(lipo)     H(rot)  DE(clash)    DE(int)     intcor
     13.38     -15.52       2.97        0.00      56.47       2.53       0.03       2.12       ----

> <Gold.Chemscore.Fitness>
13.3793

> <Gold.Chemscore.DG>
-15.5239

> <Gold.Chemscore.ZeroCoef>
-5.4800

> <Gold.Chemscore.Hbond>
2.9697

> <Gold.Chemscore.Metal>
0.0000

> <Gold.Chemscore.Lipo>
56.4670

> <Gold.Chemscore.Internal_Hbond>
0.0000

> <Gold.Chemscore.DEClash>
0.0292

> <Gold.Chemscore.DEInternal>
2.1155

> <Gold.Chemscore.Rot>
2.5318

> <Gold.Chemscore.Internal.Correction>
   9.000000E+99

> <Gold.Chemscore.Hbonds>
donor molecule, donor type, donor heavy atom, donor atom, acceptor molecule, acceptor atom, score
      L1  H     6    34       P1  7948  1.00
      L1  H    10    28       P1  8028  0.99
      L1  H    13    29       P1  8028  0.93

> <Gold.Chemscore.Hbond.Weighted>
-9.9187

> <Gold.Chemscore.Metal.Weighted>
-0.0000

> <Gold.Chemscore.Lipo.Weighted>
-6.6066

> <Gold.Chemscore.Internal_Hbond.Weighted>
0.0000

> <Gold.Chemscore.DEClash.Weighted>
0.0292

> <Gold.Chemscore.DEInternal.Weighted>
2.1155

> <Gold.Chemscore.Rot.Weighted>
6.4815

> <Gold.Chemscore.Internal.Correction.Weighted>
   9.000000E+99

> <Gold.Protein.RotatedTorsions>
[ 6907 6896 6895 6894 ] final  116.02 input  -60.11 | X-H torsion
[ 7974 7965 7964 7962 ] final   11.67 input  175.53 | X-H torsion
[ 8008 7997 7996 7995 ] final  154.32 input   59.86 | X-H torsion
[ 10167 10162 10161 10158 ] final -170.17 input  -65.29 | X-H torsion
[ 10718 10713 10712 10709 ] final   86.41 input   66.30 | X-H torsion
[ 10763 10752 10751 10750 ] final  -37.37 input  -60.55 | X-H torsion
[ 11005 11000 10999 10996 ] final   38.50 input  -57.11 | X-H torsion

> <Gold.Protein.ActiveResidues>
 VAL166  LYS551  ARG553  GLY616  TRP617  ASP618  TYR619  PRO620  LYS621  CYS622 
 ASP623  PHE694  ASN695  SER759  ASP760  ASP761  ALA762  ILE779  LEU786  VAL792 
 PHE793  MET794  SER795  GLU796  ALA797  LYS798  CYS799  TRP800  GLU811  SER814 

> <Gold.Protein.RotatedAtoms>
  152.4705  133.8019  159.6956 H   0  0  0  0  0  0  0  0  0  0  0  0  # atno 6907 bound_to 6896
  150.8691  133.7521  159.2973 H   0  0  0  0  0  0  0  0  0  0  0  0  # atno 6908 bound_to 6896
  151.5062  135.1067  159.9894 H   0  0  0  0  0  0  0  0  0  0  0  0  # atno 6909 bound_to 6896
  146.2366  139.9451  142.8478 H   0  0  0  0  0  0  0  0  0  0  0  0  # atno 7974 bound_to 7965
  156.2537  140.1970  156.6627 H   0  0  0  0  0  0  0  0  0  0  0  0  # atno 8008 bound_to 7997
  154.6452  140.0578  156.9917 H   0  0  0  0  0  0  0  0  0  0  0  0  # atno 8009 bound_to 7997
  155.1502  140.3250  155.4435 H   0  0  0  0  0  0  0  0  0  0  0  0  # atno 8010 bound_to 7997
  139.5878  144.1279  152.1597 H   0  0  0  0  0  0  0  0  0  0  0  0  # atno 10167 bound_to 10162
  157.6928  131.0214  150.2969 H   0  0  0  0  0  0  0  0  0  0  0  0  # atno 10718 bound_to 10713
  153.8951  135.6808  153.4758 H   0  0  0  0  0  0  0  0  0  0  0  0  # atno 10763 bound_to 10752
  153.1159  135.4761  154.9113 H   0  0  0  0  0  0  0  0  0  0  0  0  # atno 10764 bound_to 10752
  154.7603  135.3209  154.8345 H   0  0  0  0  0  0  0  0  0  0  0  0  # atno 10765 bound_to 10752
  140.2120  134.3744  155.8044 H   0  0  0  0  0  0  0  0  0  0  0  0  # atno 11005 bound_to 11000
  145.1915  140.9814  143.4208 LP  0  0  0  0  0  0  0  0  0  0  0  0  # atno 17320 bound_to 7965
  144.9853  139.3743  143.6242 LP  0  0  0  0  0  0  0  0  0  0  0  0  # atno 17321 bound_to 7965
  140.0847  144.5671  150.7097 LP  0  0  0  0  0  0  0  0  0  0  0  0  # atno 17342 bound_to 10162
  140.7147  143.2534  151.4472 LP  0  0  0  0  0  0  0  0  0  0  0  0  # atno 17343 bound_to 10162
  156.3491  130.3828  149.7344 LP  0  0  0  0  0  0  0  0  0  0  0  0  # atno 17370 bound_to 10713
  156.4827  130.8048  151.3062 LP  0  0  0  0  0  0  0  0  0  0  0  0  # atno 17371 bound_to 10713
  141.2226  133.7148  156.8434 LP  0  0  0  0  0  0  0  0  0  0  0  0  # atno 17394 bound_to 11000
  140.1941  134.8945  157.3094 LP  0  0  0  0  0  0  0  0  0  0  0  0  # atno 17395 bound_to 11000

$$$$
