AV-unprocessed.smi:1504|AV-procd|sdf|6072|dock7
  -GOLD-   22720 6193D 1   1.00000     0.00000
 Structure written by MMmdl.
 39 40  0  0  0  0  0  0  0  0  1 V2000
  146.1936  137.4627  155.1296 O   0  0  0  0  0  0  0  0  0  0  0  0
  146.9918  137.2377  154.2198 C   0  0  0  0  0  0  0  0  0  0  0  0
  147.1473  136.0421  153.6349 N   0  0  0  0  0  0  0  0  0  0  0  0
  146.4010  134.8377  153.9869 C   0  0  0  0  0  0  0  0  0  0  0  0
  146.7695  133.6266  153.1075 C   0  0  0  0  0  0  0  0  0  0  0  0
  145.7886  133.3791  151.9742 C   0  0  0  0  0  0  0  0  0  0  0  0
  145.3376  134.4430  151.1635 C   0  0  0  0  0  0  0  0  0  0  0  0
  144.4291  134.1580  150.1259 C   0  0  0  0  0  0  0  0  0  0  0  0
  144.0083  132.8270  149.9395 C   0  0  0  0  0  0  0  0  0  0  0  0
  144.5187  131.8362  150.8019 C   0  0  0  0  0  0  0  0  0  0  0  0
  145.3914  132.0986  151.7987 N   0  0  0  0  0  0  0  0  0  0  0  0
  147.8076  138.1599  153.6938 N   0  0  0  0  0  0  0  0  0  0  0  0
  147.8687  139.5492  154.1294 C   0  0  0  0  0  0  0  0  0  0  0  0
  149.3169  139.9716  154.4283 C   0  0  1  0  0  0  0  0  0  0  0  0
  149.4000  141.0563  155.5198 C   0  0  0  0  0  0  0  0  0  0  0  0
  150.8635  141.2105  155.9446 C   0  0  0  0  0  0  0  0  0  0  0  0
  151.5861  139.5318  155.8337 S   0  0  0  0  0  0  0  0  0  0  0  0
  152.8033  139.5867  155.0100 O   0  0  0  0  0  0  0  0  0  0  0  0
  151.6024  138.9162  157.1692 O   0  0  0  0  0  0  0  0  0  0  0  0
  150.2169  138.7992  154.8589 C   0  0  0  0  0  0  0  0  0  0  0  0
  147.8259  135.9572  152.8923 H   0  0  0  0  0  0  0  0  0  0  0  0
  146.6160  134.6094  155.0311 H   0  0  0  0  0  0  0  0  0  0  0  0
  145.3292  135.0330  153.9297 H   0  0  0  0  0  0  0  0  0  0  0  0
  147.7650  133.7726  152.6864 H   0  0  0  0  0  0  0  0  0  0  0  0
  146.8366  132.7283  153.7224 H   0  0  0  0  0  0  0  0  0  0  0  0
  145.6805  135.4537  151.3310 H   0  0  0  0  0  0  0  0  0  0  0  0
  144.0618  134.9458  149.4852 H   0  0  0  0  0  0  0  0  0  0  0  0
  143.3114  132.5711  149.1553 H   0  0  0  0  0  0  0  0  0  0  0  0
  144.2179  130.8053  150.6885 H   0  0  0  0  0  0  0  0  0  0  0  0
  148.4283  137.8844  152.9469 H   0  0  0  0  0  0  0  0  0  0  0  0
  147.4472  140.1816  153.3469 H   0  0  0  0  0  0  0  0  0  0  0  0
  147.2499  139.6861  155.0181 H   0  0  0  0  0  0  0  0  0  0  0  0
  149.7467  140.3985  153.5209 H   0  0  0  0  0  0  0  0  0  0  0  0
  148.9829  142.0047  155.1800 H   0  0  0  0  0  0  0  0  0  0  0  0
  148.8136  140.7425  156.3848 H   0  0  0  0  0  0  0  0  0  0  0  0
  151.4012  141.8561  155.2497 H   0  0  0  0  0  0  0  0  0  0  0  0
  150.9789  141.6075  156.9533 H   0  0  0  0  0  0  0  0  0  0  0  0
  149.6791  138.1087  155.5093 H   0  0  0  0  0  0  0  0  0  0  0  0
  150.6177  138.2375  154.0151 H   0  0  0  0  0  0  0  0  0  0  0  0
  1  2  2  0  0  0  0
  2  3  1  0  0  0  0
  2 12  1  0  0  0  0
  3  4  1  0  0  0  0
  3 21  1  0  0  0  0
  4  5  1  0  0  0  0
  4 22  1  0  0  0  0
  4 23  1  0  0  0  0
  5  6  1  0  0  0  0
  5 24  1  0  0  0  0
  5 25  1  0  0  0  0
  6 11  1  0  0  0  0
  6  7  2  0  0  0  0
  7  8  1  0  0  0  0
  7 26  1  0  0  0  0
  8  9  2  0  0  0  0
  8 27  1  0  0  0  0
  9 10  1  0  0  0  0
  9 28  1  0  0  0  0
 10 11  2  0  0  0  0
 10 29  1  0  0  0  0
 12 13  1  0  0  0  0
 12 30  1  0  0  0  0
 13 14  1  0  0  0  0
 13 31  1  0  0  0  0
 13 32  1  0  0  0  0
 14 20  1  0  0  0  0
 14 15  1  0  0  0  0
 14 33  1  0  0  0  0
 15 16  1  0  0  0  0
 15 34  1  0  0  0  0
 15 35  1  0  0  0  0
 16 17  1  0  0  0  0
 16 36  1  0  0  0  0
 16 37  1  0  0  0  0
 17 18  2  0  0  0  0
 17 19  2  0  0  0  0
 17 20  1  0  0  0  0
 20 38  1  0  0  0  0
 20 39  1  0  0  0  0
M  END
> <s_m_source_file>
AV-unprocessed.smi

> <i_m_source_file_index>
1504

> <i_lp_mmshare_version>
43012

> <i_f3d_flags>
0

> <s_epik_input>
Tz1TMSg9TylbQ0gyXVtDSDJdW0NASF0oW0NIMl0xKVtDSDJdW05IXUMoPU8pW05IXVtDSDJdW0NIMl1jMltjSF1bY0hdW2NIXVtjSF1uMg==

> <s_epik_cmdline>
J2VwaWtfcHl0aG9uJywgJy1waCcsICc3LjAnLCAnLXRuJywgJzgnLCAnLW1hJywgJzIwMCcsICctbWV0YWxfYmluZGluZycsICctaW1hZScsICc8aW5maWxlLm1hZT4nLCAnLW9tYWUnLCAnPG91dGZpbGUubWFlPic=

> <r_epik_Ionization_Penalty>
0.0431785

> <r_epik_Ionization_Penalty_Charging>
0

> <r_epik_Ionization_Penalty_Neutral>
0.0431785

> <r_epik_State_Penalty>
0.0364691

> <r_epik_Charging_Adjusted_Penalty>
0.0364691

> <i_epik_Tot_Q>
0

> <i_epik_Tot_abs_Q>
0

> <r_epik_Metal_State_Penalty>
0.0339827

> <b_epik_Metal_Only>
0

> <s_lp_Force_Field>
OPLS_2005

> <r_lp_Energy>
0.935995

> <b_lp_Chiralities_Consistent>
1

> <s_lp_Variant>
AV-unprocessed.smi:1504-2

> <Gold.Version>
5.8.1

> <Gold.Id.Protein>
6NUR|6NUR_protein|mol2

> <Gold.PLP.Fitness>
40.7059

> <Gold.PLP.PLP>
-33.4297

> <Gold.PLP.part.hbond>
-4.0000

> <Gold.PLP.part.metal>
0.0000

> <Gold.PLP.part.buried>
-4.8540

> <Gold.PLP.part.nonpolar>
-25.5107

> <Gold.PLP.part.repulsive>
0.1966

> <Gold.PLP.ligand.clash>
0.0000

> <Gold.PLP.ligand.torsion>
0.8751

> <Gold.PLP.Chemscore.Hbond>
3.0061

> <Gold.PLP.Chemscore.CHOScore>
0.0000

> <Gold.PLP.Chemscore.Metal>
0.0000

> <Gold.Chemscore.Hbonds>
donor molecule, donor type, donor heavy atom, donor atom, acceptor molecule, acceptor atom, score
      L1  H     3    21       P1  7948  1.00
      L1  H    12    30       P1  7948  0.83
      P1  H  7989  7998       L1    18  0.11
      P1  H  7997  8009       L1    18  1.00

> <Gold.PLP.Chemscore.Internal.Correction>
0.0082

> <Gold.Rescore>
     Score         DG    S(hbond)    S(metal)    S(lipo)     H(rot)  DE(clash)    DE(int)     intcor
     17.77     -18.44       2.81        0.00      72.49       1.91       0.02       0.65       ----

> <Gold.Chemscore.Fitness>
17.7711

> <Gold.Chemscore.DG>
-18.4401

> <Gold.Chemscore.ZeroCoef>
-5.4800

> <Gold.Chemscore.Hbond>
2.8054

> <Gold.Chemscore.Metal>
0.0000

> <Gold.Chemscore.Lipo>
72.4871

> <Gold.Chemscore.Internal_Hbond>
0.0000

> <Gold.Chemscore.DEClash>
0.0156

> <Gold.Chemscore.DEInternal>
0.6533

> <Gold.Chemscore.Rot>
1.9105

> <Gold.Chemscore.Internal.Correction>
   9.000000E+99

> <Gold.Chemscore.Hbonds>
donor molecule, donor type, donor heavy atom, donor atom, acceptor molecule, acceptor atom, score
      L1  H     3    21       P1  7948  0.94
      L1  H    12    30       P1  7948  0.78
      P1  H  7997  8009       L1    18  0.93

> <Gold.Chemscore.Hbond.Weighted>
-9.3699

> <Gold.Chemscore.Metal.Weighted>
-0.0000

> <Gold.Chemscore.Lipo.Weighted>
-8.4810

> <Gold.Chemscore.Internal_Hbond.Weighted>
0.0000

> <Gold.Chemscore.DEClash.Weighted>
0.0156

> <Gold.Chemscore.DEInternal.Weighted>
0.6533

> <Gold.Chemscore.Rot.Weighted>
4.8908

> <Gold.Chemscore.Internal.Correction.Weighted>
   9.000000E+99

> <Gold.Protein.RotatedTorsions>
[ 6907 6896 6895 6894 ] final  -51.90 input  -60.11 | X-H torsion
[ 7974 7965 7964 7962 ] final   35.84 input  175.53 | X-H torsion
[ 8008 7997 7996 7995 ] final -135.37 input   59.86 | X-H torsion
[ 10167 10162 10161 10158 ] final   95.57 input  -65.29 | X-H torsion
[ 10718 10713 10712 10709 ] final  -51.32 input   66.30 | X-H torsion
[ 10763 10752 10751 10750 ] final  -32.57 input  -60.55 | X-H torsion
[ 11005 11000 10999 10996 ] final  101.12 input  -57.11 | X-H torsion

> <Gold.Protein.ActiveResidues>
 VAL166  LYS551  ARG553  GLY616  TRP617  ASP618  TYR619  PRO620  LYS621  CYS622 
 ASP623  PHE694  ASN695  SER759  ASP760  ASP761  ALA762  ILE779  LEU786  VAL792 
 PHE793  MET794  SER795  GLU796  ALA797  LYS798  CYS799  TRP800  GLU811  SER814 

> <Gold.Protein.RotatedAtoms>
  150.8568  134.7909  159.7051 H   0  0  0  0  0  0  0  0  0  0  0  0  # atno 6907 bound_to 6896
  152.4617  134.5165  159.9779 H   0  0  0  0  0  0  0  0  0  0  0  0  # atno 6908 bound_to 6896
  151.5276  133.3417  159.2948 H   0  0  0  0  0  0  0  0  0  0  0  0  # atno 6909 bound_to 6896
  146.1254  139.6092  142.9262 H   0  0  0  0  0  0  0  0  0  0  0  0  # atno 7974 bound_to 7965
  155.3775  140.0492  157.3044 H   0  0  0  0  0  0  0  0  0  0  0  0  # atno 8008 bound_to 7997
  154.5099  140.2188  155.9139 H   0  0  0  0  0  0  0  0  0  0  0  0  # atno 8009 bound_to 7997
  156.1570  140.3124  155.8748 H   0  0  0  0  0  0  0  0  0  0  0  0  # atno 8010 bound_to 7997
  139.7976  144.6827  150.9808 H   0  0  0  0  0  0  0  0  0  0  0  0  # atno 10167 bound_to 10162
  156.1721  130.4149  149.9632 H   0  0  0  0  0  0  0  0  0  0  0  0  # atno 10718 bound_to 10713
  153.8160  135.6878  153.4834 H   0  0  0  0  0  0  0  0  0  0  0  0  # atno 10763 bound_to 10752
  153.1599  135.4584  154.9755 H   0  0  0  0  0  0  0  0  0  0  0  0  # atno 10764 bound_to 10752
  154.7948  135.3315  154.7636 H   0  0  0  0  0  0  0  0  0  0  0  0  # atno 10765 bound_to 10752
  139.8772  134.9169  156.4859 H   0  0  0  0  0  0  0  0  0  0  0  0  # atno 11005 bound_to 11000
  145.5376  141.0423  143.2348 LP  0  0  0  0  0  0  0  0  0  0  0  0  # atno 17320 bound_to 7965
  144.7637  139.6895  143.7223 LP  0  0  0  0  0  0  0  0  0  0  0  0  # atno 17321 bound_to 7965
  140.7820  143.4315  151.0687 LP  0  0  0  0  0  0  0  0  0  0  0  0  # atno 17342 bound_to 10162
  139.7989  143.8112  152.3160 LP  0  0  0  0  0  0  0  0  0  0  0  0  # atno 17343 bound_to 10162
  156.7429  130.9086  151.3633 LP  0  0  0  0  0  0  0  0  0  0  0  0  # atno 17370 bound_to 10713
  157.6810  130.9139  150.0266 LP  0  0  0  0  0  0  0  0  0  0  0  0  # atno 17371 bound_to 10713
  140.8694  133.8000  155.9348 LP  0  0  0  0  0  0  0  0  0  0  0  0  # atno 17394 bound_to 11000
  140.8968  134.2427  157.5064 LP  0  0  0  0  0  0  0  0  0  0  0  0  # atno 17395 bound_to 11000

$$$$
