AV-unprocessed.smi:1144|AV-procd|sdf|4880|dock7
  -GOLD-   22720 3453D 1   1.00000     0.00000
 Structure written by MMmdl.
 34 35  0  0  0  0  0  0  0  0  1 V2000
  143.7342  133.7081  151.3300 C   0  0  0  0  0  0  0  0  0  0  0  0
  143.6297  135.0970  151.7510 N   0  0  0  0  0  0  0  0  0  0  0  0
  142.7584  135.2415  152.9096 C   0  0  0  0  0  0  0  0  0  0  0  0
  142.6641  136.7057  153.3703 C   0  0  0  0  0  0  0  0  0  0  0  0
  143.9717  137.2060  153.6324 O   0  0  0  0  0  0  0  0  0  0  0  0
  144.8348  137.1392  152.4985 C   0  0  1  0  0  0  0  0  0  0  0  0
  146.2041  137.7065  152.8958 C   0  0  0  0  0  0  0  0  0  0  0  0
  146.1548  139.1487  153.0832 N   0  0  0  0  0  0  0  0  0  0  0  0
  147.1989  139.9010  153.5862 C   0  0  0  0  0  0  0  0  0  0  0  0
  147.0130  141.2229  153.5767 N   0  0  0  0  0  0  0  0  0  0  0  0
  148.0149  141.9875  154.0618 C   0  0  0  0  0  0  0  0  0  0  0  0
  149.2067  141.4236  154.5577 C   0  0  0  0  0  0  0  0  0  0  0  0
  149.2955  140.0141  154.5193 C   0  0  0  0  0  0  0  0  0  0  0  0
  150.5218  139.2661  155.0195 C   0  0  0  0  0  0  0  0  0  0  0  0
  151.0527  138.5559  154.0237 F   0  0  0  0  0  0  0  0  0  0  0  0
  151.4501  140.1038  155.4828 F   0  0  0  0  0  0  0  0  0  0  0  0
  150.1734  138.4360  156.0028 F   0  0  0  0  0  0  0  0  0  0  0  0
  148.2850  139.2585  154.0303 N   0  0  0  0  0  0  0  0  0  0  0  0
  144.9372  135.6679  152.0483 C   0  0  0  0  0  0  0  0  0  0  0  0
  142.7514  133.3041  151.0850 H   0  0  0  0  0  0  0  0  0  0  0  0
  144.1695  133.0897  152.1161 H   0  0  0  0  0  0  0  0  0  0  0  0
  144.3606  133.6193  150.4421 H   0  0  0  0  0  0  0  0  0  0  0  0
  141.7609  134.8697  152.6720 H   0  0  0  0  0  0  0  0  0  0  0  0
  143.1327  134.6298  153.7321 H   0  0  0  0  0  0  0  0  0  0  0  0
  142.1771  137.3204  152.6117 H   0  0  0  0  0  0  0  0  0  0  0  0
  142.0649  136.7802  154.2778 H   0  0  0  0  0  0  0  0  0  0  0  0
  144.4158  137.7367  151.6864 H   0  0  0  0  0  0  0  0  0  0  0  0
  146.5610  137.2297  153.8096 H   0  0  0  0  0  0  0  0  0  0  0  0
  146.9315  137.4876  152.1132 H   0  0  0  0  0  0  0  0  0  0  0  0
  145.2869  139.6276  152.8915 H   0  0  0  0  0  0  0  0  0  0  0  0
  147.8643  143.0569  154.0546 H   0  0  0  0  0  0  0  0  0  0  0  0
  150.0024  142.0435  154.9435 H   0  0  0  0  0  0  0  0  0  0  0  0
  145.4249  135.0830  152.8301 H   0  0  0  0  0  0  0  0  0  0  0  0
  145.5759  135.6016  151.1666 H   0  0  0  0  0  0  0  0  0  0  0  0
  1  2  1  0  0  0  0
  1 20  1  0  0  0  0
  1 21  1  0  0  0  0
  1 22  1  0  0  0  0
  2 19  1  0  0  0  0
  2  3  1  0  0  0  0
  3  4  1  0  0  0  0
  3 23  1  0  0  0  0
  3 24  1  0  0  0  0
  4  5  1  0  0  0  0
  4 25  1  0  0  0  0
  4 26  1  0  0  0  0
  5  6  1  0  0  0  0
  6  7  1  0  0  0  0
  6 19  1  0  0  0  0
  6 27  1  0  0  0  0
  7  8  1  0  0  0  0
  7 28  1  0  0  0  0
  7 29  1  0  0  0  0
  8  9  1  0  0  0  0
  8 30  1  0  0  0  0
  9 18  1  0  0  0  0
  9 10  2  0  0  0  0
 10 11  1  0  0  0  0
 11 12  2  0  0  0  0
 11 31  1  0  0  0  0
 12 13  1  0  0  0  0
 12 32  1  0  0  0  0
 13 14  1  0  0  0  0
 13 18  2  0  0  0  0
 14 15  1  0  0  0  0
 14 16  1  0  0  0  0
 14 17  1  0  0  0  0
 19 33  1  0  0  0  0
 19 34  1  0  0  0  0
M  END
> <s_m_source_file>
AV-unprocessed.smi

> <i_m_source_file_index>
1144

> <i_lp_mmshare_version>
43012

> <i_f3d_flags>
0

> <s_epik_input>
W0NIM11OMVtDSDJdW0NIMl1PW0NASF0oW0NIMl0xKVtDSDJdW05IXWMybltjSF1bY0hdYyhuMilDKEYpKEYpRg==

> <s_epik_cmdline>
J2VwaWtfcHl0aG9uJywgJy1waCcsICc3LjAnLCAnLXRuJywgJzgnLCAnLW1hJywgJzIwMCcsICctbWV0YWxfYmluZGluZycsICctaW1hZScsICc8aW5maWxlLm1hZT4nLCAnLW9tYWUnLCAnPG91dGZpbGUubWFlPic=

> <r_lp_tautomer_probability>
1

> <r_epik_Ionization_Penalty>
0.797829

> <r_epik_Ionization_Penalty_Charging>
0

> <r_epik_Ionization_Penalty_Neutral>
0.797829

> <r_epik_State_Penalty>
0.828842

> <r_epik_Charging_Adjusted_Penalty>
0.828842

> <i_epik_Tot_Q>
0

> <i_epik_Tot_abs_Q>
0

> <r_epik_Metal_State_Penalty>
0.828842

> <b_epik_Metal_Only>
0

> <s_lp_Force_Field>
OPLS_2005

> <r_lp_Energy>
13.1173

> <b_lp_Chiralities_Consistent>
1

> <s_lp_Variant>
AV-unprocessed.smi:1144-5

> <Gold.Version>
5.8.1

> <Gold.Id.Protein>
6NUR|6NUR_protein|mol2

> <Gold.PLP.Fitness>
37.1752

> <Gold.PLP.PLP>
-31.4681

> <Gold.PLP.part.hbond>
-1.0000

> <Gold.PLP.part.metal>
0.0000

> <Gold.PLP.part.buried>
-3.4021

> <Gold.PLP.part.nonpolar>
-26.6537

> <Gold.PLP.part.repulsive>
0.6491

> <Gold.PLP.ligand.clash>
0.0000

> <Gold.PLP.ligand.torsion>
0.0944

> <Gold.PLP.Chemscore.Hbond>
1.0000

> <Gold.PLP.Chemscore.CHOScore>
0.9644

> <Gold.PLP.Chemscore.Metal>
0.0000

> <Gold.Chemscore.Hbonds>
donor molecule, donor type, donor heavy atom, donor atom, acceptor molecule, acceptor atom, score
      L1  H     8    30       P1 10175  1.00
      L1  C    11    31       P1  8028  0.95

> <Gold.PLP.Chemscore.Internal.Correction>
0.0028

> <Gold.Rescore>
     Score         DG    S(hbond)    S(metal)    S(lipo)     H(rot)  DE(clash)    DE(int)     intcor
     12.10     -12.21       1.00        0.00      57.78       1.31       0.00       0.10       ----

> <Gold.Chemscore.Fitness>
12.1041

> <Gold.Chemscore.DG>
-12.2138

> <Gold.Chemscore.ZeroCoef>
-5.4800

> <Gold.Chemscore.Hbond>
1.0000

> <Gold.Chemscore.Metal>
0.0000

> <Gold.Chemscore.Lipo>
57.7780

> <Gold.Chemscore.Internal_Hbond>
0.0000

> <Gold.Chemscore.DEClash>
0.0048

> <Gold.Chemscore.DEInternal>
0.1049

> <Gold.Chemscore.Rot>
1.3149

> <Gold.Chemscore.Internal.Correction>
   9.000000E+99

> <Gold.Chemscore.Hbonds>
donor molecule, donor type, donor heavy atom, donor atom, acceptor molecule, acceptor atom, score
      L1  H     8    30       P1 10175  1.00

> <Gold.Chemscore.Hbond.Weighted>
-3.3400

> <Gold.Chemscore.Metal.Weighted>
-0.0000

> <Gold.Chemscore.Lipo.Weighted>
-6.7600

> <Gold.Chemscore.Internal_Hbond.Weighted>
0.0000

> <Gold.Chemscore.DEClash.Weighted>
0.0048

> <Gold.Chemscore.DEInternal.Weighted>
0.1049

> <Gold.Chemscore.Rot.Weighted>
3.3662

> <Gold.Chemscore.Internal.Correction.Weighted>
   9.000000E+99

> <Gold.Protein.RotatedTorsions>
[ 6907 6896 6895 6894 ] final  -38.66 input  -60.11 | X-H torsion
[ 7974 7965 7964 7962 ] final -165.34 input  175.53 | X-H torsion
[ 8008 7997 7996 7995 ] final -109.15 input   59.86 | X-H torsion
[ 10167 10162 10161 10158 ] final  -51.34 input  -65.29 | X-H torsion
[ 10718 10713 10712 10709 ] final  -16.98 input   66.30 | X-H torsion
[ 10763 10752 10751 10750 ] final   61.16 input  -60.55 | X-H torsion
[ 11005 11000 10999 10996 ] final   15.11 input  -57.11 | X-H torsion

> <Gold.Protein.ActiveResidues>
 VAL166  LYS551  ARG553  GLY616  TRP617  ASP618  TYR619  PRO620  LYS621  CYS622 
 ASP623  PHE694  ASN695  SER759  ASP760  ASP761  ALA762  ILE779  LEU786  VAL792 
 PHE793  MET794  SER795  GLU796  ALA797  LYS798  CYS799  TRP800  GLU811  SER814 

> <Gold.Protein.RotatedAtoms>
  150.9997  134.9312  159.7946 H   0  0  0  0  0  0  0  0  0  0  0  0  # atno 6907 bound_to 6896
  152.5274  134.3171  159.9144 H   0  0  0  0  0  0  0  0  0  0  0  0  # atno 6908 bound_to 6896
  151.3176  133.4012  159.2686 H   0  0  0  0  0  0  0  0  0  0  0  0  # atno 6909 bound_to 6896
  144.7272  140.2828  143.6233 H   0  0  0  0  0  0  0  0  0  0  0  0  # atno 7974 bound_to 7965
  154.9550  140.0400  157.2162 H   0  0  0  0  0  0  0  0  0  0  0  0  # atno 8008 bound_to 7997
  154.7942  140.2841  155.5946 H   0  0  0  0  0  0  0  0  0  0  0  0  # atno 8009 bound_to 7997
  156.2953  140.2567  156.2797 H   0  0  0  0  0  0  0  0  0  0  0  0  # atno 8010 bound_to 7997
  140.6593  143.2623  151.4490 H   0  0  0  0  0  0  0  0  0  0  0  0  # atno 10167 bound_to 10162
  156.5799  130.4771  149.6325 H   0  0  0  0  0  0  0  0  0  0  0  0  # atno 10718 bound_to 10713
  152.9942  135.5510  154.5989 H   0  0  0  0  0  0  0  0  0  0  0  0  # atno 10763 bound_to 10752
  154.5335  135.2815  155.1161 H   0  0  0  0  0  0  0  0  0  0  0  0  # atno 10764 bound_to 10752
  154.2467  135.6406  153.5278 H   0  0  0  0  0  0  0  0  0  0  0  0  # atno 10765 bound_to 10752
  140.4620  134.1118  155.7718 H   0  0  0  0  0  0  0  0  0  0  0  0  # atno 11005 bound_to 11000
  145.7932  139.1935  143.2090 LP  0  0  0  0  0  0  0  0  0  0  0  0  # atno 17320 bound_to 7965
  146.0738  140.7840  142.9675 LP  0  0  0  0  0  0  0  0  0  0  0  0  # atno 17321 bound_to 7965
  139.5823  144.1683  152.1984 LP  0  0  0  0  0  0  0  0  0  0  0  0  # atno 17342 bound_to 10162
  140.1012  144.5538  150.6988 LP  0  0  0  0  0  0  0  0  0  0  0  0  # atno 17343 bound_to 10162
  156.2640  130.6979  151.1756 LP  0  0  0  0  0  0  0  0  0  0  0  0  # atno 17370 bound_to 10713
  157.7329  131.0596  150.5606 LP  0  0  0  0  0  0  0  0  0  0  0  0  # atno 17371 bound_to 10713
  141.1617  133.8781  157.1830 LP  0  0  0  0  0  0  0  0  0  0  0  0  # atno 17394 bound_to 11000
  139.9939  135.0054  157.0038 LP  0  0  0  0  0  0  0  0  0  0  0  0  # atno 17395 bound_to 11000

$$$$
