AV-unprocessed.smi:1459|AV-procd|sdf|5926|dock3
  -GOLD-   22720 6 13D 1   1.00000     0.00000
 Structure written by MMmdl.
 34 35  0  0  0  0  0  0  0  0  1 V2000
  151.3509  135.7347  154.3289 C   0  0  0  0  0  0  0  0  0  0  0  0
  151.2817  136.3612  155.6793 C   0  0  0  0  0  0  0  0  0  0  0  0
  151.6446  137.5899  156.1550 C   0  0  0  0  0  0  0  0  0  0  0  0
  151.2985  137.5155  157.5304 C   0  0  0  0  0  0  0  0  0  0  0  0
  151.5159  138.6177  158.3959 N   0  0  0  0  0  0  0  0  0  0  0  0
  152.3756  139.6364  158.2255 C   0  0  0  0  0  0  0  0  0  0  0  0
  153.1105  139.7868  157.2490 O   0  0  0  0  0  0  0  0  0  0  0  0
  152.3315  140.4866  159.2622 N   0  0  0  0  0  0  0  0  0  0  0  0
  153.1163  141.7124  159.3919 C   0  0  2  0  0  0  0  0  0  0  0  0
  154.0295  141.5820  160.6207 C   0  0  0  0  0  0  0  0  0  0  0  0
  152.1712  142.9270  159.4919 C   0  0  1  0  0  0  0  0  0  0  0  0
  152.3431  143.7709  160.7554 C   0  0  0  0  0  0  0  0  0  0  0  0
  151.8148  145.1369  160.3468 C   0  0  0  0  0  0  0  0  0  0  0  0
  151.7928  145.0856  158.8167 C   0  0  0  0  0  0  0  0  0  0  0  0
  152.4535  143.8757  158.4744 O   0  0  0  0  0  0  0  0  0  0  0  0
  150.7731  136.3467  157.8646 N   0  0  0  0  0  0  0  0  0  0  0  0
  150.7599  135.6009  156.6799 O   0  0  0  0  0  0  0  0  0  0  0  0
  151.7650  136.4290  153.5977 H   0  0  0  0  0  0  0  0  0  0  0  0
  150.3584  135.4382  153.9893 H   0  0  0  0  0  0  0  0  0  0  0  0
  151.9824  134.8464  154.3472 H   0  0  0  0  0  0  0  0  0  0  0  0
  152.0853  138.4079  155.6047 H   0  0  0  0  0  0  0  0  0  0  0  0
  150.9614  138.6287  159.2389 H   0  0  0  0  0  0  0  0  0  0  0  0
  151.6932  140.2796  160.0161 H   0  0  0  0  0  0  0  0  0  0  0  0
  153.7572  141.8365  158.5172 H   0  0  0  0  0  0  0  0  0  0  0  0
  154.6803  142.4500  160.7260 H   0  0  0  0  0  0  0  0  0  0  0  0
  154.6718  140.7043  160.5396 H   0  0  0  0  0  0  0  0  0  0  0  0
  153.4494  141.4874  161.5392 H   0  0  0  0  0  0  0  0  0  0  0  0
  151.1308  142.6091  159.3971 H   0  0  0  0  0  0  0  0  0  0  0  0
  151.8180  143.3557  161.6161 H   0  0  0  0  0  0  0  0  0  0  0  0
  153.4002  143.8521  161.0125 H   0  0  0  0  0  0  0  0  0  0  0  0
  150.8111  145.3078  160.7375 H   0  0  0  0  0  0  0  0  0  0  0  0
  152.4605  145.9336  160.7178 H   0  0  0  0  0  0  0  0  0  0  0  0
  150.7665  145.0504  158.4486 H   0  0  0  0  0  0  0  0  0  0  0  0
  152.2890  145.9431  158.3617 H   0  0  0  0  0  0  0  0  0  0  0  0
  1  2  1  0  0  0  0
  1 18  1  0  0  0  0
  1 19  1  0  0  0  0
  1 20  1  0  0  0  0
  2 17  1  0  0  0  0
  2  3  2  0  0  0  0
  3  4  1  0  0  0  0
  3 21  1  0  0  0  0
  4  5  1  0  0  0  0
  4 16  2  0  0  0  0
  5  6  1  0  0  0  0
  5 22  1  0  0  0  0
  6  7  2  0  0  0  0
  6  8  1  0  0  0  0
  8  9  1  0  0  0  0
  8 23  1  0  0  0  0
  9 10  1  0  0  0  0
  9 11  1  0  0  0  0
  9 24  1  0  0  0  0
 10 25  1  0  0  0  0
 10 26  1  0  0  0  0
 10 27  1  0  0  0  0
 11 15  1  0  0  0  0
 11 12  1  0  0  0  0
 11 28  1  0  0  0  0
 12 13  1  0  0  0  0
 12 29  1  0  0  0  0
 12 30  1  0  0  0  0
 13 14  1  0  0  0  0
 13 31  1  0  0  0  0
 13 32  1  0  0  0  0
 14 15  1  0  0  0  0
 14 33  1  0  0  0  0
 14 34  1  0  0  0  0
 16 17  1  0  0  0  0
M  END
> <s_m_source_file>
AV-unprocessed.smi

> <i_m_source_file_index>
1459

> <i_lp_mmshare_version>
43012

> <i_f3d_flags>
0

> <s_epik_input>
W0NIM11jMVtjSF1jKG5vMSlbTkhdQyg9TylbTkhdW0NASF0oW0NIM10pW0NAQEhdMltDSDJdW0NIMl1bQ0gyXU8y

> <s_epik_cmdline>
J2VwaWtfcHl0aG9uJywgJy1waCcsICc3LjAnLCAnLXRuJywgJzgnLCAnLW1hJywgJzIwMCcsICctbWV0YWxfYmluZGluZycsICctaW1hZScsICc8aW5maWxlLm1hZT4nLCAnLW9tYWUnLCAnPG91dGZpbGUubWFlPic=

> <r_lp_tautomer_probability>
1

> <r_epik_Ionization_Penalty>
2.20869e-05

> <r_epik_Ionization_Penalty_Charging>
0

> <r_epik_Ionization_Penalty_Neutral>
2.20869e-05

> <r_epik_State_Penalty>
-0

> <r_epik_Charging_Adjusted_Penalty>
0

> <i_epik_Tot_Q>
0

> <i_epik_Tot_abs_Q>
0

> <r_epik_Metal_State_Penalty>
-0

> <b_epik_Metal_Only>
0

> <s_lp_Force_Field>
OPLS_2005

> <r_lp_Energy>
16.1691

> <b_lp_Chiralities_Consistent>
1

> <s_lp_Variant>
AV-unprocessed.smi:1459-3

> <Gold.Version>
5.8.1

> <Gold.Id.Protein>
6NUR|6NUR_protein|mol2

> <Gold.PLP.Fitness>
36.1737

> <Gold.PLP.PLP>
-33.5607

> <Gold.PLP.part.hbond>
-2.7960

> <Gold.PLP.part.metal>
0.0000

> <Gold.PLP.part.buried>
-5.3048

> <Gold.PLP.part.nonpolar>
-25.2076

> <Gold.PLP.part.repulsive>
0.2990

> <Gold.PLP.ligand.clash>
0.0000

> <Gold.PLP.ligand.torsion>
1.5965

> <Gold.PLP.Chemscore.Hbond>
1.9280

> <Gold.PLP.Chemscore.CHOScore>
0.0000

> <Gold.PLP.Chemscore.Metal>
0.0000

> <Gold.Chemscore.Hbonds>
donor molecule, donor type, donor heavy atom, donor atom, acceptor molecule, acceptor atom, score
      P1  H  6896  6908       L1    16  0.15
      P1  H  7997  8008       L1     7  0.73

> <Gold.PLP.Chemscore.Internal.Correction>
0.0220

> <Gold.Rescore>
     Score         DG    S(hbond)    S(metal)    S(lipo)     H(rot)  DE(clash)    DE(int)     intcor
     14.50     -17.38       1.70        0.00      81.25       1.28       0.03       2.86       ----

> <Gold.Chemscore.Fitness>
14.4977

> <Gold.Chemscore.DG>
-17.3837

> <Gold.Chemscore.ZeroCoef>
-5.4800

> <Gold.Chemscore.Hbond>
1.6969

> <Gold.Chemscore.Metal>
0.0000

> <Gold.Chemscore.Lipo>
81.2548

> <Gold.Chemscore.Internal_Hbond>
0.0000

> <Gold.Chemscore.DEClash>
0.0310

> <Gold.Chemscore.DEInternal>
2.8551

> <Gold.Chemscore.Rot>
1.2776

> <Gold.Chemscore.Internal.Correction>
   9.000000E+99

> <Gold.Chemscore.Hbonds>
donor molecule, donor type, donor heavy atom, donor atom, acceptor molecule, acceptor atom, score
      P1  H  6896  6908       L1    16  0.12
      P1  H  7997  8008       L1     7  0.73

> <Gold.Chemscore.Hbond.Weighted>
-5.6676

> <Gold.Chemscore.Metal.Weighted>
-0.0000

> <Gold.Chemscore.Lipo.Weighted>
-9.5068

> <Gold.Chemscore.Internal_Hbond.Weighted>
0.0000

> <Gold.Chemscore.DEClash.Weighted>
0.0310

> <Gold.Chemscore.DEInternal.Weighted>
2.8551

> <Gold.Chemscore.Rot.Weighted>
3.2707

> <Gold.Chemscore.Internal.Correction.Weighted>
   9.000000E+99

> <Gold.Protein.RotatedTorsions>
[ 6907 6896 6895 6894 ] final -155.19 input  -60.11 | X-H torsion
[ 7974 7965 7964 7962 ] final   41.07 input  175.53 | X-H torsion
[ 8008 7997 7996 7995 ] final  -63.64 input   59.86 | X-H torsion
[ 10167 10162 10161 10158 ] final  126.84 input  -65.29 | X-H torsion
[ 10718 10713 10712 10709 ] final  -16.91 input   66.30 | X-H torsion
[ 10763 10752 10751 10750 ] final  -45.01 input  -60.55 | X-H torsion
[ 11005 11000 10999 10996 ] final  122.61 input  -57.11 | X-H torsion

> <Gold.Protein.ActiveResidues>
 VAL166  LYS551  ARG553  GLY616  TRP617  ASP618  TYR619  PRO620  LYS621  CYS622 
 ASP623  PHE694  ASN695  SER759  ASP760  ASP761  ALA762  ILE779  LEU786  VAL792 
 PHE793  MET794  SER795  GLU796  ALA797  LYS798  CYS799  TRP800  GLU811  SER814 

> <Gold.Protein.RotatedAtoms>
  151.2688  133.4265  159.2619 H   0  0  0  0  0  0  0  0  0  0  0  0  # atno 6907 bound_to 6896
  151.0464  134.9643  159.8199 H   0  0  0  0  0  0  0  0  0  0  0  0  # atno 6908 bound_to 6896
  152.5375  134.2644  159.9000 H   0  0  0  0  0  0  0  0  0  0  0  0  # atno 6909 bound_to 6896
  146.0853  139.5458  142.9510 H   0  0  0  0  0  0  0  0  0  0  0  0  # atno 7974 bound_to 7965
  154.4566  140.0970  156.6774 H   0  0  0  0  0  0  0  0  0  0  0  0  # atno 8008 bound_to 7997
  155.5120  140.3476  155.4372 H   0  0  0  0  0  0  0  0  0  0  0  0  # atno 8009 bound_to 7997
  156.0789  140.1368  156.9725 H   0  0  0  0  0  0  0  0  0  0  0  0  # atno 8010 bound_to 7997
  139.5609  144.6881  151.4045 H   0  0  0  0  0  0  0  0  0  0  0  0  # atno 10167 bound_to 10162
  156.5810  130.4774  149.6320 H   0  0  0  0  0  0  0  0  0  0  0  0  # atno 10718 bound_to 10713
  154.0215  135.6668  153.4773 H   0  0  0  0  0  0  0  0  0  0  0  0  # atno 10763 bound_to 10752
  153.0578  135.5046  154.8018 H   0  0  0  0  0  0  0  0  0  0  0  0  # atno 10764 bound_to 10752
  154.6934  135.3065  154.9411 H   0  0  0  0  0  0  0  0  0  0  0  0  # atno 10765 bound_to 10752
  139.9276  134.9641  156.8134 H   0  0  0  0  0  0  0  0  0  0  0  0  # atno 11005 bound_to 11000
  145.6141  141.0334  143.1950 LP  0  0  0  0  0  0  0  0  0  0  0  0  # atno 17320 bound_to 7965
  144.7322  139.7693  143.7343 LP  0  0  0  0  0  0  0  0  0  0  0  0  # atno 17321 bound_to 7965
  140.6889  143.7908  150.7226 LP  0  0  0  0  0  0  0  0  0  0  0  0  # atno 17342 bound_to 10162
  140.1385  143.4462  152.2209 LP  0  0  0  0  0  0  0  0  0  0  0  0  # atno 17343 bound_to 10162
  156.2632  130.6974  151.1749 LP  0  0  0  0  0  0  0  0  0  0  0  0  # atno 17370 bound_to 10713
  157.7326  131.0598  150.5617 LP  0  0  0  0  0  0  0  0  0  0  0  0  # atno 17371 bound_to 10713
  140.6293  133.9921  155.7654 LP  0  0  0  0  0  0  0  0  0  0  0  0  # atno 17394 bound_to 11000
  141.0843  134.0014  157.3337 LP  0  0  0  0  0  0  0  0  0  0  0  0  # atno 17395 bound_to 11000

$$$$
