AV-unprocessed.smi:1809|AV-procd|sdf|7325|dock9
  -GOLD-   22720 8583D 1   1.00000     0.00000
 Structure written by MMmdl.
 39 41  0  0  0  0  0  0  0  0  3 V2000
  142.4110  130.4157  160.1865 C   0  0  0  0  0  0  0  0  0  0  0  0
  142.8288  131.5349  159.2960 C   0  0  0  0  0  0  0  0  0  0  0  0
  142.1715  132.6957  159.2378 N   0  0  0  0  0  0  0  0  0  0  0  0
  142.7490  133.5786  158.3369 N   0  0  0  0  0  0  0  0  0  0  0  0
  143.8241  133.0700  157.7182 C   0  0  0  0  0  0  0  0  0  0  0  0
  144.5281  133.7644  156.8087 N   0  5  0  0  0  0  0  0  0  0  0  0
  143.9637  134.8206  156.1812 C   0  0  0  0  0  0  0  0  0  0  0  0
  144.0110  135.9989  156.5415 O   0  0  0  0  0  0  0  0  0  0  0  0
  143.3017  134.4919  155.0651 N   0  0  0  0  0  0  0  0  0  0  0  0
  142.6046  135.4318  154.1981 C   0  0  0  0  0  0  0  0  0  0  0  0
  143.0867  135.2898  152.7483 C   0  0  2  0  0  0  0  0  0  0  0  0
  142.9456  133.8469  152.2375 C   0  0  0  0  0  0  0  0  0  0  0  0
  143.4614  133.7074  150.8522 N   0  3  2  0  0  0  0  0  0  0  0  0
  143.6099  132.2921  150.4493 C   0  0  0  0  0  0  0  0  0  0  0  0
  145.0804  131.9144  150.7048 C   0  0  0  0  0  0  0  0  0  0  0  0
  145.7807  133.2183  151.1067 C   0  0  0  0  0  0  0  0  0  0  0  0
  144.8006  134.3082  150.6694 C   0  0  2  0  0  0  0  0  0  0  0  0
  144.9543  135.6756  151.3663 C   0  0  0  0  0  0  0  0  0  0  0  0
  144.4672  135.6282  152.6991 O   0  0  0  0  0  0  0  0  0  0  0  0
  144.2234  131.4318  158.2347 S   0  0  0  0  0  0  0  0  0  0  0  0
  141.5826  129.8700  159.7345 H   0  0  0  0  0  0  0  0  0  0  0  0
  142.0918  130.8023  161.1547 H   0  0  0  0  0  0  0  0  0  0  0  0
  143.2407  129.7262  160.3428 H   0  0  0  0  0  0  0  0  0  0  0  0
  143.2816  133.5173  154.8037 H   0  0  0  0  0  0  0  0  0  0  0  0
  141.5280  135.2633  154.2585 H   0  0  0  0  0  0  0  0  0  0  0  0
  142.7942  136.4448  154.5561 H   0  0  0  0  0  0  0  0  0  0  0  0
  142.5096  135.9656  152.1136 H   0  0  0  0  0  0  0  0  0  0  0  0
  143.4877  133.1738  152.9041 H   0  0  0  0  0  0  0  0  0  0  0  0
  141.9000  133.5375  152.2594 H   0  0  0  0  0  0  0  0  0  0  0  0
  142.9111  131.6325  150.9660 H   0  0  0  0  0  0  0  0  0  0  0  0
  143.3950  132.2182  149.3825 H   0  0  0  0  0  0  0  0  0  0  0  0
  145.1700  131.1683  151.4952 H   0  0  0  0  0  0  0  0  0  0  0  0
  145.5252  131.4924  149.8031 H   0  0  0  0  0  0  0  0  0  0  0  0
  145.9178  133.2456  152.1887 H   0  0  0  0  0  0  0  0  0  0  0  0
  146.7625  133.3279  150.6452 H   0  0  0  0  0  0  0  0  0  0  0  0
  144.9394  134.4580  149.5972 H   0  0  0  0  0  0  0  0  0  0  0  0
  146.0010  135.9796  151.3774 H   0  0  0  0  0  0  0  0  0  0  0  0
  144.4137  136.4453  150.8133 H   0  0  0  0  0  0  0  0  0  0  0  0
  142.8074  134.1700  150.2367 H   0  0  0  0  0  0  0  0  0  0  0  0
  1  2  1  0  0  0  0
  1 21  1  0  0  0  0
  1 22  1  0  0  0  0
  1 23  1  0  0  0  0
  2 20  1  0  0  0  0
  2  3  2  0  0  0  0
  3  4  1  0  0  0  0
  4  5  2  0  0  0  0
  5  6  1  0  0  0  0
  5 20  1  0  0  0  0
  6  7  1  0  0  0  0
  7  8  2  0  0  0  0
  7  9  1  0  0  0  0
  9 10  1  0  0  0  0
  9 24  1  0  0  0  0
 10 11  1  0  0  0  0
 10 25  1  0  0  0  0
 10 26  1  0  0  0  0
 11 19  1  0  0  0  0
 11 12  1  0  0  0  0
 11 27  1  0  0  0  0
 12 13  1  0  0  0  0
 12 28  1  0  0  0  0
 12 29  1  0  0  0  0
 13 17  1  0  0  0  0
 13 14  1  0  0  0  0
 13 39  1  0  0  0  0
 14 15  1  0  0  0  0
 14 30  1  0  0  0  0
 14 31  1  0  0  0  0
 15 16  1  0  0  0  0
 15 32  1  0  0  0  0
 15 33  1  0  0  0  0
 16 17  1  0  0  0  0
 16 34  1  0  0  0  0
 16 35  1  0  0  0  0
 17 18  1  0  0  0  0
 17 36  1  0  0  0  0
 18 19  1  0  0  0  0
 18 37  1  0  0  0  0
 18 38  1  0  0  0  0
M  CHG  1   6  -1
M  CHG  1  13   1
M  END
> <s_m_source_file>
AV-unprocessed.smi

> <i_m_source_file_index>
1809

> <i_lp_mmshare_version>
43012

> <i_f3d_flags>
0

> <s_epik_input>
W0NIM11jMW5uYyhzMSlbTkhdQyg9TylbTkhdW0NIMl1bQ0BIXShbQ0gyXTIpT1tDSDJdW0NAQEhdKE4yMylbQ0gyXVtDSDJdW0NIMl0z

> <s_epik_cmdline>
J2VwaWtfcHl0aG9uJywgJy1waCcsICc3LjAnLCAnLXRuJywgJzgnLCAnLW1hJywgJzIwMCcsICctbWV0YWxfYmluZGluZycsICctaW1hZScsICc8aW5maWxlLm1hZT4nLCAnLW9tYWUnLCAnPG91dGZpbGUubWFlPic=

> <r_lp_tautomer_probability>
1

> <r_epik_Ionization_Penalty>
3.2601

> <r_epik_Ionization_Penalty_Charging>
3.1406

> <r_epik_Ionization_Penalty_Neutral>
0.119497

> <r_epik_State_Penalty>
3.08894

> <r_epik_Charging_Adjusted_Penalty>
6.22954

> <i_epik_Tot_Q>
0

> <i_epik_Tot_abs_Q>
2

> <r_epik_Metal_State_Penalty>
0.510807

> <b_epik_Metal_Only>
1

> <s_lp_Force_Field>
OPLS_2005

> <r_lp_Energy>
31.3106

> <b_lp_Chiralities_Consistent>
1

> <s_lp_Variant>
AV-unprocessed.smi:1809-17

> <Gold.Version>
5.8.1

> <Gold.Id.Protein>
6NUR|6NUR_protein|mol2

> <Gold.PLP.Fitness>
40.7401

> <Gold.PLP.PLP>
-30.7532

> <Gold.PLP.part.hbond>
-3.2747

> <Gold.PLP.part.metal>
0.0000

> <Gold.PLP.part.buried>
-6.5886

> <Gold.PLP.part.nonpolar>
-22.0152

> <Gold.PLP.part.repulsive>
0.3037

> <Gold.PLP.ligand.clash>
0.0000

> <Gold.PLP.ligand.torsion>
0.8640

> <Gold.PLP.Chemscore.Hbond>
3.9000

> <Gold.PLP.Chemscore.CHOScore>
0.0000

> <Gold.PLP.Chemscore.Metal>
0.0000

> <Gold.Chemscore.Hbonds>
donor molecule, donor type, donor heavy atom, donor atom, acceptor molecule, acceptor atom, score
      L1  H     9    24       P1 10957  1.00
      L1  H    13    39       P1 10186  2.00
      P1  H 11000 11005       L1     4  0.80

> <Gold.PLP.Chemscore.Internal.Correction>
0.0149

> <Gold.Rescore>
     Score         DG    S(hbond)    S(metal)    S(lipo)     H(rot)  DE(clash)    DE(int)     intcor
     17.91     -18.75       2.76        0.00      63.72       1.32       0.04       0.80       ----

> <Gold.Chemscore.Fitness>
17.9068

> <Gold.Chemscore.DG>
-18.7489

> <Gold.Chemscore.ZeroCoef>
-5.4800

> <Gold.Chemscore.Hbond>
2.7559

> <Gold.Chemscore.Metal>
0.0000

> <Gold.Chemscore.Lipo>
63.7203

> <Gold.Chemscore.Internal_Hbond>
0.0000

> <Gold.Chemscore.DEClash>
0.0431

> <Gold.Chemscore.DEInternal>
0.7991

> <Gold.Chemscore.Rot>
1.3246

> <Gold.Chemscore.Internal.Correction>
   9.000000E+99

> <Gold.Chemscore.Hbonds>
donor molecule, donor type, donor heavy atom, donor atom, acceptor molecule, acceptor atom, score
      L1  H     9    24       P1 10957  0.98
      L1  H    13    39       P1 10186  0.88
      P1  H 11000 11005       L1     4  0.11

> <Gold.Chemscore.Hbond.Weighted>
-9.2046

> <Gold.Chemscore.Metal.Weighted>
-0.0000

> <Gold.Chemscore.Lipo.Weighted>
-7.4553

> <Gold.Chemscore.Internal_Hbond.Weighted>
0.0000

> <Gold.Chemscore.DEClash.Weighted>
0.0431

> <Gold.Chemscore.DEInternal.Weighted>
0.7991

> <Gold.Chemscore.Rot.Weighted>
3.3910

> <Gold.Chemscore.Internal.Correction.Weighted>
   9.000000E+99

> <Gold.Protein.RotatedTorsions>
[ 6907 6896 6895 6894 ] final   29.09 input  -60.11 | X-H torsion
[ 7974 7965 7964 7962 ] final  -74.43 input  175.53 | X-H torsion
[ 8008 7997 7996 7995 ] final -160.47 input   59.86 | X-H torsion
[ 10167 10162 10161 10158 ] final   13.75 input  -65.29 | X-H torsion
[ 10718 10713 10712 10709 ] final -157.07 input   66.30 | X-H torsion
[ 10763 10752 10751 10750 ] final -152.05 input  -60.55 | X-H torsion
[ 11005 11000 10999 10996 ] final -120.52 input  -57.11 | X-H torsion

> <Gold.Protein.ActiveResidues>
 VAL166  LYS551  ARG553  GLY616  TRP617  ASP618  TYR619  PRO620  LYS621  CYS622 
 ASP623  PHE694  ASN695  SER759  ASP760  ASP761  ALA762  ILE779  LEU786  VAL792 
 PHE793  MET794  SER795  GLU796  ALA797  LYS798  CYS799  TRP800  GLU811  SER814 

> <Gold.Protein.RotatedAtoms>
  152.0265  134.9793  160.0571 H   0  0  0  0  0  0  0  0  0  0  0  0  # atno 6907 bound_to 6896
  152.1286  133.4390  159.4718 H   0  0  0  0  0  0  0  0  0  0  0  0  # atno 6908 bound_to 6896
  150.6854  134.2366  159.4499 H   0  0  0  0  0  0  0  0  0  0  0  0  # atno 6909 bound_to 6896
  145.6392  140.9316  143.1045 H   0  0  0  0  0  0  0  0  0  0  0  0  # atno 7974 bound_to 7965
  155.7779  140.0861  157.2074 H   0  0  0  0  0  0  0  0  0  0  0  0  # atno 8008 bound_to 7997
  154.3992  140.1513  156.3075 H   0  0  0  0  0  0  0  0  0  0  0  0  # atno 8009 bound_to 7997
  155.8683  140.3427  155.5806 H   0  0  0  0  0  0  0  0  0  0  0  0  # atno 8010 bound_to 7997
  140.5982  143.8659  150.6938 H   0  0  0  0  0  0  0  0  0  0  0  0  # atno 10167 bound_to 10162
  156.5353  130.8539  151.2730 H   0  0  0  0  0  0  0  0  0  0  0  0  # atno 10718 bound_to 10713
  154.8019  135.3245  154.7529 H   0  0  0  0  0  0  0  0  0  0  0  0  # atno 10763 bound_to 10752
  153.8195  135.6889  153.4833 H   0  0  0  0  0  0  0  0  0  0  0  0  # atno 10764 bound_to 10752
  153.1741  135.4612  154.9885 H   0  0  0  0  0  0  0  0  0  0  0  0  # atno 10765 bound_to 10752
  141.0137  134.0226  157.3378 H   0  0  0  0  0  0  0  0  0  0  0  0  # atno 11005 bound_to 11000
  144.7164  139.8182  143.7397 LP  0  0  0  0  0  0  0  0  0  0  0  0  # atno 17320 bound_to 7965
  146.1295  139.4327  143.0178 LP  0  0  0  0  0  0  0  0  0  0  0  0  # atno 17321 bound_to 7965
  140.2198  143.3818  152.1652 LP  0  0  0  0  0  0  0  0  0  0  0  0  # atno 17342 bound_to 10162
  139.5272  144.7117  151.5185 LP  0  0  0  0  0  0  0  0  0  0  0  0  # atno 17343 bound_to 10162
  157.7415  130.9871  150.2448 LP  0  0  0  0  0  0  0  0  0  0  0  0  # atno 17370 bound_to 10713
  156.3022  130.3760  149.7740 LP  0  0  0  0  0  0  0  0  0  0  0  0  # atno 17371 bound_to 10713
  139.9105  135.0189  156.7670 LP  0  0  0  0  0  0  0  0  0  0  0  0  # atno 17394 bound_to 11000
  140.6690  133.9577  155.7846 LP  0  0  0  0  0  0  0  0  0  0  0  0  # atno 17395 bound_to 11000

$$$$
