AV-unprocessed.smi:2691|AV-procd|sdf|10393|dock5
  -GOLD-   2272014433D 1   1.00000     0.00000
 Structure written by MMmdl.
 50 52  0  0  0  0  0  0  0  0  2 V2000
  152.2789  143.8765  160.1534 C   0  0  0  0  0  0  0  0  0  0  0  0
  152.0655  142.8210  159.0816 C   0  0  0  0  0  0  0  0  0  0  0  0
  151.1377  143.0866  158.0490 C   0  0  0  0  0  0  0  0  0  0  0  0
  150.9621  142.1009  157.0851 C   0  0  0  0  0  0  0  0  0  0  0  0
  150.1348  142.0563  155.9604 N   0  3  0  0  0  0  0  0  0  0  0  0
  150.3071  140.8687  155.3164 C   0  0  0  0  0  0  0  0  0  0  0  0
  151.2340  140.1563  156.0125 N   0  0  0  0  0  0  0  0  0  0  0  0
  151.7740  138.8144  155.7621 C   0  0  0  0  0  0  0  0  0  0  0  0
  151.0020  138.0623  154.6553 C   0  0  1  0  0  0  0  0  0  0  0  0
  151.8903  137.3027  153.8592 O   0  0  0  0  0  0  0  0  0  0  0  0
  149.8268  137.1691  155.1302 C   0  0  0  0  0  0  0  0  0  0  0  0
  150.1966  135.7705  155.4183 N   0  0  0  0  0  0  0  0  0  0  0  0
  149.5276  134.7678  154.6874 C   0  0  0  0  0  0  0  0  0  0  0  0
  149.7851  133.5106  154.8598 N   0  0  0  0  0  0  0  0  0  0  0  0
  150.7576  133.1203  155.7868 C   0  0  0  0  0  0  0  0  0  0  0  0
  151.0101  131.6261  155.9387 C   0  0  0  0  0  0  0  0  0  0  0  0
  152.5097  131.2928  155.8830 C   0  0  0  0  0  0  0  0  0  0  0  0
  150.2101  130.8145  154.9079 C   0  0  0  0  0  0  0  0  0  0  0  0
  151.4305  134.0472  156.5107 C   0  0  0  0  0  0  0  0  0  0  0  0
  151.1607  135.4744  156.3382 C   0  0  0  0  0  0  0  0  0  0  0  0
  151.7594  136.3422  156.9733 O   0  0  0  0  0  0  0  0  0  0  0  0
  151.6718  140.8851  157.1227 C   0  0  0  0  0  0  0  0  0  0  0  0
  152.5910  140.6074  158.1313 C   0  0  0  0  0  0  0  0  0  0  0  0
  152.7842  141.5977  159.1210 C   0  0  0  0  0  0  0  0  0  0  0  0
  153.7811  141.3240  160.2344 C   0  0  0  0  0  0  0  0  0  0  0  0
  151.6237  144.7353  160.0038 H   0  0  0  0  0  0  0  0  0  0  0  0
  153.3082  144.2355  160.1371 H   0  0  0  0  0  0  0  0  0  0  0  0
  152.0696  143.4684  161.1425 H   0  0  0  0  0  0  0  0  0  0  0  0
  150.5874  144.0155  158.0121 H   0  0  0  0  0  0  0  0  0  0  0  0
  149.7959  140.5459  154.4206 H   0  0  0  0  0  0  0  0  0  0  0  0
  152.8216  138.9393  155.4854 H   0  0  0  0  0  0  0  0  0  0  0  0
  151.7615  138.2565  156.6991 H   0  0  0  0  0  0  0  0  0  0  0  0
  150.5794  138.8024  153.9751 H   0  0  0  0  0  0  0  0  0  0  0  0
  151.4651  137.1031  153.0389 H   0  0  0  0  0  0  0  0  0  0  0  0
  149.4028  137.6244  156.0272 H   0  0  0  0  0  0  0  0  0  0  0  0
  149.0053  137.2056  154.4119 H   0  0  0  0  0  0  0  0  0  0  0  0
  148.7797  135.1231  153.9769 H   0  0  0  0  0  0  0  0  0  0  0  0
  150.6539  131.3319  156.9273 H   0  0  0  0  0  0  0  0  0  0  0  0
  153.0655  131.8609  156.6295 H   0  0  0  0  0  0  0  0  0  0  0  0
  152.9378  131.5181  154.9057 H   0  0  0  0  0  0  0  0  0  0  0  0
  152.6821  130.2346  156.0810 H   0  0  0  0  0  0  0  0  0  0  0  0
  149.1440  131.0323  154.9802 H   0  0  0  0  0  0  0  0  0  0  0  0
  150.3377  129.7436  155.0684 H   0  0  0  0  0  0  0  0  0  0  0  0
  150.5266  131.0358  153.8881 H   0  0  0  0  0  0  0  0  0  0  0  0
  152.1804  133.7381  157.2239 H   0  0  0  0  0  0  0  0  0  0  0  0
  153.1348  139.6750  158.1617 H   0  0  0  0  0  0  0  0  0  0  0  0
  154.2809  140.3647  160.0958 H   0  0  0  0  0  0  0  0  0  0  0  0
  153.2777  141.3015  161.2013 H   0  0  0  0  0  0  0  0  0  0  0  0
  154.5494  142.0971  160.2612 H   0  0  0  0  0  0  0  0  0  0  0  0
  149.4960  142.7791  155.6545 H   0  0  0  0  0  0  0  0  0  0  0  0
  1  2  1  0  0  0  0
  1 26  1  0  0  0  0
  1 27  1  0  0  0  0
  1 28  1  0  0  0  0
  2 24  1  0  0  0  0
  2  3  2  0  0  0  0
  3  4  1  0  0  0  0
  3 29  1  0  0  0  0
  4 22  2  0  0  0  0
  4  5  1  0  0  0  0
  5  6  2  0  0  0  0
  5 50  1  0  0  0  0
  6  7  1  0  0  0  0
  6 30  1  0  0  0  0
  7  8  1  0  0  0  0
  7 22  1  0  0  0  0
  8  9  1  0  0  0  0
  8 31  1  0  0  0  0
  8 32  1  0  0  0  0
  9 10  1  0  0  0  0
  9 11  1  0  0  0  0
  9 33  1  0  0  0  0
 10 34  1  0  0  0  0
 11 12  1  0  0  0  0
 11 35  1  0  0  0  0
 11 36  1  0  0  0  0
 12 20  1  0  0  0  0
 12 13  1  0  0  0  0
 13 14  2  0  0  0  0
 13 37  1  0  0  0  0
 14 15  1  0  0  0  0
 15 16  1  0  0  0  0
 15 19  2  0  0  0  0
 16 17  1  0  0  0  0
 16 18  1  0  0  0  0
 16 38  1  0  0  0  0
 17 39  1  0  0  0  0
 17 40  1  0  0  0  0
 17 41  1  0  0  0  0
 18 42  1  0  0  0  0
 18 43  1  0  0  0  0
 18 44  1  0  0  0  0
 19 20  1  0  0  0  0
 19 45  1  0  0  0  0
 20 21  2  0  0  0  0
 22 23  1  0  0  0  0
 23 24  2  0  0  0  0
 23 46  1  0  0  0  0
 24 25  1  0  0  0  0
 25 47  1  0  0  0  0
 25 48  1  0  0  0  0
 25 49  1  0  0  0  0
M  CHG  1   5   1
M  END
> <s_m_source_file>
AV-unprocessed.smi

> <i_m_source_file_index>
2691

> <i_lp_mmshare_version>
43012

> <i_f3d_flags>
0

> <s_epik_input>
W0NIM11jKFtjSF0xKWMoW0NIM10pW2NIXWMoYzEyKW4oW2NIXW4yKVtDSDJdW0NASF0oW09IXSlbQ0gyXW4zW2NIXW5jKFtDSF0oW0NIM10pW0NIM10pW2NIXWMzPU8=

> <s_epik_cmdline>
J2VwaWtfcHl0aG9uJywgJy1waCcsICc3LjAnLCAnLXRuJywgJzgnLCAnLW1hJywgJzIwMCcsICctbWV0YWxfYmluZGluZycsICctaW1hZScsICc8aW5maWxlLm1hZT4nLCAnLW9tYWUnLCAnPG91dGZpbGUubWFlPic=

> <r_lp_tautomer_probability>
1

> <r_epik_Ionization_Penalty>
1.0357

> <r_epik_Ionization_Penalty_Charging>
1.03568

> <r_epik_Ionization_Penalty_Neutral>
1.29543e-05

> <r_epik_State_Penalty>
1.08724

> <r_epik_Charging_Adjusted_Penalty>
2.12292

> <i_epik_Tot_Q>
1

> <i_epik_Tot_abs_Q>
1

> <r_epik_Metal_State_Penalty>
1.18376

> <b_epik_Metal_Only>
0

> <s_lp_Force_Field>
OPLS_2005

> <r_lp_Energy>
24.9035

> <b_lp_Chiralities_Consistent>
1

> <s_lp_Variant>
AV-unprocessed.smi:2691-4

> <Gold.Version>
5.8.1

> <Gold.Id.Protein>
6NUR|6NUR_protein|mol2

> <Gold.PLP.Fitness>
61.9790

> <Gold.PLP.PLP>
-48.9229

> <Gold.PLP.part.hbond>
-3.0000

> <Gold.PLP.part.metal>
0.0000

> <Gold.PLP.part.buried>
-4.5895

> <Gold.PLP.part.nonpolar>
-40.9460

> <Gold.PLP.part.repulsive>
0.2072

> <Gold.PLP.ligand.clash>
0.0000

> <Gold.PLP.ligand.torsion>
1.0428

> <Gold.PLP.Chemscore.Hbond>
4.0000

> <Gold.PLP.Chemscore.CHOScore>
1.0000

> <Gold.PLP.Chemscore.Metal>
0.0000

> <Gold.Chemscore.Hbonds>
donor molecule, donor type, donor heavy atom, donor atom, acceptor molecule, acceptor atom, score
      L1  H     5    50       P1  8028  1.98
      L1  H    10    34       P1  7949  1.00
      P1  H 10752 10764       L1    10  1.00
      L1  C    13    37       P1  7948  1.00

> <Gold.PLP.Chemscore.Internal.Correction>
0.1416

> <Gold.Rescore>
     Score         DG    S(hbond)    S(metal)    S(lipo)     H(rot)  DE(clash)    DE(int)     intcor
     16.61     -18.96       1.85        0.00     117.57       2.52       0.17       2.18       ----

> <Gold.Chemscore.Fitness>
16.6074

> <Gold.Chemscore.DG>
-18.9582

> <Gold.Chemscore.ZeroCoef>
-5.4800

> <Gold.Chemscore.Hbond>
1.8485

> <Gold.Chemscore.Metal>
0.0000

> <Gold.Chemscore.Lipo>
117.5728

> <Gold.Chemscore.Internal_Hbond>
0.0000

> <Gold.Chemscore.DEClash>
0.1732

> <Gold.Chemscore.DEInternal>
2.1776

> <Gold.Chemscore.Rot>
2.5202

> <Gold.Chemscore.Internal.Correction>
   9.000000E+99

> <Gold.Chemscore.Hbonds>
donor molecule, donor type, donor heavy atom, donor atom, acceptor molecule, acceptor atom, score
      L1  H     5    50       P1  8028  0.88
      L1  H    10    34       P1  7949  0.84
      P1  H 10752 10764       L1    10  0.29

> <Gold.Chemscore.Hbond.Weighted>
-6.1739

> <Gold.Chemscore.Metal.Weighted>
-0.0000

> <Gold.Chemscore.Lipo.Weighted>
-13.7560

> <Gold.Chemscore.Internal_Hbond.Weighted>
0.0000

> <Gold.Chemscore.DEClash.Weighted>
0.1732

> <Gold.Chemscore.DEInternal.Weighted>
2.1776

> <Gold.Chemscore.Rot.Weighted>
6.4517

> <Gold.Chemscore.Internal.Correction.Weighted>
   9.000000E+99

> <Gold.Protein.RotatedTorsions>
[ 6907 6896 6895 6894 ] final  -89.49 input  -60.11 | X-H torsion
[ 7974 7965 7964 7962 ] final  115.16 input  175.53 | X-H torsion
[ 8008 7997 7996 7995 ] final  146.48 input   59.86 | X-H torsion
[ 10167 10162 10161 10158 ] final -137.51 input  -65.29 | X-H torsion
[ 10718 10713 10712 10709 ] final   72.65 input   66.30 | X-H torsion
[ 10763 10752 10751 10750 ] final  -87.62 input  -60.55 | X-H torsion
[ 11005 11000 10999 10996 ] final  107.32 input  -57.11 | X-H torsion

> <Gold.Protein.ActiveResidues>
 VAL166  LYS551  ARG553  GLY616  TRP617  ASP618  TYR619  PRO620  LYS621  CYS622 
 ASP623  PHE694  ASN695  SER759  ASP760  ASP761  ALA762  ILE779  LEU786  VAL792 
 PHE793  MET794  SER795  GLU796  ALA797  LYS798  CYS799  TRP800  GLU811  SER814 

> <Gold.Protein.RotatedAtoms>
  150.6874  134.2579  159.4536 H   0  0  0  0  0  0  0  0  0  0  0  0  # atno 6907 bound_to 6896
  152.0511  134.9650  160.0584 H   0  0  0  0  0  0  0  0  0  0  0  0  # atno 6908 bound_to 6896
  152.1114  133.4268  159.4670 H   0  0  0  0  0  0  0  0  0  0  0  0  # atno 6909 bound_to 6896
  145.1954  139.2979  143.4346 H   0  0  0  0  0  0  0  0  0  0  0  0  # atno 7974 bound_to 7965
  156.2854  140.2181  156.5383 H   0  0  0  0  0  0  0  0  0  0  0  0  # atno 8008 bound_to 7997
  154.7391  140.0489  157.0817 H   0  0  0  0  0  0  0  0  0  0  0  0  # atno 8009 bound_to 7997
  155.0254  140.3129  155.4781 H   0  0  0  0  0  0  0  0  0  0  0  0  # atno 8010 bound_to 7997
  139.8571  143.7125  152.2653 H   0  0  0  0  0  0  0  0  0  0  0  0  # atno 10167 bound_to 10162
  157.6511  130.9589  150.0958 H   0  0  0  0  0  0  0  0  0  0  0  0  # atno 10718 bound_to 10713
  154.6356  135.5407  153.7730 H   0  0  0  0  0  0  0  0  0  0  0  0  # atno 10763 bound_to 10752
  153.0307  135.6446  154.1236 H   0  0  0  0  0  0  0  0  0  0  0  0  # atno 10764 bound_to 10752
  154.1164  135.2923  155.3198 H   0  0  0  0  0  0  0  0  0  0  0  0  # atno 10765 bound_to 10752
  139.8826  134.9397  156.5801 H   0  0  0  0  0  0  0  0  0  0  0  0  # atno 11005 bound_to 11000
  146.3428  140.2181  142.8591 LP  0  0  0  0  0  0  0  0  0  0  0  0  # atno 17320 bound_to 7965
  145.0000  140.8623  143.5287 LP  0  0  0  0  0  0  0  0  0  0  0  0  # atno 17321 bound_to 7965
  139.7409  144.7559  151.0653 LP  0  0  0  0  0  0  0  0  0  0  0  0  # atno 17342 bound_to 10162
  140.7780  143.4973  150.9816 LP  0  0  0  0  0  0  0  0  0  0  0  0  # atno 17343 bound_to 10162
  156.1894  130.3654  149.8929 LP  0  0  0  0  0  0  0  0  0  0  0  0  # atno 17370 bound_to 10713
  156.6861  130.8877  151.3582 LP  0  0  0  0  0  0  0  0  0  0  0  0  # atno 17371 bound_to 10713
  140.8033  133.8487  155.8746 LP  0  0  0  0  0  0  0  0  0  0  0  0  # atno 17394 bound_to 11000
  140.9572  134.1702  157.4682 LP  0  0  0  0  0  0  0  0  0  0  0  0  # atno 17395 bound_to 11000

$$$$
