AV-unprocessed.smi:126|AV-procd|sdf|1151|dock2
  -GOLD-   2262018283D 1   1.00000     0.00000
 Structure written by MMmdl.
 40 42  0  0  0  0  0  0  0  0  1 V2000
  154.4251  139.9002  158.7493 O   0  0  0  0  0  0  0  0  0  0  0  0
  154.6169  139.8326  159.9643 C   0  0  0  0  0  0  0  0  0  0  0  0
  155.4179  138.6651  160.5621 C   0  0  0  0  0  0  0  0  0  0  0  0
  155.2403  138.5144  162.0229 N   0  0  0  0  0  0  0  0  0  0  0  0
  154.4275  137.4601  162.5083 C   0  0  0  0  0  0  0  0  0  0  0  0
  153.8663  136.6792  161.7386 O   0  0  0  0  0  0  0  0  0  0  0  0
  154.3151  137.3687  163.9597 C   0  0  0  0  0  0  0  0  0  0  0  0
  153.5586  136.4034  164.5090 F   0  0  0  0  0  0  0  0  0  0  0  0
  154.9597  138.2396  164.7635 C   0  0  0  0  0  0  0  0  0  0  0  0
  155.7587  139.2578  164.2754 N   0  0  0  0  0  0  0  0  0  0  0  0
  156.4870  140.2167  165.1918 C   0  0  2  0  0  0  0  0  0  0  0  0
  156.1681  139.9032  166.6642 C   0  0  0  0  0  0  0  0  0  0  0  0
  155.8044  141.2650  167.2201 C   0  0  0  0  0  0  0  0  0  0  0  0
  155.2064  141.9501  166.0004 C   0  0  0  0  0  0  0  0  0  0  0  0
  156.0605  141.5268  164.9452 O   0  0  0  0  0  0  0  0  0  0  0  0
  155.9170  139.4129  162.8815 C   0  0  0  0  0  0  0  0  0  0  0  0
  156.6352  140.3060  162.4267 O   0  0  0  0  0  0  0  0  0  0  0  0
  154.1366  140.7128  160.8614 N   0  0  0  0  0  0  0  0  0  0  0  0
  153.3830  141.8952  160.6294 C   0  0  0  0  0  0  0  0  0  0  0  0
  152.8886  142.5788  161.7603 C   0  0  0  0  0  0  0  0  0  0  0  0
  152.1495  143.7680  161.6099 C   0  0  0  0  0  0  0  0  0  0  0  0
  151.9081  144.2896  160.3252 C   0  0  0  0  0  0  0  0  0  0  0  0
  152.4121  143.6242  159.1919 C   0  0  0  0  0  0  0  0  0  0  0  0
  153.1515  142.4344  159.3402 C   0  0  0  0  0  0  0  0  0  0  0  0
  155.1378  137.7438  160.0480 H   0  0  0  0  0  0  0  0  0  0  0  0
  156.4679  138.8034  160.3002 H   0  0  0  0  0  0  0  0  0  0  0  0
  154.8340  138.1182  165.8283 H   0  0  0  0  0  0  0  0  0  0  0  0
  157.5447  140.1330  164.9359 H   0  0  0  0  0  0  0  0  0  0  0  0
  155.3148  139.2260  166.7287 H   0  0  0  0  0  0  0  0  0  0  0  0
  157.0232  139.4455  167.1625 H   0  0  0  0  0  0  0  0  0  0  0  0
  155.1150  141.2130  168.0630 H   0  0  0  0  0  0  0  0  0  0  0  0
  156.7033  141.7921  167.5424 H   0  0  0  0  0  0  0  0  0  0  0  0
  154.1877  141.6034  165.8225 H   0  0  0  0  0  0  0  0  0  0  0  0
  155.1898  143.0364  166.0912 H   0  0  0  0  0  0  0  0  0  0  0  0
  154.2824  140.4762  161.8321 H   0  0  0  0  0  0  0  0  0  0  0  0
  153.0701  142.1893  162.7515 H   0  0  0  0  0  0  0  0  0  0  0  0
  151.7693  144.2810  162.4809 H   0  0  0  0  0  0  0  0  0  0  0  0
  151.3429  145.2025  160.2092 H   0  0  0  0  0  0  0  0  0  0  0  0
  152.2368  144.0297  158.2064 H   0  0  0  0  0  0  0  0  0  0  0  0
  153.5430  141.9619  158.4526 H   0  0  0  0  0  0  0  0  0  0  0  0
  1  2  2  0  0  0  0
  2  3  1  0  0  0  0
  2 18  1  0  0  0  0
  3  4  1  0  0  0  0
  3 25  1  0  0  0  0
  3 26  1  0  0  0  0
  4 16  1  0  0  0  0
  4  5  1  0  0  0  0
  5  6  2  0  0  0  0
  5  7  1  0  0  0  0
  7  8  1  0  0  0  0
  7  9  2  0  0  0  0
  9 10  1  0  0  0  0
  9 27  1  0  0  0  0
 10 11  1  0  0  0  0
 10 16  1  0  0  0  0
 11 15  1  0  0  0  0
 11 12  1  0  0  0  0
 11 28  1  0  0  0  0
 12 13  1  0  0  0  0
 12 29  1  0  0  0  0
 12 30  1  0  0  0  0
 13 14  1  0  0  0  0
 13 31  1  0  0  0  0
 13 32  1  0  0  0  0
 14 15  1  0  0  0  0
 14 33  1  0  0  0  0
 14 34  1  0  0  0  0
 16 17  2  0  0  0  0
 18 19  1  0  0  0  0
 18 35  1  0  0  0  0
 19 24  1  0  0  0  0
 19 20  2  0  0  0  0
 20 21  1  0  0  0  0
 20 36  1  0  0  0  0
 21 22  2  0  0  0  0
 21 37  1  0  0  0  0
 22 23  1  0  0  0  0
 22 38  1  0  0  0  0
 23 24  2  0  0  0  0
 23 39  1  0  0  0  0
 24 40  1  0  0  0  0
M  END
> <s_m_source_file>
AV-unprocessed.smi

> <i_m_source_file_index>
126

> <i_lp_mmshare_version>
43012

> <i_f3d_flags>
0

> <s_epik_input>
W2NIXTFbY0hdW2NIXVtjSF1bY0hdYzFbTkhdQyg9TylbQ0gyXW4yYyg9TyljKEYpW2NIXW4oYzI9TylbQ0BASF0zW0NIMl1bQ0gyXVtDSDJdTzM=

> <s_epik_cmdline>
J2VwaWtfcHl0aG9uJywgJy1waCcsICc3LjAnLCAnLXRuJywgJzgnLCAnLW1hJywgJzIwMCcsICctbWV0YWxfYmluZGluZycsICctaW1hZScsICc8aW5maWxlLm1hZT4nLCAnLW9tYWUnLCAnPG91dGZpbGUubWFlPic=

> <r_lp_tautomer_probability>
1

> <r_epik_Ionization_Penalty>
1.86934e-06

> <r_epik_Ionization_Penalty_Charging>
3.88729e-08

> <r_epik_Ionization_Penalty_Neutral>
1.83046e-06

> <r_epik_State_Penalty>
-0

> <r_epik_Charging_Adjusted_Penalty>
3.88729e-08

> <i_epik_Tot_Q>
0

> <i_epik_Tot_abs_Q>
0

> <r_epik_Metal_State_Penalty>
-0

> <b_epik_Metal_Only>
0

> <s_epik_Chemistry_Notes>
This compound contains an acetal/aminal-like group ( X-CH(R)-Y where X, Y are N, S, or O) that may be acid/base labile, releasing an aldehyde.

> <s_lp_Force_Field>
OPLS_2005

> <r_lp_Energy>
33.0924

> <b_lp_Chiralities_Consistent>
1

> <s_lp_Variant>
AV-unprocessed.smi:126-1

> <Gold.Version>
5.8.1

> <Gold.Id.Protein>
6NUR|6NUR_protein|mol2

> <Gold.PLP.Fitness>
52.8419

> <Gold.PLP.PLP>
-50.9830

> <Gold.PLP.part.hbond>
-2.9943

> <Gold.PLP.part.metal>
0.0000

> <Gold.PLP.part.buried>
-4.9087

> <Gold.PLP.part.nonpolar>
-42.4784

> <Gold.PLP.part.repulsive>
0.0239

> <Gold.PLP.ligand.clash>
0.3316

> <Gold.PLP.ligand.torsion>
0.4145

> <Gold.PLP.Chemscore.Hbond>
1.0000

> <Gold.PLP.Chemscore.CHOScore>
0.0000

> <Gold.PLP.Chemscore.Metal>
0.0000

> <Gold.Chemscore.Hbonds>
donor molecule, donor type, donor heavy atom, donor atom, acceptor molecule, acceptor atom, score
      P1  H  7997  8008       L1     1  1.00

> <Gold.PLP.Chemscore.Internal.Correction>
0.0196

> <Gold.Rescore>
     Score         DG    S(hbond)    S(metal)    S(lipo)     H(rot)  DE(clash)    DE(int)     intcor
     12.57     -16.65       1.00        0.00     103.32       1.66       0.06       4.01       ----

> <Gold.Chemscore.Fitness>
12.5742

> <Gold.Chemscore.DG>
-16.6519

> <Gold.Chemscore.ZeroCoef>
-5.4800

> <Gold.Chemscore.Hbond>
0.9997

> <Gold.Chemscore.Metal>
0.0000

> <Gold.Chemscore.Lipo>
103.3164

> <Gold.Chemscore.Internal_Hbond>
0.0000

> <Gold.Chemscore.DEClash>
0.0649

> <Gold.Chemscore.DEInternal>
4.0127

> <Gold.Chemscore.Rot>
1.6621

> <Gold.Chemscore.Internal.Correction>
   9.000000E+99

> <Gold.Chemscore.Hbonds>
donor molecule, donor type, donor heavy atom, donor atom, acceptor molecule, acceptor atom, score
      P1  H  7997  8008       L1     1  0.94

> <Gold.Chemscore.Hbond.Weighted>
-3.3389

> <Gold.Chemscore.Metal.Weighted>
-0.0000

> <Gold.Chemscore.Lipo.Weighted>
-12.0880

> <Gold.Chemscore.Internal_Hbond.Weighted>
0.0000

> <Gold.Chemscore.DEClash.Weighted>
0.0649

> <Gold.Chemscore.DEInternal.Weighted>
4.0127

> <Gold.Chemscore.Rot.Weighted>
4.2550

> <Gold.Chemscore.Internal.Correction.Weighted>
   9.000000E+99

> <Gold.Protein.RotatedTorsions>
[ 6907 6896 6895 6894 ] final  -57.06 input  -60.11 | X-H torsion
[ 7974 7965 7964 7962 ] final   76.99 input  175.53 | X-H torsion
[ 8008 7997 7996 7995 ] final -120.16 input   59.86 | X-H torsion
[ 10167 10162 10161 10158 ] final   72.75 input  -65.29 | X-H torsion
[ 10718 10713 10712 10709 ] final    4.82 input   66.30 | X-H torsion
[ 10763 10752 10751 10750 ] final   -0.43 input  -60.55 | X-H torsion
[ 11005 11000 10999 10996 ] final  -55.21 input  -57.11 | X-H torsion

> <Gold.Protein.ActiveResidues>
 VAL166  LYS551  ARG553  GLY616  TRP617  ASP618  TYR619  PRO620  LYS621  CYS622 
 ASP623  PHE694  ASN695  SER759  ASP760  ASP761  ALA762  ILE779  LEU786  VAL792 
 PHE793  MET794  SER795  GLU796  ALA797  LYS798  CYS799  TRP800  GLU811  SER814 

> <Gold.Protein.RotatedAtoms>
  150.8117  134.7275  159.6693 H   0  0  0  0  0  0  0  0  0  0  0  0  # atno 6907 bound_to 6896
  152.4236  134.5906  159.9983 H   0  0  0  0  0  0  0  0  0  0  0  0  # atno 6908 bound_to 6896
  151.6114  133.3310  159.3104 H   0  0  0  0  0  0  0  0  0  0  0  0  # atno 6909 bound_to 6896
  145.6958  139.2566  143.1734 H   0  0  0  0  0  0  0  0  0  0  0  0  # atno 7974 bound_to 7965
  155.1273  140.0399  157.2765 H   0  0  0  0  0  0  0  0  0  0  0  0  # atno 8008 bound_to 7997
  154.6569  140.2582  155.7126 H   0  0  0  0  0  0  0  0  0  0  0  0  # atno 8009 bound_to 7997
  156.2602  140.2825  156.1025 H   0  0  0  0  0  0  0  0  0  0  0  0  # atno 8010 bound_to 7997
  140.0319  144.5459  150.7501 H   0  0  0  0  0  0  0  0  0  0  0  0  # atno 10167 bound_to 10162
  156.8983  130.5712  149.5648 H   0  0  0  0  0  0  0  0  0  0  0  0  # atno 10718 bound_to 10713
  153.3317  135.6975  153.6942 H   0  0  0  0  0  0  0  0  0  0  0  0  # atno 10763 bound_to 10752
  153.5741  135.3510  155.2850 H   0  0  0  0  0  0  0  0  0  0  0  0  # atno 10764 bound_to 10752
  154.8619  135.4279  154.2508 H   0  0  0  0  0  0  0  0  0  0  0  0  # atno 10765 bound_to 10752
  141.1063  133.6613  156.4436 H   0  0  0  0  0  0  0  0  0  0  0  0  # atno 11005 bound_to 11000
  146.0842  140.7730  142.9627 LP  0  0  0  0  0  0  0  0  0  0  0  0  # atno 17320 bound_to 7965
  144.6983  140.3536  143.7177 LP  0  0  0  0  0  0  0  0  0  0  0  0  # atno 17321 bound_to 7965
  140.7298  143.2677  151.3991 LP  0  0  0  0  0  0  0  0  0  0  0  0  # atno 17342 bound_to 10162
  139.6071  144.1175  152.2260 LP  0  0  0  0  0  0  0  0  0  0  0  0  # atno 17343 bound_to 10162
  156.0594  130.5650  150.9161 LP  0  0  0  0  0  0  0  0  0  0  0  0  # atno 17370 bound_to 10713
  157.6042  131.0940  150.8909 LP  0  0  0  0  0  0  0  0  0  0  0  0  # atno 17371 bound_to 10713
  140.4893  134.6590  157.5204 LP  0  0  0  0  0  0  0  0  0  0  0  0  # atno 17394 bound_to 11000
  139.9935  134.6948  155.9649 LP  0  0  0  0  0  0  0  0  0  0  0  0  # atno 17395 bound_to 11000

$$$$
