AV-unprocessed.smi:209|AV-procd|sdf|1607|dock10
  -GOLD-   2262019523D 1   1.00000     0.00000
 Structure written by MMmdl.
 48 52  0  0  0  0  0  0  0  0  1 V2000
  143.6914  131.3147  150.4128 O   0  0  0  0  0  0  0  0  0  0  0  0
  144.0935  132.4681  150.5503 C   0  0  0  0  0  0  0  0  0  0  0  0
  143.3536  133.5715  150.4545 N   0  0  0  0  0  0  0  0  0  0  0  0
  144.0956  134.7837  150.7569 C   0  0  0  0  0  0  0  0  0  0  0  0
  145.4200  134.2844  151.3863 C   0  0  2  0  0  0  0  0  0  0  0  0
  145.5422  132.8461  150.8257 C   0  0  1  0  0  0  0  0  0  0  0  0
  146.3562  131.8597  151.6899 C   0  0  0  0  0  0  0  0  0  0  0  0
  146.0561  132.0137  153.1832 C   0  0  0  0  0  0  0  0  0  0  0  0
  146.2533  133.4733  153.6026 C   0  0  0  0  0  0  0  0  0  0  0  0
  145.3438  134.3399  152.8583 N   0  0  0  0  0  0  0  0  0  0  0  0
  145.2087  135.5588  153.4415 C   0  0  0  0  0  0  0  0  0  0  0  0
  144.0344  136.2376  153.3418 N   0  0  0  0  0  0  0  0  0  0  0  0
  143.9011  137.4404  153.9086 C   0  0  0  0  0  0  0  0  0  0  0  0
  144.7983  138.1370  154.6088 N   0  0  0  0  0  0  0  0  0  0  0  0
  145.9777  137.4604  154.7133 C   0  0  0  0  0  0  0  0  0  0  0  0
  146.2653  136.1791  154.1648 C   0  0  0  0  0  0  0  0  0  0  0  0
  147.5655  135.8082  154.4848 N   0  0  0  0  0  0  0  0  0  0  0  0
  148.0225  136.8154  155.1777 C   0  0  0  0  0  0  0  0  0  0  0  0
  147.1382  137.8556  155.3565 N   0  0  0  0  0  0  0  0  0  0  0  0
  147.3782  139.0914  156.0865 C   0  0  0  0  0  0  0  0  0  0  0  0
  148.0780  140.1826  155.2549 C   0  0  0  0  0  0  0  0  0  0  0  0
  147.0194  141.2031  154.7900 C   0  0  0  0  0  0  0  0  0  0  0  0
  147.5869  142.4502  154.4405 O   0  0  0  0  0  0  0  0  0  0  0  0
  149.3481  140.7636  155.8927 C   0  0  0  0  0  0  0  0  0  0  0  0
  150.1395  140.4849  154.7166 O   0  0  0  0  0  0  0  0  0  0  0  0
  149.0578  139.6917  154.1796 C   0  0  0  0  0  0  0  0  0  0  0  0
  146.2636  134.8860  151.0454 H   0  0  0  0  0  0  0  0  0  0  0  0
  146.0129  132.8959  149.8425 H   0  0  0  0  0  0  0  0  0  0  0  0
  142.3612  133.5726  150.2677 H   0  0  0  0  0  0  0  0  0  0  0  0
  144.2915  135.3097  149.8219 H   0  0  0  0  0  0  0  0  0  0  0  0
  143.5139  135.4489  151.3957 H   0  0  0  0  0  0  0  0  0  0  0  0
  146.1776  130.8304  151.3761 H   0  0  0  0  0  0  0  0  0  0  0  0
  147.4185  132.0422  151.5230 H   0  0  0  0  0  0  0  0  0  0  0  0
  145.0348  131.6969  153.3984 H   0  0  0  0  0  0  0  0  0  0  0  0
  146.7137  131.3659  153.7633 H   0  0  0  0  0  0  0  0  0  0  0  0
  146.0908  133.5605  154.6772 H   0  0  0  0  0  0  0  0  0  0  0  0
  147.2814  133.7854  153.4136 H   0  0  0  0  0  0  0  0  0  0  0  0
  142.9381  137.9125  153.7815 H   0  0  0  0  0  0  0  0  0  0  0  0
  149.0245  136.8240  155.5812 H   0  0  0  0  0  0  0  0  0  0  0  0
  146.4250  139.4571  156.4704 H   0  0  0  0  0  0  0  0  0  0  0  0
  147.9713  138.8417  156.9672 H   0  0  0  0  0  0  0  0  0  0  0  0
  146.4803  140.8404  153.9150 H   0  0  0  0  0  0  0  0  0  0  0  0
  146.2779  141.3757  155.5707 H   0  0  0  0  0  0  0  0  0  0  0  0
  147.5247  143.0288  155.1852 H   0  0  0  0  0  0  0  0  0  0  0  0
  149.2927  141.8287  156.1201 H   0  0  0  0  0  0  0  0  0  0  0  0
  149.7047  140.2047  156.7593 H   0  0  0  0  0  0  0  0  0  0  0  0
  149.2812  138.6257  154.2320 H   0  0  0  0  0  0  0  0  0  0  0  0
  148.7893  139.9818  153.1632 H   0  0  0  0  0  0  0  0  0  0  0  0
  1  2  2  0  0  0  0
  2  6  1  0  0  0  0
  2  3  1  0  0  0  0
  3  4  1  0  0  0  0
  3 29  1  0  0  0  0
  4  5  1  0  0  0  0
  4 30  1  0  0  0  0
  4 31  1  0  0  0  0
  5 27  1  0  0  0  0
  5 10  1  0  0  0  0
  5  6  1  0  0  0  0
  6 28  1  0  0  0  0
  6  7  1  0  0  0  0
  7  8  1  0  0  0  0
  7 32  1  0  0  0  0
  7 33  1  0  0  0  0
  8  9  1  0  0  0  0
  8 34  1  0  0  0  0
  8 35  1  0  0  0  0
  9 10  1  0  0  0  0
  9 36  1  0  0  0  0
  9 37  1  0  0  0  0
 10 11  1  0  0  0  0
 11 16  1  0  0  0  0
 11 12  2  0  0  0  0
 12 13  1  0  0  0  0
 13 14  2  0  0  0  0
 13 38  1  0  0  0  0
 14 15  1  0  0  0  0
 15 19  1  0  0  0  0
 15 16  2  0  0  0  0
 16 17  1  0  0  0  0
 17 18  2  0  0  0  0
 18 19  1  0  0  0  0
 18 39  1  0  0  0  0
 19 20  1  0  0  0  0
 20 21  1  0  0  0  0
 20 40  1  0  0  0  0
 20 41  1  0  0  0  0
 21 26  1  0  0  0  0
 21 22  1  0  0  0  0
 21 24  1  0  0  0  0
 22 23  1  0  0  0  0
 22 42  1  0  0  0  0
 22 43  1  0  0  0  0
 23 44  1  0  0  0  0
 24 25  1  0  0  0  0
 24 45  1  0  0  0  0
 24 46  1  0  0  0  0
 25 26  1  0  0  0  0
 26 47  1  0  0  0  0
 26 48  1  0  0  0  0
M  END
> <s_m_source_file>
AV-unprocessed.smi

> <i_m_source_file_index>
209

> <i_lp_mmshare_version>
43012

> <i_f3d_flags>
0

> <s_epik_input>
W0NIMl0xW05IXUMoPU8pW0NAQEhdKFtDQEBIXTEyKVtDSDJdW0NIMl1bQ0gyXU4yYyhuW2NIXW4zKWMoYzM0KW5bY0hdbjRbQ0gyXUM1KFtDSDJdW09IXSlbQ0gyXU9bQ0gyXTU=

> <s_epik_cmdline>
J2VwaWtfcHl0aG9uJywgJy1waCcsICc3LjAnLCAnLXRuJywgJzgnLCAnLW1hJywgJzIwMCcsICctbWV0YWxfYmluZGluZycsICctaW1hZScsICc8aW5maWxlLm1hZT4nLCAnLW9tYWUnLCAnPG91dGZpbGUubWFlPic=

> <r_lp_tautomer_probability>
1

> <r_epik_Ionization_Penalty>
0.00113306

> <r_epik_Ionization_Penalty_Charging>
0

> <r_epik_Ionization_Penalty_Neutral>
0.00113306

> <r_epik_State_Penalty>
0.000624042

> <r_epik_Charging_Adjusted_Penalty>
0.000624042

> <i_epik_Tot_Q>
0

> <i_epik_Tot_abs_Q>
0

> <r_epik_Metal_State_Penalty>
-0

> <b_epik_Metal_Only>
0

> <s_lp_Force_Field>
OPLS_2005

> <r_lp_Energy>
50.3938

> <b_lp_Chiralities_Consistent>
1

> <s_lp_Variant>
AV-unprocessed.smi:209-1

> <Gold.Version>
5.8.1

> <Gold.Id.Protein>
6NUR|6NUR_protein|mol2

> <Gold.PLP.Fitness>
41.4159

> <Gold.PLP.PLP>
-30.0519

> <Gold.PLP.part.hbond>
-5.0000

> <Gold.PLP.part.metal>
0.0000

> <Gold.PLP.part.buried>
-2.8316

> <Gold.PLP.part.nonpolar>
-22.8029

> <Gold.PLP.part.repulsive>
1.8681

> <Gold.PLP.ligand.clash>
0.0000

> <Gold.PLP.ligand.torsion>
1.9783

> <Gold.PLP.Chemscore.Hbond>
3.8870

> <Gold.PLP.Chemscore.CHOScore>
0.9879

> <Gold.PLP.Chemscore.Metal>
0.0000

> <Gold.Chemscore.Hbonds>
donor molecule, donor type, donor heavy atom, donor atom, acceptor molecule, acceptor atom, score
      L1  H     3    29       P1 10186  0.94
      L1  H    23    44       P1  8028  0.33
      P1  H  7989  7998       L1    25  0.94
      P1  H 10785 10796       L1     1  0.65
      L1  C    13    38       P1 10175  0.01

> <Gold.PLP.Chemscore.Internal.Correction>
0.6958

> <Gold.Rescore>
     Score         DG    S(hbond)    S(metal)    S(lipo)     H(rot)  DE(clash)    DE(int)     intcor
     11.42     -16.67       3.35        0.00      58.15       2.66       1.17       4.08       ----

> <Gold.Chemscore.Fitness>
11.4179

> <Gold.Chemscore.DG>
-16.6687

> <Gold.Chemscore.ZeroCoef>
-5.4800

> <Gold.Chemscore.Hbond>
3.3531

> <Gold.Chemscore.Metal>
0.0000

> <Gold.Chemscore.Lipo>
58.1542

> <Gold.Chemscore.Internal_Hbond>
0.0000

> <Gold.Chemscore.DEClash>
1.1668

> <Gold.Chemscore.DEInternal>
4.0841

> <Gold.Chemscore.Rot>
2.6620

> <Gold.Chemscore.Internal.Correction>
   9.000000E+99

> <Gold.Chemscore.Hbonds>
donor molecule, donor type, donor heavy atom, donor atom, acceptor molecule, acceptor atom, score
      L1  H     3    29       P1 10186  0.91
      L1  H    23    44       P1  8028  0.13
      P1  H  7989  7998       L1    25  0.83
      P1  H 10785 10796       L1     1  0.64

> <Gold.Chemscore.Hbond.Weighted>
-11.1995

> <Gold.Chemscore.Metal.Weighted>
-0.0000

> <Gold.Chemscore.Lipo.Weighted>
-6.8040

> <Gold.Chemscore.Internal_Hbond.Weighted>
0.0000

> <Gold.Chemscore.DEClash.Weighted>
1.1668

> <Gold.Chemscore.DEInternal.Weighted>
4.0841

> <Gold.Chemscore.Rot.Weighted>
6.8148

> <Gold.Chemscore.Internal.Correction.Weighted>
   9.000000E+99

> <Gold.Protein.RotatedTorsions>
[ 6907 6896 6895 6894 ] final -142.42 input  -60.11 | X-H torsion
[ 7974 7965 7964 7962 ] final -168.32 input  175.53 | X-H torsion
[ 8008 7997 7996 7995 ] final -147.02 input   59.86 | X-H torsion
[ 10167 10162 10161 10158 ] final -138.24 input  -65.29 | X-H torsion
[ 10718 10713 10712 10709 ] final -123.83 input   66.30 | X-H torsion
[ 10763 10752 10751 10750 ] final -148.40 input  -60.55 | X-H torsion
[ 11005 11000 10999 10996 ] final   48.76 input  -57.11 | X-H torsion

> <Gold.Protein.ActiveResidues>
 VAL166  LYS551  ARG553  GLY616  TRP617  ASP618  TYR619  PRO620  LYS621  CYS622 
 ASP623  PHE694  ASN695  SER759  ASP760  ASP761  ALA762  ILE779  LEU786  VAL792 
 PHE793  MET794  SER795  GLU796  ALA797  LYS798  CYS799  TRP800  GLU811  SER814 

> <Gold.Protein.RotatedAtoms>
  151.0869  133.5346  159.2617 H   0  0  0  0  0  0  0  0  0  0  0  0  # atno 6907 bound_to 6896
  151.2228  135.0524  159.8966 H   0  0  0  0  0  0  0  0  0  0  0  0  # atno 6908 bound_to 6896
  152.5430  134.0669  159.8230 H   0  0  0  0  0  0  0  0  0  0  0  0  # atno 6909 bound_to 6896
  144.7205  140.2387  143.6294 H   0  0  0  0  0  0  0  0  0  0  0  0  # atno 7974 bound_to 7965
  155.5688  140.0632  157.2811 H   0  0  0  0  0  0  0  0  0  0  0  0  # atno 8008 bound_to 7997
  154.4367  140.1872  156.0904 H   0  0  0  0  0  0  0  0  0  0  0  0  # atno 8009 bound_to 7997
  156.0392  140.3297  155.7228 H   0  0  0  0  0  0  0  0  0  0  0  0  # atno 8010 bound_to 7997
  139.8498  143.7214  152.2658 H   0  0  0  0  0  0  0  0  0  0  0  0  # atno 10167 bound_to 10162
  156.1535  130.6551  150.9948 H   0  0  0  0  0  0  0  0  0  0  0  0  # atno 10718 bound_to 10713
  154.8235  135.3335  154.6967 H   0  0  0  0  0  0  0  0  0  0  0  0  # atno 10763 bound_to 10752
  153.7597  135.6933  153.4932 H   0  0  0  0  0  0  0  0  0  0  0  0  # atno 10764 bound_to 10752
  153.2119  135.4479  155.0339 H   0  0  0  0  0  0  0  0  0  0  0  0  # atno 10765 bound_to 10752
  140.1162  134.4889  155.8635 H   0  0  0  0  0  0  0  0  0  0  0  0  # atno 11005 bound_to 11000
  145.8341  139.2099  143.1866 LP  0  0  0  0  0  0  0  0  0  0  0  0  # atno 17320 bound_to 7965
  146.0405  140.8170  142.9831 LP  0  0  0  0  0  0  0  0  0  0  0  0  # atno 17321 bound_to 7965
  139.7477  144.7543  151.0555 LP  0  0  0  0  0  0  0  0  0  0  0  0  # atno 17342 bound_to 10162
  140.7789  143.4897  150.9909 LP  0  0  0  0  0  0  0  0  0  0  0  0  # atno 17343 bound_to 10162
  157.6676  131.0868  150.7690 LP  0  0  0  0  0  0  0  0  0  0  0  0  # atno 17370 bound_to 10713
  156.7757  130.4843  149.5410 LP  0  0  0  0  0  0  0  0  0  0  0  0  # atno 17371 bound_to 10713
  141.2141  133.6744  156.6801 LP  0  0  0  0  0  0  0  0  0  0  0  0  # atno 17394 bound_to 11000
  140.3025  134.8152  157.4110 LP  0  0  0  0  0  0  0  0  0  0  0  0  # atno 17395 bound_to 11000

$$$$
