AV-unprocessed.smi:266|AV-procd|sdf|2037|dock7
  -GOLD-   2262021253D 1   1.00000     0.00000
 Structure written by MMmdl.
 52 55  0  0  0  0  0  0  0  0  1 V2000
  144.6886  132.4297  148.7226 C   0  0  0  0  0  0  0  0  0  0  0  0
  144.6049  132.6200  150.2470 C   0  0  2  0  0  0  0  0  0  0  0  0
  143.5388  133.5409  150.4869 O   0  0  0  0  0  0  0  0  0  0  0  0
  143.9783  134.6097  151.3127 C   0  0  0  0  0  0  0  0  0  0  0  0
  145.4703  134.6978  151.0321 C   0  0  0  0  0  0  0  0  0  0  0  0
  145.8620  133.2286  150.9197 C   0  0  2  0  0  0  0  0  0  0  0  0
  147.0218  133.1236  150.1127 O   0  0  0  0  0  0  0  0  0  0  0  0
  146.1504  132.5423  152.2823 C   0  0  0  0  0  0  0  0  0  0  0  0
  147.2404  133.1413  153.0381 N   0  0  0  0  0  0  0  0  0  0  0  0
  148.4669  132.5742  153.2989 C   0  0  0  0  0  0  0  0  0  0  0  0
  149.2823  133.3119  154.0006 N   0  0  0  0  0  0  0  0  0  0  0  0
  148.5759  134.4882  154.2248 C   0  0  0  0  0  0  0  0  0  0  0  0
  148.8557  135.7121  154.9019 C   0  0  0  0  0  0  0  0  0  0  0  0
  150.0145  136.0156  155.5360 N   0  0  0  0  0  0  0  0  0  0  0  0
  150.7540  134.8310  155.9499 C   0  0  0  0  0  0  0  0  0  0  0  0
  150.8012  137.1602  155.0772 C   0  0  0  0  0  0  0  0  0  0  0  0
  151.4087  138.0025  156.2196 C   0  0  1  0  0  0  0  0  0  0  0  0
  150.3672  138.4403  157.2699 C   0  0  0  0  0  0  0  0  0  0  0  0
  151.1072  139.0007  158.4888 C   0  0  0  0  0  0  0  0  0  0  0  0
  152.6630  138.0413  158.6078 S   0  0  0  0  0  0  0  0  0  0  0  0
  153.8002  138.9740  158.6073 O   0  0  0  0  0  0  0  0  0  0  0  0
  152.5289  137.0108  159.6485 O   0  0  0  0  0  0  0  0  0  0  0  0
  152.5217  137.2483  156.9615 C   0  0  0  0  0  0  0  0  0  0  0  0
  147.8793  136.6544  154.9271 N   0  0  0  0  0  0  0  0  0  0  0  0
  146.7124  136.4324  154.3159 C   0  0  0  0  0  0  0  0  0  0  0  0
  146.3175  135.3526  153.6397 N   0  0  0  0  0  0  0  0  0  0  0  0
  147.2874  134.3944  153.6244 C   0  0  0  0  0  0  0  0  0  0  0  0
  145.4543  131.7015  148.4544 H   0  0  0  0  0  0  0  0  0  0  0  0
  144.9206  133.3673  148.2162 H   0  0  0  0  0  0  0  0  0  0  0  0
  143.7405  132.0654  148.3262 H   0  0  0  0  0  0  0  0  0  0  0  0
  144.3516  131.6616  150.7025 H   0  0  0  0  0  0  0  0  0  0  0  0
  143.4505  135.5354  151.0823 H   0  0  0  0  0  0  0  0  0  0  0  0
  143.7923  134.3621  152.3584 H   0  0  0  0  0  0  0  0  0  0  0  0
  145.6193  135.2047  150.0772 H   0  0  0  0  0  0  0  0  0  0  0  0
  146.0172  135.2621  151.7861 H   0  0  0  0  0  0  0  0  0  0  0  0
  146.7986  133.3808  149.2311 H   0  0  0  0  0  0  0  0  0  0  0  0
  145.2597  132.5619  152.9115 H   0  0  0  0  0  0  0  0  0  0  0  0
  146.3817  131.4874  152.1283 H   0  0  0  0  0  0  0  0  0  0  0  0
  148.7357  131.5848  152.9582 H   0  0  0  0  0  0  0  0  0  0  0  0
  150.1549  134.2029  156.6102 H   0  0  0  0  0  0  0  0  0  0  0  0
  151.6581  135.1104  156.4915 H   0  0  0  0  0  0  0  0  0  0  0  0
  151.0472  134.2392  155.0818 H   0  0  0  0  0  0  0  0  0  0  0  0
  151.6095  136.7892  154.4463 H   0  0  0  0  0  0  0  0  0  0  0  0
  150.1870  137.7853  154.4294 H   0  0  0  0  0  0  0  0  0  0  0  0
  151.8621  138.9070  155.8138 H   0  0  0  0  0  0  0  0  0  0  0  0
  149.6648  139.1697  156.8652 H   0  0  0  0  0  0  0  0  0  0  0  0
  149.7823  137.5728  157.5791 H   0  0  0  0  0  0  0  0  0  0  0  0
  151.3679  140.0480  158.3350 H   0  0  0  0  0  0  0  0  0  0  0  0
  150.5362  138.9138  159.4132 H   0  0  0  0  0  0  0  0  0  0  0  0
  152.2513  136.2037  157.1189 H   0  0  0  0  0  0  0  0  0  0  0  0
  153.4795  137.2843  156.4421 H   0  0  0  0  0  0  0  0  0  0  0  0
  145.9921  137.2349  154.3772 H   0  0  0  0  0  0  0  0  0  0  0  0
  1  2  1  0  0  0  0
  1 28  1  0  0  0  0
  1 29  1  0  0  0  0
  1 30  1  0  0  0  0
  2  6  1  0  0  0  0
  2  3  1  0  0  0  0
  2 31  1  0  0  0  0
  3  4  1  0  0  0  0
  4  5  1  0  0  0  0
  4 32  1  0  0  0  0
  4 33  1  0  0  0  0
  5  6  1  0  0  0  0
  5 34  1  0  0  0  0
  5 35  1  0  0  0  0
  6  7  1  0  0  0  0
  6  8  1  0  0  0  0
  7 36  1  0  0  0  0
  8  9  1  0  0  0  0
  8 37  1  0  0  0  0
  8 38  1  0  0  0  0
  9 27  1  0  0  0  0
  9 10  1  0  0  0  0
 10 11  2  0  0  0  0
 10 39  1  0  0  0  0
 11 12  1  0  0  0  0
 12 27  2  0  0  0  0
 12 13  1  0  0  0  0
 13 14  1  0  0  0  0
 13 24  2  0  0  0  0
 14 15  1  0  0  0  0
 14 16  1  0  0  0  0
 15 40  1  0  0  0  0
 15 41  1  0  0  0  0
 15 42  1  0  0  0  0
 16 17  1  0  0  0  0
 16 43  1  0  0  0  0
 16 44  1  0  0  0  0
 17 23  1  0  0  0  0
 17 18  1  0  0  0  0
 17 45  1  0  0  0  0
 18 19  1  0  0  0  0
 18 46  1  0  0  0  0
 18 47  1  0  0  0  0
 19 20  1  0  0  0  0
 19 48  1  0  0  0  0
 19 49  1  0  0  0  0
 20 21  2  0  0  0  0
 20 22  2  0  0  0  0
 20 23  1  0  0  0  0
 23 50  1  0  0  0  0
 23 51  1  0  0  0  0
 24 25  1  0  0  0  0
 25 26  2  0  0  0  0
 25 52  1  0  0  0  0
 26 27  1  0  0  0  0
M  END
> <s_m_source_file>
AV-unprocessed.smi

> <i_m_source_file_index>
266

> <i_lp_mmshare_version>
43012

> <i_f3d_flags>
0

> <s_epik_input>
W0NIMl0xW0NIMl1PW0NAQEhdKFtDSDNdKVtDQEBdMShbT0hdKVtDSDJdbihbY0hdbjIpYyhjMjMpbltjSF1uYzNOKFtDSDNdKVtDSDJdW0NAQEhdKFtDSDJdNClbQ0gyXVtDSDJdUzQoPU8pPU8=

> <s_epik_cmdline>
J2VwaWtfcHl0aG9uJywgJy1waCcsICc3LjAnLCAnLXRuJywgJzgnLCAnLW1hJywgJzIwMCcsICctbWV0YWxfYmluZGluZycsICctaW1hZScsICc8aW5maWxlLm1hZT4nLCAnLW9tYWUnLCAnPG91dGZpbGUubWFlPic=

> <r_lp_tautomer_probability>
1

> <r_epik_Ionization_Penalty>
0.00155497

> <r_epik_Ionization_Penalty_Charging>
0

> <r_epik_Ionization_Penalty_Neutral>
0.00155497

> <r_epik_State_Penalty>
-0

> <r_epik_Charging_Adjusted_Penalty>
0

> <i_epik_Tot_Q>
0

> <i_epik_Tot_abs_Q>
0

> <r_epik_Metal_State_Penalty>
-0

> <b_epik_Metal_Only>
0

> <s_lp_Force_Field>
OPLS_2005

> <r_lp_Energy>
32.6677

> <b_lp_Chiralities_Consistent>
1

> <s_lp_Variant>
AV-unprocessed.smi:266-7

> <Gold.Version>
5.8.1

> <Gold.Id.Protein>
6NUR|6NUR_protein|mol2

> <Gold.PLP.Fitness>
41.3268

> <Gold.PLP.PLP>
-30.7567

> <Gold.PLP.part.hbond>
-3.5074

> <Gold.PLP.part.metal>
0.0000

> <Gold.PLP.part.buried>
-2.9918

> <Gold.PLP.part.nonpolar>
-25.1018

> <Gold.PLP.part.repulsive>
2.3893

> <Gold.PLP.ligand.clash>
0.0000

> <Gold.PLP.ligand.torsion>
0.8231

> <Gold.PLP.Chemscore.Hbond>
2.8640

> <Gold.PLP.Chemscore.CHOScore>
1.0000

> <Gold.PLP.Chemscore.Metal>
0.0000

> <Gold.Chemscore.Hbonds>
donor molecule, donor type, donor heavy atom, donor atom, acceptor molecule, acceptor atom, score
      P1  H  6896  6907       L1    22  0.98
      P1  H  7997  8010       L1    21  1.00
      L1  C    10    39       P1 10747  0.37

> <Gold.PLP.Chemscore.Internal.Correction>
0.6244

> <Gold.Rescore>
     Score         DG    S(hbond)    S(metal)    S(lipo)     H(rot)  DE(clash)    DE(int)     intcor
     11.17     -13.92       2.07        0.00      73.41       2.76       0.24       2.50       ----

> <Gold.Chemscore.Fitness>
11.1717

> <Gold.Chemscore.DG>
-13.9158

> <Gold.Chemscore.ZeroCoef>
-5.4800

> <Gold.Chemscore.Hbond>
2.0725

> <Gold.Chemscore.Metal>
0.0000

> <Gold.Chemscore.Lipo>
73.4080

> <Gold.Chemscore.Internal_Hbond>
0.0000

> <Gold.Chemscore.DEClash>
0.2411

> <Gold.Chemscore.DEInternal>
2.5030

> <Gold.Chemscore.Rot>
2.7637

> <Gold.Chemscore.Internal.Correction>
   9.000000E+99

> <Gold.Chemscore.Hbonds>
donor molecule, donor type, donor heavy atom, donor atom, acceptor molecule, acceptor atom, score
      P1  H  6896  6907       L1    22  0.91
      P1  H  7997  8010       L1    21  0.95

> <Gold.Chemscore.Hbond.Weighted>
-6.9221

> <Gold.Chemscore.Metal.Weighted>
-0.0000

> <Gold.Chemscore.Lipo.Weighted>
-8.5887

> <Gold.Chemscore.Internal_Hbond.Weighted>
0.0000

> <Gold.Chemscore.DEClash.Weighted>
0.2411

> <Gold.Chemscore.DEInternal.Weighted>
2.5030

> <Gold.Chemscore.Rot.Weighted>
7.0750

> <Gold.Chemscore.Internal.Correction.Weighted>
   9.000000E+99

> <Gold.Protein.RotatedTorsions>
[ 6907 6896 6895 6894 ] final   22.47 input  -60.11 | X-H torsion
[ 7974 7965 7964 7962 ] final  -64.49 input  175.53 | X-H torsion
[ 8008 7997 7996 7995 ] final   19.43 input   59.86 | X-H torsion
[ 10167 10162 10161 10158 ] final  -30.88 input  -65.29 | X-H torsion
[ 10718 10713 10712 10709 ] final -168.11 input   66.30 | X-H torsion
[ 10763 10752 10751 10750 ] final   -0.94 input  -60.55 | X-H torsion
[ 11005 11000 10999 10996 ] final  -65.54 input  -57.11 | X-H torsion

> <Gold.Protein.ActiveResidues>
 VAL166  LYS551  ARG553  GLY616  TRP617  ASP618  TYR619  PRO620  LYS621  CYS622 
 ASP623  PHE694  ASN695  SER759  ASP760  ASP761  ALA762  ILE779  LEU786  VAL792 
 PHE793  MET794  SER795  GLU796  ALA797  LYS798  CYS799  TRP800  GLU811  SER814 

> <Gold.Protein.RotatedAtoms>
  151.9275  135.0271  160.0526 H   0  0  0  0  0  0  0  0  0  0  0  0  # atno 6907 bound_to 6896
  152.2146  133.4933  159.5137 H   0  0  0  0  0  0  0  0  0  0  0  0  # atno 6908 bound_to 6896
  150.6984  134.1338  159.4122 H   0  0  0  0  0  0  0  0  0  0  0  0  # atno 6909 bound_to 6896
  145.7661  140.8837  143.0404 H   0  0  0  0  0  0  0  0  0  0  0  0  # atno 7974 bound_to 7965
  154.9207  140.3027  155.5218 H   0  0  0  0  0  0  0  0  0  0  0  0  # atno 8008 bound_to 7997
  156.3010  140.2372  156.4193 H   0  0  0  0  0  0  0  0  0  0  0  0  # atno 8009 bound_to 7997
  154.8334  140.0417  157.1481 H   0  0  0  0  0  0  0  0  0  0  0  0  # atno 8010 bound_to 7997
  140.7244  143.3814  151.1593 H   0  0  0  0  0  0  0  0  0  0  0  0  # atno 10167 bound_to 10162
  156.6922  130.9164  151.3070 H   0  0  0  0  0  0  0  0  0  0  0  0  # atno 10718 bound_to 10713
  153.3384  135.6979  153.6888 H   0  0  0  0  0  0  0  0  0  0  0  0  # atno 10763 bound_to 10752
  153.5662  135.3525  155.2820 H   0  0  0  0  0  0  0  0  0  0  0  0  # atno 10764 bound_to 10752
  154.8632  135.4261  154.2591 H   0  0  0  0  0  0  0  0  0  0  0  0  # atno 10765 bound_to 10752
  141.1457  133.6683  156.6001 H   0  0  0  0  0  0  0  0  0  0  0  0  # atno 11005 bound_to 11000
  144.6821  139.9790  143.7483 LP  0  0  0  0  0  0  0  0  0  0  0  0  # atno 17320 bound_to 7965
  146.0216  139.3256  143.0809 LP  0  0  0  0  0  0  0  0  0  0  0  0  # atno 17321 bound_to 7965
  139.7404  143.8933  152.3048 LP  0  0  0  0  0  0  0  0  0  0  0  0  # atno 17342 bound_to 10162
  139.8753  144.7047  150.8940 LP  0  0  0  0  0  0  0  0  0  0  0  0  # atno 17343 bound_to 10162
  157.7004  130.9327  150.0770 LP  0  0  0  0  0  0  0  0  0  0  0  0  # atno 17370 bound_to 10713
  156.1789  130.3649  149.9062 LP  0  0  0  0  0  0  0  0  0  0  0  0  # atno 17371 bound_to 10713
  140.3695  134.7618  157.4589 LP  0  0  0  0  0  0  0  0  0  0  0  0  # atno 17394 bound_to 11000
  140.0722  134.5847  155.8630 LP  0  0  0  0  0  0  0  0  0  0  0  0  # atno 17395 bound_to 11000

$$$$
