AV-unprocessed.smi:2663|AV-procd|sdf|10323|dock4
  -GOLD-   2272014343D 1   1.00000     0.00000
 Structure written by MMmdl.
 39 40  0  0  0  0  0  0  0  0  1 V2000
  143.8965  136.7241  152.4206 C   0  0  0  0  0  0  0  0  0  0  0  0
  145.0004  135.7247  152.8376 C   0  0  2  0  0  0  0  0  0  0  0  0
  144.6476  135.1508  154.2421 C   0  0  0  0  0  0  0  0  0  0  0  0
  143.3606  134.5626  154.2797 O   0  0  0  0  0  0  0  0  0  0  0  0
  146.2507  136.4998  152.9176 N   0  0  0  0  0  0  0  0  0  0  0  0
  146.4624  137.6928  153.5007 C   0  0  0  0  0  0  0  0  0  0  0  0
  145.5951  138.3324  154.0947 O   0  0  0  0  0  0  0  0  0  0  0  0
  147.7388  138.0807  153.3484 N   0  0  0  0  0  0  0  0  0  0  0  0
  148.3487  139.2745  153.8091 C   0  0  0  0  0  0  0  0  0  0  0  0
  149.6226  139.2132  154.2144 N   0  0  0  0  0  0  0  0  0  0  0  0
  150.0947  140.4500  154.6367 N   0  0  0  0  0  0  0  0  0  0  0  0
  149.1574  141.3968  154.5329 C   0  0  0  0  0  0  0  0  0  0  0  0
  147.6032  140.8726  153.9094 S   0  0  0  0  0  0  0  0  0  0  0  0
  145.1441  134.5685  151.7815 C   0  0  0  0  0  0  0  0  0  0  0  0
  143.7954  133.9471  151.3284 C   0  0  0  0  0  0  0  0  0  0  0  0
  143.9901  132.9164  150.2047 C   0  0  0  0  0  0  0  0  0  0  0  0
  144.9610  131.8064  150.6287 C   0  0  0  0  0  0  0  0  0  0  0  0
  146.3028  132.3972  151.0820 C   0  0  0  0  0  0  0  0  0  0  0  0
  146.1098  133.4310  152.2037 C   0  0  0  0  0  0  0  0  0  0  0  0
  142.9110  136.2592  152.4064 H   0  0  0  0  0  0  0  0  0  0  0  0
  144.0772  137.1486  151.4337 H   0  0  0  0  0  0  0  0  0  0  0  0
  143.8373  137.5628  153.1151 H   0  0  0  0  0  0  0  0  0  0  0  0
  145.3579  134.3792  154.5365 H   0  0  0  0  0  0  0  0  0  0  0  0
  144.6966  135.9220  155.0108 H   0  0  0  0  0  0  0  0  0  0  0  0
  143.4605  133.6294  154.3898 H   0  0  0  0  0  0  0  0  0  0  0  0
  147.0445  136.0769  152.4596 H   0  0  0  0  0  0  0  0  0  0  0  0
  148.3444  137.4526  152.8411 H   0  0  0  0  0  0  0  0  0  0  0  0
  149.3831  142.4115  154.8253 H   0  0  0  0  0  0  0  0  0  0  0  0
  145.5877  135.0120  150.8895 H   0  0  0  0  0  0  0  0  0  0  0  0
  143.3014  133.4602  152.1691 H   0  0  0  0  0  0  0  0  0  0  0  0
  143.1085  134.7138  150.9714 H   0  0  0  0  0  0  0  0  0  0  0  0
  143.0288  132.4822  149.9290 H   0  0  0  0  0  0  0  0  0  0  0  0
  144.3703  133.4160  149.3129 H   0  0  0  0  0  0  0  0  0  0  0  0
  144.5223  131.2263  151.4414 H   0  0  0  0  0  0  0  0  0  0  0  0
  145.1194  131.1130  149.8023 H   0  0  0  0  0  0  0  0  0  0  0  0
  146.9623  131.5988  151.4232 H   0  0  0  0  0  0  0  0  0  0  0  0
  146.8014  132.8677  150.2334 H   0  0  0  0  0  0  0  0  0  0  0  0
  147.0879  133.8281  152.4694 H   0  0  0  0  0  0  0  0  0  0  0  0
  145.7308  132.9207  153.0892 H   0  0  0  0  0  0  0  0  0  0  0  0
  1  2  1  0  0  0  0
  1 20  1  0  0  0  0
  1 21  1  0  0  0  0
  1 22  1  0  0  0  0
  2  3  1  0  0  0  0
  2  5  1  0  0  0  0
  2 14  1  0  0  0  0
  3  4  1  0  0  0  0
  3 23  1  0  0  0  0
  3 24  1  0  0  0  0
  4 25  1  0  0  0  0
  5  6  1  0  0  0  0
  5 26  1  0  0  0  0
  6  7  2  0  0  0  0
  6  8  1  0  0  0  0
  8  9  1  0  0  0  0
  8 27  1  0  0  0  0
  9 13  1  0  0  0  0
  9 10  2  0  0  0  0
 10 11  1  0  0  0  0
 11 12  2  0  0  0  0
 12 13  1  0  0  0  0
 12 28  1  0  0  0  0
 14 19  1  0  0  0  0
 14 15  1  0  0  0  0
 14 29  1  0  0  0  0
 15 16  1  0  0  0  0
 15 30  1  0  0  0  0
 15 31  1  0  0  0  0
 16 17  1  0  0  0  0
 16 32  1  0  0  0  0
 16 33  1  0  0  0  0
 17 18  1  0  0  0  0
 17 34  1  0  0  0  0
 17 35  1  0  0  0  0
 18 19  1  0  0  0  0
 18 36  1  0  0  0  0
 18 37  1  0  0  0  0
 19 38  1  0  0  0  0
 19 39  1  0  0  0  0
M  END
> <s_m_source_file>
AV-unprocessed.smi

> <i_m_source_file_index>
2663

> <i_lp_mmshare_version>
43012

> <i_f3d_flags>
0

> <s_epik_input>
W0NIMl0xW0NIMl1bQ0gyXVtDSDJdW0NIMl1bQ0hdMVtDQF0oW0NIM10pKFtDSDJdW09IXSlbTkhdQyg9TylbTkhdYzJubltjSF1zMg==

> <s_epik_cmdline>
J2VwaWtfcHl0aG9uJywgJy1waCcsICc3LjAnLCAnLXRuJywgJzgnLCAnLW1hJywgJzIwMCcsICctbWV0YWxfYmluZGluZycsICctaW1hZScsICc8aW5maWxlLm1hZT4nLCAnLW9tYWUnLCAnPG91dGZpbGUubWFlPic=

> <r_lp_tautomer_probability>
1

> <r_epik_Ionization_Penalty>
0.000410407

> <r_epik_Ionization_Penalty_Charging>
0

> <r_epik_Ionization_Penalty_Neutral>
0.000410407

> <r_epik_State_Penalty>
-0

> <r_epik_Charging_Adjusted_Penalty>
0

> <i_epik_Tot_Q>
0

> <i_epik_Tot_abs_Q>
0

> <r_epik_Metal_State_Penalty>
0.197604

> <b_epik_Metal_Only>
0

> <s_lp_Force_Field>
OPLS_2005

> <r_lp_Energy>
18.5807

> <b_lp_Chiralities_Consistent>
1

> <s_lp_Variant>
AV-unprocessed.smi:2663-2

> <Gold.Version>
5.8.1

> <Gold.Id.Protein>
6NUR|6NUR_protein|mol2

> <Gold.PLP.Fitness>
43.4324

> <Gold.PLP.PLP>
-30.0757

> <Gold.PLP.part.hbond>
-4.0000

> <Gold.PLP.part.metal>
0.0000

> <Gold.PLP.part.buried>
-4.4307

> <Gold.PLP.part.nonpolar>
-22.6666

> <Gold.PLP.part.repulsive>
0.4426

> <Gold.PLP.ligand.clash>
0.0000

> <Gold.PLP.ligand.torsion>
0.7140

> <Gold.PLP.Chemscore.Hbond>
3.9035

> <Gold.PLP.Chemscore.CHOScore>
1.0000

> <Gold.PLP.Chemscore.Metal>
0.0000

> <Gold.Chemscore.Hbonds>
donor molecule, donor type, donor heavy atom, donor atom, acceptor molecule, acceptor atom, score
      L1  H     4    25       P1 10957  0.91
      L1  H     5    26       P1  7948  0.99
      L1  H     8    27       P1  7948  1.00
      P1  H  7989  7998       L1    11  0.94
      L1  C    12    28       P1  8028  1.00

> <Gold.PLP.Chemscore.Internal.Correction>
0.0743

> <Gold.Rescore>
     Score         DG    S(hbond)    S(metal)    S(lipo)     H(rot)  DE(clash)    DE(int)     intcor
     16.58     -18.56       3.34        0.00      64.92       2.21       0.01       1.97       ----

> <Gold.Chemscore.Fitness>
16.5811

> <Gold.Chemscore.DG>
-18.5592

> <Gold.Chemscore.ZeroCoef>
-5.4800

> <Gold.Chemscore.Hbond>
3.3371

> <Gold.Chemscore.Metal>
0.0000

> <Gold.Chemscore.Lipo>
64.9217

> <Gold.Chemscore.Internal_Hbond>
0.0000

> <Gold.Chemscore.DEClash>
0.0111

> <Gold.Chemscore.DEInternal>
1.9670

> <Gold.Chemscore.Rot>
2.2120

> <Gold.Chemscore.Internal.Correction>
   9.000000E+99

> <Gold.Chemscore.Hbonds>
donor molecule, donor type, donor heavy atom, donor atom, acceptor molecule, acceptor atom, score
      L1  H     4    25       P1 10957  0.83
      L1  H     5    26       P1  7948  0.90
      L1  H     8    27       P1  7948  1.00
      P1  H  7989  7998       L1    11  0.40

> <Gold.Chemscore.Hbond.Weighted>
-11.1461

> <Gold.Chemscore.Metal.Weighted>
-0.0000

> <Gold.Chemscore.Lipo.Weighted>
-7.5958

> <Gold.Chemscore.Internal_Hbond.Weighted>
0.0000

> <Gold.Chemscore.DEClash.Weighted>
0.0111

> <Gold.Chemscore.DEInternal.Weighted>
1.9670

> <Gold.Chemscore.Rot.Weighted>
5.6627

> <Gold.Chemscore.Internal.Correction.Weighted>
   9.000000E+99

> <Gold.Protein.RotatedTorsions>
[ 6907 6896 6895 6894 ] final  -51.03 input  -60.11 | X-H torsion
[ 7974 7965 7964 7962 ] final   39.09 input  175.53 | X-H torsion
[ 8008 7997 7996 7995 ] final    9.32 input   59.86 | X-H torsion
[ 10167 10162 10161 10158 ] final  141.26 input  -65.29 | X-H torsion
[ 10718 10713 10712 10709 ] final  -62.43 input   66.30 | X-H torsion
[ 10763 10752 10751 10750 ] final  -69.82 input  -60.55 | X-H torsion
[ 11005 11000 10999 10996 ] final -125.67 input  -57.11 | X-H torsion

> <Gold.Protein.ActiveResidues>
 VAL166  LYS551  ARG553  GLY616  TRP617  ASP618  TYR619  PRO620  LYS621  CYS622 
 ASP623  PHE694  ASN695  SER759  ASP760  ASP761  ALA762  ILE779  LEU786  VAL792 
 PHE793  MET794  SER795  GLU796  ALA797  LYS798  CYS799  TRP800  GLU811  SER814 

> <Gold.Protein.RotatedAtoms>
  150.8650  134.8011  159.7111 H   0  0  0  0  0  0  0  0  0  0  0  0  # atno 6907 bound_to 6896
  152.4675  134.5038  159.9743 H   0  0  0  0  0  0  0  0  0  0  0  0  # atno 6908 bound_to 6896
  151.5136  133.3442  159.2924 H   0  0  0  0  0  0  0  0  0  0  0  0  # atno 6909 bound_to 6896
  146.1011  139.5694  142.9413 H   0  0  0  0  0  0  0  0  0  0  0  0  # atno 7974 bound_to 7965
  154.7785  140.2814  155.6082 H   0  0  0  0  0  0  0  0  0  0  0  0  # atno 8008 bound_to 7997
  156.2946  140.2627  156.2533 H   0  0  0  0  0  0  0  0  0  0  0  0  # atno 8009 bound_to 7997
  154.9813  140.0375  157.2268 H   0  0  0  0  0  0  0  0  0  0  0  0  # atno 8010 bound_to 7997
  139.5025  144.6183  151.6112 H   0  0  0  0  0  0  0  0  0  0  0  0  # atno 10167 bound_to 10162
  156.0855  130.4209  150.1135 H   0  0  0  0  0  0  0  0  0  0  0  0  # atno 10718 bound_to 10713
  154.4089  135.6013  153.5941 H   0  0  0  0  0  0  0  0  0  0  0  0  # atno 10763 bound_to 10752
  152.9790  135.5924  154.4094 H   0  0  0  0  0  0  0  0  0  0  0  0  # atno 10764 bound_to 10752
  154.3903  135.2842  155.2137 H   0  0  0  0  0  0  0  0  0  0  0  0  # atno 10765 bound_to 10752
  140.9743  134.0762  157.3835 H   0  0  0  0  0  0  0  0  0  0  0  0  # atno 11005 bound_to 11000
  145.5852  141.0377  143.2100 LP  0  0  0  0  0  0  0  0  0  0  0  0  # atno 17320 bound_to 7965
  144.7434  139.7387  143.7302 LP  0  0  0  0  0  0  0  0  0  0  0  0  # atno 17321 bound_to 7965
  140.5877  143.9835  150.6305 LP  0  0  0  0  0  0  0  0  0  0  0  0  # atno 17342 bound_to 10162
  140.3005  143.3264  152.0976 LP  0  0  0  0  0  0  0  0  0  0  0  0  # atno 17343 bound_to 10162
  156.9156  130.9666  151.3556 LP  0  0  0  0  0  0  0  0  0  0  0  0  # atno 17370 bound_to 10713
  157.5988  130.8497  149.8770 LP  0  0  0  0  0  0  0  0  0  0  0  0  # atno 17371 bound_to 10713
  139.8924  135.0124  156.6845 LP  0  0  0  0  0  0  0  0  0  0  0  0  # atno 17394 bound_to 11000
  140.7282  133.9081  155.8193 LP  0  0  0  0  0  0  0  0  0  0  0  0  # atno 17395 bound_to 11000

$$$$
