AV-unprocessed.smi:3298|AV-procd|sdf|12647|dock8
  -GOLD-   2272018583D 1   1.00000     0.00000
 Structure written by MMmdl.
 36 37  0  0  0  0  0  0  0  0  2 V2000
  147.0338  139.1522  153.1135 C   0  0  0  0  0  0  0  0  0  0  0  0
  148.3159  139.4062  153.8778 C   0  0  0  0  0  0  0  0  0  0  0  0
  148.6001  140.6501  154.4810 C   0  0  0  0  0  0  0  0  0  0  0  0
  149.8189  140.8298  155.1718 C   0  0  0  0  0  0  0  0  0  0  0  0
  150.0525  142.0949  155.7757 N   0  0  0  0  0  0  0  0  0  0  0  0
  150.7742  142.3760  156.8743 C   0  0  0  0  0  0  0  0  0  0  0  0
  151.3979  141.5538  157.5453 O   0  0  0  0  0  0  0  0  0  0  0  0
  150.7488  143.6876  157.1495 N   0  0  0  0  0  0  0  0  0  0  0  0
  151.4266  144.3163  158.2776 C   0  0  1  0  0  0  0  0  0  0  0  0
  150.6603  144.0735  159.5503 C   0  0  0  0  0  0  0  0  0  0  0  0
  151.3832  143.4475  160.4761 C   0  0  0  0  0  0  0  0  0  0  0  0
  152.7797  143.1325  160.0061 C   0  0  1  0  0  0  0  0  0  0  0  0
  153.1323  141.6370  160.1176 C   0  0  0  0  0  0  0  0  0  0  0  0
  154.5006  141.3996  159.8498 O   0  0  0  0  0  0  0  0  0  0  0  0
  152.8194  143.6926  158.5610 C   0  0  0  0  0  0  0  0  0  0  0  0
  150.7161  139.7353  155.2598 C   0  0  0  0  0  0  0  0  0  0  0  0
  150.3792  138.5160  154.6380 C   0  0  0  0  0  0  0  0  0  0  0  0
  149.2087  138.3969  153.9757 N   0  3  0  0  0  0  0  0  0  0  0  0
  151.5057  145.3933  158.1199 H   0  0  0  0  0  0  0  0  0  0  0  0
  153.4697  143.7020  160.6297 H   0  0  0  0  0  0  0  0  0  0  0  0
  146.3388  139.9851  153.2249 H   0  0  0  0  0  0  0  0  0  0  0  0
  146.5429  138.2497  153.4789 H   0  0  0  0  0  0  0  0  0  0  0  0
  147.2455  139.0241  152.0517 H   0  0  0  0  0  0  0  0  0  0  0  0
  147.8908  141.4621  154.4080 H   0  0  0  0  0  0  0  0  0  0  0  0
  149.6703  142.8888  155.2830 H   0  0  0  0  0  0  0  0  0  0  0  0
  150.2130  144.2952  156.5470 H   0  0  0  0  0  0  0  0  0  0  0  0
  149.6369  144.3955  159.6758 H   0  0  0  0  0  0  0  0  0  0  0  0
  151.0348  143.1827  161.4634 H   0  0  0  0  0  0  0  0  0  0  0  0
  152.8993  141.2680  161.1167 H   0  0  0  0  0  0  0  0  0  0  0  0
  152.5341  141.0553  159.4158 H   0  0  0  0  0  0  0  0  0  0  0  0
  154.8132  140.7390  160.4488 H   0  0  0  0  0  0  0  0  0  0  0  0
  153.0666  142.9126  157.8395 H   0  0  0  0  0  0  0  0  0  0  0  0
  153.5975  144.4515  158.4705 H   0  0  0  0  0  0  0  0  0  0  0  0
  151.6477  139.8027  155.8007 H   0  0  0  0  0  0  0  0  0  0  0  0
  151.0054  137.6360  154.6565 H   0  0  0  0  0  0  0  0  0  0  0  0
  148.9866  137.5041  153.5343 H   0  0  0  0  0  0  0  0  0  0  0  0
  1  2  1  0  0  0  0
  1 21  1  0  0  0  0
  1 22  1  0  0  0  0
  1 23  1  0  0  0  0
  2 18  1  0  0  0  0
  2  3  2  0  0  0  0
  3  4  1  0  0  0  0
  3 24  1  0  0  0  0
  4  5  1  0  0  0  0
  4 16  2  0  0  0  0
  5  6  1  0  0  0  0
  5 25  1  0  0  0  0
  6  7  2  0  0  0  0
  6  8  1  0  0  0  0
  8  9  1  0  0  0  0
  8 26  1  0  0  0  0
  9 19  1  0  0  0  0
  9 15  1  0  0  0  0
  9 10  1  0  0  0  0
 10 11  2  0  0  0  0
 10 27  1  0  0  0  0
 11 12  1  0  0  0  0
 11 28  1  0  0  0  0
 12 20  1  0  0  0  0
 12 13  1  0  0  0  0
 12 15  1  0  0  0  0
 13 14  1  0  0  0  0
 13 29  1  0  0  0  0
 13 30  1  0  0  0  0
 14 31  1  0  0  0  0
 15 32  1  0  0  0  0
 15 33  1  0  0  0  0
 16 17  1  0  0  0  0
 16 34  1  0  0  0  0
 17 18  2  0  0  0  0
 17 35  1  0  0  0  0
 18 36  1  0  0  0  0
M  CHG  1  18   1
M  END
> <s_m_source_file>
AV-unprocessed.smi

> <i_m_source_file_index>
3298

> <i_lp_mmshare_version>
43012

> <i_f3d_flags>
0

> <s_epik_input>
W0NIM11jMVtjSF1jKFtjSF1bY0hdbjEpW05IXUMoPU8pW05IXVtDQEBIXTJbQ0hdPVtDSF1bQ0BASF0oW0NIMl0yKVtDSDJdW09IXQ==

> <s_epik_cmdline>
J2VwaWtfcHl0aG9uJywgJy1waCcsICc3LjAnLCAnLXRuJywgJzgnLCAnLW1hJywgJzIwMCcsICctbWV0YWxfYmluZGluZycsICctaW1hZScsICc8aW5maWxlLm1hZT4nLCAnLW9tYWUnLCAnPG91dGZpbGUubWFlPic=

> <r_epik_Ionization_Penalty>
0.443901

> <r_epik_Ionization_Penalty_Charging>
0.443881

> <r_epik_Ionization_Penalty_Neutral>
1.94967e-05

> <r_epik_State_Penalty>
0.446172

> <r_epik_Charging_Adjusted_Penalty>
0.890053

> <i_epik_Tot_Q>
1

> <i_epik_Tot_abs_Q>
1

> <r_epik_Metal_State_Penalty>
0.675842

> <b_epik_Metal_Only>
0

> <s_lp_Force_Field>
OPLS_2005

> <r_lp_Energy>
27.9023

> <b_lp_Chiralities_Consistent>
1

> <s_lp_Variant>
AV-unprocessed.smi:3298-8

> <Gold.Version>
5.8.1

> <Gold.Id.Protein>
6NUR|6NUR_protein|mol2

> <Gold.PLP.Fitness>
50.1976

> <Gold.PLP.PLP>
-39.7001

> <Gold.PLP.part.hbond>
-3.7014

> <Gold.PLP.part.metal>
0.0000

> <Gold.PLP.part.buried>
-0.0489

> <Gold.PLP.part.nonpolar>
-36.7966

> <Gold.PLP.part.repulsive>
0.2302

> <Gold.PLP.ligand.clash>
0.0000

> <Gold.PLP.ligand.torsion>
0.4816

> <Gold.PLP.Chemscore.Hbond>
3.8160

> <Gold.PLP.Chemscore.CHOScore>
0.0000

> <Gold.PLP.Chemscore.Metal>
0.0000

> <Gold.Chemscore.Hbonds>
donor molecule, donor type, donor heavy atom, donor atom, acceptor molecule, acceptor atom, score
      L1  H     5    25       P1  8028  0.82
      L1  H     8    26       P1  8028  1.00
      L1  H    18    36       P1  7948  1.72

> <Gold.PLP.Chemscore.Internal.Correction>
0.0127

> <Gold.Rescore>
     Score         DG    S(hbond)    S(metal)    S(lipo)     H(rot)  DE(clash)    DE(int)     intcor
     19.56     -22.52       2.72        0.00     107.53       1.81       0.17       2.79       ----

> <Gold.Chemscore.Fitness>
19.5630

> <Gold.Chemscore.DG>
-22.5246

> <Gold.Chemscore.ZeroCoef>
-5.4800

> <Gold.Chemscore.Hbond>
2.7207

> <Gold.Chemscore.Metal>
0.0000

> <Gold.Chemscore.Lipo>
107.5316

> <Gold.Chemscore.Internal_Hbond>
0.0000

> <Gold.Chemscore.DEClash>
0.1739

> <Gold.Chemscore.DEInternal>
2.7877

> <Gold.Chemscore.Rot>
1.8061

> <Gold.Chemscore.Internal.Correction>
   9.000000E+99

> <Gold.Chemscore.Hbonds>
donor molecule, donor type, donor heavy atom, donor atom, acceptor molecule, acceptor atom, score
      L1  H     5    25       P1  8028  0.77
      L1  H     8    26       P1  8028  0.97
      L1  H    18    36       P1  7948  0.79

> <Gold.Chemscore.Hbond.Weighted>
-9.0871

> <Gold.Chemscore.Metal.Weighted>
-0.0000

> <Gold.Chemscore.Lipo.Weighted>
-12.5812

> <Gold.Chemscore.Internal_Hbond.Weighted>
0.0000

> <Gold.Chemscore.DEClash.Weighted>
0.1739

> <Gold.Chemscore.DEInternal.Weighted>
2.7877

> <Gold.Chemscore.Rot.Weighted>
4.6237

> <Gold.Chemscore.Internal.Correction.Weighted>
   9.000000E+99

> <Gold.Protein.RotatedTorsions>
[ 6907 6896 6895 6894 ] final   27.78 input  -60.11 | X-H torsion
[ 7974 7965 7964 7962 ] final    8.78 input  175.53 | X-H torsion
[ 8008 7997 7996 7995 ] final  102.62 input   59.86 | X-H torsion
[ 10167 10162 10161 10158 ] final   37.49 input  -65.29 | X-H torsion
[ 10718 10713 10712 10709 ] final   53.00 input   66.30 | X-H torsion
[ 10763 10752 10751 10750 ] final  -58.76 input  -60.55 | X-H torsion
[ 11005 11000 10999 10996 ] final -169.48 input  -57.11 | X-H torsion

> <Gold.Protein.ActiveResidues>
 VAL166  LYS551  ARG553  GLY616  TRP617  ASP618  TYR619  PRO620  LYS621  CYS622 
 ASP623  PHE694  ASN695  SER759  ASP760  ASP761  ALA762  ILE779  LEU786  VAL792 
 PHE793  MET794  SER795  GLU796  ALA797  LYS798  CYS799  TRP800  GLU811  SER814 

> <Gold.Protein.RotatedAtoms>
  152.0073  134.9896  160.0566 H   0  0  0  0  0  0  0  0  0  0  0  0  # atno 6907 bound_to 6896
  152.1462  133.4489  159.4799 H   0  0  0  0  0  0  0  0  0  0  0  0  # atno 6908 bound_to 6896
  150.6870  134.2162  159.4422 H   0  0  0  0  0  0  0  0  0  0  0  0  # atno 6909 bound_to 6896
  146.2412  139.9881  142.8428 H   0  0  0  0  0  0  0  0  0  0  0  0  # atno 7974 bound_to 7965
  156.1410  140.3178  155.8495 H   0  0  0  0  0  0  0  0  0  0  0  0  # atno 8008 bound_to 7997
  155.4154  140.0508  157.3046 H   0  0  0  0  0  0  0  0  0  0  0  0  # atno 8009 bound_to 7997
  154.4976  140.2117  155.9426 H   0  0  0  0  0  0  0  0  0  0  0  0  # atno 8010 bound_to 7997
  140.4027  144.1701  150.6134 H   0  0  0  0  0  0  0  0  0  0  0  0  # atno 10167 bound_to 10162
  157.5127  130.8511  149.8455 H   0  0  0  0  0  0  0  0  0  0  0  0  # atno 10718 bound_to 10713
  154.2432  135.6339  153.5214 H   0  0  0  0  0  0  0  0  0  0  0  0  # atno 10763 bound_to 10752
  152.9926  135.5547  154.5888 H   0  0  0  0  0  0  0  0  0  0  0  0  # atno 10764 bound_to 10752
  154.5398  135.2894  155.1080 H   0  0  0  0  0  0  0  0  0  0  0  0  # atno 10765 bound_to 10752
  140.5303  134.5622  157.5073 H   0  0  0  0  0  0  0  0  0  0  0  0  # atno 11005 bound_to 11000
  145.1528  140.9632  143.4422 LP  0  0  0  0  0  0  0  0  0  0  0  0  # atno 17320 bound_to 7965
  145.0189  139.3442  143.6082 LP  0  0  0  0  0  0  0  0  0  0  0  0  # atno 17321 bound_to 7965
  140.4722  143.2409  151.9073 LP  0  0  0  0  0  0  0  0  0  0  0  0  # atno 17342 bound_to 10162
  139.4784  144.5358  151.8601 LP  0  0  0  0  0  0  0  0  0  0  0  0  # atno 17343 bound_to 10162
  156.0299  130.3767  150.1716 LP  0  0  0  0  0  0  0  0  0  0  0  0  # atno 17370 bound_to 10713
  156.9905  130.9892  151.3416 LP  0  0  0  0  0  0  0  0  0  0  0  0  # atno 17371 bound_to 10713
  139.9558  134.7538  156.0346 LP  0  0  0  0  0  0  0  0  0  0  0  0  # atno 17394 bound_to 11000
  141.1285  133.6593  156.3400 LP  0  0  0  0  0  0  0  0  0  0  0  0  # atno 17395 bound_to 11000

$$$$
