AV-unprocessed.smi:1113|AV-procd|sdf|4799|dock3
  -GOLD-   22720 3343D 1   1.00000     0.00000
 Structure written by MMmdl.
 40 41  0  0  0  0  0  0  0  0  1 V2000
  145.8049  135.2601  152.3338 C   0  0  0  0  0  0  0  0  0  0  0  0
  145.6634  136.2302  151.1531 C   0  0  1  0  0  0  0  0  0  0  0  0
  144.3775  136.0310  150.6024 O   0  0  0  0  0  0  0  0  0  0  0  0
  145.8090  137.6987  151.5962 C   0  0  0  0  0  0  0  0  0  0  0  0
  147.1137  137.9528  152.1978 N   0  0  0  0  0  0  0  0  0  0  0  0
  147.3645  138.8840  153.1285 C   0  0  0  0  0  0  0  0  0  0  0  0
  146.5019  139.6286  153.5936 O   0  0  0  0  0  0  0  0  0  0  0  0
  148.6673  138.8987  153.4587 N   0  0  0  0  0  0  0  0  0  0  0  0
  149.3364  139.7177  154.4087 C   0  0  0  0  0  0  0  0  0  0  0  0
  148.8885  140.9927  154.8257 C   0  0  0  0  0  0  0  0  0  0  0  0
  149.6350  141.6959  155.7906 C   0  0  0  0  0  0  0  0  0  0  0  0
  150.8062  141.1092  156.3254 C   0  0  0  0  0  0  0  0  0  0  0  0
  151.5671  141.7969  157.2961 N   0  0  0  0  0  0  0  0  0  0  0  0
  151.2595  143.2166  157.4536 C   0  0  0  0  0  0  0  0  0  0  0  0
  152.3434  143.9100  158.2972 C   0  0  0  0  0  0  0  0  0  0  0  0
  152.4921  143.2355  159.5420 O   0  0  0  0  0  0  0  0  0  0  0  0
  152.9032  141.8841  159.3649 C   0  0  0  0  0  0  0  0  0  0  0  0
  151.8366  141.1190  158.5631 C   0  0  0  0  0  0  0  0  0  0  0  0
  151.2291  139.8848  155.9259 N   0  0  0  0  0  0  0  0  0  0  0  0
  150.5103  139.2137  155.0020 C   0  0  0  0  0  0  0  0  0  0  0  0
  146.7893  135.3455  152.7946 H   0  0  0  0  0  0  0  0  0  0  0  0
  145.6839  134.2256  152.0103 H   0  0  0  0  0  0  0  0  0  0  0  0
  145.0592  135.4583  153.1047 H   0  0  0  0  0  0  0  0  0  0  0  0
  146.4142  135.9838  150.4010 H   0  0  0  0  0  0  0  0  0  0  0  0
  144.0407  136.8654  150.3136 H   0  0  0  0  0  0  0  0  0  0  0  0
  145.5962  138.3880  150.7767 H   0  0  0  0  0  0  0  0  0  0  0  0
  145.0720  137.9160  152.3697 H   0  0  0  0  0  0  0  0  0  0  0  0
  147.8834  137.3883  151.8695 H   0  0  0  0  0  0  0  0  0  0  0  0
  149.2631  138.2774  152.9315 H   0  0  0  0  0  0  0  0  0  0  0  0
  147.9882  141.4427  154.4383 H   0  0  0  0  0  0  0  0  0  0  0  0
  149.3061  142.6771  156.0985 H   0  0  0  0  0  0  0  0  0  0  0  0
  151.1823  143.7230  156.4927 H   0  0  0  0  0  0  0  0  0  0  0  0
  150.2886  143.3132  157.9415 H   0  0  0  0  0  0  0  0  0  0  0  0
  153.2962  143.9295  157.7655 H   0  0  0  0  0  0  0  0  0  0  0  0
  152.0644  144.9466  158.4873 H   0  0  0  0  0  0  0  0  0  0  0  0
  153.8697  141.8497  158.8594 H   0  0  0  0  0  0  0  0  0  0  0  0
  153.0396  141.4231  160.3432 H   0  0  0  0  0  0  0  0  0  0  0  0
  150.9133  141.0516  159.1400 H   0  0  0  0  0  0  0  0  0  0  0  0
  152.1835  140.1010  158.3805 H   0  0  0  0  0  0  0  0  0  0  0  0
  150.8904  138.2409  154.7258 H   0  0  0  0  0  0  0  0  0  0  0  0
  1  2  1  0  0  0  0
  1 21  1  0  0  0  0
  1 22  1  0  0  0  0
  1 23  1  0  0  0  0
  2  3  1  0  0  0  0
  2  4  1  0  0  0  0
  2 24  1  0  0  0  0
  3 25  1  0  0  0  0
  4  5  1  0  0  0  0
  4 26  1  0  0  0  0
  4 27  1  0  0  0  0
  5  6  1  0  0  0  0
  5 28  1  0  0  0  0
  6  7  2  0  0  0  0
  6  8  1  0  0  0  0
  8  9  1  0  0  0  0
  8 29  1  0  0  0  0
  9 20  1  0  0  0  0
  9 10  2  0  0  0  0
 10 11  1  0  0  0  0
 10 30  1  0  0  0  0
 11 12  2  0  0  0  0
 11 31  1  0  0  0  0
 12 13  1  0  0  0  0
 12 19  1  0  0  0  0
 13 18  1  0  0  0  0
 13 14  1  0  0  0  0
 14 15  1  0  0  0  0
 14 32  1  0  0  0  0
 14 33  1  0  0  0  0
 15 16  1  0  0  0  0
 15 34  1  0  0  0  0
 15 35  1  0  0  0  0
 16 17  1  0  0  0  0
 17 18  1  0  0  0  0
 17 36  1  0  0  0  0
 17 37  1  0  0  0  0
 18 38  1  0  0  0  0
 18 39  1  0  0  0  0
 19 20  2  0  0  0  0
 20 40  1  0  0  0  0
M  END
> <s_m_source_file>
AV-unprocessed.smi

> <i_m_source_file_index>
1113

> <i_lp_mmshare_version>
43012

> <i_f3d_flags>
0

> <s_epik_input>
W0NIM11bQ0BIXShbT0hdKVtDSDJdW05IXUMoPU8pW05IXWMxW2NIXVtjSF1jKG5bY0hdMSlOMltDSDJdW0NIMl1PW0NIMl1bQ0gyXTI=

> <s_epik_cmdline>
J2VwaWtfcHl0aG9uJywgJy1waCcsICc3LjAnLCAnLXRuJywgJzgnLCAnLW1hJywgJzIwMCcsICctbWV0YWxfYmluZGluZycsICctaW1hZScsICc8aW5maWxlLm1hZT4nLCAnLW9tYWUnLCAnPG91dGZpbGUubWFlPic=

> <r_lp_tautomer_probability>
1

> <r_epik_Ionization_Penalty>
0.00204837

> <r_epik_Ionization_Penalty_Charging>
0

> <r_epik_Ionization_Penalty_Neutral>
0.00204837

> <r_epik_State_Penalty>
0.00137592

> <r_epik_Charging_Adjusted_Penalty>
0.00137592

> <i_epik_Tot_Q>
0

> <i_epik_Tot_abs_Q>
0

> <r_epik_Metal_State_Penalty>
-0

> <b_epik_Metal_Only>
0

> <s_lp_Force_Field>
OPLS_2005

> <r_lp_Energy>
20.0691

> <b_lp_Chiralities_Consistent>
1

> <s_lp_Variant>
AV-unprocessed.smi:1113-2

> <Gold.Version>
5.8.1

> <Gold.Id.Protein>
6NUR|6NUR_protein|mol2

> <Gold.PLP.Fitness>
42.8896

> <Gold.PLP.PLP>
-36.8626

> <Gold.PLP.part.hbond>
-3.7308

> <Gold.PLP.part.metal>
0.0000

> <Gold.PLP.part.buried>
-0.0470

> <Gold.PLP.part.nonpolar>
-34.1131

> <Gold.PLP.part.repulsive>
0.3811

> <Gold.PLP.ligand.clash>
0.0000

> <Gold.PLP.ligand.torsion>
0.5249

> <Gold.PLP.Chemscore.Hbond>
2.2429

> <Gold.PLP.Chemscore.CHOScore>
0.0000

> <Gold.PLP.Chemscore.Metal>
0.0000

> <Gold.Chemscore.Hbonds>
donor molecule, donor type, donor heavy atom, donor atom, acceptor molecule, acceptor atom, score
      L1  H     3    25       P1 10171  1.00
      L1  H     5    28       P1  7948  1.00
      L1  H     8    29       P1  7948  0.25

> <Gold.PLP.Chemscore.Internal.Correction>
0.3480

> <Gold.Rescore>
     Score         DG    S(hbond)    S(metal)    S(lipo)     H(rot)  DE(clash)    DE(int)     intcor
     15.10     -16.90       1.99        0.00      86.32       2.08       0.29       1.51       ----

> <Gold.Chemscore.Fitness>
15.1038

> <Gold.Chemscore.DG>
-16.9039

> <Gold.Chemscore.ZeroCoef>
-5.4800

> <Gold.Chemscore.Hbond>
1.9906

> <Gold.Chemscore.Metal>
0.0000

> <Gold.Chemscore.Lipo>
86.3237

> <Gold.Chemscore.Internal_Hbond>
0.0000

> <Gold.Chemscore.DEClash>
0.2899

> <Gold.Chemscore.DEInternal>
1.5101

> <Gold.Chemscore.Rot>
2.0799

> <Gold.Chemscore.Internal.Correction>
   9.000000E+99

> <Gold.Chemscore.Hbonds>
donor molecule, donor type, donor heavy atom, donor atom, acceptor molecule, acceptor atom, score
      L1  H     3    25       P1 10171  1.00
      L1  H     5    28       P1  7948  0.95
      L1  H     8    29       P1  7948  0.24

> <Gold.Chemscore.Hbond.Weighted>
-6.6486

> <Gold.Chemscore.Metal.Weighted>
-0.0000

> <Gold.Chemscore.Lipo.Weighted>
-10.0999

> <Gold.Chemscore.Internal_Hbond.Weighted>
0.0000

> <Gold.Chemscore.DEClash.Weighted>
0.2899

> <Gold.Chemscore.DEInternal.Weighted>
1.5101

> <Gold.Chemscore.Rot.Weighted>
5.3246

> <Gold.Chemscore.Internal.Correction.Weighted>
   9.000000E+99

> <Gold.Protein.RotatedTorsions>
[ 6907 6896 6895 6894 ] final  111.97 input  -60.11 | X-H torsion
[ 7974 7965 7964 7962 ] final   -8.18 input  175.53 | X-H torsion
[ 8008 7997 7996 7995 ] final   -6.40 input   59.86 | X-H torsion
[ 10167 10162 10161 10158 ] final   77.55 input  -65.29 | X-H torsion
[ 10718 10713 10712 10709 ] final  -51.98 input   66.30 | X-H torsion
[ 10763 10752 10751 10750 ] final  -98.11 input  -60.55 | X-H torsion
[ 11005 11000 10999 10996 ] final -176.50 input  -57.11 | X-H torsion

> <Gold.Protein.ActiveResidues>
 VAL166  LYS551  ARG553  GLY616  TRP617  ASP618  TYR619  PRO620  LYS621  CYS622 
 ASP623  PHE694  ASN695  SER759  ASP760  ASP761  ALA762  ILE779  LEU786  VAL792 
 PHE793  MET794  SER795  GLU796  ALA797  LYS798  CYS799  TRP800  GLU811  SER814 

> <Gold.Protein.RotatedAtoms>
  152.4941  133.8582  159.7236 H   0  0  0  0  0  0  0  0  0  0  0  0  # atno 6907 bound_to 6896
  150.9100  133.7000  159.2864 H   0  0  0  0  0  0  0  0  0  0  0  0  # atno 6908 bound_to 6896
  151.4412  135.1024  159.9723 H   0  0  0  0  0  0  0  0  0  0  0  0  # atno 6909 bound_to 6896
  146.2287  140.2430  142.8344 H   0  0  0  0  0  0  0  0  0  0  0  0  # atno 7974 bound_to 7965
  154.5941  140.2434  155.7880 H   0  0  0  0  0  0  0  0  0  0  0  0  # atno 8008 bound_to 7997
  156.2267  140.2980  156.0039 H   0  0  0  0  0  0  0  0  0  0  0  0  # atno 8009 bound_to 7997
  155.2323  140.0404  157.2954 H   0  0  0  0  0  0  0  0  0  0  0  0  # atno 8010 bound_to 7997
  139.9804  144.5831  150.7906 H   0  0  0  0  0  0  0  0  0  0  0  0  # atno 10167 bound_to 10162
  156.1662  130.4149  149.9717 H   0  0  0  0  0  0  0  0  0  0  0  0  # atno 10718 bound_to 10713
  154.7386  135.5022  153.9083 H   0  0  0  0  0  0  0  0  0  0  0  0  # atno 10763 bound_to 10752
  153.1020  135.6687  153.9664 H   0  0  0  0  0  0  0  0  0  0  0  0  # atno 10764 bound_to 10752
  153.9447  135.3064  155.3420 H   0  0  0  0  0  0  0  0  0  0  0  0  # atno 10765 bound_to 10752
  140.4514  134.6339  157.4803 H   0  0  0  0  0  0  0  0  0  0  0  0  # atno 11005 bound_to 11000
  144.9470  140.8139  143.5595 LP  0  0  0  0  0  0  0  0  0  0  0  0  # atno 17320 bound_to 7965
  145.2387  139.2082  143.5004 LP  0  0  0  0  0  0  0  0  0  0  0  0  # atno 17321 bound_to 7965
  140.7491  143.2933  151.3271 LP  0  0  0  0  0  0  0  0  0  0  0  0  # atno 17342 bound_to 10162
  139.6414  144.0532  152.2557 LP  0  0  0  0  0  0  0  0  0  0  0  0  # atno 17343 bound_to 10162
  156.7531  130.9123  151.3638 LP  0  0  0  0  0  0  0  0  0  0  0  0  # atno 17370 bound_to 10713
  157.6769  130.9103  150.0173 LP  0  0  0  0  0  0  0  0  0  0  0  0  # atno 17371 bound_to 10713
  140.0004  134.6845  155.9539 LP  0  0  0  0  0  0  0  0  0  0  0  0  # atno 17394 bound_to 11000
  141.1662  133.6537  156.4489 LP  0  0  0  0  0  0  0  0  0  0  0  0  # atno 17395 bound_to 11000

$$$$
