AV-unprocessed.smi:100|AV-procd|sdf|900|dock4
  -GOLD-   2262017393D 1   1.00000     0.00000
 Structure written by MMmdl.
 31 33  0  0  0  0  0  0  0  0  1 V2000
  149.2094  138.3949  153.3704 N   0  0  0  0  0  0  0  0  0  0  0  0
  150.2340  138.8148  154.1253 C   0  0  0  0  0  0  0  0  0  0  0  0
  151.3953  138.1220  154.0748 N   0  0  0  0  0  0  0  0  0  0  0  0
  152.4314  138.5213  154.8190 C   0  0  0  0  0  0  0  0  0  0  0  0
  152.5067  139.5581  155.6572 N   0  0  0  0  0  0  0  0  0  0  0  0
  151.3352  140.2566  155.7096 C   0  0  0  0  0  0  0  0  0  0  0  0
  150.1572  139.9491  154.9726 C   0  0  0  0  0  0  0  0  0  0  0  0
  149.1609  140.8699  155.2649 N   0  0  0  0  0  0  0  0  0  0  0  0
  149.7216  141.6736  156.1277 C   0  0  0  0  0  0  0  0  0  0  0  0
  151.0277  141.3798  156.4551 N   0  0  0  0  0  0  0  0  0  0  0  0
  151.9047  142.1292  157.4159 C   0  0  1  0  0  0  0  0  0  0  0  0
  151.2287  143.2530  157.9002 O   0  0  0  0  0  0  0  0  0  0  0  0
  151.0336  143.1421  159.3090 C   0  0  2  0  0  0  0  0  0  0  0  0
  150.9724  144.5289  159.9675 C   0  0  0  0  0  0  0  0  0  0  0  0
  150.6631  144.4021  161.3390 O   0  0  0  0  0  0  0  0  0  0  0  0
  152.2132  142.2804  159.7628 C   0  0  2  0  0  0  0  0  0  0  0  0
  153.3286  143.0101  159.8410 F   0  0  0  0  0  0  0  0  0  0  0  0
  152.3440  141.2824  158.6273 C   0  0  1  0  0  0  0  0  0  0  0  0
  151.5475  140.1351  158.8651 O   0  0  0  0  0  0  0  0  0  0  0  0
  148.3325  138.8953  153.3908 H   0  0  0  0  0  0  0  0  0  0  0  0
  149.3153  137.5770  152.7880 H   0  0  0  0  0  0  0  0  0  0  0  0
  153.3286  137.9265  154.7302 H   0  0  0  0  0  0  0  0  0  0  0  0
  149.1918  142.5128  156.5546 H   0  0  0  0  0  0  0  0  0  0  0  0
  152.7474  142.4676  156.8113 H   0  0  0  0  0  0  0  0  0  0  0  0
  150.1153  142.5897  159.5118 H   0  0  0  0  0  0  0  0  0  0  0  0
  151.9431  145.0208  159.8963 H   0  0  0  0  0  0  0  0  0  0  0  0
  150.2445  145.1722  159.4724 H   0  0  0  0  0  0  0  0  0  0  0  0
  151.1335  145.0683  161.8164 H   0  0  0  0  0  0  0  0  0  0  0  0
  152.0603  141.8184  160.7387 H   0  0  0  0  0  0  0  0  0  0  0  0
  153.3749  140.9539  158.4895 H   0  0  0  0  0  0  0  0  0  0  0  0
  151.5160  139.9807  159.7970 H   0  0  0  0  0  0  0  0  0  0  0  0
  1  2  1  0  0  0  0
  1 20  1  0  0  0  0
  1 21  1  0  0  0  0
  2  7  1  0  0  0  0
  2  3  2  0  0  0  0
  3  4  1  0  0  0  0
  4  5  2  0  0  0  0
  4 22  1  0  0  0  0
  5  6  1  0  0  0  0
  6 10  1  0  0  0  0
  6  7  2  0  0  0  0
  7  8  1  0  0  0  0
  8  9  2  0  0  0  0
  9 10  1  0  0  0  0
  9 23  1  0  0  0  0
 10 11  1  0  0  0  0
 11 18  1  0  0  0  0
 11 12  1  0  0  0  0
 11 24  1  0  0  0  0
 12 13  1  0  0  0  0
 13 14  1  0  0  0  0
 13 16  1  0  0  0  0
 13 25  1  0  0  0  0
 14 15  1  0  0  0  0
 14 26  1  0  0  0  0
 14 27  1  0  0  0  0
 15 28  1  0  0  0  0
 16 17  1  0  0  0  0
 16 18  1  0  0  0  0
 16 29  1  0  0  0  0
 18 19  1  0  0  0  0
 18 30  1  0  0  0  0
 19 31  1  0  0  0  0
M  END
> <s_m_source_file>
AV-unprocessed.smi

> <i_m_source_file_index>
100

> <i_lp_mmshare_version>
43012

> <i_f3d_flags>
0

> <s_epik_input>
bjFbY0hdbmMoW05IMl0pYyhjMTIpbltjSF1uMltDQEBIXTNPW0NAQEhdKFtDSDJdW09IXSlbQ0BIXShGKVtDQEhdM1tPSF0=

> <s_epik_cmdline>
J2VwaWtfcHl0aG9uJywgJy1waCcsICc3LjAnLCAnLXRuJywgJzgnLCAnLW1hJywgJzIwMCcsICctbWV0YWxfYmluZGluZycsICctaW1hZScsICc8aW5maWxlLm1hZT4nLCAnLW9tYWUnLCAnPG91dGZpbGUubWFlPic=

> <r_lp_tautomer_probability>
1

> <r_epik_Ionization_Penalty>
0.000750324

> <r_epik_Ionization_Penalty_Charging>
0

> <r_epik_Ionization_Penalty_Neutral>
0.000750324

> <r_epik_State_Penalty>
-0

> <r_epik_Charging_Adjusted_Penalty>
0

> <i_epik_Tot_Q>
0

> <i_epik_Tot_abs_Q>
0

> <r_epik_Metal_State_Penalty>
-0

> <b_epik_Metal_Only>
0

> <s_epik_Chemistry_Notes>
This compound contains an acetal/aminal-like group ( X-CH(R)-Y where X, Y are N, S, or O) that may be acid/base labile, releasing an aldehyde.

> <s_lp_Force_Field>
OPLS_2005

> <r_lp_Energy>
36.2821

> <b_lp_Chiralities_Consistent>
1

> <s_lp_Variant>
AV-unprocessed.smi:100-4

> <Gold.Version>
5.8.1

> <Gold.Id.Protein>
6NUR|6NUR_protein|mol2

> <Gold.PLP.Fitness>
45.7706

> <Gold.PLP.PLP>
-36.8556

> <Gold.PLP.part.hbond>
-4.5938

> <Gold.PLP.part.metal>
0.0000

> <Gold.PLP.part.buried>
-5.1856

> <Gold.PLP.part.nonpolar>
-26.3517

> <Gold.PLP.part.repulsive>
0.4941

> <Gold.PLP.ligand.clash>
0.0000

> <Gold.PLP.ligand.torsion>
0.0447

> <Gold.PLP.Chemscore.Hbond>
2.0000

> <Gold.PLP.Chemscore.CHOScore>
1.0000

> <Gold.PLP.Chemscore.Metal>
0.0000

> <Gold.Chemscore.Hbonds>
donor molecule, donor type, donor heavy atom, donor atom, acceptor molecule, acceptor atom, score
      L1  H     1    21       P1  7948  1.00
      P1  H  7997  8010       L1     5  1.00
      L1  C     9    23       P1  8028  0.99

> <Gold.PLP.Chemscore.Internal.Correction>
0.0044

> <Gold.Rescore>
     Score         DG    S(hbond)    S(metal)    S(lipo)     H(rot)  DE(clash)    DE(int)     intcor
      7.57      -9.33       1.94        0.00      47.19       3.19       1.73       0.02       ----

> <Gold.Chemscore.Fitness>
7.5730

> <Gold.Chemscore.DG>
-9.3288

> <Gold.Chemscore.ZeroCoef>
-5.4800

> <Gold.Chemscore.Hbond>
1.9443

> <Gold.Chemscore.Metal>
0.0000

> <Gold.Chemscore.Lipo>
47.1933

> <Gold.Chemscore.Internal_Hbond>
0.0000

> <Gold.Chemscore.DEClash>
1.7333

> <Gold.Chemscore.DEInternal>
0.0225

> <Gold.Chemscore.Rot>
3.1901

> <Gold.Chemscore.Internal.Correction>
   9.000000E+99

> <Gold.Chemscore.Hbonds>
donor molecule, donor type, donor heavy atom, donor atom, acceptor molecule, acceptor atom, score
      L1  H     1    21       P1  7948  0.92
      P1  H  7997  8010       L1     5  0.86

> <Gold.Chemscore.Hbond.Weighted>
-6.4939

> <Gold.Chemscore.Metal.Weighted>
-0.0000

> <Gold.Chemscore.Lipo.Weighted>
-5.5216

> <Gold.Chemscore.Internal_Hbond.Weighted>
0.0000

> <Gold.Chemscore.DEClash.Weighted>
1.7333

> <Gold.Chemscore.DEInternal.Weighted>
0.0225

> <Gold.Chemscore.Rot.Weighted>
8.1667

> <Gold.Chemscore.Internal.Correction.Weighted>
   9.000000E+99

> <Gold.Protein.RotatedTorsions>
[ 6907 6896 6895 6894 ] final  -98.16 input  -60.11 | X-H torsion
[ 7974 7965 7964 7962 ] final  -66.31 input  175.53 | X-H torsion
[ 8008 7997 7996 7995 ] final   93.44 input   59.86 | X-H torsion
[ 10167 10162 10161 10158 ] final  -93.45 input  -65.29 | X-H torsion
[ 10718 10713 10712 10709 ] final   14.37 input   66.30 | X-H torsion
[ 10763 10752 10751 10750 ] final  -36.40 input  -60.55 | X-H torsion
[ 11005 11000 10999 10996 ] final  150.20 input  -57.11 | X-H torsion

> <Gold.Protein.ActiveResidues>
 VAL166  LYS551  ARG553  GLY616  TRP617  ASP618  TYR619  PRO620  LYS621  CYS622 
 ASP623  PHE694  ASN695  SER759  ASP760  ASP761  ALA762  ILE779  LEU786  VAL792 
 PHE793  MET794  SER795  GLU796  ALA797  LYS798  CYS799  TRP800  GLU811  SER814 

> <Gold.Protein.RotatedAtoms>
  150.7038  134.1237  159.4043 H   0  0  0  0  0  0  0  0  0  0  0  0  # atno 6907 bound_to 6896
  151.9223  135.0290  160.0532 H   0  0  0  0  0  0  0  0  0  0  0  0  # atno 6908 bound_to 6896
  152.2245  133.4974  159.5218 H   0  0  0  0  0  0  0  0  0  0  0  0  # atno 6909 bound_to 6896
  145.7434  140.8943  143.0518 H   0  0  0  0  0  0  0  0  0  0  0  0  # atno 7974 bound_to 7965
  156.0467  140.3313  155.7305 H   0  0  0  0  0  0  0  0  0  0  0  0  # atno 8008 bound_to 7997
  155.5662  140.0623  157.2835 H   0  0  0  0  0  0  0  0  0  0  0  0  # atno 8009 bound_to 7997
  154.4417  140.1868  156.0821 H   0  0  0  0  0  0  0  0  0  0  0  0  # atno 8010 bound_to 7997
  140.3245  143.3030  152.0010 H   0  0  0  0  0  0  0  0  0  0  0  0  # atno 10167 bound_to 10162
  157.0382  130.6220  149.5746 H   0  0  0  0  0  0  0  0  0  0  0  0  # atno 10718 bound_to 10713
  153.8792  135.6823  153.4768 H   0  0  0  0  0  0  0  0  0  0  0  0  # atno 10763 bound_to 10752
  153.1243  135.4726  154.9245 H   0  0  0  0  0  0  0  0  0  0  0  0  # atno 10764 bound_to 10752
  154.7677  135.3229  154.8204 H   0  0  0  0  0  0  0  0  0  0  0  0  # atno 10765 bound_to 10752
  140.1111  134.8923  157.1937 H   0  0  0  0  0  0  0  0  0  0  0  0  # atno 11005 bound_to 11000
  144.6865  139.9491  143.7477 LP  0  0  0  0  0  0  0  0  0  0  0  0  # atno 17320 bound_to 7965
  146.0426  139.3436  143.0688 LP  0  0  0  0  0  0  0  0  0  0  0  0  # atno 17321 bound_to 7965
  139.4868  144.6284  151.7118 LP  0  0  0  0  0  0  0  0  0  0  0  0  # atno 17342 bound_to 10162
  140.5453  144.0513  150.6104 LP  0  0  0  0  0  0  0  0  0  0  0  0  # atno 17343 bound_to 10162
  156.0047  130.5132  150.7787 LP  0  0  0  0  0  0  0  0  0  0  0  0  # atno 17370 bound_to 10713
  157.5125  131.0926  151.0180 LP  0  0  0  0  0  0  0  0  0  0  0  0  # atno 17371 bound_to 10713
  140.3090  134.3045  155.7271 LP  0  0  0  0  0  0  0  0  0  0  0  0  # atno 17394 bound_to 11000
  141.2130  133.7638  156.9749 LP  0  0  0  0  0  0  0  0  0  0  0  0  # atno 17395 bound_to 11000

$$$$
