AV-unprocessed.smi:3348|AV-procd|sdf|12920|dock10
  -GOLD-   2272019343D 1   1.00000     0.00000
 Structure written by MMmdl.
 47 48  0  0  0  0  0  0  0  0  2 V2000
  144.6997  136.9387  153.3695 C   0  0  0  0  0  0  0  0  0  0  0  0
  145.9369  136.4542  152.6023 C   0  0  1  0  0  0  0  0  0  0  0  0
  145.5616  135.9819  151.1833 C   0  0  0  0  0  0  0  0  0  0  0  0
  144.7893  134.7518  151.1911 N   0  0  0  0  0  0  0  0  0  0  0  0
  144.8507  133.6954  150.3069 C   0  0  0  0  0  0  0  0  0  0  0  0
  143.9304  132.7723  150.7136 C   0  0  0  0  0  0  0  0  0  0  0  0
  143.3493  133.3602  151.8717 C   0  0  0  0  0  0  0  0  0  0  0  0
  143.8643  134.5460  152.1544 N   0  0  0  0  0  0  0  0  0  0  0  0
  146.9395  137.5413  152.5447 N   0  3  0  0  0  0  0  0  0  0  0  0
  146.5526  138.6991  151.7128 C   0  0  0  0  0  0  0  0  0  0  0  0
  147.4379  139.9096  152.0190 C   0  0  0  0  0  0  0  0  0  0  0  0
  147.2008  140.3178  153.3573 O   0  0  0  0  0  0  0  0  0  0  0  0
  147.9113  141.4876  153.7489 C   0  0  2  0  0  0  0  0  0  0  0  0
  149.2325  141.0383  154.4000 C   0  0  0  0  0  0  0  0  0  0  0  0
  148.9964  140.2887  155.7220 C   0  0  0  0  0  0  0  0  0  0  0  0
  148.1572  141.1287  156.6960 C   0  0  0  0  0  0  0  0  0  0  0  0
  146.8298  141.5648  156.0558 C   0  0  0  0  0  0  0  0  0  0  0  0
  147.0609  142.3244  154.7342 C   0  0  2  0  0  0  0  0  0  0  0  0
  145.7385  142.8039  154.1163 C   0  0  0  0  0  0  0  0  0  0  0  0
  143.9550  136.1467  153.4543 H   0  0  0  0  0  0  0  0  0  0  0  0
  144.2278  137.7860  152.8704 H   0  0  0  0  0  0  0  0  0  0  0  0
  144.9624  137.2515  154.3806 H   0  0  0  0  0  0  0  0  0  0  0  0
  146.3507  135.6060  153.1512 H   0  0  0  0  0  0  0  0  0  0  0  0
  144.9678  136.7463  150.6802 H   0  0  0  0  0  0  0  0  0  0  0  0
  146.4558  135.8356  150.5749 H   0  0  0  0  0  0  0  0  0  0  0  0
  145.5350  133.6887  149.4711 H   0  0  0  0  0  0  0  0  0  0  0  0
  143.7070  131.8207  150.2547 H   0  0  0  0  0  0  0  0  0  0  0  0
  142.5737  132.9637  152.5102 H   0  0  0  0  0  0  0  0  0  0  0  0
  147.1053  137.8651  153.4874 H   0  0  0  0  0  0  0  0  0  0  0  0
  146.6215  138.4347  150.6569 H   0  0  0  0  0  0  0  0  0  0  0  0
  145.5115  138.9529  151.9165 H   0  0  0  0  0  0  0  0  0  0  0  0
  148.4881  139.6384  151.9031 H   0  0  0  0  0  0  0  0  0  0  0  0
  147.2288  140.7186  151.3177 H   0  0  0  0  0  0  0  0  0  0  0  0
  148.1582  142.1012  152.8800 H   0  0  0  0  0  0  0  0  0  0  0  0
  149.7931  140.4076  153.7093 H   0  0  0  0  0  0  0  0  0  0  0  0
  149.8562  141.9127  154.5901 H   0  0  0  0  0  0  0  0  0  0  0  0
  148.4891  139.3436  155.5239 H   0  0  0  0  0  0  0  0  0  0  0  0
  149.9524  140.0346  156.1801 H   0  0  0  0  0  0  0  0  0  0  0  0
  147.9615  140.5589  157.6048 H   0  0  0  0  0  0  0  0  0  0  0  0
  148.7237  142.0099  156.9998 H   0  0  0  0  0  0  0  0  0  0  0  0
  146.2053  140.6885  155.8766 H   0  0  0  0  0  0  0  0  0  0  0  0
  146.2805  142.1953  156.7559 H   0  0  0  0  0  0  0  0  0  0  0  0
  147.6367  143.2200  154.9733 H   0  0  0  0  0  0  0  0  0  0  0  0
  145.0814  141.9674  153.8779 H   0  0  0  0  0  0  0  0  0  0  0  0
  145.9142  143.3661  153.1989 H   0  0  0  0  0  0  0  0  0  0  0  0
  145.2015  143.4581  154.8036 H   0  0  0  0  0  0  0  0  0  0  0  0
  147.8028  137.1655  152.1787 H   0  0  0  0  0  0  0  0  0  0  0  0
  1  2  1  0  0  0  0
  1 20  1  0  0  0  0
  1 21  1  0  0  0  0
  1 22  1  0  0  0  0
  2  3  1  0  0  0  0
  2  9  1  0  0  0  0
  2 23  1  0  0  0  0
  3  4  1  0  0  0  0
  3 24  1  0  0  0  0
  3 25  1  0  0  0  0
  4  8  1  0  0  0  0
  4  5  1  0  0  0  0
  5  6  2  0  0  0  0
  5 26  1  0  0  0  0
  6  7  1  0  0  0  0
  6 27  1  0  0  0  0
  7  8  2  0  0  0  0
  7 28  1  0  0  0  0
  9 10  1  0  0  0  0
  9 29  1  0  0  0  0
  9 47  1  0  0  0  0
 10 11  1  0  0  0  0
 10 30  1  0  0  0  0
 10 31  1  0  0  0  0
 11 12  1  0  0  0  0
 11 32  1  0  0  0  0
 11 33  1  0  0  0  0
 12 13  1  0  0  0  0
 13 18  1  0  0  0  0
 13 14  1  0  0  0  0
 13 34  1  0  0  0  0
 14 15  1  0  0  0  0
 14 35  1  0  0  0  0
 14 36  1  0  0  0  0
 15 16  1  0  0  0  0
 15 37  1  0  0  0  0
 15 38  1  0  0  0  0
 16 17  1  0  0  0  0
 16 39  1  0  0  0  0
 16 40  1  0  0  0  0
 17 18  1  0  0  0  0
 17 41  1  0  0  0  0
 17 42  1  0  0  0  0
 18 19  1  0  0  0  0
 18 43  1  0  0  0  0
 19 44  1  0  0  0  0
 19 45  1  0  0  0  0
 19 46  1  0  0  0  0
M  CHG  1   9   1
M  END
> <s_m_source_file>
AV-unprocessed.smi

> <i_m_source_file_index>
3348

> <i_lp_mmshare_version>
43012

> <i_f3d_flags>
0

> <s_epik_input>
bjFbY0hdW2NIXVtjSF1uMVtDSDJdW0NAQEhdKFtDSDNdKVtOSF1bQ0gyXVtDSDJdT1tDQEBIXTJbQ0gyXVtDSDJdW0NIMl1bQ0gyXVtDQEhdMltDSDNd

> <s_epik_cmdline>
J2VwaWtfcHl0aG9uJywgJy1waCcsICc3LjAnLCAnLXRuJywgJzgnLCAnLW1hJywgJzIwMCcsICctbWV0YWxfYmluZGluZycsICctaW1hZScsICc8aW5maWxlLm1hZT4nLCAnLW9tYWUnLCAnPG91dGZpbGUubWFlPic=

> <r_lp_tautomer_probability>
1

> <r_epik_Ionization_Penalty>
0.00925088

> <r_epik_Ionization_Penalty_Charging>
0.00924645

> <r_epik_Ionization_Penalty_Neutral>
4.42413e-06

> <r_epik_State_Penalty>
0.0070118

> <r_epik_Charging_Adjusted_Penalty>
0.0162583

> <i_epik_Tot_Q>
1

> <i_epik_Tot_abs_Q>
1

> <r_epik_Metal_State_Penalty>
0.00701222

> <b_epik_Metal_Only>
0

> <s_lp_Force_Field>
OPLS_2005

> <r_lp_Energy>
18.0188

> <b_lp_Chiralities_Consistent>
1

> <s_lp_Variant>
AV-unprocessed.smi:3348-6

> <Gold.Version>
5.8.1

> <Gold.Id.Protein>
6NUR|6NUR_protein|mol2

> <Gold.PLP.Fitness>
44.5701

> <Gold.PLP.PLP>
-34.3396

> <Gold.PLP.part.hbond>
-1.0000

> <Gold.PLP.part.metal>
0.0000

> <Gold.PLP.part.buried>
1.8536

> <Gold.PLP.part.nonpolar>
-36.0850

> <Gold.PLP.part.repulsive>
0.3694

> <Gold.PLP.ligand.clash>
0.0000

> <Gold.PLP.ligand.torsion>
0.9171

> <Gold.PLP.Chemscore.Hbond>
2.0000

> <Gold.PLP.Chemscore.CHOScore>
1.9926

> <Gold.PLP.Chemscore.Metal>
0.0000

> <Gold.Chemscore.Hbonds>
donor molecule, donor type, donor heavy atom, donor atom, acceptor molecule, acceptor atom, score
      L1  H     9    47       P1  7948  1.85
      L1  C     5    26       P1  7921  1.00
      L1  C     7    28       P1 10957  0.87

> <Gold.PLP.Chemscore.Internal.Correction>
0.0870

> <Gold.Rescore>
     Score         DG    S(hbond)    S(metal)    S(lipo)     H(rot)  DE(clash)    DE(int)     intcor
     11.43     -15.46       0.99        0.00      96.90       1.82       1.92       2.11       ----

> <Gold.Chemscore.Fitness>
11.4341

> <Gold.Chemscore.DG>
-15.4619

> <Gold.Chemscore.ZeroCoef>
-5.4800

> <Gold.Chemscore.Hbond>
0.9863

> <Gold.Chemscore.Metal>
0.0000

> <Gold.Chemscore.Lipo>
96.9004

> <Gold.Chemscore.Internal_Hbond>
0.0000

> <Gold.Chemscore.DEClash>
1.9158

> <Gold.Chemscore.DEInternal>
2.1120

> <Gold.Chemscore.Rot>
1.8163

> <Gold.Chemscore.Internal.Correction>
   9.000000E+99

> <Gold.Chemscore.Hbonds>
donor molecule, donor type, donor heavy atom, donor atom, acceptor molecule, acceptor atom, score
      L1  H     9    47       P1  7948  0.88

> <Gold.Chemscore.Hbond.Weighted>
-3.2943

> <Gold.Chemscore.Metal.Weighted>
-0.0000

> <Gold.Chemscore.Lipo.Weighted>
-11.3373

> <Gold.Chemscore.Internal_Hbond.Weighted>
0.0000

> <Gold.Chemscore.DEClash.Weighted>
1.9158

> <Gold.Chemscore.DEInternal.Weighted>
2.1120

> <Gold.Chemscore.Rot.Weighted>
4.6497

> <Gold.Chemscore.Internal.Correction.Weighted>
   9.000000E+99

> <Gold.Protein.RotatedTorsions>
[ 6907 6896 6895 6894 ] final  153.66 input  -60.11 | X-H torsion
[ 7974 7965 7964 7962 ] final -177.20 input  175.53 | X-H torsion
[ 8008 7997 7996 7995 ] final  178.51 input   59.86 | X-H torsion
[ 10167 10162 10161 10158 ] final   93.76 input  -65.29 | X-H torsion
[ 10718 10713 10712 10709 ] final  -51.38 input   66.30 | X-H torsion
[ 10763 10752 10751 10750 ] final  -44.99 input  -60.55 | X-H torsion
[ 11005 11000 10999 10996 ] final  -59.19 input  -57.11 | X-H torsion

> <Gold.Protein.ActiveResidues>
 VAL166  LYS551  ARG553  GLY616  TRP617  ASP618  TYR619  PRO620  LYS621  CYS622 
 ASP623  PHE694  ASN695  SER759  ASP760  ASP761  ALA762  ILE779  LEU786  VAL792 
 PHE793  MET794  SER795  GLU796  ALA797  LYS798  CYS799  TRP800  GLU811  SER814 

> <Gold.Protein.RotatedAtoms>
  152.0695  133.4100  159.4452 H   0  0  0  0  0  0  0  0  0  0  0  0  # atno 6907 bound_to 6896
  150.6864  134.3108  159.4755 H   0  0  0  0  0  0  0  0  0  0  0  0  # atno 6908 bound_to 6896
  152.0938  134.9388  160.0622 H   0  0  0  0  0  0  0  0  0  0  0  0  # atno 6909 bound_to 6896
  144.7127  140.1055  143.6414 H   0  0  0  0  0  0  0  0  0  0  0  0  # atno 7974 bound_to 7965
  156.0538  140.1331  157.0019 H   0  0  0  0  0  0  0  0  0  0  0  0  # atno 8008 bound_to 7997
  154.4448  140.1005  156.6487 H   0  0  0  0  0  0  0  0  0  0  0  0  # atno 8009 bound_to 7997
  155.5482  140.3462  155.4464 H   0  0  0  0  0  0  0  0  0  0  0  0  # atno 8010 bound_to 7997
  139.8149  144.6757  150.9593 H   0  0  0  0  0  0  0  0  0  0  0  0  # atno 10167 bound_to 10162
  156.1716  130.4149  149.9639 H   0  0  0  0  0  0  0  0  0  0  0  0  # atno 10718 bound_to 10713
  154.0211  135.6669  153.4772 H   0  0  0  0  0  0  0  0  0  0  0  0  # atno 10763 bound_to 10752
  153.0579  135.5045  154.8022 H   0  0  0  0  0  0  0  0  0  0  0  0  # atno 10764 bound_to 10752
  154.6936  135.3066  154.9408 H   0  0  0  0  0  0  0  0  0  0  0  0  # atno 10765 bound_to 10752
  141.1238  133.6615  156.5034 H   0  0  0  0  0  0  0  0  0  0  0  0  # atno 11005 bound_to 11000
  145.9500  139.2727  143.1217 LP  0  0  0  0  0  0  0  0  0  0  0  0  # atno 17320 bound_to 7965
  145.9333  140.9033  143.0345 LP  0  0  0  0  0  0  0  0  0  0  0  0  # atno 17321 bound_to 7965
  140.7816  143.4149  151.0934 LP  0  0  0  0  0  0  0  0  0  0  0  0  # atno 17342 bound_to 10162
  139.7813  143.8351  152.3138 LP  0  0  0  0  0  0  0  0  0  0  0  0  # atno 17343 bound_to 10162
  156.7438  130.9089  151.3633 LP  0  0  0  0  0  0  0  0  0  0  0  0  # atno 17370 bound_to 10713
  157.6806  130.9136  150.0258 LP  0  0  0  0  0  0  0  0  0  0  0  0  # atno 17371 bound_to 10713
  140.4428  134.7000  157.5000 LP  0  0  0  0  0  0  0  0  0  0  0  0  # atno 17394 bound_to 11000
  140.0218  134.6536  155.9229 LP  0  0  0  0  0  0  0  0  0  0  0  0  # atno 17395 bound_to 11000

$$$$
