AV-unprocessed.smi:2829|AV-procd|sdf|10899|dock10
  -GOLD-   2272015343D 1   1.00000     0.00000
 Structure written by MMmdl.
 50 53  0  0  0  0  0  0  0  0  1 V2000
  144.1302  134.2205  162.3513 C   0  0  0  0  0  0  0  0  0  0  0  0
  145.2846  134.6853  161.4347 C   0  0  0  0  0  0  0  0  0  0  0  0
  145.4369  136.2097  161.6189 C   0  0  0  0  0  0  0  0  0  0  0  0
  146.5683  133.9701  161.9051 C   0  0  0  0  0  0  0  0  0  0  0  0
  145.0245  134.3644  159.9519 C   0  0  0  0  0  0  0  0  0  0  0  0
  143.8404  133.7475  159.4885 C   0  0  0  0  0  0  0  0  0  0  0  0
  143.7241  133.5080  158.1088 C   0  0  0  0  0  0  0  0  0  0  0  0
  144.7864  133.8956  157.2679 C   0  0  0  0  0  0  0  0  0  0  0  0
  144.6026  133.6205  155.8881 N   0  0  0  0  0  0  0  0  0  0  0  0
  145.3557  134.0337  154.8501 C   0  0  0  0  0  0  0  0  0  0  0  0
  146.3021  134.8137  154.9366 O   0  0  0  0  0  0  0  0  0  0  0  0
  144.9802  133.5248  153.6642 N   0  0  0  0  0  0  0  0  0  0  0  0
  145.5829  133.7703  152.3546 C   0  0  1  0  0  0  0  0  0  0  0  0
  144.8658  133.0071  151.2391 C   0  0  2  0  0  0  0  0  0  0  0  0
  145.2219  131.8448  150.3852 C   0  0  0  0  0  0  0  0  0  0  0  0
  144.7101  132.4148  149.0377 C   0  0  0  0  0  0  0  0  0  0  0  0
  144.3954  133.8057  149.2910 O   0  0  0  0  0  0  0  0  0  0  0  0
  145.2589  134.1749  150.3493 C   0  0  1  0  0  0  0  0  0  0  0  0
  145.0247  135.0280  151.6032 C   0  0  0  0  0  0  0  0  0  0  0  0
  145.6699  136.4107  151.7539 C   0  0  0  0  0  0  0  0  0  0  0  0
  144.4157  136.8732  152.5036 C   0  0  0  0  0  0  0  0  0  0  0  0
  143.6625  135.6793  151.9071 C   0  0  0  0  0  0  0  0  0  0  0  0
  145.8960  134.4826  157.7817 N   0  0  0  0  0  0  0  0  0  0  0  0
  146.0136  134.7115  159.0927 N   0  0  0  0  0  0  0  0  0  0  0  0
  144.3341  134.4610  163.3954 H   0  0  0  0  0  0  0  0  0  0  0  0
  143.9814  133.1413  162.2972 H   0  0  0  0  0  0  0  0  0  0  0  0
  143.1884  134.7055  162.0912 H   0  0  0  0  0  0  0  0  0  0  0  0
  144.5427  136.7393  161.2879 H   0  0  0  0  0  0  0  0  0  0  0  0
  146.2807  136.6044  161.0516 H   0  0  0  0  0  0  0  0  0  0  0  0
  145.6049  136.4692  162.6646 H   0  0  0  0  0  0  0  0  0  0  0  0
  146.7701  134.1672  162.9584 H   0  0  0  0  0  0  0  0  0  0  0  0
  147.4441  134.2990  161.3445 H   0  0  0  0  0  0  0  0  0  0  0  0
  146.4870  132.8896  161.7825 H   0  0  0  0  0  0  0  0  0  0  0  0
  143.0354  133.4586  160.1462 H   0  0  0  0  0  0  0  0  0  0  0  0
  142.8376  133.0374  157.7089 H   0  0  0  0  0  0  0  0  0  0  0  0
  143.8359  133.0033  155.6655 H   0  0  0  0  0  0  0  0  0  0  0  0
  144.1749  132.9156  153.6703 H   0  0  0  0  0  0  0  0  0  0  0  0
  146.6708  133.6662  152.3192 H   0  0  0  0  0  0  0  0  0  0  0  0
  143.7881  132.9918  151.4410 H   0  0  0  0  0  0  0  0  0  0  0  0
  146.2974  131.6625  150.3706 H   0  0  0  0  0  0  0  0  0  0  0  0
  144.7065  130.9298  150.6780 H   0  0  0  0  0  0  0  0  0  0  0  0
  145.4754  132.3325  148.2650 H   0  0  0  0  0  0  0  0  0  0  0  0
  143.8175  131.8959  148.6877 H   0  0  0  0  0  0  0  0  0  0  0  0
  146.3092  134.1623  150.0399 H   0  0  0  0  0  0  0  0  0  0  0  0
  146.5858  136.4287  152.3447 H   0  0  0  0  0  0  0  0  0  0  0  0
  145.7979  136.9191  150.7972 H   0  0  0  0  0  0  0  0  0  0  0  0
  144.5215  136.8073  153.5871 H   0  0  0  0  0  0  0  0  0  0  0  0
  144.0370  137.8481  152.1958 H   0  0  0  0  0  0  0  0  0  0  0  0
  143.1137  135.9413  151.0014 H   0  0  0  0  0  0  0  0  0  0  0  0
  143.0313  135.1432  152.6159 H   0  0  0  0  0  0  0  0  0  0  0  0
  1  2  1  0  0  0  0
  1 25  1  0  0  0  0
  1 26  1  0  0  0  0
  1 27  1  0  0  0  0
  2  3  1  0  0  0  0
  2  4  1  0  0  0  0
  2  5  1  0  0  0  0
  3 28  1  0  0  0  0
  3 29  1  0  0  0  0
  3 30  1  0  0  0  0
  4 31  1  0  0  0  0
  4 32  1  0  0  0  0
  4 33  1  0  0  0  0
  5 24  1  0  0  0  0
  5  6  2  0  0  0  0
  6  7  1  0  0  0  0
  6 34  1  0  0  0  0
  7  8  2  0  0  0  0
  7 35  1  0  0  0  0
  8  9  1  0  0  0  0
  8 23  1  0  0  0  0
  9 10  1  0  0  0  0
  9 36  1  0  0  0  0
 10 11  2  0  0  0  0
 10 12  1  0  0  0  0
 12 13  1  0  0  0  0
 12 37  1  0  0  0  0
 13 19  1  0  0  0  0
 13 14  1  0  0  0  0
 13 38  1  0  0  0  0
 14 18  1  0  0  0  0
 14 15  1  0  0  0  0
 14 39  1  0  0  0  0
 15 16  1  0  0  0  0
 15 40  1  0  0  0  0
 15 41  1  0  0  0  0
 16 17  1  0  0  0  0
 16 42  1  0  0  0  0
 16 43  1  0  0  0  0
 17 18  1  0  0  0  0
 18 19  1  0  0  0  0
 18 44  1  0  0  0  0
 19 22  1  0  0  0  0
 19 20  1  0  0  0  0
 20 21  1  0  0  0  0
 20 45  1  0  0  0  0
 20 46  1  0  0  0  0
 21 22  1  0  0  0  0
 21 47  1  0  0  0  0
 21 48  1  0  0  0  0
 22 49  1  0  0  0  0
 22 50  1  0  0  0  0
 23 24  2  0  0  0  0
M  END
> <s_m_source_file>
AV-unprocessed.smi

> <i_m_source_file_index>
2829

> <i_lp_mmshare_version>
43012

> <i_f3d_flags>
0

> <s_epik_input>
W0NIM11DKFtDSDNdKShbQ0gzXSljMVtjSF1bY0hdYyhubjEpW05IXUMoPU8pW05IXVtDQEBIXTJbQ0BIXShbQ0gyXVtDSDJdTzMpW0NAQEhdM0MyNFtDSDJdW0NIMl1bQ0gyXTQ=

> <s_epik_cmdline>
J2VwaWtfcHl0aG9uJywgJy1waCcsICc3LjAnLCAnLXRuJywgJzgnLCAnLW1hJywgJzIwMCcsICctbWV0YWxfYmluZGluZycsICctaW1hZScsICc8aW5maWxlLm1hZT4nLCAnLW9tYWUnLCAnPG91dGZpbGUubWFlPic=

> <r_lp_tautomer_probability>
1

> <r_epik_Ionization_Penalty>
0.011915

> <r_epik_Ionization_Penalty_Charging>
0

> <r_epik_Ionization_Penalty_Neutral>
0.011915

> <r_epik_State_Penalty>
0.00486223

> <r_epik_Charging_Adjusted_Penalty>
0.00486223

> <i_epik_Tot_Q>
0

> <i_epik_Tot_abs_Q>
0

> <r_epik_Metal_State_Penalty>
-0

> <b_epik_Metal_Only>
0

> <s_lp_Force_Field>
OPLS_2005

> <r_lp_Energy>
82.5072

> <b_lp_Chiralities_Consistent>
1

> <s_lp_Variant>
AV-unprocessed.smi:2829-2

> <Gold.Version>
5.8.1

> <Gold.Id.Protein>
6NUR|6NUR_protein|mol2

> <Gold.PLP.Fitness>
38.8509

> <Gold.PLP.PLP>
-32.9596

> <Gold.PLP.part.hbond>
-2.0000

> <Gold.PLP.part.metal>
0.0000

> <Gold.PLP.part.buried>
-6.2419

> <Gold.PLP.part.nonpolar>
-25.0360

> <Gold.PLP.part.repulsive>
0.8426

> <Gold.PLP.ligand.clash>
0.0000

> <Gold.PLP.ligand.torsion>
0.2154

> <Gold.PLP.Chemscore.Hbond>
2.0000

> <Gold.PLP.Chemscore.CHOScore>
0.0000

> <Gold.PLP.Chemscore.Metal>
0.0000

> <Gold.Chemscore.Hbonds>
donor molecule, donor type, donor heavy atom, donor atom, acceptor molecule, acceptor atom, score
      L1  H     9    36       P1 10957  1.00
      L1  H    12    37       P1 10957  0.59

> <Gold.PLP.Chemscore.Internal.Correction>
0.3221

> <Gold.Rescore>
     Score         DG    S(hbond)    S(metal)    S(lipo)     H(rot)  DE(clash)    DE(int)     intcor
     17.55     -19.07       1.84        0.00      89.19       1.16       0.03       1.49       ----

> <Gold.Chemscore.Fitness>
17.5490

> <Gold.Chemscore.DG>
-19.0713

> <Gold.Chemscore.ZeroCoef>
-5.4800

> <Gold.Chemscore.Hbond>
1.8356

> <Gold.Chemscore.Metal>
0.0000

> <Gold.Chemscore.Lipo>
89.1854

> <Gold.Chemscore.Internal_Hbond>
0.0000

> <Gold.Chemscore.DEClash>
0.0308

> <Gold.Chemscore.DEInternal>
1.4915

> <Gold.Chemscore.Rot>
1.1618

> <Gold.Chemscore.Internal.Correction>
   9.000000E+99

> <Gold.Chemscore.Hbonds>
donor molecule, donor type, donor heavy atom, donor atom, acceptor molecule, acceptor atom, score
      L1  H     9    36       P1 10957  1.00
      L1  H    12    37       P1 10957  0.45

> <Gold.Chemscore.Hbond.Weighted>
-6.1308

> <Gold.Chemscore.Metal.Weighted>
-0.0000

> <Gold.Chemscore.Lipo.Weighted>
-10.4347

> <Gold.Chemscore.Internal_Hbond.Weighted>
0.0000

> <Gold.Chemscore.DEClash.Weighted>
0.0308

> <Gold.Chemscore.DEInternal.Weighted>
1.4915

> <Gold.Chemscore.Rot.Weighted>
2.9741

> <Gold.Chemscore.Internal.Correction.Weighted>
   9.000000E+99

> <Gold.Protein.RotatedTorsions>
[ 6907 6896 6895 6894 ] final -169.94 input  -60.11 | X-H torsion
[ 7974 7965 7964 7962 ] final   86.22 input  175.53 | X-H torsion
[ 8008 7997 7996 7995 ] final  108.03 input   59.86 | X-H torsion
[ 10167 10162 10161 10158 ] final   54.35 input  -65.29 | X-H torsion
[ 10718 10713 10712 10709 ] final   76.06 input   66.30 | X-H torsion
[ 10763 10752 10751 10750 ] final -156.27 input  -60.55 | X-H torsion
[ 11005 11000 10999 10996 ] final   81.45 input  -57.11 | X-H torsion

> <Gold.Protein.ActiveResidues>
 VAL166  LYS551  ARG553  GLY616  TRP617  ASP618  TYR619  PRO620  LYS621  CYS622 
 ASP623  PHE694  ASN695  SER759  ASP760  ASP761  ALA762  ILE779  LEU786  VAL792 
 PHE793  MET794  SER795  GLU796  ALA797  LYS798  CYS799  TRP800  GLU811  SER814 

> <Gold.Protein.RotatedAtoms>
  151.4996  133.3507  159.2866 H   0  0  0  0  0  0  0  0  0  0  0  0  # atno 6907 bound_to 6896
  150.8781  134.8170  159.7216 H   0  0  0  0  0  0  0  0  0  0  0  0  # atno 6908 bound_to 6896
  152.4744  134.4890  159.9741 H   0  0  0  0  0  0  0  0  0  0  0  0  # atno 6909 bound_to 6896
  145.5752  139.2318  143.2384 H   0  0  0  0  0  0  0  0  0  0  0  0  # atno 7974 bound_to 7965
  156.1871  140.3084  155.9260 H   0  0  0  0  0  0  0  0  0  0  0  0  # atno 8008 bound_to 7997
  155.3256  140.0458  157.3058 H   0  0  0  0  0  0  0  0  0  0  0  0  # atno 8009 bound_to 7997
  154.5408  140.2261  155.8653 H   0  0  0  0  0  0  0  0  0  0  0  0  # atno 8010 bound_to 7997
  140.2310  144.3686  150.6414 H   0  0  0  0  0  0  0  0  0  0  0  0  # atno 10167 bound_to 10162
  157.6659  130.9756  150.1443 H   0  0  0  0  0  0  0  0  0  0  0  0  # atno 10718 bound_to 10713
  154.7725  135.3149  154.8159 H   0  0  0  0  0  0  0  0  0  0  0  0  # atno 10763 bound_to 10752
  153.8891  135.6827  153.4766 H   0  0  0  0  0  0  0  0  0  0  0  0  # atno 10764 bound_to 10752
  153.1342  135.4767  154.9331 H   0  0  0  0  0  0  0  0  0  0  0  0  # atno 10765 bound_to 10752
  139.9098  134.7997  156.2043 H   0  0  0  0  0  0  0  0  0  0  0  0  # atno 11005 bound_to 11000
  146.1756  140.6578  142.9213 LP  0  0  0  0  0  0  0  0  0  0  0  0  # atno 17320 bound_to 7965
  144.7419  140.4966  143.6863 LP  0  0  0  0  0  0  0  0  0  0  0  0  # atno 17321 bound_to 7965
  140.6185  143.2174  151.6743 LP  0  0  0  0  0  0  0  0  0  0  0  0  # atno 17342 bound_to 10162
  139.5110  144.3524  152.0639 LP  0  0  0  0  0  0  0  0  0  0  0  0  # atno 17343 bound_to 10162
  156.2258  130.3678  149.8503 LP  0  0  0  0  0  0  0  0  0  0  0  0  # atno 17370 bound_to 10713
  156.6343  130.8679  151.3501 LP  0  0  0  0  0  0  0  0  0  0  0  0  # atno 17371 bound_to 10713
  141.0505  133.6891  156.1763 LP  0  0  0  0  0  0  0  0  0  0  0  0  # atno 17394 bound_to 11000
  140.6817  134.4760  157.5589 LP  0  0  0  0  0  0  0  0  0  0  0  0  # atno 17395 bound_to 11000

$$$$
