AV-unprocessed.smi:838|AV-procd|sdf|3908|dock7
  -GOLD-   22720 1373D 1   1.00000     0.00000
 Structure written by MMmdl.
 45 46  0  0  0  0  0  0  0  0  1 V2000
  152.5129  138.9739  157.2330 C   0  0  0  0  0  0  0  0  0  0  0  0
  152.1534  139.0399  155.7471 C   0  0  0  0  0  0  0  0  0  0  0  0
  152.8412  139.7534  155.0166 O   0  0  0  0  0  0  0  0  0  0  0  0
  151.1007  138.3222  155.2882 N   0  0  0  0  0  0  0  0  0  0  0  0
  150.2513  137.4974  156.1519 C   0  0  0  0  0  0  0  0  0  0  0  0
  148.8222  138.0736  156.1472 C   0  0  0  0  0  0  0  0  0  0  0  0
  148.2898  138.0973  154.7820 N   0  0  0  0  0  0  0  0  0  0  0  0
  146.9201  138.6108  154.8053 C   0  0  0  0  0  0  0  0  0  0  0  0
  146.2383  138.5910  153.4217 C   0  0  0  0  0  0  0  0  0  0  0  0
  146.5214  137.3556  152.6967 N   0  0  0  0  0  0  0  0  0  0  0  0
  145.6073  136.4469  152.3256 C   0  0  0  0  0  0  0  0  0  0  0  0
  144.4068  136.5452  152.5820 O   0  0  0  0  0  0  0  0  0  0  0  0
  146.1774  135.4381  151.6434 N   0  0  0  0  0  0  0  0  0  0  0  0
  145.5579  134.2855  151.0832 C   0  0  0  0  0  0  0  0  0  0  0  0
  144.4679  134.3581  150.2784 N   0  0  0  0  0  0  0  0  0  0  0  0
  143.9294  133.2252  149.7837 C   0  0  0  0  0  0  0  0  0  0  0  0
  144.4433  131.9467  150.0603 C   0  0  0  0  0  0  0  0  0  0  0  0
  145.5724  131.8534  150.8917 C   0  0  0  0  0  0  0  0  0  0  0  0
  146.1430  133.0337  151.4137 C   0  0  0  0  0  0  0  0  0  0  0  0
  147.3664  132.9352  152.3107 C   0  0  0  0  0  0  0  0  0  0  0  0
  149.1582  138.9111  153.9223 C   0  0  0  0  0  0  0  0  0  0  0  0
  150.5856  138.3315  153.9154 C   0  0  0  0  0  0  0  0  0  0  0  0
  152.7715  137.9554  157.5237 H   0  0  0  0  0  0  0  0  0  0  0  0
  151.6807  139.3185  157.8473 H   0  0  0  0  0  0  0  0  0  0  0  0
  153.3714  139.6104  157.4492 H   0  0  0  0  0  0  0  0  0  0  0  0
  150.2480  136.4709  155.7822 H   0  0  0  0  0  0  0  0  0  0  0  0
  150.6180  137.4453  157.1774 H   0  0  0  0  0  0  0  0  0  0  0  0
  148.1821  137.4572  156.7793 H   0  0  0  0  0  0  0  0  0  0  0  0
  148.8189  139.0799  156.5693 H   0  0  0  0  0  0  0  0  0  0  0  0
  146.3223  137.9996  155.4831 H   0  0  0  0  0  0  0  0  0  0  0  0
  146.9123  139.6219  155.2152 H   0  0  0  0  0  0  0  0  0  0  0  0
  145.1587  138.6388  153.5640 H   0  0  0  0  0  0  0  0  0  0  0  0
  146.4910  139.4707  152.8297 H   0  0  0  0  0  0  0  0  0  0  0  0
  147.4840  137.1921  152.4411 H   0  0  0  0  0  0  0  0  0  0  0  0
  147.1747  135.5015  151.5036 H   0  0  0  0  0  0  0  0  0  0  0  0
  143.0636  133.3424  149.1490 H   0  0  0  0  0  0  0  0  0  0  0  0
  143.9839  131.0621  149.6448 H   0  0  0  0  0  0  0  0  0  0  0  0
  145.9930  130.8861  151.1239 H   0  0  0  0  0  0  0  0  0  0  0  0
  147.6710  131.8984  152.4551 H   0  0  0  0  0  0  0  0  0  0  0  0
  147.1567  133.3623  153.2918 H   0  0  0  0  0  0  0  0  0  0  0  0
  148.2062  133.4732  151.8699 H   0  0  0  0  0  0  0  0  0  0  0  0
  148.7811  138.9226  152.9008 H   0  0  0  0  0  0  0  0  0  0  0  0
  149.1713  139.9451  154.2708 H   0  0  0  0  0  0  0  0  0  0  0  0
  151.2017  138.9015  153.2222 H   0  0  0  0  0  0  0  0  0  0  0  0
  150.5745  137.3113  153.5283 H   0  0  0  0  0  0  0  0  0  0  0  0
  1  2  1  0  0  0  0
  1 23  1  0  0  0  0
  1 24  1  0  0  0  0
  1 25  1  0  0  0  0
  2  3  2  0  0  0  0
  2  4  1  0  0  0  0
  4 22  1  0  0  0  0
  4  5  1  0  0  0  0
  5  6  1  0  0  0  0
  5 26  1  0  0  0  0
  5 27  1  0  0  0  0
  6  7  1  0  0  0  0
  6 28  1  0  0  0  0
  6 29  1  0  0  0  0
  7  8  1  0  0  0  0
  7 21  1  0  0  0  0
  8  9  1  0  0  0  0
  8 30  1  0  0  0  0
  8 31  1  0  0  0  0
  9 10  1  0  0  0  0
  9 32  1  0  0  0  0
  9 33  1  0  0  0  0
 10 11  1  0  0  0  0
 10 34  1  0  0  0  0
 11 12  2  0  0  0  0
 11 13  1  0  0  0  0
 13 14  1  0  0  0  0
 13 35  1  0  0  0  0
 14 19  1  0  0  0  0
 14 15  2  0  0  0  0
 15 16  1  0  0  0  0
 16 17  2  0  0  0  0
 16 36  1  0  0  0  0
 17 18  1  0  0  0  0
 17 37  1  0  0  0  0
 18 19  2  0  0  0  0
 18 38  1  0  0  0  0
 19 20  1  0  0  0  0
 20 39  1  0  0  0  0
 20 40  1  0  0  0  0
 20 41  1  0  0  0  0
 21 22  1  0  0  0  0
 21 42  1  0  0  0  0
 21 43  1  0  0  0  0
 22 44  1  0  0  0  0
 22 45  1  0  0  0  0
M  END
> <s_m_source_file>
AV-unprocessed.smi

> <i_m_source_file_index>
838

> <i_lp_mmshare_version>
43012

> <i_f3d_flags>
0

> <s_epik_input>
W0NIM11DKD1PKU4xW0NIMl1bQ0gyXU4oW0NIMl1bQ0gyXTEpW0NIMl1bQ0gyXVtOSF1DKD1PKVtOSF1jMm5bY0hdW2NIXVtjSF1jMltDSDNd

> <s_epik_cmdline>
J2VwaWtfcHl0aG9uJywgJy1waCcsICc3LjAnLCAnLXRuJywgJzgnLCAnLW1hJywgJzIwMCcsICctbWV0YWxfYmluZGluZycsICctaW1hZScsICc8aW5maWxlLm1hZT4nLCAnLW9tYWUnLCAnPG91dGZpbGUubWFlPic=

> <r_epik_Ionization_Penalty>
0.25102

> <r_epik_Ionization_Penalty_Charging>
0

> <r_epik_Ionization_Penalty_Neutral>
0.25102

> <r_epik_State_Penalty>
0.242297

> <r_epik_Charging_Adjusted_Penalty>
0.242297

> <i_epik_Tot_Q>
0

> <i_epik_Tot_abs_Q>
0

> <r_epik_Metal_State_Penalty>
0.242294

> <b_epik_Metal_Only>
0

> <s_lp_Force_Field>
OPLS_2005

> <r_lp_Energy>
40.132

> <b_lp_Chiralities_Consistent>
1

> <s_lp_Variant>
AV-unprocessed.smi:838-1

> <Gold.Version>
5.8.1

> <Gold.Id.Protein>
6NUR|6NUR_protein|mol2

> <Gold.PLP.Fitness>
44.3453

> <Gold.PLP.PLP>
-32.4207

> <Gold.PLP.part.hbond>
-4.0000

> <Gold.PLP.part.metal>
0.0000

> <Gold.PLP.part.buried>
-2.5727

> <Gold.PLP.part.nonpolar>
-26.8032

> <Gold.PLP.part.repulsive>
1.1835

> <Gold.PLP.ligand.clash>
0.0000

> <Gold.PLP.ligand.torsion>
0.5409

> <Gold.PLP.Chemscore.Hbond>
3.3468

> <Gold.PLP.Chemscore.CHOScore>
0.9825

> <Gold.PLP.Chemscore.Metal>
0.0000

> <Gold.Chemscore.Hbonds>
donor molecule, donor type, donor heavy atom, donor atom, acceptor molecule, acceptor atom, score
      L1  H    10    34       P1  7948  1.00
      L1  H    13    35       P1  7948  1.00
      P1  H  7989  7998       L1     3  0.27
      P1  H  7997  8010       L1     3  1.00
      L1  C    16    36       P1 10186  1.00

> <Gold.PLP.Chemscore.Internal.Correction>
0.0185

> <Gold.Rescore>
     Score         DG    S(hbond)    S(metal)    S(lipo)     H(rot)  DE(clash)    DE(int)     intcor
     19.28     -19.82       2.93        0.00      72.57       1.54       0.03       0.51       ----

> <Gold.Chemscore.Fitness>
19.2788

> <Gold.Chemscore.DG>
-19.8180

> <Gold.Chemscore.ZeroCoef>
-5.4800

> <Gold.Chemscore.Hbond>
2.9344

> <Gold.Chemscore.Metal>
0.0000

> <Gold.Chemscore.Lipo>
72.5659

> <Gold.Chemscore.Internal_Hbond>
0.0000

> <Gold.Chemscore.DEClash>
0.0295

> <Gold.Chemscore.DEInternal>
0.5098

> <Gold.Chemscore.Rot>
1.5441

> <Gold.Chemscore.Internal.Correction>
   9.000000E+99

> <Gold.Chemscore.Hbonds>
donor molecule, donor type, donor heavy atom, donor atom, acceptor molecule, acceptor atom, score
      L1  H    10    34       P1  7948  0.99
      L1  H    13    35       P1  7948  0.96
      P1  H  7989  7998       L1     3  0.24
      P1  H  7997  8010       L1     3  0.29

> <Gold.Chemscore.Hbond.Weighted>
-9.8009

> <Gold.Chemscore.Metal.Weighted>
-0.0000

> <Gold.Chemscore.Lipo.Weighted>
-8.4902

> <Gold.Chemscore.Internal_Hbond.Weighted>
0.0000

> <Gold.Chemscore.DEClash.Weighted>
0.0295

> <Gold.Chemscore.DEInternal.Weighted>
0.5098

> <Gold.Chemscore.Rot.Weighted>
3.9530

> <Gold.Chemscore.Internal.Correction.Weighted>
   9.000000E+99

> <Gold.Protein.RotatedTorsions>
[ 6907 6896 6895 6894 ] final -172.21 input  -60.11 | X-H torsion
[ 7974 7965 7964 7962 ] final  146.04 input  175.53 | X-H torsion
[ 8008 7997 7996 7995 ] final   83.84 input   59.86 | X-H torsion
[ 10167 10162 10161 10158 ] final   48.05 input  -65.29 | X-H torsion
[ 10718 10713 10712 10709 ] final  -98.46 input   66.30 | X-H torsion
[ 10763 10752 10751 10750 ] final    4.43 input  -60.55 | X-H torsion
[ 11005 11000 10999 10996 ] final -119.68 input  -57.11 | X-H torsion

> <Gold.Protein.ActiveResidues>
 VAL166  LYS551  ARG553  GLY616  TRP617  ASP618  TYR619  PRO620  LYS621  CYS622 
 ASP623  PHE694  ASN695  SER759  ASP760  ASP761  ALA762  ILE779  LEU786  VAL792 
 PHE793  MET794  SER795  GLU796  ALA797  LYS798  CYS799  TRP800  GLU811  SER814 

> <Gold.Protein.RotatedAtoms>
  151.5363  133.3440  159.2926 H   0  0  0  0  0  0  0  0  0  0  0  0  # atno 6907 bound_to 6896
  150.8563  134.7905  159.7059 H   0  0  0  0  0  0  0  0  0  0  0  0  # atno 6908 bound_to 6896
  152.4595  134.5224  159.9838 H   0  0  0  0  0  0  0  0  0  0  0  0  # atno 6909 bound_to 6896
  144.8703  139.5857  143.5890 H   0  0  0  0  0  0  0  0  0  0  0  0  # atno 7974 bound_to 7965
  155.9292  140.3416  155.6235 H   0  0  0  0  0  0  0  0  0  0  0  0  # atno 8008 bound_to 7997
  155.7178  140.0780  157.2362 H   0  0  0  0  0  0  0  0  0  0  0  0  # atno 8009 bound_to 7997
  154.4082  140.1611  156.2356 H   0  0  0  0  0  0  0  0  0  0  0  0  # atno 8010 bound_to 7997
  140.2973  144.2975  150.6227 H   0  0  0  0  0  0  0  0  0  0  0  0  # atno 10167 bound_to 10162
  156.0108  130.5239  150.6526 H   0  0  0  0  0  0  0  0  0  0  0  0  # atno 10718 bound_to 10713
  153.2713  135.6932  153.7478 H   0  0  0  0  0  0  0  0  0  0  0  0  # atno 10763 bound_to 10752
  153.6500  135.3378  155.3098 H   0  0  0  0  0  0  0  0  0  0  0  0  # atno 10764 bound_to 10752
  154.8465  135.4452  154.1736 H   0  0  0  0  0  0  0  0  0  0  0  0  # atno 10765 bound_to 10752
  141.0198  134.0141  157.3299 H   0  0  0  0  0  0  0  0  0  0  0  0  # atno 11005 bound_to 11000
  146.2925  139.7182  142.9150 LP  0  0  0  0  0  0  0  0  0  0  0  0  # atno 17320 bound_to 7965
  145.4143  141.0400  143.2999 LP  0  0  0  0  0  0  0  0  0  0  0  0  # atno 17321 bound_to 7965
  140.5681  143.2184  151.7647 LP  0  0  0  0  0  0  0  0  0  0  0  0  # atno 17342 bound_to 10162
  139.4923  144.4255  151.9930 LP  0  0  0  0  0  0  0  0  0  0  0  0  # atno 17343 bound_to 10162
  157.4284  131.0846  151.1062 LP  0  0  0  0  0  0  0  0  0  0  0  0  # atno 17370 bound_to 10713
  157.1642  130.6239  149.5620 LP  0  0  0  0  0  0  0  0  0  0  0  0  # atno 17371 bound_to 10713
  139.9139  135.0194  156.7802 LP  0  0  0  0  0  0  0  0  0  0  0  0  # atno 17394 bound_to 11000
  140.6593  133.9660  155.7796 LP  0  0  0  0  0  0  0  0  0  0  0  0  # atno 17395 bound_to 11000

$$$$
