#       Name:                AV-unprocessed.smi:2924
#       Creating user name   scv26
#       Creation time:       Fri Mar 27 16:10:58 2020


#       File generated by GOLD software.
#

@<TRIPOS>MOLECULE
AV-unprocessed.smi:2924
    33    35     1
SMALL
NO_CHARGES


@<TRIPOS>ATOM
      1 ****        -1.0535  -4.3957   0.4155 N.1            1 S1                 0.0000
      2 ****        -1.5735  -3.3657   0.3299 C.1            1 S1                 0.0000
      3 ****        -2.2284  -2.0677   0.2218 C.ar           1 S1                 0.0000
      4 ****        -3.6241  -2.0219   0.0217 C.ar           1 S1                 0.0000
      5 ****        -4.2613  -0.7725  -0.0856 C.ar           1 S1                 0.0000
      6 ****        -3.4723   0.3878   0.0131 C.ar           1 S1                 0.0000
      7 ****        -2.1372   0.3585   0.2045 N.ar           1 S1                 0.0000
      8 ****        -1.5149  -0.8417   0.3068 C.ar           1 S1                 0.0000
      9 ****        -0.1222  -0.8394   0.5076 N.pl3          1 S1                 0.0000
     10 ****         0.6686   0.3783   0.3615 C.3            1 S1                 0.0000
     11 ****         0.8276   0.8213  -1.0989 C.3            1 S1                 0.0000
     12 ****         2.3527   0.8828  -1.2477 C.3            1 S1                 0.0000
     13 ****         2.9708   2.0304  -0.4375 C.3            1 S1                 0.0000
     14 ****         2.8476   1.5046   0.9922 C.3            1 S1                 0.0000
     15 ****         2.1341   0.1632   0.7757 C.3            1 S1                 0.0000
     16 ****         2.7230  -0.2301  -0.4535 O.3            1 S1                 0.0000
     17 ****        -4.2044  -2.9308  -0.0499 H              1 S1                 0.0000
     18 ****        -5.3280  -0.7051  -0.2397 H              1 S1                 0.0000
     19 ****        -3.9244   1.3655  -0.0633 H              1 S1                 0.0000
     20 ****         0.3691  -1.7210   0.5505 H              1 S1                 0.0000
     21 ****         0.2280   1.1671   0.9727 H              1 S1                 0.0000
     22 ****         0.4128   0.0865  -1.7907 H              1 S1                 0.0000
     23 ****         0.3499   1.7805  -1.3007 H              1 S1                 0.0000
     24 ****         2.6978   0.8327  -2.2805 H              1 S1                 0.0000
     25 ****         4.0186   2.1758  -0.7024 H              1 S1                 0.0000
     26 ****         2.4444   2.9732  -0.5899 H              1 S1                 0.0000
     27 ****         3.8353   1.3497   1.4279 H              1 S1                 0.0000
     28 ****         2.2885   2.1759   1.6448 H              1 S1                 0.0000
     29 ****         2.2756  -0.5422   1.5955 H              1 S1                 0.0000
     30 ****        -0.6041  -5.2859   0.4894 LP             1 S1                 0.0000
     31 ****        -1.6148   1.2087   0.2698 LP             1 S1                 0.0000
     32 ****         3.7159  -0.3236  -0.3799 LP             1 S1                 0.0000
     33 ****         2.3326  -1.0833  -0.7995 LP             1 S1                 0.0000
@<TRIPOS>BOND
    1    1    2 3     
    2    2    3 1     
    3    3    8 ar    
    4    3    4 ar    
    5    4    5 ar    
    6    4   17 1     
    7    5    6 ar    
    8    5   18 1     
    9    6    7 ar    
   10    6   19 1     
   11    7    8 ar    
   12    8    9 1     
   13    9   10 1     
   14    9   20 1     
   15   10   15 1     
   16   10   11 1     
   17   10   21 1     
   18   11   12 1     
   19   11   22 1     
   20   11   23 1     
   21   12   16 1     
   22   12   13 1     
   23   12   24 1     
   24   13   14 1     
   25   13   25 1     
   26   13   26 1     
   27   14   15 1     
   28   14   27 1     
   29   14   28 1     
   30   15   16 1     
   31   15   29 1     
   32    1   30 1     
   33    7   31 1     
   34   16   32 1     
   35   16   33 1     
@<TRIPOS>SUBSTRUCTURE
      1 S1             1
@<TRIPOS>SET
LONE_PAIRS      STATIC     ATOMS    <user>   **** ""
4 30 31 32 33
DONOR_HYDROGENS      STATIC     ATOMS    <user>   **** ""
1 20
ATOM$BLUE        STATIC     ATOMS    COLORGROUP SYSTEM
4 30 31 32 33
ATOM$RED        STATIC     ATOMS    COLORGROUP SYSTEM
1 20
