AV-unprocessed.smi:61|AV-procd|sdf|597|dock5
  -GOLD-   2262016493D 1   1.00000     0.00000
 Structure written by MMmdl.
 28 29  0  0  0  0  0  0  0  0  1 V2000
  152.9577  138.7840  155.1304 N   0  0  0  0  0  0  0  0  0  0  0  0
  152.0900  139.7142  155.6476 C   0  0  0  0  0  0  0  0  0  0  0  0
  151.0246  140.0147  154.9044 N   0  0  0  0  0  0  0  0  0  0  0  0
  150.1724  140.9283  155.4151 C   0  0  0  0  0  0  0  0  0  0  0  0
  150.3949  141.5346  156.6681 C   0  0  0  0  0  0  0  0  0  0  0  0
  151.5584  141.1421  157.3719 C   0  0  0  0  0  0  0  0  0  0  0  0
  151.8607  141.7032  158.6308 N   0  0  0  0  0  0  0  0  0  0  0  0
  151.2420  142.9866  158.9478 C   0  0  0  0  0  0  0  0  0  0  0  0
  152.2824  143.7801  159.7427 C   0  0  0  0  0  0  0  0  0  0  0  0
  153.2099  142.7041  160.2961 C   0  0  0  0  0  0  0  0  0  0  0  0
  153.2134  141.6501  159.1836 C   0  0  1  0  0  0  0  0  0  0  0  0
  153.6081  140.2452  159.6830 C   0  0  0  0  0  0  0  0  0  0  0  0
  154.0219  139.4438  158.5970 O   0  0  0  0  0  0  0  0  0  0  0  0
  152.4012  140.2222  156.8412 N   0  0  0  0  0  0  0  0  0  0  0  0
  153.7829  138.5138  155.6456 H   0  0  0  0  0  0  0  0  0  0  0  0
  152.7961  138.3877  154.2162 H   0  0  0  0  0  0  0  0  0  0  0  0
  149.3056  141.1771  154.8213 H   0  0  0  0  0  0  0  0  0  0  0  0
  149.6991  142.2592  157.0642 H   0  0  0  0  0  0  0  0  0  0  0  0
  150.9338  143.5358  158.0569 H   0  0  0  0  0  0  0  0  0  0  0  0
  150.3552  142.8030  159.5553 H   0  0  0  0  0  0  0  0  0  0  0  0
  152.8405  144.4314  159.0687 H   0  0  0  0  0  0  0  0  0  0  0  0
  151.8380  144.4019  160.5201 H   0  0  0  0  0  0  0  0  0  0  0  0
  154.2070  143.0809  160.5260 H   0  0  0  0  0  0  0  0  0  0  0  0
  152.7853  142.2918  161.2127 H   0  0  0  0  0  0  0  0  0  0  0  0
  153.9085  141.9695  158.4053 H   0  0  0  0  0  0  0  0  0  0  0  0
  154.4139  140.3045  160.4156 H   0  0  0  0  0  0  0  0  0  0  0  0
  152.7726  139.7435  160.1700 H   0  0  0  0  0  0  0  0  0  0  0  0
  153.7393  138.5560  158.7549 H   0  0  0  0  0  0  0  0  0  0  0  0
  1  2  1  0  0  0  0
  1 15  1  0  0  0  0
  1 16  1  0  0  0  0
  2 14  1  0  0  0  0
  2  3  2  0  0  0  0
  3  4  1  0  0  0  0
  4  5  2  0  0  0  0
  4 17  1  0  0  0  0
  5  6  1  0  0  0  0
  5 18  1  0  0  0  0
  6  7  1  0  0  0  0
  6 14  2  0  0  0  0
  7 11  1  0  0  0  0
  7  8  1  0  0  0  0
  8  9  1  0  0  0  0
  8 19  1  0  0  0  0
  8 20  1  0  0  0  0
  9 10  1  0  0  0  0
  9 21  1  0  0  0  0
  9 22  1  0  0  0  0
 10 11  1  0  0  0  0
 10 23  1  0  0  0  0
 10 24  1  0  0  0  0
 11 12  1  0  0  0  0
 11 25  1  0  0  0  0
 12 13  1  0  0  0  0
 12 26  1  0  0  0  0
 12 27  1  0  0  0  0
 13 28  1  0  0  0  0
M  END
> <s_m_source_file>
AV-unprocessed.smi

> <i_m_source_file_index>
61

> <i_lp_mmshare_version>
43012

> <i_f3d_flags>
0

> <s_epik_input>
W05IMl1jMW5bY0hdW2NIXWMobjEpTjJbQ0gyXVtDSDJdW0NIMl1bQ0BIXTJbQ0gyXVtPSF0=

> <s_epik_cmdline>
J2VwaWtfcHl0aG9uJywgJy1waCcsICc3LjAnLCAnLXRuJywgJzgnLCAnLW1hJywgJzIwMCcsICctbWV0YWxfYmluZGluZycsICctaW1hZScsICc8aW5maWxlLm1hZT4nLCAnLW9tYWUnLCAnPG91dGZpbGUubWFlPic=

> <r_lp_tautomer_probability>
1

> <r_epik_Ionization_Penalty>
0.76024

> <r_epik_Ionization_Penalty_Charging>
0

> <r_epik_Ionization_Penalty_Neutral>
0.76024

> <r_epik_State_Penalty>
0.587668

> <r_epik_Charging_Adjusted_Penalty>
0.587668

> <i_epik_Tot_Q>
0

> <i_epik_Tot_abs_Q>
0

> <r_epik_Metal_State_Penalty>
0.307814

> <b_epik_Metal_Only>
0

> <s_lp_Force_Field>
OPLS_2005

> <r_lp_Energy>
20.8196

> <b_lp_Chiralities_Consistent>
1

> <s_lp_Variant>
AV-unprocessed.smi:61-3

> <Gold.Version>
5.8.1

> <Gold.Id.Protein>
6NUR|6NUR_protein|mol2

> <Gold.PLP.Fitness>
33.9564

> <Gold.PLP.PLP>
-29.1274

> <Gold.PLP.part.hbond>
-2.8152

> <Gold.PLP.part.metal>
0.0000

> <Gold.PLP.part.buried>
-3.4505

> <Gold.PLP.part.nonpolar>
-22.4819

> <Gold.PLP.part.repulsive>
0.2877

> <Gold.PLP.ligand.clash>
0.0000

> <Gold.PLP.ligand.torsion>
0.7631

> <Gold.PLP.Chemscore.Hbond>
2.0000

> <Gold.PLP.Chemscore.CHOScore>
0.0000

> <Gold.PLP.Chemscore.Metal>
0.0000

> <Gold.Chemscore.Hbonds>
donor molecule, donor type, donor heavy atom, donor atom, acceptor molecule, acceptor atom, score
      P1  H  7989  7998       L1     3  1.00
      P1  H  7997  8008       L1    13  1.00

> <Gold.PLP.Chemscore.Internal.Correction>
0.3552

> <Gold.Rescore>
     Score         DG    S(hbond)    S(metal)    S(lipo)     H(rot)  DE(clash)    DE(int)     intcor
      9.51     -11.97       1.21        0.00      63.70       1.96       0.10       2.35       ----

> <Gold.Chemscore.Fitness>
9.5093

> <Gold.Chemscore.DG>
-11.9653

> <Gold.Chemscore.ZeroCoef>
-5.4800

> <Gold.Chemscore.Hbond>
1.2098

> <Gold.Chemscore.Metal>
0.0000

> <Gold.Chemscore.Lipo>
63.6951

> <Gold.Chemscore.Internal_Hbond>
0.0000

> <Gold.Chemscore.DEClash>
0.1038

> <Gold.Chemscore.DEInternal>
2.3522

> <Gold.Chemscore.Rot>
1.9561

> <Gold.Chemscore.Internal.Correction>
   9.000000E+99

> <Gold.Chemscore.Hbonds>
donor molecule, donor type, donor heavy atom, donor atom, acceptor molecule, acceptor atom, score
      P1  H  7989  7998       L1     3  0.17
      P1  H  7997  8008       L1    13  0.99

> <Gold.Chemscore.Hbond.Weighted>
-4.0407

> <Gold.Chemscore.Metal.Weighted>
-0.0000

> <Gold.Chemscore.Lipo.Weighted>
-7.4523

> <Gold.Chemscore.Internal_Hbond.Weighted>
0.0000

> <Gold.Chemscore.DEClash.Weighted>
0.1038

> <Gold.Chemscore.DEInternal.Weighted>
2.3522

> <Gold.Chemscore.Rot.Weighted>
5.0077

> <Gold.Chemscore.Internal.Correction.Weighted>
   9.000000E+99

> <Gold.Protein.RotatedTorsions>
[ 6907 6896 6895 6894 ] final   93.34 input  -60.11 | X-H torsion
[ 7974 7965 7964 7962 ] final   42.09 input  175.53 | X-H torsion
[ 8008 7997 7996 7995 ] final -110.99 input   59.86 | X-H torsion
[ 10167 10162 10161 10158 ] final   77.70 input  -65.29 | X-H torsion
[ 10718 10713 10712 10709 ] final  -39.60 input   66.30 | X-H torsion
[ 10763 10752 10751 10750 ] final  104.06 input  -60.55 | X-H torsion
[ 11005 11000 10999 10996 ] final  -68.83 input  -57.11 | X-H torsion

> <Gold.Protein.ActiveResidues>
 VAL166  LYS551  ARG553  GLY616  TRP617  ASP618  TYR619  PRO620  LYS621  CYS622 
 ASP623  PHE694  ASN695  SER759  ASP760  ASP761  ALA762  ILE779  LEU786  VAL792 
 PHE793  MET794  SER795  GLU796  ALA797  LYS798  CYS799  TRP800  GLU811  SER814 

> <Gold.Protein.RotatedAtoms>
  152.5452  134.1363  159.8459 H   0  0  0  0  0  0  0  0  0  0  0  0  # atno 6907 bound_to 6896
  151.1403  133.4969  159.2604 H   0  0  0  0  0  0  0  0  0  0  0  0  # atno 6908 bound_to 6896
  151.1580  135.0270  159.8752 H   0  0  0  0  0  0  0  0  0  0  0  0  # atno 6909 bound_to 6896
  146.0769  139.5340  142.9562 H   0  0  0  0  0  0  0  0  0  0  0  0  # atno 7974 bound_to 7965
  154.9829  140.0396  157.2286 H   0  0  0  0  0  0  0  0  0  0  0  0  # atno 8008 bound_to 7997
  154.7698  140.2799  155.6125 H   0  0  0  0  0  0  0  0  0  0  0  0  # atno 8009 bound_to 7997
  156.2919  140.2612  156.2497 H   0  0  0  0  0  0  0  0  0  0  0  0  # atno 8010 bound_to 7997
  139.9788  144.5842  150.7919 H   0  0  0  0  0  0  0  0  0  0  0  0  # atno 10167 bound_to 10162
  156.2907  130.4228  149.8242 H   0  0  0  0  0  0  0  0  0  0  0  0  # atno 10718 bound_to 10713
  153.3610  135.3955  155.1718 H   0  0  0  0  0  0  0  0  0  0  0  0  # atno 10763 bound_to 10752
  154.8679  135.3679  154.5100 H   0  0  0  0  0  0  0  0  0  0  0  0  # atno 10764 bound_to 10752
  153.5559  135.7082  153.5630 H   0  0  0  0  0  0  0  0  0  0  0  0  # atno 10765 bound_to 10752
  141.1541  133.6750  156.6507 H   0  0  0  0  0  0  0  0  0  0  0  0  # atno 11005 bound_to 11000
  145.6290  141.0308  143.1874 LP  0  0  0  0  0  0  0  0  0  0  0  0  # atno 17320 bound_to 7965
  144.7267  139.7852  143.7362 LP  0  0  0  0  0  0  0  0  0  0  0  0  # atno 17321 bound_to 7965
  140.7496  143.2942  151.3249 LP  0  0  0  0  0  0  0  0  0  0  0  0  # atno 17342 bound_to 10162
  139.6425  144.0512  152.2566 LP  0  0  0  0  0  0  0  0  0  0  0  0  # atno 17343 bound_to 10162
  156.5656  130.8402  151.3341 LP  0  0  0  0  0  0  0  0  0  0  0  0  # atno 17370 bound_to 10713
  157.7341  130.9741  150.2013 LP  0  0  0  0  0  0  0  0  0  0  0  0  # atno 17371 bound_to 10713
  140.3323  134.7919  157.4335 LP  0  0  0  0  0  0  0  0  0  0  0  0  # atno 17394 bound_to 11000
  140.1007  134.5477  155.8356 LP  0  0  0  0  0  0  0  0  0  0  0  0  # atno 17395 bound_to 11000

$$$$
