#       Name:                AV-unprocessed.smi:2655
#       Creating user name   scv26
#       Creation time:       Fri Mar 27 14:31:34 2020


#       File generated by GOLD software.
#

@<TRIPOS>MOLECULE
AV-unprocessed.smi:2655
    39    40     1
SMALL
NO_CHARGES


@<TRIPOS>ATOM
      1 ****        -1.8136   3.0728   3.4116 C.3            1 S1                 0.0000
      2 ****        -2.2000   3.3308   1.9839 C.2            1 S1                 0.0000
      3 ****        -2.9151   4.4138   1.6958 N.2            1 S1                 0.0000
      4 ****        -3.0879   4.3513   0.3621 N.pl3          1 S1                 0.0000
      5 ****        -2.4902   3.2421  -0.1783 C.2            1 S1                 0.0000
      6 ****        -2.5453   2.9945  -1.4997 O.co2          1 S1                -1.0000
      7 ****        -1.8988   2.5393   0.8318 C.2            1 S1                 0.0000
      8 ****        -1.1189   1.2533   0.7646 C.3            1 S1                 0.0000
      9 ****         0.3912   1.5151   0.6429 C.3            1 S1                 0.0000
     10 ****         1.1591   0.2747   0.6806 N.am           1 S1                 0.0000
     11 ****         1.3457  -0.5686  -0.3450 C.2            1 S1                 0.0000
     12 ****         0.8509  -0.3175  -1.4463 O.2            1 S1                 0.0000
     13 ****         2.0920  -1.6533  -0.0299 N.pl3          1 S1                -1.0000
     14 ****         2.3424  -2.5915  -0.9560 C.2            1 S1                 0.0000
     15 ****         1.4940  -3.6825  -1.2891 C.2            1 S1                 0.0000
     16 ****         2.1952  -4.3382  -2.2607 C.2            1 S1                 0.0000
     17 ****         1.9084  -5.5600  -3.0649 C.3            1 S1                 0.0000
     18 ****         3.3783  -3.7090  -2.4950 O.3            1 S1                 0.0000
     19 ****         3.4677  -2.5955  -1.6511 N.2            1 S1                 0.0000
     20 ****        -0.9282   2.4402   3.4736 H              1 S1                 0.0000
     21 ****        -2.6187   2.5707   3.9478 H              1 S1                 0.0000
     22 ****        -1.5901   4.0015   3.9368 H              1 S1                 0.0000
     23 ****        -3.6016   5.0544  -0.1490 H              1 S1                 0.0000
     24 ****        -1.4521   0.6498  -0.0804 H              1 S1                 0.0000
     25 ****        -1.3099   0.6470   1.6506 H              1 S1                 0.0000
     26 ****         0.6127   2.0713  -0.2695 H              1 S1                 0.0000
     27 ****         0.7273   2.1364   1.4733 H              1 S1                 0.0000
     28 ****         1.5828   0.0299   1.5633 H              1 S1                 0.0000
     29 ****         0.5263  -3.9376  -0.8839 H              1 S1                 0.0000
     30 ****         1.8487  -6.4384  -2.4224 H              1 S1                 0.0000
     31 ****         2.6885  -5.7360  -3.8058 H              1 S1                 0.0000
     32 ****         0.9593  -5.4605  -3.5914 H              1 S1                 0.0000
     33 ****        -3.2486   5.1149   2.3260 LP             1 S1                 0.0000
     34 ****         0.3109   0.5144  -1.5740 LP             1 S1                 0.0000
     35 ****         0.9896  -0.9460  -2.2117 LP             1 S1                 0.0000
     36 ****         2.4575  -1.7555   0.8953 LP             1 S1                 0.0000
     37 ****         3.4189  -3.4126  -3.4492 LP             1 S1                 0.0000
     38 ****         4.1354  -4.3350  -2.3080 LP             1 S1                 0.0000
     39 ****         4.2220  -1.9420  -1.5874 LP             1 S1                 0.0000
@<TRIPOS>BOND
    1    1   20 1     
    2    1   21 1     
    3    1   22 1     
    4    1    2 1     
    5    2    7 1     
    6    2    3 2     
    7    3    4 1     
    8    4   23 1     
    9    4    5 1     
   10    5    7 2     
   11    5    6 ar    
   12    7    8 1     
   13    8    9 1     
   14    8   24 1     
   15    8   25 1     
   16    9   10 1     
   17    9   26 1     
   18    9   27 1     
   19   10   11 am    
   20   10   28 1     
   21   11   12 2     
   22   11   13 1     
   23   13   14 1     
   24   14   19 2     
   25   14   15 1     
   26   15   16 2     
   27   15   29 1     
   28   16   17 1     
   29   16   18 1     
   30   17   30 1     
   31   17   31 1     
   32   17   32 1     
   33   18   19 1     
   34    3   33 1     
   35   12   34 1     
   36   12   35 1     
   37   13   36 1     
   38   18   37 1     
   39   18   38 1     
   40   19   39 1     
@<TRIPOS>SUBSTRUCTURE
      1 S1             1
@<TRIPOS>SET
LONE_PAIRS      STATIC     ATOMS    <user>   **** ""
8 33 6 34 35 36 37 38 39
DONOR_HYDROGENS      STATIC     ATOMS    <user>   **** ""
2 23 28
ATOM$BLUE        STATIC     ATOMS    COLORGROUP SYSTEM
8 33 6 34 35 36 37 38 39
ATOM$RED        STATIC     ATOMS    COLORGROUP SYSTEM
2 23 28
