#       Name:                AV-unprocessed.smi:3158
#       Creating user name   scv26
#       Creation time:       Fri Mar 27 17:47:07 2020


#       File generated by GOLD software.
#

@<TRIPOS>MOLECULE
AV-unprocessed.smi:3158
    43    43     1
SMALL
NO_CHARGES


@<TRIPOS>ATOM
      1 ****        -1.6910   2.5501  -3.5275 C.3            1 S1                 0.0000
      2 ****        -2.2470   2.3062  -2.1170 C.3            1 S1                 0.0000
      3 ****        -2.0775   0.8565  -1.6255 C.3            1 S1                 0.0000
      4 ****        -2.7383   0.6451  -0.2539 C.3            1 S1                 0.0000
      5 ****        -0.6603   0.5104  -1.5526 N.am           1 S1                 0.0000
      6 ****        -0.1494  -0.7228  -1.6947 C.2            1 S1                 0.0000
      7 ****        -0.8383  -1.7204  -1.9106 O.2            1 S1                 0.0000
      8 ****         1.3738  -0.8556  -1.5280 C.3            1 S1                 0.0000
      9 ****         1.9889  -1.6175  -2.7129 C.3            1 S1                 0.0000
     10 ****         1.7661  -1.5033  -0.2631 N.3            1 S1                 0.0000
     11 ****         1.2907  -0.8216   0.9359 C.3            1 S1                 0.0000
     12 ****         1.9040  -1.4843   2.1770 C.3            1 S1                 0.0000
     13 ****         1.4534  -0.8435   3.3969 N.pl3          1 S1                 0.0000
     14 ****         0.4338  -1.2290   4.2411 C.2            1 S1                 0.0000
     15 ****         0.3757  -0.3128   5.2520 C.2            1 S1                 0.0000
     16 ****         1.4121   0.6084   4.9332 C.2            1 S1                 0.0000
     17 ****         2.0548   0.2886   3.8215 N.2            1 S1                 0.0000
     18 ****        -1.8775   3.5765  -3.8437 H              1 S1                 0.0000
     19 ****        -2.1614   1.8886  -4.2553 H              1 S1                 0.0000
     20 ****        -0.6144   2.3837  -3.5695 H              1 S1                 0.0000
     21 ****        -1.7674   2.9922  -1.4174 H              1 S1                 0.0000
     22 ****        -3.3069   2.5631  -2.1133 H              1 S1                 0.0000
     23 ****        -2.5694   0.2004  -2.3463 H              1 S1                 0.0000
     24 ****        -3.8027   0.8781  -0.2918 H              1 S1                 0.0000
     25 ****        -2.2851   1.2809   0.5074 H              1 S1                 0.0000
     26 ****        -2.6423  -0.3895   0.0771 H              1 S1                 0.0000
     27 ****        -0.0178   1.2669  -1.3668 H              1 S1                 0.0000
     28 ****         1.8022   0.1485  -1.5336 H              1 S1                 0.0000
     29 ****         1.7309  -1.1484  -3.6633 H              1 S1                 0.0000
     30 ****         1.6472  -2.6529  -2.7483 H              1 S1                 0.0000
     31 ****         3.0771  -1.6324  -2.6434 H              1 S1                 0.0000
     32 ****         1.4852  -2.4734  -0.2407 H              1 S1                 0.0000
     33 ****         1.5721   0.2317   0.8964 H              1 S1                 0.0000
     34 ****         0.2031  -0.8700   1.0020 H              1 S1                 0.0000
     35 ****         1.6313  -2.5397   2.2214 H              1 S1                 0.0000
     36 ****         2.9939  -1.4391   2.1398 H              1 S1                 0.0000
     37 ****        -0.1591  -2.1122   4.0538 H              1 S1                 0.0000
     38 ****        -0.3041  -0.3015   6.0908 H              1 S1                 0.0000
     39 ****         1.7144   1.4942   5.4723 H              1 S1                 0.0000
     40 ****        -1.8316  -1.6348  -1.9884 LP             1 S1                 0.0000
     41 ****        -0.4045  -2.6161  -2.0080 LP             1 S1                 0.0000
     42 ****         2.7641  -1.4417  -0.2471 LP             1 S1                 0.0000
     43 ****         2.8152   0.7759   3.3922 LP             1 S1                 0.0000
@<TRIPOS>BOND
    1    1    2 1     
    2    1   18 1     
    3    1   19 1     
    4    1   20 1     
    5    2    3 1     
    6    2   21 1     
    7    2   22 1     
    8    3    4 1     
    9    3    5 1     
   10    3   23 1     
   11    4   24 1     
   12    4   25 1     
   13    4   26 1     
   14    5    6 am    
   15    5   27 1     
   16    6    7 2     
   17    6    8 1     
   18    8    9 1     
   19    8   10 1     
   20    8   28 1     
   21    9   29 1     
   22    9   30 1     
   23    9   31 1     
   24   10   11 1     
   25   10   32 1     
   26   11   12 1     
   27   11   33 1     
   28   11   34 1     
   29   12   13 1     
   30   12   35 1     
   31   12   36 1     
   32   13   17 1     
   33   13   14 1     
   34   14   15 2     
   35   14   37 1     
   36   15   16 1     
   37   15   38 1     
   38   16   17 2     
   39   16   39 1     
   40    7   40 1     
   41    7   41 1     
   42   10   42 1     
   43   17   43 1     
@<TRIPOS>SUBSTRUCTURE
      1 S1             1
@<TRIPOS>SET
LONE_PAIRS      STATIC     ATOMS    <user>   **** ""
4 40 41 42 43
DONOR_HYDROGENS      STATIC     ATOMS    <user>   **** ""
2 27 32
ATOM$BLUE        STATIC     ATOMS    COLORGROUP SYSTEM
4 40 41 42 43
ATOM$RED        STATIC     ATOMS    COLORGROUP SYSTEM
2 27 32
