AV-unprocessed.smi:3351|AV-procd|sdf|12950|dock8
  -GOLD-   2272019383D 1   1.00000     0.00000
 Structure written by MMmdl.
 34 35  0  0  0  0  0  0  0  0  1 V2000
  145.9322  133.4831  153.8741 C   0  0  0  0  0  0  0  0  0  0  0  0
  147.0729  133.2529  152.8691 C   0  0  1  0  0  0  0  0  0  0  0  0
  146.7260  133.7203  151.4389 C   0  0  0  0  0  0  0  0  0  0  0  0
  145.5763  133.0295  150.8861 N   0  0  0  0  0  0  0  0  0  0  0  0
  144.2406  133.3781  151.0357 C   0  0  0  0  0  0  0  0  0  0  0  0
  143.5094  132.4388  150.3442 C   0  0  0  0  0  0  0  0  0  0  0  0
  144.3691  131.5055  149.7695 N   0  0  0  0  0  0  0  0  0  0  0  0
  145.5753  131.9187  150.1362 C   0  0  0  0  0  0  0  0  0  0  0  0
  148.2732  133.9352  153.3446 N   0  0  0  0  0  0  0  0  0  0  0  0
  148.9857  133.5903  154.4281 C   0  0  0  0  0  0  0  0  0  0  0  0
  148.7085  132.6237  155.1396 O   0  0  0  0  0  0  0  0  0  0  0  0
  150.2133  134.4584  154.7315 C   0  0  0  0  0  0  0  0  0  0  0  0
  149.8687  135.8495  155.0303 N   0  0  0  0  0  0  0  0  0  0  0  0
  148.4928  136.1861  155.3749 C   0  0  0  0  0  0  0  0  0  0  0  0
  148.4884  137.5955  155.9701 C   0  0  0  0  0  0  0  0  0  0  0  0
  149.9628  138.4461  155.3741 S   0  0  0  0  0  0  0  0  0  0  0  0
  150.7666  136.9040  154.9271 C   0  0  0  0  0  0  0  0  0  0  0  0
  151.9465  136.8534  154.5843 O   0  0  0  0  0  0  0  0  0  0  0  0
  145.0440  132.9090  153.6096 H   0  0  0  0  0  0  0  0  0  0  0  0
  145.6484  134.5350  153.9174 H   0  0  0  0  0  0  0  0  0  0  0  0
  146.2271  133.1757  154.8779 H   0  0  0  0  0  0  0  0  0  0  0  0
  147.2720  132.1797  152.8461 H   0  0  0  0  0  0  0  0  0  0  0  0
  146.5244  134.7926  151.4301 H   0  0  0  0  0  0  0  0  0  0  0  0
  147.5699  133.5559  150.7674 H   0  0  0  0  0  0  0  0  0  0  0  0
  143.9304  134.2427  151.6042 H   0  0  0  0  0  0  0  0  0  0  0  0
  142.4395  132.3622  150.2186 H   0  0  0  0  0  0  0  0  0  0  0  0
  146.4799  131.4031  149.8484 H   0  0  0  0  0  0  0  0  0  0  0  0
  148.5769  134.7408  152.8167 H   0  0  0  0  0  0  0  0  0  0  0  0
  150.7452  134.0177  155.5756 H   0  0  0  0  0  0  0  0  0  0  0  0
  150.9034  134.4330  153.8863 H   0  0  0  0  0  0  0  0  0  0  0  0
  147.8944  136.1597  154.4634 H   0  0  0  0  0  0  0  0  0  0  0  0
  148.0649  135.4649  156.0721 H   0  0  0  0  0  0  0  0  0  0  0  0
  147.5838  138.1478  155.7153 H   0  0  0  0  0  0  0  0  0  0  0  0
  148.5499  137.5401  157.0575 H   0  0  0  0  0  0  0  0  0  0  0  0
  1  2  1  0  0  0  0
  1 19  1  0  0  0  0
  1 20  1  0  0  0  0
  1 21  1  0  0  0  0
  2  3  1  0  0  0  0
  2  9  1  0  0  0  0
  2 22  1  0  0  0  0
  3  4  1  0  0  0  0
  3 23  1  0  0  0  0
  3 24  1  0  0  0  0
  4  8  1  0  0  0  0
  4  5  1  0  0  0  0
  5  6  2  0  0  0  0
  5 25  1  0  0  0  0
  6  7  1  0  0  0  0
  6 26  1  0  0  0  0
  7  8  2  0  0  0  0
  8 27  1  0  0  0  0
  9 10  1  0  0  0  0
  9 28  1  0  0  0  0
 10 11  2  0  0  0  0
 10 12  1  0  0  0  0
 12 13  1  0  0  0  0
 12 29  1  0  0  0  0
 12 30  1  0  0  0  0
 13 17  1  0  0  0  0
 13 14  1  0  0  0  0
 14 15  1  0  0  0  0
 14 31  1  0  0  0  0
 14 32  1  0  0  0  0
 15 16  1  0  0  0  0
 15 33  1  0  0  0  0
 15 34  1  0  0  0  0
 16 17  1  0  0  0  0
 17 18  2  0  0  0  0
M  END
> <s_m_source_file>
AV-unprocessed.smi

> <i_m_source_file_index>
3351

> <i_lp_mmshare_version>
43012

> <i_f3d_flags>
0

> <s_epik_input>
W2NIXTFuW2NIXVtjSF1uMVtDSDJdW0NAQEhdKFtDSDNdKVtOSF1DKD1PKVtDSDJdTjJbQ0gyXVtDSDJdU0MyPU8=

> <s_epik_cmdline>
J2VwaWtfcHl0aG9uJywgJy1waCcsICc3LjAnLCAnLXRuJywgJzgnLCAnLW1hJywgJzIwMCcsICctbWV0YWxfYmluZGluZycsICctaW1hZScsICc8aW5maWxlLm1hZT4nLCAnLW9tYWUnLCAnPG91dGZpbGUubWFlPic=

> <r_lp_tautomer_probability>
1

> <r_epik_Ionization_Penalty>
0.618163

> <r_epik_Ionization_Penalty_Charging>
0.618163

> <r_epik_Ionization_Penalty_Neutral>
6.6929e-08

> <r_epik_State_Penalty>
0.633954

> <r_epik_Charging_Adjusted_Penalty>
1.25212

> <i_epik_Tot_Q>
0

> <i_epik_Tot_abs_Q>
0

> <r_epik_Metal_State_Penalty>
0.305924

> <b_epik_Metal_Only>
0

> <s_lp_Force_Field>
OPLS_2005

> <r_lp_Energy>
4.61171

> <b_lp_Chiralities_Consistent>
1

> <s_lp_Variant>
AV-unprocessed.smi:3351-4

> <Gold.Version>
5.8.1

> <Gold.Id.Protein>
6NUR|6NUR_protein|mol2

> <Gold.PLP.Fitness>
41.9148

> <Gold.PLP.PLP>
-28.2803

> <Gold.PLP.part.hbond>
-3.0000

> <Gold.PLP.part.metal>
0.0000

> <Gold.PLP.part.buried>
-2.2670

> <Gold.PLP.part.nonpolar>
-23.5494

> <Gold.PLP.part.repulsive>
0.2979

> <Gold.PLP.ligand.clash>
0.0000

> <Gold.PLP.ligand.torsion>
0.7409

> <Gold.PLP.Chemscore.Hbond>
2.4960

> <Gold.PLP.Chemscore.CHOScore>
2.5291

> <Gold.PLP.Chemscore.Metal>
0.0000

> <Gold.Chemscore.Hbonds>
donor molecule, donor type, donor heavy atom, donor atom, acceptor molecule, acceptor atom, score
      L1  H     9    28       P1  7948  1.00
      P1  H 10752 10764       L1    18  1.00
      P1  H 10785 10796       L1     7  0.47
      L1  C     6    26       P1 10186  0.72
      L1  C     6    26       P1 10952  0.69
      L1  C     8    27       P1 10747  0.89

> <Gold.PLP.Chemscore.Internal.Correction>
0.0408

> <Gold.Rescore>
     Score         DG    S(hbond)    S(metal)    S(lipo)     H(rot)  DE(clash)    DE(int)     intcor
     11.20     -11.67       2.17        0.00      41.89       2.33       0.05       0.42       ----

> <Gold.Chemscore.Fitness>
11.1961

> <Gold.Chemscore.DG>
-11.6686

> <Gold.Chemscore.ZeroCoef>
-5.4800

> <Gold.Chemscore.Hbond>
2.1727

> <Gold.Chemscore.Metal>
0.0000

> <Gold.Chemscore.Lipo>
41.8877

> <Gold.Chemscore.Internal_Hbond>
0.0000

> <Gold.Chemscore.DEClash>
0.0476

> <Gold.Chemscore.DEInternal>
0.4250

> <Gold.Chemscore.Rot>
2.3317

> <Gold.Chemscore.Internal.Correction>
   9.000000E+99

> <Gold.Chemscore.Hbonds>
donor molecule, donor type, donor heavy atom, donor atom, acceptor molecule, acceptor atom, score
      L1  H     9    28       P1  7948  0.26
      P1  H 10752 10764       L1    18  0.94
      P1  H 10785 10796       L1     7  0.30

> <Gold.Chemscore.Hbond.Weighted>
-7.2570

> <Gold.Chemscore.Metal.Weighted>
-0.0000

> <Gold.Chemscore.Lipo.Weighted>
-4.9009

> <Gold.Chemscore.Internal_Hbond.Weighted>
0.0000

> <Gold.Chemscore.DEClash.Weighted>
0.0476

> <Gold.Chemscore.DEInternal.Weighted>
0.4250

> <Gold.Chemscore.Rot.Weighted>
5.9692

> <Gold.Chemscore.Internal.Correction.Weighted>
   9.000000E+99

> <Gold.Protein.RotatedTorsions>
[ 6907 6896 6895 6894 ] final  132.39 input  -60.11 | X-H torsion
[ 7974 7965 7964 7962 ] final  174.06 input  175.53 | X-H torsion
[ 8008 7997 7996 7995 ] final  -79.25 input   59.86 | X-H torsion
[ 10167 10162 10161 10158 ] final -110.05 input  -65.29 | X-H torsion
[ 10718 10713 10712 10709 ] final -164.19 input   66.30 | X-H torsion
[ 10763 10752 10751 10750 ] final  -72.26 input  -60.55 | X-H torsion
[ 11005 11000 10999 10996 ] final    0.05 input  -57.11 | X-H torsion

> <Gold.Protein.ActiveResidues>
 VAL166  LYS551  ARG553  GLY616  TRP617  ASP618  TYR619  PRO620  LYS621  CYS622 
 ASP623  PHE694  ASN695  SER759  ASP760  ASP761  ALA762  ILE779  LEU786  VAL792 
 PHE793  MET794  SER795  GLU796  ALA797  LYS798  CYS799  TRP800  GLU811  SER814 

> <Gold.Protein.RotatedAtoms>
  152.3329  133.5978  159.5821 H   0  0  0  0  0  0  0  0  0  0  0  0  # atno 6907 bound_to 6896
  150.7433  133.9841  159.3594 H   0  0  0  0  0  0  0  0  0  0  0  0  # atno 6908 bound_to 6896
  151.7714  135.0786  160.0411 H   0  0  0  0  0  0  0  0  0  0  0  0  # atno 6909 bound_to 6896
  144.7230  139.9740  143.6437 H   0  0  0  0  0  0  0  0  0  0  0  0  # atno 7974 bound_to 7965
  154.5767  140.0681  156.9044 H   0  0  0  0  0  0  0  0  0  0  0  0  # atno 8008 bound_to 7997
  155.2536  140.3353  155.4261 H   0  0  0  0  0  0  0  0  0  0  0  0  # atno 8009 bound_to 7997
  156.2159  140.1778  156.7575 H   0  0  0  0  0  0  0  0  0  0  0  0  # atno 8010 bound_to 7997
  140.1487  143.4218  152.1511 H   0  0  0  0  0  0  0  0  0  0  0  0  # atno 10167 bound_to 10162
  156.6354  130.8947  151.2986 H   0  0  0  0  0  0  0  0  0  0  0  0  # atno 10718 bound_to 10713
  154.4432  135.5935  153.6143 H   0  0  0  0  0  0  0  0  0  0  0  0  # atno 10763 bound_to 10752
  152.9807  135.6003  154.3696 H   0  0  0  0  0  0  0  0  0  0  0  0  # atno 10764 bound_to 10752
  154.3549  135.2841  155.2331 H   0  0  0  0  0  0  0  0  0  0  0  0  # atno 10765 bound_to 10752
  140.6309  133.9576  155.8274 H   0  0  0  0  0  0  0  0  0  0  0  0  # atno 11005 bound_to 11000
  146.0540  139.3539  143.0622 LP  0  0  0  0  0  0  0  0  0  0  0  0  # atno 17320 bound_to 7965
  145.8178  140.9694  143.0915 LP  0  0  0  0  0  0  0  0  0  0  0  0  # atno 17321 bound_to 7965
  139.5436  144.7279  151.4653 LP  0  0  0  0  0  0  0  0  0  0  0  0  # atno 17342 bound_to 10162
  140.6716  143.8281  150.7006 LP  0  0  0  0  0  0  0  0  0  0  0  0  # atno 17343 bound_to 10162
  157.7187  130.9530  150.1354 LP  0  0  0  0  0  0  0  0  0  0  0  0  # atno 17370 bound_to 10713
  156.2201  130.3673  149.8566 LP  0  0  0  0  0  0  0  0  0  0  0  0  # atno 17371 bound_to 10713
  141.0676  134.0253  157.3572 LP  0  0  0  0  0  0  0  0  0  0  0  0  # atno 17394 bound_to 11000
  139.9116  135.0191  156.7716 LP  0  0  0  0  0  0  0  0  0  0  0  0  # atno 17395 bound_to 11000

$$$$
