AV-unprocessed.smi:281|AV-procd|sdf|2102|dock1
  -GOLD-   2262021393D 1   1.00000     0.00000
 Structure written by MMmdl.
 55 59  0  0  0  0  0  0  0  0  1 V2000
  148.2336  141.6315  153.7835 C   0  0  0  0  0  0  0  0  0  0  0  0
  148.6360  140.3895  154.5843 C   0  0  1  0  0  0  0  0  0  0  0  0
  147.8755  139.1357  154.1282 C   0  0  0  0  0  0  0  0  0  0  0  0
  148.3559  137.9845  154.8763 N   0  0  0  0  0  0  0  0  0  0  0  0
  147.6330  136.8576  154.7128 C   0  0  0  0  0  0  0  0  0  0  0  0
  147.8707  135.8442  155.5805 N   0  0  0  0  0  0  0  0  0  0  0  0
  147.1881  134.7001  155.4738 C   0  0  0  0  0  0  0  0  0  0  0  0
  146.2461  134.3690  154.5878 N   0  0  0  0  0  0  0  0  0  0  0  0
  146.0137  135.3843  153.7067 C   0  0  0  0  0  0  0  0  0  0  0  0
  146.6581  136.6533  153.6957 C   0  0  0  0  0  0  0  0  0  0  0  0
  146.1668  137.4252  152.6497 N   0  0  0  0  0  0  0  0  0  0  0  0
  145.2769  136.6591  152.0802 C   0  0  0  0  0  0  0  0  0  0  0  0
  145.1233  135.4141  152.6476 N   0  0  0  0  0  0  0  0  0  0  0  0
  144.2074  134.3687  152.2172 C   0  0  0  0  0  0  0  0  0  0  0  0
  144.5369  133.8014  150.8170 C   0  0  1  0  0  0  0  0  0  0  0  0
  144.4055  134.8372  149.8585 O   0  0  0  0  0  0  0  0  0  0  0  0
  145.9356  133.2040  150.6978 C   0  0  0  0  0  0  0  0  0  0  0  0
  145.7453  132.1017  149.6657 C   0  0  0  0  0  0  0  0  0  0  0  0
  144.4815  131.5640  150.0162 O   0  0  0  0  0  0  0  0  0  0  0  0
  143.6218  132.6332  150.3993 C   0  0  0  0  0  0  0  0  0  0  0  0
  149.7888  137.7802  154.7262 C   0  0  0  0  0  0  0  0  0  0  0  0
  150.5749  139.0584  155.1143 C   0  0  2  0  0  0  0  0  0  0  0  0
  152.0417  138.9130  154.7430 C   0  0  0  0  0  0  0  0  0  0  0  0
  152.6154  138.1381  155.9243 C   0  0  0  0  0  0  0  0  0  0  0  0
  151.8200  138.5009  157.0483 O   0  0  0  0  0  0  0  0  0  0  0  0
  150.6834  139.2627  156.6431 C   0  0  1  0  0  0  0  0  0  0  0  0
  150.9649  140.7105  157.0893 C   0  0  0  0  0  0  0  0  0  0  0  0
  150.0395  140.1840  154.4090 O   0  0  0  0  0  0  0  0  0  0  0  0
  147.1686  141.8388  153.8889 H   0  0  0  0  0  0  0  0  0  0  0  0
  148.4472  141.5021  152.7222 H   0  0  0  0  0  0  0  0  0  0  0  0
  148.7793  142.5097  154.1290 H   0  0  0  0  0  0  0  0  0  0  0  0
  148.4156  140.5711  155.6364 H   0  0  0  0  0  0  0  0  0  0  0  0
  146.8044  139.2634  154.2912 H   0  0  0  0  0  0  0  0  0  0  0  0
  148.0266  138.9807  153.0596 H   0  0  0  0  0  0  0  0  0  0  0  0
  147.4317  133.9413  156.2028 H   0  0  0  0  0  0  0  0  0  0  0  0
  144.7065  136.9812  151.2211 H   0  0  0  0  0  0  0  0  0  0  0  0
  144.2297  133.5697  152.9593 H   0  0  0  0  0  0  0  0  0  0  0  0
  143.1938  134.7714  152.2344 H   0  0  0  0  0  0  0  0  0  0  0  0
  145.0066  134.6657  149.1494 H   0  0  0  0  0  0  0  0  0  0  0  0
  146.7038  133.9278  150.4224 H   0  0  0  0  0  0  0  0  0  0  0  0
  146.2327  132.7479  151.6428 H   0  0  0  0  0  0  0  0  0  0  0  0
  145.7060  132.5107  148.6549 H   0  0  0  0  0  0  0  0  0  0  0  0
  146.5299  131.3459  149.7043 H   0  0  0  0  0  0  0  0  0  0  0  0
  142.9829  132.2956  151.2160 H   0  0  0  0  0  0  0  0  0  0  0  0
  142.9696  132.8978  149.5653 H   0  0  0  0  0  0  0  0  0  0  0  0
  150.1074  136.9328  155.3350 H   0  0  0  0  0  0  0  0  0  0  0  0
  149.9967  137.5198  153.6873 H   0  0  0  0  0  0  0  0  0  0  0  0
  152.2045  138.4149  153.7868 H   0  0  0  0  0  0  0  0  0  0  0  0
  152.5152  139.8939  154.6851 H   0  0  0  0  0  0  0  0  0  0  0  0
  152.5212  137.0640  155.7621 H   0  0  0  0  0  0  0  0  0  0  0  0
  153.6685  138.3624  156.0941 H   0  0  0  0  0  0  0  0  0  0  0  0
  149.7922  138.9005  157.1567 H   0  0  0  0  0  0  0  0  0  0  0  0
  150.1456  141.3832  156.8414 H   0  0  0  0  0  0  0  0  0  0  0  0
  151.8685  141.1081  156.6277 H   0  0  0  0  0  0  0  0  0  0  0  0
  151.1029  140.7574  158.1697 H   0  0  0  0  0  0  0  0  0  0  0  0
  1  2  1  0  0  0  0
  1 29  1  0  0  0  0
  1 30  1  0  0  0  0
  1 31  1  0  0  0  0
  2 28  1  0  0  0  0
  2  3  1  0  0  0  0
  2 32  1  0  0  0  0
  3  4  1  0  0  0  0
  3 33  1  0  0  0  0
  3 34  1  0  0  0  0
  4  5  1  0  0  0  0
  4 21  1  0  0  0  0
  5 10  1  0  0  0  0
  5  6  2  0  0  0  0
  6  7  1  0  0  0  0
  7  8  2  0  0  0  0
  7 35  1  0  0  0  0
  8  9  1  0  0  0  0
  9 13  1  0  0  0  0
  9 10  2  0  0  0  0
 10 11  1  0  0  0  0
 11 12  2  0  0  0  0
 12 13  1  0  0  0  0
 12 36  1  0  0  0  0
 13 14  1  0  0  0  0
 14 15  1  0  0  0  0
 14 37  1  0  0  0  0
 14 38  1  0  0  0  0
 15 20  1  0  0  0  0
 15 16  1  0  0  0  0
 15 17  1  0  0  0  0
 16 39  1  0  0  0  0
 17 18  1  0  0  0  0
 17 40  1  0  0  0  0
 17 41  1  0  0  0  0
 18 19  1  0  0  0  0
 18 42  1  0  0  0  0
 18 43  1  0  0  0  0
 19 20  1  0  0  0  0
 20 44  1  0  0  0  0
 20 45  1  0  0  0  0
 21 22  1  0  0  0  0
 21 46  1  0  0  0  0
 21 47  1  0  0  0  0
 22 26  1  0  0  0  0
 22 23  1  0  0  0  0
 22 28  1  0  0  0  0
 23 24  1  0  0  0  0
 23 48  1  0  0  0  0
 23 49  1  0  0  0  0
 24 25  1  0  0  0  0
 24 50  1  0  0  0  0
 24 51  1  0  0  0  0
 25 26  1  0  0  0  0
 26 27  1  0  0  0  0
 26 52  1  0  0  0  0
 27 53  1  0  0  0  0
 27 54  1  0  0  0  0
 27 55  1  0  0  0  0
M  END
> <s_m_source_file>
AV-unprocessed.smi

> <i_m_source_file_index>
281

> <i_lp_mmshare_version>
43012

> <i_f3d_flags>
0

> <s_epik_input>
W0NIM11bQ0BASF0xT1tDSDJdW0NIMl1bQ0BAXTEyW0NIMl1OKFtDSDJdW0NASF0oTzIpW0NIM10pYyhuW2NIXW4zKWMoYzM0KW5bY0hdbjRbQ0gyXVtDQEBdNShbT0hdKVtDSDJdW0NIMl1PW0NIMl01

> <s_epik_cmdline>
J2VwaWtfcHl0aG9uJywgJy1waCcsICc3LjAnLCAnLXRuJywgJzgnLCAnLW1hJywgJzIwMCcsICctbWV0YWxfYmluZGluZycsICctaW1hZScsICc8aW5maWxlLm1hZT4nLCAnLW9tYWUnLCAnPG91dGZpbGUubWFlPic=

> <r_lp_tautomer_probability>
1

> <r_epik_Ionization_Penalty>
0.00571331

> <r_epik_Ionization_Penalty_Charging>
0

> <r_epik_Ionization_Penalty_Neutral>
0.00571331

> <r_epik_State_Penalty>
0.00399586

> <r_epik_Charging_Adjusted_Penalty>
0.00399586

> <i_epik_Tot_Q>
0

> <i_epik_Tot_abs_Q>
0

> <r_epik_Metal_State_Penalty>
-0

> <b_epik_Metal_Only>
0

> <s_lp_Force_Field>
OPLS_2005

> <r_lp_Energy>
56.2514

> <b_lp_Chiralities_Consistent>
1

> <s_lp_Variant>
AV-unprocessed.smi:281-2

> <Gold.Version>
5.8.1

> <Gold.Id.Protein>
6NUR|6NUR_protein|mol2

> <Gold.PLP.Fitness>
45.7463

> <Gold.PLP.PLP>
-36.3886

> <Gold.PLP.part.hbond>
-3.0000

> <Gold.PLP.part.metal>
0.0000

> <Gold.PLP.part.buried>
-2.7744

> <Gold.PLP.part.nonpolar>
-31.4369

> <Gold.PLP.part.repulsive>
0.7236

> <Gold.PLP.ligand.clash>
0.0000

> <Gold.PLP.ligand.torsion>
0.1913

> <Gold.PLP.Chemscore.Hbond>
2.1917

> <Gold.PLP.Chemscore.CHOScore>
1.0000

> <Gold.PLP.Chemscore.Metal>
0.0000

> <Gold.Chemscore.Hbonds>
donor molecule, donor type, donor heavy atom, donor atom, acceptor molecule, acceptor atom, score
      L1  H    16    39       P1  7921  1.00
      P1  H  7989  7998       L1    28  0.99
      P1  H 10785 10796       L1    19  0.18
      L1  C    12    36       P1 10171  1.00

> <Gold.PLP.Chemscore.Internal.Correction>
0.1653

> <Gold.Rescore>
     Score         DG    S(hbond)    S(metal)    S(lipo)     H(rot)  DE(clash)    DE(int)     intcor
     15.66     -18.91       2.31        0.00      94.55       2.09       0.69       2.56       ----

> <Gold.Chemscore.Fitness>
15.6580

> <Gold.Chemscore.DG>
-18.9051

> <Gold.Chemscore.ZeroCoef>
-5.4800

> <Gold.Chemscore.Hbond>
2.3115

> <Gold.Chemscore.Metal>
0.0000

> <Gold.Chemscore.Lipo>
94.5484

> <Gold.Chemscore.Internal_Hbond>
0.0000

> <Gold.Chemscore.DEClash>
0.6858

> <Gold.Chemscore.DEInternal>
2.5613

> <Gold.Chemscore.Rot>
2.0927

> <Gold.Chemscore.Internal.Correction>
   9.000000E+99

> <Gold.Chemscore.Hbonds>
donor molecule, donor type, donor heavy atom, donor atom, acceptor molecule, acceptor atom, score
      L1  H    16    39       P1  7921  1.00
      P1  H  7989  7998       L1    28  0.32
      P1  H 10785 10796       L1    19  0.11

> <Gold.Chemscore.Hbond.Weighted>
-7.7203

> <Gold.Chemscore.Metal.Weighted>
-0.0000

> <Gold.Chemscore.Lipo.Weighted>
-11.0622

> <Gold.Chemscore.Internal_Hbond.Weighted>
0.0000

> <Gold.Chemscore.DEClash.Weighted>
0.6858

> <Gold.Chemscore.DEInternal.Weighted>
2.5613

> <Gold.Chemscore.Rot.Weighted>
5.3573

> <Gold.Chemscore.Internal.Correction.Weighted>
   9.000000E+99

> <Gold.Protein.RotatedTorsions>
[ 6907 6896 6895 6894 ] final -177.65 input  -60.11 | X-H torsion
[ 7974 7965 7964 7962 ] final  -27.09 input  175.53 | X-H torsion
[ 8008 7997 7996 7995 ] final   75.87 input   59.86 | X-H torsion
[ 10167 10162 10161 10158 ] final -112.31 input  -65.29 | X-H torsion
[ 10718 10713 10712 10709 ] final  -67.01 input   66.30 | X-H torsion
[ 10763 10752 10751 10750 ] final -178.88 input  -60.55 | X-H torsion
[ 11005 11000 10999 10996 ] final  -45.01 input  -57.11 | X-H torsion

> <Gold.Protein.ActiveResidues>
 VAL166  LYS551  ARG553  GLY616  TRP617  ASP618  TYR619  PRO620  LYS621  CYS622 
 ASP623  PHE694  ASN695  SER759  ASP760  ASP761  ALA762  ILE779  LEU786  VAL792 
 PHE793  MET794  SER795  GLU796  ALA797  LYS798  CYS799  TRP800  GLU811  SER814 

> <Gold.Protein.RotatedAtoms>
  151.6245  133.3336  159.3094 H   0  0  0  0  0  0  0  0  0  0  0  0  # atno 6907 bound_to 6896
  150.8089  134.7235  159.6681 H   0  0  0  0  0  0  0  0  0  0  0  0  # atno 6908 bound_to 6896
  152.4185  134.6003  160.0050 H   0  0  0  0  0  0  0  0  0  0  0  0  # atno 6909 bound_to 6896
  146.1382  140.5105  142.8664 H   0  0  0  0  0  0  0  0  0  0  0  0  # atno 7974 bound_to 7965
  155.8192  140.3470  155.5503 H   0  0  0  0  0  0  0  0  0  0  0  0  # atno 8008 bound_to 7997
  155.8360  140.0934  157.1783 H   0  0  0  0  0  0  0  0  0  0  0  0  # atno 8009 bound_to 7997
  154.4004  140.1403  156.3659 H   0  0  0  0  0  0  0  0  0  0  0  0  # atno 8010 bound_to 7997
  140.1242  143.4417  152.1671 H   0  0  0  0  0  0  0  0  0  0  0  0  # atno 10167 bound_to 10162
  156.0581  130.4271  150.1792 H   0  0  0  0  0  0  0  0  0  0  0  0  # atno 10718 bound_to 10713
  154.5421  135.2807  155.1086 H   0  0  0  0  0  0  0  0  0  0  0  0  # atno 10763 bound_to 10752
  154.2565  135.6329  153.5262 H   0  0  0  0  0  0  0  0  0  0  0  0  # atno 10764 bound_to 10752
  152.9981  135.5595  154.5963 H   0  0  0  0  0  0  0  0  0  0  0  0  # atno 10765 bound_to 10752
  141.0488  133.6751  156.2953 H   0  0  0  0  0  0  0  0  0  0  0  0  # atno 11005 bound_to 11000
  144.7762  140.5745  143.6636 LP  0  0  0  0  0  0  0  0  0  0  0  0  # atno 17320 bound_to 7965
  145.5108  139.1479  143.3606 LP  0  0  0  0  0  0  0  0  0  0  0  0  # atno 17321 bound_to 7965
  139.5553  144.7368  151.4313 LP  0  0  0  0  0  0  0  0  0  0  0  0  # atno 17342 bound_to 10162
  140.6855  143.7984  150.7180 LP  0  0  0  0  0  0  0  0  0  0  0  0  # atno 17343 bound_to 10162
  156.9865  130.9880  151.3425 LP  0  0  0  0  0  0  0  0  0  0  0  0  # atno 17370 bound_to 10713
  157.5567  130.8218  149.8213 LP  0  0  0  0  0  0  0  0  0  0  0  0  # atno 17371 bound_to 10713
  140.6095  134.5473  157.5531 LP  0  0  0  0  0  0  0  0  0  0  0  0  # atno 17394 bound_to 11000
  139.9333  134.7922  156.0870 LP  0  0  0  0  0  0  0  0  0  0  0  0  # atno 17395 bound_to 11000

$$$$
