#       Name:                AV-unprocessed.smi:1643
#       Creating user name   scv26
#       Creation time:       Fri Mar 27 07:27:19 2020


#       File generated by GOLD software.
#

@<TRIPOS>MOLECULE
AV-unprocessed.smi:1643
    59    61     1
SMALL
NO_CHARGES


@<TRIPOS>ATOM
      1 ****        -4.5257  -2.2251  -0.0772 C.3            1 S1                 0.0000
      2 ****        -4.7157  -0.8153   0.4880 C.2            1 S1                 0.0000
      3 ****        -5.1298   0.0646  -0.2674 O.2            1 S1                 0.0000
      4 ****        -4.4185  -0.5818   1.7889 N.am           1 S1                 0.0000
      5 ****        -4.5205   0.7542   2.3867 C.3            1 S1                 0.0000
      6 ****        -3.1838   1.5030   2.2596 C.3            1 S1                 0.0000
      7 ****        -1.9686   0.7566   2.8495 C.3            1 S1                 0.0000
      8 ****        -1.6016  -0.4571   2.1067 N.3            1 S1                 0.0000
      9 ****        -0.1576  -0.6972   2.0998 C.3            1 S1                 0.0000
     10 ****         0.6571   0.2699   1.2162 C.3            1 S1                 0.0000
     11 ****         2.0259  -0.0355   1.3895 O.3            1 S1                 0.0000
     12 ****         0.2852   0.1529  -0.2767 C.3            1 S1                 0.0000
     13 ****         1.0016   1.1189  -1.1208 N.pl3          1 S1                 0.0000
     14 ****         0.6886   2.4095  -1.4157 C.2            1 S1                 0.0000
     15 ****         1.6580   2.8890  -2.2430 N.pl3          1 S1                 1.0000
     16 ****         2.6043   1.8899  -2.4798 C.ar           1 S1                 0.0000
     17 ****         3.7622   1.8976  -3.2484 C.ar           1 S1                 0.0000
     18 ****         4.5209   0.7058  -3.2835 C.ar           1 S1                 0.0000
     19 ****         5.7926   0.6799  -4.1144 C.3            1 S1                 0.0000
     20 ****         4.1096  -0.4428  -2.5588 C.ar           1 S1                 0.0000
     21 ****         4.9357  -1.7171  -2.5987 C.3            1 S1                 0.0000
     22 ****         2.9279  -0.4305  -1.7840 C.ar           1 S1                 0.0000
     23 ****         2.1903   0.7508  -1.7618 C.ar           1 S1                 0.0000
     24 ****        -2.3026  -1.6490   2.6076 C.3            1 S1                 0.0000
     25 ****        -3.8438  -1.5789   2.6994 C.3            1 S1                 0.0000
     26 ****        -3.4938  -2.5564   0.0384 H              1 S1                 0.0000
     27 ****        -4.7622  -2.2457  -1.1417 H              1 S1                 0.0000
     28 ****        -5.1847  -2.9351   0.4227 H              1 S1                 0.0000
     29 ****        -5.3152   1.3356   1.9165 H              1 S1                 0.0000
     30 ****        -4.8077   0.6885   3.4367 H              1 S1                 0.0000
     31 ****        -2.9894   1.7273   1.2100 H              1 S1                 0.0000
     32 ****        -3.2795   2.4685   2.7567 H              1 S1                 0.0000
     33 ****        -1.1421   1.4645   2.8480 H              1 S1                 0.0000
     34 ****        -2.1356   0.5222   3.9019 H              1 S1                 0.0000
     35 ****         0.2166  -0.6696   3.1245 H              1 S1                 0.0000
     36 ****         0.0379  -1.7089   1.7403 H              1 S1                 0.0000
     37 ****         0.5210   1.3005   1.5412 H              1 S1                 0.0000
     38 ****         2.2428   0.0678   2.3036 H              1 S1                 0.0000
     39 ****         0.4558  -0.8561  -0.6530 H              1 S1                 0.0000
     40 ****        -0.7791   0.3503  -0.4121 H              1 S1                 0.0000
     41 ****        -0.1742   2.9536  -1.0591 H              1 S1                 0.0000
     42 ****         4.0703   2.7769  -3.7950 H              1 S1                 0.0000
     43 ****         6.6607   0.5026  -3.4789 H              1 S1                 0.0000
     44 ****         5.9481   1.6248  -4.6362 H              1 S1                 0.0000
     45 ****         5.7448  -0.1097  -4.8646 H              1 S1                 0.0000
     46 ****         4.5003  -2.4940  -1.9693 H              1 S1                 0.0000
     47 ****         5.9487  -1.5291  -2.2417 H              1 S1                 0.0000
     48 ****         4.9923  -2.1050  -3.6159 H              1 S1                 0.0000
     49 ****         2.6187  -1.3033  -1.2281 H              1 S1                 0.0000
     50 ****        -2.0533  -2.4858   1.9543 H              1 S1                 0.0000
     51 ****        -1.9100  -1.9226   3.5881 H              1 S1                 0.0000
     52 ****        -4.1154  -1.3364   3.7273 H              1 S1                 0.0000
     53 ****        -4.2764  -2.5668   2.5404 H              1 S1                 0.0000
     54 ****         1.6696   3.8289  -2.6176 H              1 S1                 0.0000
     55 ****        -5.3324  -0.1511  -1.2226 LP             1 S1                 0.0000
     56 ****        -5.2635   0.9948   0.0744 LP             1 S1                 0.0000
     57 ****        -1.8928  -0.2908   1.1646 LP             1 S1                 0.0000
     58 ****         2.5826   0.5861   0.8384 LP             1 S1                 0.0000
     59 ****         2.1996  -0.9786   1.1061 LP             1 S1                 0.0000
@<TRIPOS>BOND
    1    1    2 1     
    2    1   26 1     
    3    1   27 1     
    4    1   28 1     
    5    2    3 2     
    6    2    4 am    
    7    4   25 1     
    8    4    5 1     
    9    5    6 1     
   10    5   29 1     
   11    5   30 1     
   12    6    7 1     
   13    6   31 1     
   14    6   32 1     
   15    7    8 1     
   16    7   33 1     
   17    7   34 1     
   18    8    9 1     
   19    8   24 1     
   20    9   10 1     
   21    9   35 1     
   22    9   36 1     
   23   10   11 1     
   24   10   12 1     
   25   10   37 1     
   26   11   38 1     
   27   12   13 1     
   28   12   39 1     
   29   12   40 1     
   30   13   23 1     
   31   13   14 1     
   32   14   15 2     
   33   14   41 1     
   34   15   16 1     
   35   15   54 1     
   36   16   23 ar    
   37   16   17 ar    
   38   17   18 ar    
   39   17   42 1     
   40   18   19 1     
   41   18   20 ar    
   42   19   43 1     
   43   19   44 1     
   44   19   45 1     
   45   20   21 1     
   46   20   22 ar    
   47   21   46 1     
   48   21   47 1     
   49   21   48 1     
   50   22   23 ar    
   51   22   49 1     
   52   24   25 1     
   53   24   50 1     
   54   24   51 1     
   55   25   52 1     
   56   25   53 1     
   57    3   55 1     
   58    3   56 1     
   59    8   57 1     
   60   11   58 1     
   61   11   59 1     
@<TRIPOS>SUBSTRUCTURE
      1 S1             1
@<TRIPOS>SET
LONE_PAIRS      STATIC     ATOMS    <user>   **** ""
5 55 56 57 58 59
DONOR_HYDROGENS      STATIC     ATOMS    <user>   **** ""
2 38 54
ATOM$BLUE        STATIC     ATOMS    COLORGROUP SYSTEM
5 55 56 57 58 59
ATOM$RED        STATIC     ATOMS    COLORGROUP SYSTEM
2 38 54
