AV-unprocessed.smi:2379|AV-procd|sdf|9451|dock7
  -GOLD-   2272013 83D 1   1.00000     0.00000
 Structure written by MMmdl.
 53 55  0  0  0  0  0  0  0  0  2 V2000
  152.1446  144.9618  158.3970 C   0  0  0  0  0  0  0  0  0  0  0  0
  152.2960  143.4933  158.7346 C   0  0  0  0  0  0  0  0  0  0  0  0
  153.1867  143.0705  159.7397 C   0  0  0  0  0  0  0  0  0  0  0  0
  153.2819  141.6904  160.0060 C   0  0  0  0  0  0  0  0  0  0  0  0
  154.2209  141.1654  161.0717 C   0  0  0  0  0  0  0  0  0  0  0  0
  152.5614  140.7606  159.3428 N   0  0  0  0  0  0  0  0  0  0  0  0
  151.7011  141.1566  158.3723 C   0  0  0  0  0  0  0  0  0  0  0  0
  150.8990  140.2607  157.6169 N   0  0  0  0  0  0  0  0  0  0  0  0
  151.0313  138.9283  157.4942 C   0  0  0  0  0  0  0  0  0  0  0  0
  151.8997  138.2433  158.0356 O   0  0  0  0  0  0  0  0  0  0  0  0
  150.0790  138.4179  156.6996 N   0  0  0  0  0  0  0  0  0  0  0  0
  149.9271  137.0034  156.3711 C   0  0  2  0  0  0  0  0  0  0  0  0
  151.0622  136.5635  155.4316 C   0  0  0  0  0  0  0  0  0  0  0  0
  150.8784  135.1071  154.9723 C   0  0  0  0  0  0  0  0  0  0  0  0
  149.5561  134.9150  154.3231 N   0  3  1  0  0  0  0  0  0  0  0  0
  149.3947  133.5681  153.7175 C   0  0  0  0  0  0  0  0  0  0  0  0
  149.5681  132.4477  154.7605 C   0  0  2  0  0  0  0  0  0  0  0  0
  151.0017  132.1096  155.1238 C   0  0  0  0  0  0  0  0  0  0  0  0
  150.8626  130.7151  155.7283 C   0  0  0  0  0  0  0  0  0  0  0  0
  149.7315  130.1242  155.0947 O   0  0  0  0  0  0  0  0  0  0  0  0
  149.0734  131.0851  154.2765 C   0  0  0  0  0  0  0  0  0  0  0  0
  148.4445  135.2797  155.2393 C   0  0  0  0  0  0  0  0  0  0  0  0
  148.5663  136.7415  155.6984 C   0  0  0  0  0  0  0  0  0  0  0  0
  151.5459  142.5216  158.0421 C   0  0  0  0  0  0  0  0  0  0  0  0
  152.6687  145.5898  159.1183 H   0  0  0  0  0  0  0  0  0  0  0  0
  151.0920  145.2461  158.4007 H   0  0  0  0  0  0  0  0  0  0  0  0
  152.5527  145.1638  157.4066 H   0  0  0  0  0  0  0  0  0  0  0  0
  153.7814  143.7842  160.2913 H   0  0  0  0  0  0  0  0  0  0  0  0
  154.6683  141.9806  161.6409 H   0  0  0  0  0  0  0  0  0  0  0  0
  155.0242  140.5867  160.6151 H   0  0  0  0  0  0  0  0  0  0  0  0
  153.6849  140.5200  161.7681 H   0  0  0  0  0  0  0  0  0  0  0  0
  150.1306  140.6843  157.1183 H   0  0  0  0  0  0  0  0  0  0  0  0
  149.4084  139.0550  156.2951 H   0  0  0  0  0  0  0  0  0  0  0  0
  149.9924  136.4133  157.2876 H   0  0  0  0  0  0  0  0  0  0  0  0
  151.0931  137.2148  154.5565 H   0  0  0  0  0  0  0  0  0  0  0  0
  152.0254  136.6725  155.9315 H   0  0  0  0  0  0  0  0  0  0  0  0
  151.6737  134.8544  154.2699 H   0  0  0  0  0  0  0  0  0  0  0  0
  150.9733  134.4269  155.8202 H   0  0  0  0  0  0  0  0  0  0  0  0
  148.3914  133.4749  153.2983 H   0  0  0  0  0  0  0  0  0  0  0  0
  150.0767  133.4351  152.8759 H   0  0  0  0  0  0  0  0  0  0  0  0
  149.0226  132.7060  155.6700 H   0  0  0  0  0  0  0  0  0  0  0  0
  151.6227  132.0657  154.2276 H   0  0  0  0  0  0  0  0  0  0  0  0
  151.4505  132.8216  155.8173 H   0  0  0  0  0  0  0  0  0  0  0  0
  151.7592  130.1110  155.5863 H   0  0  0  0  0  0  0  0  0  0  0  0
  150.6643  130.7805  156.7991 H   0  0  0  0  0  0  0  0  0  0  0  0
  147.9895  130.9859  154.3413 H   0  0  0  0  0  0  0  0  0  0  0  0
  149.3668  130.9130  153.2397 H   0  0  0  0  0  0  0  0  0  0  0  0
  147.4851  135.1386  154.7429 H   0  0  0  0  0  0  0  0  0  0  0  0
  148.4502  134.6146  156.1047 H   0  0  0  0  0  0  0  0  0  0  0  0
  147.7529  136.9762  156.3863 H   0  0  0  0  0  0  0  0  0  0  0  0
  148.4429  137.4021  154.8387 H   0  0  0  0  0  0  0  0  0  0  0  0
  150.8578  142.8244  157.2657 H   0  0  0  0  0  0  0  0  0  0  0  0
  149.5284  135.5706  153.5553 H   0  0  0  0  0  0  0  0  0  0  0  0
  1  2  1  0  0  0  0
  1 25  1  0  0  0  0
  1 26  1  0  0  0  0
  1 27  1  0  0  0  0
  2 24  1  0  0  0  0
  2  3  2  0  0  0  0
  3  4  1  0  0  0  0
  3 28  1  0  0  0  0
  4  5  1  0  0  0  0
  4  6  2  0  0  0  0
  5 29  1  0  0  0  0
  5 30  1  0  0  0  0
  5 31  1  0  0  0  0
  6  7  1  0  0  0  0
  7  8  1  0  0  0  0
  7 24  2  0  0  0  0
  8  9  1  0  0  0  0
  8 32  1  0  0  0  0
  9 10  2  0  0  0  0
  9 11  1  0  0  0  0
 11 12  1  0  0  0  0
 11 33  1  0  0  0  0
 12 23  1  0  0  0  0
 12 13  1  0  0  0  0
 12 34  1  0  0  0  0
 13 14  1  0  0  0  0
 13 35  1  0  0  0  0
 13 36  1  0  0  0  0
 14 15  1  0  0  0  0
 14 37  1  0  0  0  0
 14 38  1  0  0  0  0
 15 16  1  0  0  0  0
 15 22  1  0  0  0  0
 15 53  1  0  0  0  0
 16 17  1  0  0  0  0
 16 39  1  0  0  0  0
 16 40  1  0  0  0  0
 17 21  1  0  0  0  0
 17 18  1  0  0  0  0
 17 41  1  0  0  0  0
 18 19  1  0  0  0  0
 18 42  1  0  0  0  0
 18 43  1  0  0  0  0
 19 20  1  0  0  0  0
 19 44  1  0  0  0  0
 19 45  1  0  0  0  0
 20 21  1  0  0  0  0
 21 46  1  0  0  0  0
 21 47  1  0  0  0  0
 22 23  1  0  0  0  0
 22 48  1  0  0  0  0
 22 49  1  0  0  0  0
 23 50  1  0  0  0  0
 23 51  1  0  0  0  0
 24 52  1  0  0  0  0
M  CHG  1  15   1
M  END
> <s_m_source_file>
AV-unprocessed.smi

> <i_m_source_file_index>
2379

> <i_lp_mmshare_version>
43012

> <i_f3d_flags>
0

> <s_epik_input>
W0NIM11jMVtjSF1jKFtDSDNdKW5jKFtjSF0xKVtOSF1DKD1PKVtOSF1bQ0hdMltDSDJdW0NIMl1OKFtDSDJdW0NIMl0yKVtDSDJdW0NAQEhdM1tDSDJdW0NIMl1PW0NIMl0z

> <s_epik_cmdline>
J2VwaWtfcHl0aG9uJywgJy1waCcsICc3LjAnLCAnLXRuJywgJzgnLCAnLW1hJywgJzIwMCcsICctbWV0YWxfYmluZGluZycsICctaW1hZScsICc8aW5maWxlLm1hZT4nLCAnLW9tYWUnLCAnPG91dGZpbGUubWFlPic=

> <r_epik_Ionization_Penalty>
0.00766556

> <r_epik_Ionization_Penalty_Charging>
0.00747775

> <r_epik_Ionization_Penalty_Neutral>
0.00018781

> <r_epik_State_Penalty>
0.00558817

> <r_epik_Charging_Adjusted_Penalty>
0.0130659

> <i_epik_Tot_Q>
1

> <i_epik_Tot_abs_Q>
1

> <r_epik_Metal_State_Penalty>
-0

> <b_epik_Metal_Only>
0

> <s_lp_Force_Field>
OPLS_2005

> <r_lp_Energy>
36.075

> <b_lp_Chiralities_Consistent>
1

> <s_lp_Variant>
AV-unprocessed.smi:2379-1

> <Gold.Version>
5.8.1

> <Gold.Id.Protein>
6NUR|6NUR_protein|mol2

> <Gold.PLP.Fitness>
46.5952

> <Gold.PLP.PLP>
-41.2405

> <Gold.PLP.part.hbond>
-1.0000

> <Gold.PLP.part.metal>
0.0000

> <Gold.PLP.part.buried>
-4.4724

> <Gold.PLP.part.nonpolar>
-34.6353

> <Gold.PLP.part.repulsive>
0.0992

> <Gold.PLP.ligand.clash>
0.0000

> <Gold.PLP.ligand.torsion>
0.3413

> <Gold.PLP.Chemscore.Hbond>
2.0000

> <Gold.PLP.Chemscore.CHOScore>
0.0000

> <Gold.PLP.Chemscore.Metal>
0.0000

> <Gold.Chemscore.Hbonds>
donor molecule, donor type, donor heavy atom, donor atom, acceptor molecule, acceptor atom, score
      L1  H    15    53       P1  7948  1.80

> <Gold.PLP.Chemscore.Internal.Correction>
0.0373

> <Gold.Rescore>
     Score         DG    S(hbond)    S(metal)    S(lipo)     H(rot)  DE(clash)    DE(int)     intcor
     15.95     -17.50       0.87        0.00     107.90       1.37       0.00       1.55       ----

> <Gold.Chemscore.Fitness>
15.9463

> <Gold.Chemscore.DG>
-17.4971

> <Gold.Chemscore.ZeroCoef>
-5.4800

> <Gold.Chemscore.Hbond>
0.8703

> <Gold.Chemscore.Metal>
0.0000

> <Gold.Chemscore.Lipo>
107.8959

> <Gold.Chemscore.Internal_Hbond>
0.0000

> <Gold.Chemscore.DEClash>
0.0013

> <Gold.Chemscore.DEInternal>
1.5495

> <Gold.Chemscore.Rot>
1.3725

> <Gold.Chemscore.Internal.Correction>
   9.000000E+99

> <Gold.Chemscore.Hbonds>
donor molecule, donor type, donor heavy atom, donor atom, acceptor molecule, acceptor atom, score
      L1  H    15    53       P1  7948  0.18

> <Gold.Chemscore.Hbond.Weighted>
-2.9069

> <Gold.Chemscore.Metal.Weighted>
-0.0000

> <Gold.Chemscore.Lipo.Weighted>
-12.6238

> <Gold.Chemscore.Internal_Hbond.Weighted>
0.0000

> <Gold.Chemscore.DEClash.Weighted>
0.0013

> <Gold.Chemscore.DEInternal.Weighted>
1.5495

> <Gold.Chemscore.Rot.Weighted>
3.5136

> <Gold.Chemscore.Internal.Correction.Weighted>
   9.000000E+99

> <Gold.Protein.RotatedTorsions>
[ 6907 6896 6895 6894 ] final -114.84 input  -60.11 | X-H torsion
[ 7974 7965 7964 7962 ] final   73.83 input  175.53 | X-H torsion
[ 8008 7997 7996 7995 ] final -128.55 input   59.86 | X-H torsion
[ 10167 10162 10161 10158 ] final  158.53 input  -65.29 | X-H torsion
[ 10718 10713 10712 10709 ] final   88.25 input   66.30 | X-H torsion
[ 10763 10752 10751 10750 ] final  -30.13 input  -60.55 | X-H torsion
[ 11005 11000 10999 10996 ] final  -13.85 input  -57.11 | X-H torsion

> <Gold.Protein.ActiveResidues>
 VAL166  LYS551  ARG553  GLY616  TRP617  ASP618  TYR619  PRO620  LYS621  CYS622 
 ASP623  PHE694  ASN695  SER759  ASP760  ASP761  ALA762  ILE779  LEU786  VAL792 
 PHE793  MET794  SER795  GLU796  ALA797  LYS798  CYS799  TRP800  GLU811  SER814 

> <Gold.Protein.RotatedAtoms>
  150.7932  133.8743  159.3267 H   0  0  0  0  0  0  0  0  0  0  0  0  # atno 6907 bound_to 6896
  151.6576  135.0992  160.0182 H   0  0  0  0  0  0  0  0  0  0  0  0  # atno 6908 bound_to 6896
  152.4010  133.6779  159.6351 H   0  0  0  0  0  0  0  0  0  0  0  0  # atno 6909 bound_to 6896
  145.7359  139.2702  143.1514 H   0  0  0  0  0  0  0  0  0  0  0  0  # atno 7974 bound_to 7965
  155.2645  140.0437  157.3001 H   0  0  0  0  0  0  0  0  0  0  0  0  # atno 8008 bound_to 7997
  154.5691  140.2368  155.8188 H   0  0  0  0  0  0  0  0  0  0  0  0  # atno 8009 bound_to 7997
  156.2108  140.2999  155.9736 H   0  0  0  0  0  0  0  0  0  0  0  0  # atno 8010 bound_to 7997
  139.4827  144.4816  151.8437 H   0  0  0  0  0  0  0  0  0  0  0  0  # atno 10167 bound_to 10162
  157.6947  131.0287  150.3246 H   0  0  0  0  0  0  0  0  0  0  0  0  # atno 10718 bound_to 10713
  153.7759  135.6909  153.4897 H   0  0  0  0  0  0  0  0  0  0  0  0  # atno 10763 bound_to 10752
  153.1844  135.4494  155.0068 H   0  0  0  0  0  0  0  0  0  0  0  0  # atno 10764 bound_to 10752
  154.8100  135.3373  154.7265 H   0  0  0  0  0  0  0  0  0  0  0  0  # atno 10765 bound_to 10752
  140.7803  133.8368  155.9286 H   0  0  0  0  0  0  0  0  0  0  0  0  # atno 11005 bound_to 11000
  146.0493  140.8085  142.9789 LP  0  0  0  0  0  0  0  0  0  0  0  0  # atno 17320 bound_to 7965
  144.6882  140.3029  143.7260 LP  0  0  0  0  0  0  0  0  0  0  0  0  # atno 17321 bound_to 7965
  140.4292  144.2139  150.5887 LP  0  0  0  0  0  0  0  0  0  0  0  0  # atno 17342 bound_to 10162
  140.4796  143.2384  151.8973 LP  0  0  0  0  0  0  0  0  0  0  0  0  # atno 17343 bound_to 10162
  156.3729  130.3866  149.7161 LP  0  0  0  0  0  0  0  0  0  0  0  0  # atno 17370 bound_to 10713
  156.4570  130.7933  151.2954 LP  0  0  0  0  0  0  0  0  0  0  0  0  # atno 17371 bound_to 10713
  140.9489  134.1805  157.4743 LP  0  0  0  0  0  0  0  0  0  0  0  0  # atno 17394 bound_to 11000
  139.8743  134.9901  156.5488 LP  0  0  0  0  0  0  0  0  0  0  0  0  # atno 17395 bound_to 11000

$$$$
