AV-unprocessed.smi:1012|AV-procd|sdf|4423|dock1
  -GOLD-   22720 2373D 1   1.00000     0.00000
 Structure written by MMmdl.
 43 45  0  0  0  0  0  0  0  0  1 V2000
  143.4487  144.0738  157.3050 C   0  0  0  0  0  0  0  0  0  0  0  0
  144.2686  143.2902  156.4510 O   0  0  0  0  0  0  0  0  0  0  0  0
  144.5629  143.7798  155.1945 C   0  0  0  0  0  0  0  0  0  0  0  0
  144.0392  144.9951  154.6839 C   0  0  0  0  0  0  0  0  0  0  0  0
  144.3852  145.4384  153.3932 C   0  0  0  0  0  0  0  0  0  0  0  0
  145.2568  144.6763  152.5957 C   0  0  0  0  0  0  0  0  0  0  0  0
  145.7828  143.4694  153.0906 C   0  0  0  0  0  0  0  0  0  0  0  0
  145.4379  143.0185  154.3824 C   0  0  0  0  0  0  0  0  0  0  0  0
  146.0249  141.7186  154.9030 C   0  0  0  0  0  0  0  0  0  0  0  0
  147.4360  141.6906  154.7631 O   0  0  0  0  0  0  0  0  0  0  0  0
  147.9562  140.3742  154.6822 C   0  0  0  0  0  0  0  0  0  0  0  0
  149.4737  140.4234  154.9175 C   0  0  1  0  0  0  0  0  0  0  0  0
  150.1164  140.5539  153.6643 O   0  0  0  0  0  0  0  0  0  0  0  0
  149.8786  141.6070  155.8172 C   0  0  0  0  0  0  0  0  0  0  0  0
  150.9311  141.2581  156.7551 N   0  0  0  0  0  0  0  0  0  0  0  0
  151.7555  140.1955  156.6860 C   0  0  0  0  0  0  0  0  0  0  0  0
  152.6562  140.0585  157.6548 N   0  0  0  0  0  0  0  0  0  0  0  0
  152.3863  141.1626  158.4451 C   0  0  0  0  0  0  0  0  0  0  0  0
  152.9950  141.6042  159.6414 C   0  0  0  0  0  0  0  0  0  0  0  0
  152.5466  142.7791  160.2801 C   0  0  0  0  0  0  0  0  0  0  0  0
  153.1416  143.1888  161.4254 F   0  0  0  0  0  0  0  0  0  0  0  0
  151.4841  143.5288  159.7329 C   0  0  0  0  0  0  0  0  0  0  0  0
  151.0612  144.6566  160.3515 F   0  0  0  0  0  0  0  0  0  0  0  0
  150.8614  143.1075  158.5423 C   0  0  0  0  0  0  0  0  0  0  0  0
  151.3118  141.9346  157.9091 C   0  0  0  0  0  0  0  0  0  0  0  0
  143.2931  143.5392  158.2420 H   0  0  0  0  0  0  0  0  0  0  0  0
  142.4681  144.2530  156.8618 H   0  0  0  0  0  0  0  0  0  0  0  0
  143.9188  145.0284  157.5442 H   0  0  0  0  0  0  0  0  0  0  0  0
  143.3692  145.6102  155.2648 H   0  0  0  0  0  0  0  0  0  0  0  0
  143.9810  146.3661  153.0156 H   0  0  0  0  0  0  0  0  0  0  0  0
  145.5229  145.0174  151.6062 H   0  0  0  0  0  0  0  0  0  0  0  0
  146.4525  142.8902  152.4720 H   0  0  0  0  0  0  0  0  0  0  0  0
  145.7592  141.5804  155.9521 H   0  0  0  0  0  0  0  0  0  0  0  0
  145.5746  140.8942  154.3479 H   0  0  0  0  0  0  0  0  0  0  0  0
  147.4647  139.7049  155.3909 H   0  0  0  0  0  0  0  0  0  0  0  0
  147.7543  139.9893  153.6811 H   0  0  0  0  0  0  0  0  0  0  0  0
  149.7999  139.4943  155.3876 H   0  0  0  0  0  0  0  0  0  0  0  0
  149.9456  139.7732  153.1599 H   0  0  0  0  0  0  0  0  0  0  0  0
  150.2110  142.4526  155.2135 H   0  0  0  0  0  0  0  0  0  0  0  0
  149.0180  141.9544  156.3903 H   0  0  0  0  0  0  0  0  0  0  0  0
  151.6903  139.4823  155.8775 H   0  0  0  0  0  0  0  0  0  0  0  0
  153.8095  141.0389  160.0690 H   0  0  0  0  0  0  0  0  0  0  0  0
  150.0504  143.6809  158.1189 H   0  0  0  0  0  0  0  0  0  0  0  0
  1  2  1  0  0  0  0
  1 26  1  0  0  0  0
  1 27  1  0  0  0  0
  1 28  1  0  0  0  0
  2  3  1  0  0  0  0
  3  8  1  0  0  0  0
  3  4  2  0  0  0  0
  4  5  1  0  0  0  0
  4 29  1  0  0  0  0
  5  6  2  0  0  0  0
  5 30  1  0  0  0  0
  6  7  1  0  0  0  0
  6 31  1  0  0  0  0
  7  8  2  0  0  0  0
  7 32  1  0  0  0  0
  8  9  1  0  0  0  0
  9 10  1  0  0  0  0
  9 33  1  0  0  0  0
  9 34  1  0  0  0  0
 10 11  1  0  0  0  0
 11 12  1  0  0  0  0
 11 35  1  0  0  0  0
 11 36  1  0  0  0  0
 12 13  1  0  0  0  0
 12 14  1  0  0  0  0
 12 37  1  0  0  0  0
 13 38  1  0  0  0  0
 14 15  1  0  0  0  0
 14 39  1  0  0  0  0
 14 40  1  0  0  0  0
 15 25  1  0  0  0  0
 15 16  1  0  0  0  0
 16 17  2  0  0  0  0
 16 41  1  0  0  0  0
 17 18  1  0  0  0  0
 18 25  2  0  0  0  0
 18 19  1  0  0  0  0
 19 20  2  0  0  0  0
 19 42  1  0  0  0  0
 20 21  1  0  0  0  0
 20 22  1  0  0  0  0
 22 23  1  0  0  0  0
 22 24  2  0  0  0  0
 24 25  1  0  0  0  0
 24 43  1  0  0  0  0
M  END
> <s_m_source_file>
AV-unprocessed.smi

> <i_m_source_file_index>
1012

> <i_lp_mmshare_version>
43012

> <i_f3d_flags>
0

> <s_epik_input>
W0NIM11PYzFbY0hdW2NIXVtjSF1bY0hdYzFbQ0gyXU9bQ0gyXVtDQEhdKFtPSF0pW0NIMl1uKFtjSF1uMiljKGMyMylbY0hdYyhGKWMoRilbY0hdMw==

> <s_epik_cmdline>
J2VwaWtfcHl0aG9uJywgJy1waCcsICc3LjAnLCAnLXRuJywgJzgnLCAnLW1hJywgJzIwMCcsICctbWV0YWxfYmluZGluZycsICctaW1hZScsICc8aW5maWxlLm1hZT4nLCAnLW9tYWUnLCAnPG91dGZpbGUubWFlPic=

> <r_lp_tautomer_probability>
1

> <r_epik_Ionization_Penalty>
0.0160257

> <r_epik_Ionization_Penalty_Charging>
0

> <r_epik_Ionization_Penalty_Neutral>
0.0160257

> <r_epik_State_Penalty>
0.0126263

> <r_epik_Charging_Adjusted_Penalty>
0.0126263

> <i_epik_Tot_Q>
0

> <i_epik_Tot_abs_Q>
0

> <r_epik_Metal_State_Penalty>
1.27616e-05

> <b_epik_Metal_Only>
0

> <s_lp_Force_Field>
OPLS_2005

> <r_lp_Energy>
17.5925

> <b_lp_Chiralities_Consistent>
1

> <s_lp_Variant>
AV-unprocessed.smi:1012-2

> <Gold.Version>
5.8.1

> <Gold.Id.Protein>
6NUR|6NUR_protein|mol2

> <Gold.PLP.Fitness>
58.9281

> <Gold.PLP.PLP>
-53.1764

> <Gold.PLP.part.hbond>
-3.2825

> <Gold.PLP.part.metal>
0.0000

> <Gold.PLP.part.buried>
-5.8494

> <Gold.PLP.part.nonpolar>
-44.2688

> <Gold.PLP.part.repulsive>
0.1645

> <Gold.PLP.ligand.clash>
0.0000

> <Gold.PLP.ligand.torsion>
1.4713

> <Gold.PLP.Chemscore.Hbond>
2.8560

> <Gold.PLP.Chemscore.CHOScore>
0.0000

> <Gold.PLP.Chemscore.Metal>
0.0000

> <Gold.Chemscore.Hbonds>
donor molecule, donor type, donor heavy atom, donor atom, acceptor molecule, acceptor atom, score
      L1  H    13    38       P1  7957  0.33
      P1  H  7989  7998       L1    13  0.58
      P1  H  7997  8008       L1    17  1.00
      P1  H  8011  8017       L1    13  0.32

> <Gold.PLP.Chemscore.Internal.Correction>
0.1263

> <Gold.Rescore>
     Score         DG    S(hbond)    S(metal)    S(lipo)     H(rot)  DE(clash)    DE(int)     intcor
     16.76     -19.30       2.24        0.00     118.46       2.93       1.09       1.45       ----

> <Gold.Chemscore.Fitness>
16.7552

> <Gold.Chemscore.DG>
-19.2990

> <Gold.Chemscore.ZeroCoef>
-5.4800

> <Gold.Chemscore.Hbond>
2.2360

> <Gold.Chemscore.Metal>
0.0000

> <Gold.Chemscore.Lipo>
118.4636

> <Gold.Chemscore.Internal_Hbond>
0.0000

> <Gold.Chemscore.DEClash>
1.0921

> <Gold.Chemscore.DEInternal>
1.4517

> <Gold.Chemscore.Rot>
2.9335

> <Gold.Chemscore.Internal.Correction>
   9.000000E+99

> <Gold.Chemscore.Hbonds>
donor molecule, donor type, donor heavy atom, donor atom, acceptor molecule, acceptor atom, score
      L1  H    13    38       P1  7957  0.29
      P1  H  7989  7998       L1    13  0.30
      P1  H  7997  8008       L1    17  0.62
      P1  H  8011  8017       L1    13  0.22

> <Gold.Chemscore.Hbond.Weighted>
-7.4684

> <Gold.Chemscore.Metal.Weighted>
-0.0000

> <Gold.Chemscore.Lipo.Weighted>
-13.8602

> <Gold.Chemscore.Internal_Hbond.Weighted>
0.0000

> <Gold.Chemscore.DEClash.Weighted>
1.0921

> <Gold.Chemscore.DEInternal.Weighted>
1.4517

> <Gold.Chemscore.Rot.Weighted>
7.5097

> <Gold.Chemscore.Internal.Correction.Weighted>
   9.000000E+99

> <Gold.Protein.RotatedTorsions>
[ 6907 6896 6895 6894 ] final -130.26 input  -60.11 | X-H torsion
[ 7974 7965 7964 7962 ] final -153.53 input  175.53 | X-H torsion
[ 8008 7997 7996 7995 ] final  -78.48 input   59.86 | X-H torsion
[ 10167 10162 10161 10158 ] final  128.58 input  -65.29 | X-H torsion
[ 10718 10713 10712 10709 ] final  -71.19 input   66.30 | X-H torsion
[ 10763 10752 10751 10750 ] final   49.17 input  -60.55 | X-H torsion
[ 11005 11000 10999 10996 ] final -176.50 input  -57.11 | X-H torsion

> <Gold.Protein.ActiveResidues>
 VAL166  LYS551  ARG553  GLY616  TRP617  ASP618  TYR619  PRO620  LYS621  CYS622 
 ASP623  PHE694  ASN695  SER759  ASP760  ASP761  ALA762  ILE779  LEU786  VAL792 
 PHE793  MET794  SER795  GLU796  ALA797  LYS798  CYS799  TRP800  GLU811  SER814 

> <Gold.Protein.RotatedAtoms>
  150.9378  133.6692  159.2796 H   0  0  0  0  0  0  0  0  0  0  0  0  # atno 6907 bound_to 6896
  151.4091  135.0981  159.9589 H   0  0  0  0  0  0  0  0  0  0  0  0  # atno 6908 bound_to 6896
  152.5055  133.8855  159.7422 H   0  0  0  0  0  0  0  0  0  0  0  0  # atno 6909 bound_to 6896
  144.7736  140.4513  143.5889 H   0  0  0  0  0  0  0  0  0  0  0  0  # atno 7974 bound_to 7965
  154.5693  140.0693  156.8940 H   0  0  0  0  0  0  0  0  0  0  0  0  # atno 8008 bound_to 7997
  155.2664  140.3362  155.4250 H   0  0  0  0  0  0  0  0  0  0  0  0  # atno 8009 bound_to 7997
  156.2106  140.1757  156.7689 H   0  0  0  0  0  0  0  0  0  0  0  0  # atno 8010 bound_to 7997
  139.5520  144.6820  151.4295 H   0  0  0  0  0  0  0  0  0  0  0  0  # atno 10167 bound_to 10162
  156.0374  130.4346  150.2407 H   0  0  0  0  0  0  0  0  0  0  0  0  # atno 10718 bound_to 10713
  152.9788  135.5920  154.4046 H   0  0  0  0  0  0  0  0  0  0  0  0  # atno 10763 bound_to 10752
  154.3688  135.2767  155.2280 H   0  0  0  0  0  0  0  0  0  0  0  0  # atno 10764 bound_to 10752
  154.4245  135.6051  153.6085 H   0  0  0  0  0  0  0  0  0  0  0  0  # atno 10765 bound_to 10752
  140.4514  134.6340  157.4803 H   0  0  0  0  0  0  0  0  0  0  0  0  # atno 11005 bound_to 11000
  145.6251  139.1529  143.3000 LP  0  0  0  0  0  0  0  0  0  0  0  0  # atno 17320 bound_to 7965
  146.1900  140.6359  142.9150 LP  0  0  0  0  0  0  0  0  0  0  0  0  # atno 17321 bound_to 7965
  140.6785  143.8136  150.7089 LP  0  0  0  0  0  0  0  0  0  0  0  0  # atno 17342 bound_to 10162
  140.1582  143.4298  152.2085 LP  0  0  0  0  0  0  0  0  0  0  0  0  # atno 17343 bound_to 10162
  157.0505  131.0061  151.3255 LP  0  0  0  0  0  0  0  0  0  0  0  0  # atno 17370 bound_to 10713
  157.5144  130.7958  149.7739 LP  0  0  0  0  0  0  0  0  0  0  0  0  # atno 17371 bound_to 10713
  140.0004  134.6845  155.9539 LP  0  0  0  0  0  0  0  0  0  0  0  0  # atno 17394 bound_to 11000
  141.1662  133.6537  156.4489 LP  0  0  0  0  0  0  0  0  0  0  0  0  # atno 17395 bound_to 11000

$$$$
