#       Name:                AV-unprocessed.smi:65
#       Creating user name   scv26
#       Creation time:       Thu Mar 26 16:50:59 2020


#       File generated by GOLD software.
#

@<TRIPOS>MOLECULE
AV-unprocessed.smi:65
    29    30     1
SMALL
NO_CHARGES


@<TRIPOS>ATOM
      1 ****        -3.2275   2.2317   1.1167 N.pl3          1 S1                 0.0000
      2 ****        -2.6788   1.3420   0.2257 C.ar           1 S1                 0.0000
      3 ****        -3.4713   0.8071  -0.7075 N.ar           1 S1                 0.0000
      4 ****        -2.9397  -0.0645  -1.5857 C.ar           1 S1                 0.0000
      5 ****        -1.5816  -0.4202  -1.5378 C.ar           1 S1                 0.0000
      6 ****        -0.7932   0.1736  -0.5264 C.ar           1 S1                 0.0000
      7 ****         0.5802  -0.0985  -0.3810 N.pl3          1 S1                 0.0000
      8 ****         1.1765  -1.3061  -0.9378 C.3            1 S1                 0.0000
      9 ****         2.3770  -1.6268  -0.0383 C.3            1 S1                 0.0000
     10 ****         2.7009  -0.2870   0.6248 C.3            1 S1                 0.0000
     11 ****         3.3618  -0.4388   1.8626 O.3            1 S1                 0.0000
     12 ****         1.3240   0.3558   0.7834 C.3            1 S1                 0.0000
     13 ****        -1.3745   1.0527   0.3338 N.pl3          1 S1                 1.0000
     14 ****        -2.6556   2.6543   1.8340 H              1 S1                 0.0000
     15 ****        -4.2037   2.4839   1.0594 H              1 S1                 0.0000
     16 ****        -3.6017  -0.4785  -2.3318 H              1 S1                 0.0000
     17 ****        -1.1734  -1.1151  -2.2569 H              1 S1                 0.0000
     18 ****         0.4762  -2.1417  -0.9631 H              1 S1                 0.0000
     19 ****         1.5015  -1.0996  -1.9579 H              1 S1                 0.0000
     20 ****         2.0743  -2.3538   0.7173 H              1 S1                 0.0000
     21 ****         3.2199  -2.0469  -0.5880 H              1 S1                 0.0000
     22 ****         3.3148   0.3162  -0.0456 H              1 S1                 0.0000
     23 ****         4.1984  -0.8520   1.7107 H              1 S1                 0.0000
     24 ****         1.3880   1.4436   0.8275 H              1 S1                 0.0000
     25 ****         0.8278   0.0000   1.6878 H              1 S1                 0.0000
     26 ****        -0.8095   1.4873   1.0631 H              1 S1                 0.0000
     27 ****        -4.4404   1.0493  -0.7530 LP             1 S1                 0.0000
     28 ****         2.8102  -1.0094   2.4709 LP             1 S1                 0.0000
     29 ****         3.5008   0.4583   2.2821 LP             1 S1                 0.0000
@<TRIPOS>BOND
    1    1    2 1     
    2    1   14 1     
    3    1   15 1     
    4    2   13 ar    
    5    2    3 ar    
    6    3    4 ar    
    7    4    5 ar    
    8    4   16 1     
    9    5    6 ar    
   10    5   17 1     
   11    6    7 1     
   12    6   13 ar    
   13    7   12 1     
   14    7    8 1     
   15    8    9 1     
   16    8   18 1     
   17    8   19 1     
   18    9   10 1     
   19    9   20 1     
   20    9   21 1     
   21   10   11 1     
   22   10   12 1     
   23   10   22 1     
   24   11   23 1     
   25   12   24 1     
   26   12   25 1     
   27   13   26 1     
   28    3   27 1     
   29   11   28 1     
   30   11   29 1     
@<TRIPOS>SUBSTRUCTURE
      1 S1             1
@<TRIPOS>SET
LONE_PAIRS      STATIC     ATOMS    <user>   **** ""
3 27 28 29
DONOR_HYDROGENS      STATIC     ATOMS    <user>   **** ""
4 14 15 23 26
ATOM$BLUE        STATIC     ATOMS    COLORGROUP SYSTEM
3 27 28 29
ATOM$RED        STATIC     ATOMS    COLORGROUP SYSTEM
4 14 15 23 26
