AV-unprocessed.smi:2198|AV-procd|sdf|8912|dock7
  -GOLD-   2272012133D 1   1.00000     0.00000
 Structure written by MMmdl.
 43 44  0  0  0  0  0  0  0  0  1 V2000
  147.1207  140.5442  153.1943 C   0  0  0  0  0  0  0  0  0  0  0  0
  148.0267  140.0580  154.3057 C   0  0  0  0  0  0  0  0  0  0  0  0
  147.6076  139.7140  155.4790 N   0  0  0  0  0  0  0  0  0  0  0  0
  148.5432  139.2784  156.4277 C   0  0  0  0  0  0  0  0  0  0  0  0
  147.9733  138.8858  157.7800 C   0  0  0  0  0  0  0  0  0  0  0  0
  149.8766  139.2156  156.1412 C   0  0  0  0  0  0  0  0  0  0  0  0
  150.9209  138.7430  157.1522 C   0  0  0  0  0  0  0  0  0  0  0  0
  151.8731  139.8134  157.6921 C   0  0  0  0  0  0  0  0  0  0  0  0
  153.0649  139.5609  157.8726 O   0  0  0  0  0  0  0  0  0  0  0  0
  151.3246  141.0095  157.9530 N   0  0  0  0  0  0  0  0  0  0  0  0
  152.0361  142.1623  158.4966 C   0  0  1  0  0  0  0  0  0  0  0  0
  151.3216  143.4580  158.0730 C   0  0  0  0  0  0  0  0  0  0  0  0
  152.0096  144.6940  158.6718 C   0  0  0  0  0  0  0  0  0  0  0  0
  152.0995  144.5947  160.2028 C   0  0  0  0  0  0  0  0  0  0  0  0
  152.8137  143.3033  160.6462 C   0  0  1  0  0  0  0  0  0  0  0  0
  152.8884  143.2013  162.1765 C   0  0  0  0  0  0  0  0  0  0  0  0
  152.1277  142.0664  160.0337 C   0  0  0  0  0  0  0  0  0  0  0  0
  150.3440  139.6096  154.7981 C   0  0  0  0  0  0  0  0  0  0  0  0
  151.5183  139.5842  154.4330 O   0  0  0  0  0  0  0  0  0  0  0  0
  149.3733  140.0134  153.9483 N   0  0  0  0  0  0  0  0  0  0  0  0
  149.6422  140.2917  153.0157 H   0  0  0  0  0  0  0  0  0  0  0  0
  146.3859  139.7776  152.9471 H   0  0  0  0  0  0  0  0  0  0  0  0
  147.6834  140.7818  152.2904 H   0  0  0  0  0  0  0  0  0  0  0  0
  146.5878  141.4413  153.5096 H   0  0  0  0  0  0  0  0  0  0  0  0
  148.3356  139.5591  158.5570 H   0  0  0  0  0  0  0  0  0  0  0  0
  148.2620  137.8673  158.0402 H   0  0  0  0  0  0  0  0  0  0  0  0
  146.8837  138.9322  157.7788 H   0  0  0  0  0  0  0  0  0  0  0  0
  150.4364  138.2550  157.9988 H   0  0  0  0  0  0  0  0  0  0  0  0
  151.5222  137.9611  156.6882 H   0  0  0  0  0  0  0  0  0  0  0  0
  150.3383  141.1278  157.7716 H   0  0  0  0  0  0  0  0  0  0  0  0
  153.0465  142.1834  158.0834 H   0  0  0  0  0  0  0  0  0  0  0  0
  151.3051  143.5382  156.9853 H   0  0  0  0  0  0  0  0  0  0  0  0
  150.2802  143.4315  158.3976 H   0  0  0  0  0  0  0  0  0  0  0  0
  153.0113  144.7935  158.2519 H   0  0  0  0  0  0  0  0  0  0  0  0
  151.4652  145.5955  158.3893 H   0  0  0  0  0  0  0  0  0  0  0  0
  152.6272  145.4654  160.5936 H   0  0  0  0  0  0  0  0  0  0  0  0
  151.0952  144.6261  160.6279 H   0  0  0  0  0  0  0  0  0  0  0  0
  153.8370  143.3388  160.2693 H   0  0  0  0  0  0  0  0  0  0  0  0
  151.8932  143.1659  162.6206 H   0  0  0  0  0  0  0  0  0  0  0  0
  153.4119  144.0579  162.6022 H   0  0  0  0  0  0  0  0  0  0  0  0
  153.4224  142.3022  162.4850 H   0  0  0  0  0  0  0  0  0  0  0  0
  151.1264  141.9590  160.4542 H   0  0  0  0  0  0  0  0  0  0  0  0
  152.6772  141.1674  160.3162 H   0  0  0  0  0  0  0  0  0  0  0  0
  1  2  1  0  0  0  0
  1 22  1  0  0  0  0
  1 23  1  0  0  0  0
  1 24  1  0  0  0  0
  2 20  1  0  0  0  0
  2  3  2  0  0  0  0
  3  4  1  0  0  0  0
  4  5  1  0  0  0  0
  4  6  2  0  0  0  0
  5 25  1  0  0  0  0
  5 26  1  0  0  0  0
  5 27  1  0  0  0  0
  6  7  1  0  0  0  0
  6 18  1  0  0  0  0
  7  8  1  0  0  0  0
  7 28  1  0  0  0  0
  7 29  1  0  0  0  0
  8  9  2  0  0  0  0
  8 10  1  0  0  0  0
 10 11  1  0  0  0  0
 10 30  1  0  0  0  0
 11 17  1  0  0  0  0
 11 12  1  0  0  0  0
 11 31  1  0  0  0  0
 12 13  1  0  0  0  0
 12 32  1  0  0  0  0
 12 33  1  0  0  0  0
 13 14  1  0  0  0  0
 13 34  1  0  0  0  0
 13 35  1  0  0  0  0
 14 15  1  0  0  0  0
 14 36  1  0  0  0  0
 14 37  1  0  0  0  0
 15 16  1  0  0  0  0
 15 17  1  0  0  0  0
 15 38  1  0  0  0  0
 16 39  1  0  0  0  0
 16 40  1  0  0  0  0
 16 41  1  0  0  0  0
 17 42  1  0  0  0  0
 17 43  1  0  0  0  0
 18 19  2  0  0  0  0
 18 20  1  0  0  0  0
 20 21  1  0  0  0  0
M  END
> <s_m_source_file>
AV-unprocessed.smi

> <i_m_source_file_index>
2198

> <i_lp_mmshare_version>
43012

> <i_f3d_flags>
0

> <s_epik_input>
W0NIM11jMW5jKFtDSDNdKWMoYyg9TylbbkhdMSlbQ0gyXUMoPU8pW05IXVtDQEBIXTJbQ0gyXVtDSDJdW0NIMl1bQ0BASF0oW0NIM10pW0NIMl0y

> <s_epik_cmdline>
J2VwaWtfcHl0aG9uJywgJy1waCcsICc3LjAnLCAnLXRuJywgJzgnLCAnLW1hJywgJzIwMCcsICctbWV0YWxfYmluZGluZycsICctaW1hZScsICc8aW5maWxlLm1hZT4nLCAnLW9tYWUnLCAnPG91dGZpbGUubWFlPic=

> <r_lp_tautomer_probability>
0.839158

> <r_epik_Ionization_Penalty>
0.000372587

> <r_epik_Ionization_Penalty_Charging>
0.000337977

> <r_epik_Ionization_Penalty_Neutral>
3.46101e-05

> <r_epik_State_Penalty>
0.09125

> <r_epik_Charging_Adjusted_Penalty>
0.091588

> <i_epik_Tot_Q>
0

> <i_epik_Tot_abs_Q>
0

> <r_epik_Metal_State_Penalty>
0.25197

> <b_epik_Metal_Only>
0

> <s_lp_Force_Field>
OPLS_2005

> <r_lp_Energy>
10.3452

> <b_lp_Chiralities_Consistent>
1

> <s_lp_Variant>
AV-unprocessed.smi:2198-2

> <Gold.Version>
5.8.1

> <Gold.Id.Protein>
6NUR|6NUR_protein|mol2

> <Gold.PLP.Fitness>
44.7581

> <Gold.PLP.PLP>
-37.2705

> <Gold.PLP.part.hbond>
-3.0000

> <Gold.PLP.part.metal>
0.0000

> <Gold.PLP.part.buried>
-3.2306

> <Gold.PLP.part.nonpolar>
-30.8120

> <Gold.PLP.part.repulsive>
0.3527

> <Gold.PLP.ligand.clash>
0.0000

> <Gold.PLP.ligand.torsion>
0.7232

> <Gold.PLP.Chemscore.Hbond>
2.9760

> <Gold.PLP.Chemscore.CHOScore>
0.0000

> <Gold.PLP.Chemscore.Metal>
0.0000

> <Gold.Chemscore.Hbonds>
donor molecule, donor type, donor heavy atom, donor atom, acceptor molecule, acceptor atom, score
      L1  H    20    21       P1  7957  1.00
      P1  H  7989  7998       L1    19  1.00
      P1  H  7997  8010       L1     9  1.00

> <Gold.PLP.Chemscore.Internal.Correction>
0.0060

> <Gold.Rescore>
     Score         DG    S(hbond)    S(metal)    S(lipo)     H(rot)  DE(clash)    DE(int)     intcor
     21.41     -22.28       2.82        0.00      95.46       1.48       0.09       0.78       ----

> <Gold.Chemscore.Fitness>
21.4141

> <Gold.Chemscore.DG>
-22.2803

> <Gold.Chemscore.ZeroCoef>
-5.4800

> <Gold.Chemscore.Hbond>
2.8205

> <Gold.Chemscore.Metal>
0.0000

> <Gold.Chemscore.Lipo>
95.4612

> <Gold.Chemscore.Internal_Hbond>
0.0000

> <Gold.Chemscore.DEClash>
0.0891

> <Gold.Chemscore.DEInternal>
0.7772

> <Gold.Chemscore.Rot>
1.4801

> <Gold.Chemscore.Internal.Correction>
   9.000000E+99

> <Gold.Chemscore.Hbonds>
donor molecule, donor type, donor heavy atom, donor atom, acceptor molecule, acceptor atom, score
      L1  H    20    21       P1  7957  0.95
      P1  H  7989  7998       L1    19  0.44
      P1  H  7997  8010       L1     9  0.97

> <Gold.Chemscore.Hbond.Weighted>
-9.4205

> <Gold.Chemscore.Metal.Weighted>
-0.0000

> <Gold.Chemscore.Lipo.Weighted>
-11.1690

> <Gold.Chemscore.Internal_Hbond.Weighted>
0.0000

> <Gold.Chemscore.DEClash.Weighted>
0.0891

> <Gold.Chemscore.DEInternal.Weighted>
0.7772

> <Gold.Chemscore.Rot.Weighted>
3.7891

> <Gold.Chemscore.Internal.Correction.Weighted>
   9.000000E+99

> <Gold.Protein.RotatedTorsions>
[ 6907 6896 6895 6894 ] final   42.98 input  -60.11 | X-H torsion
[ 7974 7965 7964 7962 ] final  -35.53 input  175.53 | X-H torsion
[ 8008 7997 7996 7995 ] final   57.51 input   59.86 | X-H torsion
[ 10167 10162 10161 10158 ] final   51.74 input  -65.29 | X-H torsion
[ 10718 10713 10712 10709 ] final -118.90 input   66.30 | X-H torsion
[ 10763 10752 10751 10750 ] final  -47.42 input  -60.55 | X-H torsion
[ 11005 11000 10999 10996 ] final   29.15 input  -57.11 | X-H torsion

> <Gold.Protein.ActiveResidues>
 VAL166  LYS551  ARG553  GLY616  TRP617  ASP618  TYR619  PRO620  LYS621  CYS622 
 ASP623  PHE694  ASN695  SER759  ASP760  ASP761  ALA762  ILE779  LEU786  VAL792 
 PHE793  MET794  SER795  GLU796  ALA797  LYS798  CYS799  TRP800  GLU811  SER814 

> <Gold.Protein.RotatedAtoms>
  152.2146  134.8470  160.0493 H   0  0  0  0  0  0  0  0  0  0  0  0  # atno 6907 bound_to 6896
  151.9276  133.3597  159.3927 H   0  0  0  0  0  0  0  0  0  0  0  0  # atno 6908 bound_to 6896
  150.6984  134.4496  159.5374 H   0  0  0  0  0  0  0  0  0  0  0  0  # atno 6909 bound_to 6896
  146.0738  140.6171  142.8940 H   0  0  0  0  0  0  0  0  0  0  0  0  # atno 7974 bound_to 7965
  155.5349  140.3483  155.4434 H   0  0  0  0  0  0  0  0  0  0  0  0  # atno 8008 bound_to 7997
  156.0692  140.1359  156.9875 H   0  0  0  0  0  0  0  0  0  0  0  0  # atno 8009 bound_to 7997
  154.4519  140.0969  156.6618 H   0  0  0  0  0  0  0  0  0  0  0  0  # atno 8010 bound_to 7997
  140.2587  144.3397  150.6325 H   0  0  0  0  0  0  0  0  0  0  0  0  # atno 10167 bound_to 10162
  156.1141  130.6272  150.9349 H   0  0  0  0  0  0  0  0  0  0  0  0  # atno 10718 bound_to 10713
  154.0610  135.6618  153.4812 H   0  0  0  0  0  0  0  0  0  0  0  0  # atno 10763 bound_to 10752
  153.0427  135.5135  154.7659 H   0  0  0  0  0  0  0  0  0  0  0  0  # atno 10764 bound_to 10752
  154.6695  135.3027  154.9728 H   0  0  0  0  0  0  0  0  0  0  0  0  # atno 10765 bound_to 10752
  140.3080  134.2682  155.7740 H   0  0  0  0  0  0  0  0  0  0  0  0  # atno 11005 bound_to 11000
  144.7248  140.4491  143.6981 LP  0  0  0  0  0  0  0  0  0  0  0  0  # atno 17320 bound_to 7965
  145.6343  139.1541  143.2951 LP  0  0  0  0  0  0  0  0  0  0  0  0  # atno 17321 bound_to 7965
  140.5983  143.2167  151.7122 LP  0  0  0  0  0  0  0  0  0  0  0  0  # atno 17342 bound_to 10162
  139.5023  144.3833  152.0354 LP  0  0  0  0  0  0  0  0  0  0  0  0  # atno 17343 bound_to 10162
  157.6323  131.0920  150.8416 LP  0  0  0  0  0  0  0  0  0  0  0  0  # atno 17370 bound_to 10713
  156.8523  130.5084  149.5311 LP  0  0  0  0  0  0  0  0  0  0  0  0  # atno 17371 bound_to 10713
  141.2114  133.7689  156.9865 LP  0  0  0  0  0  0  0  0  0  0  0  0  # atno 17394 bound_to 11000
  140.1050  134.9512  157.1980 LP  0  0  0  0  0  0  0  0  0  0  0  0  # atno 17395 bound_to 11000

$$$$
