AV-unprocessed.smi:644|AV-procd|sdf|3155|dock5
  -GOLD-   22720 0 73D 1   1.00000     0.00000
 Structure written by MMmdl.
 37 39  0  0  0  0  0  0  0  0  1 V2000
  153.3415  142.5870  161.5785 C   0  0  0  0  0  0  0  0  0  0  0  0
  152.6488  142.3395  160.2500 C   0  0  0  0  0  0  0  0  0  0  0  0
  152.9918  141.1922  159.4998 C   0  0  0  0  0  0  0  0  0  0  0  0
  152.3693  140.9241  158.2611 C   0  0  0  0  0  0  0  0  0  0  0  0
  152.5458  139.8757  157.3744 N   0  0  0  0  0  0  0  0  0  0  0  0
  151.6823  140.1894  156.4128 C   0  0  0  0  0  0  0  0  0  0  0  0
  150.9634  141.3169  156.5736 N   0  0  0  0  0  0  0  0  0  0  0  0
  149.9665  141.8584  155.6668 C   0  0  0  0  0  0  0  0  0  0  0  0
  149.2749  140.7641  154.8316 C   0  0  2  0  0  0  0  0  0  0  0  0
  149.7611  140.8058  153.5031 O   0  0  0  0  0  0  0  0  0  0  0  0
  147.7472  140.9303  154.8135 C   0  0  0  0  0  0  0  0  0  0  0  0
  147.2062  142.1323  153.5641 S   0  0  0  0  0  0  0  0  0  0  0  0
  145.9709  142.9244  154.5269 C   0  0  0  0  0  0  0  0  0  0  0  0
  145.7157  142.6205  155.8053 N   0  0  0  0  0  0  0  0  0  0  0  0
  144.6909  143.3961  156.3325 N   0  0  0  0  0  0  0  0  0  0  0  0
  144.2111  144.2541  155.4280 C   0  0  0  0  0  0  0  0  0  0  0  0
  144.9672  144.1991  153.8461 S   0  0  0  0  0  0  0  0  0  0  0  0
  151.3874  141.8433  157.7888 C   0  0  0  0  0  0  0  0  0  0  0  0
  151.0387  142.9893  158.5251 C   0  0  0  0  0  0  0  0  0  0  0  0
  151.6688  143.2411  159.7619 C   0  0  0  0  0  0  0  0  0  0  0  0
  151.2828  144.4794  160.5517 C   0  0  0  0  0  0  0  0  0  0  0  0
  154.0797  141.8137  161.7923 H   0  0  0  0  0  0  0  0  0  0  0  0
  152.6161  142.5912  162.3924 H   0  0  0  0  0  0  0  0  0  0  0  0
  153.8575  143.5473  161.5683 H   0  0  0  0  0  0  0  0  0  0  0  0
  153.7376  140.5049  159.8715 H   0  0  0  0  0  0  0  0  0  0  0  0
  151.5615  139.5609  155.5425 H   0  0  0  0  0  0  0  0  0  0  0  0
  149.2306  142.4042  156.2585 H   0  0  0  0  0  0  0  0  0  0  0  0
  150.4467  142.5898  155.0147 H   0  0  0  0  0  0  0  0  0  0  0  0
  149.5210  139.7877  155.2507 H   0  0  0  0  0  0  0  0  0  0  0  0
  149.2860  140.1698  152.9903 H   0  0  0  0  0  0  0  0  0  0  0  0
  147.2712  139.9755  154.5870 H   0  0  0  0  0  0  0  0  0  0  0  0
  147.3866  141.2393  155.7955 H   0  0  0  0  0  0  0  0  0  0  0  0
  143.4065  144.9233  155.6942 H   0  0  0  0  0  0  0  0  0  0  0  0
  150.2907  143.6672  158.1410 H   0  0  0  0  0  0  0  0  0  0  0  0
  150.4990  145.0454  160.0475 H   0  0  0  0  0  0  0  0  0  0  0  0
  152.1438  145.1366  160.6752 H   0  0  0  0  0  0  0  0  0  0  0  0
  150.9124  144.2037  161.5393 H   0  0  0  0  0  0  0  0  0  0  0  0
  1  2  1  0  0  0  0
  1 22  1  0  0  0  0
  1 23  1  0  0  0  0
  1 24  1  0  0  0  0
  2 20  1  0  0  0  0
  2  3  2  0  0  0  0
  3  4  1  0  0  0  0
  3 25  1  0  0  0  0
  4 18  2  0  0  0  0
  4  5  1  0  0  0  0
  5  6  2  0  0  0  0
  6  7  1  0  0  0  0
  6 26  1  0  0  0  0
  7  8  1  0  0  0  0
  7 18  1  0  0  0  0
  8  9  1  0  0  0  0
  8 27  1  0  0  0  0
  8 28  1  0  0  0  0
  9 10  1  0  0  0  0
  9 11  1  0  0  0  0
  9 29  1  0  0  0  0
 10 30  1  0  0  0  0
 11 12  1  0  0  0  0
 11 31  1  0  0  0  0
 11 32  1  0  0  0  0
 12 13  1  0  0  0  0
 13 17  1  0  0  0  0
 13 14  2  0  0  0  0
 14 15  1  0  0  0  0
 15 16  2  0  0  0  0
 16 17  1  0  0  0  0
 16 33  1  0  0  0  0
 18 19  1  0  0  0  0
 19 20  2  0  0  0  0
 19 34  1  0  0  0  0
 20 21  1  0  0  0  0
 21 35  1  0  0  0  0
 21 36  1  0  0  0  0
 21 37  1  0  0  0  0
M  END
> <s_m_source_file>
AV-unprocessed.smi

> <i_m_source_file_index>
644

> <i_lp_mmshare_version>
43012

> <i_f3d_flags>
0

> <s_epik_input>
W0NIM11jKFtjSF0xKWMoW0NIM10pW2NIXWMoYzEyKW4oW2NIXW4yKVtDSDJdW0NASF0oW09IXSlbQ0gyXVNjM25uW2NIXXMz

> <s_epik_cmdline>
J2VwaWtfcHl0aG9uJywgJy1waCcsICc3LjAnLCAnLXRuJywgJzgnLCAnLW1hJywgJzIwMCcsICctbWV0YWxfYmluZGluZycsICctaW1hZScsICc8aW5maWxlLm1hZT4nLCAnLW9tYWUnLCAnPG91dGZpbGUubWFlPic=

> <r_lp_tautomer_probability>
1

> <r_epik_Ionization_Penalty>
0.105397

> <r_epik_Ionization_Penalty_Charging>
0

> <r_epik_Ionization_Penalty_Neutral>
0.105397

> <r_epik_State_Penalty>
0.0952713

> <r_epik_Charging_Adjusted_Penalty>
0.0952713

> <i_epik_Tot_Q>
0

> <i_epik_Tot_abs_Q>
0

> <r_epik_Metal_State_Penalty>
0.0807681

> <b_epik_Metal_Only>
0

> <s_lp_Force_Field>
OPLS_2005

> <r_lp_Energy>
9.27729

> <b_lp_Chiralities_Consistent>
1

> <s_lp_Variant>
AV-unprocessed.smi:644-1

> <Gold.Version>
5.8.1

> <Gold.Id.Protein>
6NUR|6NUR_protein|mol2

> <Gold.PLP.Fitness>
51.4756

> <Gold.PLP.PLP>
-46.2584

> <Gold.PLP.part.hbond>
-3.4132

> <Gold.PLP.part.metal>
0.0000

> <Gold.PLP.part.buried>
-5.4715

> <Gold.PLP.part.nonpolar>
-36.7841

> <Gold.PLP.part.repulsive>
0.2448

> <Gold.PLP.ligand.clash>
0.0000

> <Gold.PLP.ligand.torsion>
1.5518

> <Gold.PLP.Chemscore.Hbond>
2.7520

> <Gold.PLP.Chemscore.CHOScore>
0.0000

> <Gold.PLP.Chemscore.Metal>
0.0000

> <Gold.Chemscore.Hbonds>
donor molecule, donor type, donor heavy atom, donor atom, acceptor molecule, acceptor atom, score
      L1  H    10    30       P1  7957  0.38
      P1  H  7989  7998       L1    10  0.35
      P1  H  7997  8008       L1     5  1.00
      P1  H  8011  8017       L1    10  1.00

> <Gold.PLP.Chemscore.Internal.Correction>
0.0649

> <Gold.Rescore>
     Score         DG    S(hbond)    S(metal)    S(lipo)     H(rot)  DE(clash)    DE(int)     intcor
     17.97     -19.72       1.99        0.00     118.58       2.46       0.13       1.61       ----

> <Gold.Chemscore.Fitness>
17.9742

> <Gold.Chemscore.DG>
-19.7163

> <Gold.Chemscore.ZeroCoef>
-5.4800

> <Gold.Chemscore.Hbond>
1.9930

> <Gold.Chemscore.Metal>
0.0000

> <Gold.Chemscore.Lipo>
118.5841

> <Gold.Chemscore.Internal_Hbond>
0.0000

> <Gold.Chemscore.DEClash>
0.1297

> <Gold.Chemscore.DEInternal>
1.6125

> <Gold.Chemscore.Rot>
2.4588

> <Gold.Chemscore.Internal.Correction>
   9.000000E+99

> <Gold.Chemscore.Hbonds>
donor molecule, donor type, donor heavy atom, donor atom, acceptor molecule, acceptor atom, score
      L1  H    10    30       P1  7957  0.38
      P1  H  7989  7998       L1    10  0.27
      P1  H  7997  8008       L1     5  0.34
      P1  H  8011  8017       L1    10  0.43

> <Gold.Chemscore.Hbond.Weighted>
-6.6566

> <Gold.Chemscore.Metal.Weighted>
-0.0000

> <Gold.Chemscore.Lipo.Weighted>
-13.8743

> <Gold.Chemscore.Internal_Hbond.Weighted>
0.0000

> <Gold.Chemscore.DEClash.Weighted>
0.1297

> <Gold.Chemscore.DEInternal.Weighted>
1.6125

> <Gold.Chemscore.Rot.Weighted>
6.2946

> <Gold.Chemscore.Internal.Correction.Weighted>
   9.000000E+99

> <Gold.Protein.RotatedTorsions>
[ 6907 6896 6895 6894 ] final   -2.32 input  -60.11 | X-H torsion
[ 7974 7965 7964 7962 ] final   46.32 input  175.53 | X-H torsion
[ 8008 7997 7996 7995 ] final  -63.33 input   59.86 | X-H torsion
[ 10167 10162 10161 10158 ] final  156.34 input  -65.29 | X-H torsion
[ 10718 10713 10712 10709 ] final -153.00 input   66.30 | X-H torsion
[ 10763 10752 10751 10750 ] final   30.82 input  -60.55 | X-H torsion
[ 11005 11000 10999 10996 ] final   83.98 input  -57.11 | X-H torsion

> <Gold.Protein.ActiveResidues>
 VAL166  LYS551  ARG553  GLY616  TRP617  ASP618  TYR619  PRO620  LYS621  CYS622 
 ASP623  PHE694  ASN695  SER759  ASP760  ASP761  ALA762  ILE779  LEU786  VAL792 
 PHE793  MET794  SER795  GLU796  ALA797  LYS798  CYS799  TRP800  GLU811  SER814 

> <Gold.Protein.RotatedAtoms>
  151.5318  135.1068  159.9904 H   0  0  0  0  0  0  0  0  0  0  0  0  # atno 6907 bound_to 6896
  152.4575  133.7749  159.6829 H   0  0  0  0  0  0  0  0  0  0  0  0  # atno 6908 bound_to 6896
  150.8524  133.7702  159.3046 H   0  0  0  0  0  0  0  0  0  0  0  0  # atno 6909 bound_to 6896
  146.0401  139.4869  142.9784 H   0  0  0  0  0  0  0  0  0  0  0  0  # atno 7974 bound_to 7965
  154.4548  140.0977  156.6726 H   0  0  0  0  0  0  0  0  0  0  0  0  # atno 8008 bound_to 7997
  155.5171  140.3478  155.4381 H   0  0  0  0  0  0  0  0  0  0  0  0  # atno 8009 bound_to 7997
  156.0756  140.1360  156.9764 H   0  0  0  0  0  0  0  0  0  0  0  0  # atno 8010 bound_to 7997
  139.4821  144.5017  151.8158 H   0  0  0  0  0  0  0  0  0  0  0  0  # atno 10167 bound_to 10162
  156.4800  130.8299  151.2526 H   0  0  0  0  0  0  0  0  0  0  0  0  # atno 10718 bound_to 10713
  153.0350  135.6454  154.1104 H   0  0  0  0  0  0  0  0  0  0  0  0  # atno 10763 bound_to 10752
  154.0821  135.2872  155.3290 H   0  0  0  0  0  0  0  0  0  0  0  0  # atno 10764 bound_to 10752
  154.6523  135.5421  153.7981 H   0  0  0  0  0  0  0  0  0  0  0  0  # atno 10765 bound_to 10752
  139.9014  134.8183  156.2383 H   0  0  0  0  0  0  0  0  0  0  0  0  # atno 11005 bound_to 11000
  145.6899  141.0167  143.1561 LP  0  0  0  0  0  0  0  0  0  0  0  0  # atno 17320 bound_to 7965
  144.7070  139.8520  143.7427 LP  0  0  0  0  0  0  0  0  0  0  0  0  # atno 17321 bound_to 7965
  140.4511  144.1853  150.5897 LP  0  0  0  0  0  0  0  0  0  0  0  0  # atno 17342 bound_to 10162
  140.4583  143.2459  151.9254 LP  0  0  0  0  0  0  0  0  0  0  0  0  # atno 17343 bound_to 10162
  157.7484  131.0048  150.3089 LP  0  0  0  0  0  0  0  0  0  0  0  0  # atno 17370 bound_to 10713
  156.3531  130.3834  149.7313 LP  0  0  0  0  0  0  0  0  0  0  0  0  # atno 17371 bound_to 10713
  141.0301  133.6993  156.1416 LP  0  0  0  0  0  0  0  0  0  0  0  0  # atno 17394 bound_to 11000
  140.7108  134.4463  157.5581 LP  0  0  0  0  0  0  0  0  0  0  0  0  # atno 17395 bound_to 11000

$$$$
