AV-unprocessed.smi:693|AV-procd|sdf|3375|dock1
  -GOLD-   22720 0353D 1   1.00000     0.00000
 Structure written by MMmdl.
 47 48  0  0  0  0  0  0  0  0  2 V2000
  151.3852  144.5665  158.6079 C   0  0  0  0  0  0  0  0  0  0  0  0
  151.3965  143.2258  157.9042 C   0  0  0  0  0  0  0  0  0  0  0  0
  151.9944  142.0857  158.4817 C   0  0  0  0  0  0  0  0  0  0  0  0
  151.9711  140.8637  157.7773 C   0  0  0  0  0  0  0  0  0  0  0  0
  151.3505  140.8071  156.5102 C   0  0  0  0  0  0  0  0  0  0  0  0
  151.2970  139.5085  155.7298 C   0  0  0  0  0  0  0  0  0  0  0  0
  150.0448  138.6838  156.0692 C   0  0  0  0  0  0  0  0  0  0  0  0
  148.9323  139.0057  155.1831 N   0  0  0  0  0  0  0  0  0  0  0  0
  147.9931  138.1346  154.7760 C   0  0  0  0  0  0  0  0  0  0  0  0
  147.9858  136.9615  155.1529 O   0  0  0  0  0  0  0  0  0  0  0  0
  147.0508  138.6560  153.9497 N   0  0  0  0  0  0  0  0  0  0  0  0
  147.1699  139.8959  153.1657 C   0  0  0  0  0  0  0  0  0  0  0  0
  147.4153  139.5192  151.6953 C   0  0  0  0  0  0  0  0  0  0  0  0
  146.2976  138.6012  151.1643 C   0  0  0  0  0  0  0  0  0  0  0  0
  146.0297  137.3953  152.1006 C   0  0  2  0  0  0  0  0  0  0  0  0
  144.8141  136.5409  151.6740 C   0  0  0  0  0  0  0  0  0  0  0  0
  145.0812  135.6431  150.4612 C   0  0  0  0  0  0  0  0  0  0  0  0
  145.2335  136.2471  149.2799 N   0  0  0  0  0  0  0  0  0  0  0  0
  145.1723  134.4241  150.5893 O   0  0  0  0  0  0  0  0  0  0  0  0
  145.8599  137.8936  153.5537 C   0  0  0  0  0  0  0  0  0  0  0  0
  150.7698  141.9798  155.9817 C   0  0  0  0  0  0  0  0  0  0  0  0
  150.8140  143.1308  156.6874 N   0  3  0  0  0  0  0  0  0  0  0  0
  151.0141  144.4562  159.6272 H   0  0  0  0  0  0  0  0  0  0  0  0
  150.7465  145.2828  158.0897 H   0  0  0  0  0  0  0  0  0  0  0  0
  152.3942  144.9769  158.6529 H   0  0  0  0  0  0  0  0  0  0  0  0
  152.4643  142.1453  159.4529 H   0  0  0  0  0  0  0  0  0  0  0  0
  152.4220  139.9814  158.2079 H   0  0  0  0  0  0  0  0  0  0  0  0
  151.3217  139.7407  154.6641 H   0  0  0  0  0  0  0  0  0  0  0  0
  152.1965  138.9274  155.9379 H   0  0  0  0  0  0  0  0  0  0  0  0
  150.2614  137.6193  155.9734 H   0  0  0  0  0  0  0  0  0  0  0  0
  149.7490  138.8473  157.1071 H   0  0  0  0  0  0  0  0  0  0  0  0
  148.8750  139.9552  154.8440 H   0  0  0  0  0  0  0  0  0  0  0  0
  146.2441  140.4665  153.2533 H   0  0  0  0  0  0  0  0  0  0  0  0
  147.9549  140.5672  153.5129 H   0  0  0  0  0  0  0  0  0  0  0  0
  147.4799  140.4190  151.0827 H   0  0  0  0  0  0  0  0  0  0  0  0
  148.3776  139.0135  151.6046 H   0  0  0  0  0  0  0  0  0  0  0  0
  145.3815  139.1841  151.0593 H   0  0  0  0  0  0  0  0  0  0  0  0
  146.5639  138.2644  150.1627 H   0  0  0  0  0  0  0  0  0  0  0  0
  146.9122  136.7529  152.0780 H   0  0  0  0  0  0  0  0  0  0  0  0
  144.4972  135.9129  152.5081 H   0  0  0  0  0  0  0  0  0  0  0  0
  143.9654  137.1879  151.4480 H   0  0  0  0  0  0  0  0  0  0  0  0
  145.4132  135.6982  148.4517 H   0  0  0  0  0  0  0  0  0  0  0  0
  145.1702  137.2530  149.2200 H   0  0  0  0  0  0  0  0  0  0  0  0
  145.6685  137.0529  154.2225 H   0  0  0  0  0  0  0  0  0  0  0  0
  144.9789  138.5327  153.6322 H   0  0  0  0  0  0  0  0  0  0  0  0
  150.2717  142.0311  155.0243 H   0  0  0  0  0  0  0  0  0  0  0  0
  150.3871  143.9652  156.2845 H   0  0  0  0  0  0  0  0  0  0  0  0
  1  2  1  0  0  0  0
  1 23  1  0  0  0  0
  1 24  1  0  0  0  0
  1 25  1  0  0  0  0
  2 22  1  0  0  0  0
  2  3  2  0  0  0  0
  3  4  1  0  0  0  0
  3 26  1  0  0  0  0
  4  5  2  0  0  0  0
  4 27  1  0  0  0  0
  5  6  1  0  0  0  0
  5 21  1  0  0  0  0
  6  7  1  0  0  0  0
  6 28  1  0  0  0  0
  6 29  1  0  0  0  0
  7  8  1  0  0  0  0
  7 30  1  0  0  0  0
  7 31  1  0  0  0  0
  8  9  1  0  0  0  0
  8 32  1  0  0  0  0
  9 10  2  0  0  0  0
  9 11  1  0  0  0  0
 11 20  1  0  0  0  0
 11 12  1  0  0  0  0
 12 13  1  0  0  0  0
 12 33  1  0  0  0  0
 12 34  1  0  0  0  0
 13 14  1  0  0  0  0
 13 35  1  0  0  0  0
 13 36  1  0  0  0  0
 14 15  1  0  0  0  0
 14 37  1  0  0  0  0
 14 38  1  0  0  0  0
 15 16  1  0  0  0  0
 15 20  1  0  0  0  0
 15 39  1  0  0  0  0
 16 17  1  0  0  0  0
 16 40  1  0  0  0  0
 16 41  1  0  0  0  0
 17 18  1  0  0  0  0
 17 19  2  0  0  0  0
 18 42  1  0  0  0  0
 18 43  1  0  0  0  0
 20 44  1  0  0  0  0
 20 45  1  0  0  0  0
 21 22  2  0  0  0  0
 21 46  1  0  0  0  0
 22 47  1  0  0  0  0
M  CHG  1  22   1
M  END
> <s_m_source_file>
AV-unprocessed.smi

> <i_m_source_file_index>
693

> <i_lp_mmshare_version>
43012

> <i_f3d_flags>
0

> <s_epik_input>
W0NIM11jMVtjSF1bY0hdYyhbY0hdbjEpW0NIMl1bQ0gyXVtOSF1DKD1PKU4yW0NIMl1bQ0gyXVtDSDJdW0NASF0oW0NIMl0yKVtDSDJdQyg9TylbTkgyXQ==

> <s_epik_cmdline>
J2VwaWtfcHl0aG9uJywgJy1waCcsICc3LjAnLCAnLXRuJywgJzgnLCAnLW1hJywgJzIwMCcsICctbWV0YWxfYmluZGluZycsICctaW1hZScsICc8aW5maWxlLm1hZT4nLCAnLW9tYWUnLCAnPG91dGZpbGUubWFlPic=

> <r_epik_Ionization_Penalty>
1.41666

> <r_epik_Ionization_Penalty_Charging>
1.4166

> <r_epik_Ionization_Penalty_Neutral>
5.77403e-05

> <r_epik_State_Penalty>
1.50002

> <r_epik_Charging_Adjusted_Penalty>
2.91662

> <i_epik_Tot_Q>
1

> <i_epik_Tot_abs_Q>
1

> <r_epik_Metal_State_Penalty>
1.55252

> <b_epik_Metal_Only>
0

> <s_lp_Force_Field>
OPLS_2005

> <r_lp_Energy>
32.8

> <b_lp_Chiralities_Consistent>
1

> <s_lp_Variant>
AV-unprocessed.smi:693-4

> <Gold.Version>
5.8.1

> <Gold.Id.Protein>
6NUR|6NUR_protein|mol2

> <Gold.PLP.Fitness>
45.1151

> <Gold.PLP.PLP>
-35.0639

> <Gold.PLP.part.hbond>
-3.0000

> <Gold.PLP.part.metal>
0.0000

> <Gold.PLP.part.buried>
0.9526

> <Gold.PLP.part.nonpolar>
-33.9045

> <Gold.PLP.part.repulsive>
0.4391

> <Gold.PLP.ligand.clash>
0.0000

> <Gold.PLP.ligand.torsion>
1.0877

> <Gold.PLP.Chemscore.Hbond>
4.0000

> <Gold.PLP.Chemscore.CHOScore>
0.0000

> <Gold.PLP.Chemscore.Metal>
0.0000

> <Gold.Chemscore.Hbonds>
donor molecule, donor type, donor heavy atom, donor atom, acceptor molecule, acceptor atom, score
      L1  H    18    42       P1  7921  0.63
      L1  H    18    43       P1 10171  0.70
      L1  H    22    47       P1  8028  1.92

> <Gold.PLP.Chemscore.Internal.Correction>
0.2265

> <Gold.Rescore>
     Score         DG    S(hbond)    S(metal)    S(lipo)     H(rot)  DE(clash)    DE(int)     intcor
     18.72     -21.11       2.95        0.00     100.56       2.34       1.32       1.07       ----

> <Gold.Chemscore.Fitness>
18.7215

> <Gold.Chemscore.DG>
-21.1114

> <Gold.Chemscore.ZeroCoef>
-5.4800

> <Gold.Chemscore.Hbond>
2.9474

> <Gold.Chemscore.Metal>
0.0000

> <Gold.Chemscore.Lipo>
100.5608

> <Gold.Chemscore.Internal_Hbond>
0.0000

> <Gold.Chemscore.DEClash>
1.3152

> <Gold.Chemscore.DEInternal>
1.0747

> <Gold.Chemscore.Rot>
2.3354

> <Gold.Chemscore.Internal.Correction>
   9.000000E+99

> <Gold.Chemscore.Hbonds>
donor molecule, donor type, donor heavy atom, donor atom, acceptor molecule, acceptor atom, score
      L1  H    18    42       P1  7921  0.62
      L1  H    18    43       P1 10171  0.70
      L1  H    22    47       P1  8028  0.92

> <Gold.Chemscore.Hbond.Weighted>
-9.8443

> <Gold.Chemscore.Metal.Weighted>
-0.0000

> <Gold.Chemscore.Lipo.Weighted>
-11.7656

> <Gold.Chemscore.Internal_Hbond.Weighted>
0.0000

> <Gold.Chemscore.DEClash.Weighted>
1.3152

> <Gold.Chemscore.DEInternal.Weighted>
1.0747

> <Gold.Chemscore.Rot.Weighted>
5.9785

> <Gold.Chemscore.Internal.Correction.Weighted>
   9.000000E+99

> <Gold.Protein.RotatedTorsions>
[ 6907 6896 6895 6894 ] final -179.35 input  -60.11 | X-H torsion
[ 7974 7965 7964 7962 ] final  -63.28 input  175.53 | X-H torsion
[ 8008 7997 7996 7995 ] final  -92.06 input   59.86 | X-H torsion
[ 10167 10162 10161 10158 ] final  -36.58 input  -65.29 | X-H torsion
[ 10718 10713 10712 10709 ] final -147.97 input   66.30 | X-H torsion
[ 10763 10752 10751 10750 ] final  -73.22 input  -60.55 | X-H torsion
[ 11005 11000 10999 10996 ] final   28.47 input  -57.11 | X-H torsion

> <Gold.Protein.ActiveResidues>
 VAL166  LYS551  ARG553  GLY616  TRP617  ASP618  TYR619  PRO620  LYS621  CYS622 
 ASP623  PHE694  ASN695  SER759  ASP760  ASP761  ALA762  ILE779  LEU786  VAL792 
 PHE793  MET794  SER795  GLU796  ALA797  LYS798  CYS799  TRP800  GLU811  SER814 

> <Gold.Protein.RotatedAtoms>
  151.6520  133.3320  159.3153 H   0  0  0  0  0  0  0  0  0  0  0  0  # atno 6907 bound_to 6896
  150.7955  134.7016  159.6562 H   0  0  0  0  0  0  0  0  0  0  0  0  # atno 6908 bound_to 6896
  152.4042  134.6240  160.0109 H   0  0  0  0  0  0  0  0  0  0  0  0  # atno 6909 bound_to 6896
  145.7810  140.8762  143.0330 H   0  0  0  0  0  0  0  0  0  0  0  0  # atno 7974 bound_to 7965
  154.7184  140.0513  157.0616 H   0  0  0  0  0  0  0  0  0  0  0  0  # atno 8008 bound_to 7997
  155.0460  140.3174  155.4689 H   0  0  0  0  0  0  0  0  0  0  0  0  # atno 8009 bound_to 7997
  156.2809  140.2124  156.5585 H   0  0  0  0  0  0  0  0  0  0  0  0  # atno 8010 bound_to 7997
  140.7139  143.3399  151.2381 H   0  0  0  0  0  0  0  0  0  0  0  0  # atno 10167 bound_to 10162
  156.4142  130.7997  151.2216 H   0  0  0  0  0  0  0  0  0  0  0  0  # atno 10718 bound_to 10713
  154.4565  135.5904  153.6227 H   0  0  0  0  0  0  0  0  0  0  0  0  # atno 10763 bound_to 10752
  152.9819  135.6033  154.3539 H   0  0  0  0  0  0  0  0  0  0  0  0  # atno 10764 bound_to 10752
  154.3406  135.2841  155.2403 H   0  0  0  0  0  0  0  0  0  0  0  0  # atno 10765 bound_to 10752
  140.3153  134.2604  155.7726 H   0  0  0  0  0  0  0  0  0  0  0  0  # atno 11005 bound_to 11000
  144.6796  139.9989  143.7484 LP  0  0  0  0  0  0  0  0  0  0  0  0  # atno 17320 bound_to 7965
  146.0074  139.3141  143.0891 LP  0  0  0  0  0  0  0  0  0  0  0  0  # atno 17321 bound_to 7965
  139.6904  143.9702  152.2856 LP  0  0  0  0  0  0  0  0  0  0  0  0  # atno 17342 bound_to 10162
  139.9362  144.6710  150.8312 LP  0  0  0  0  0  0  0  0  0  0  0  0  # atno 17343 bound_to 10162
  157.7507  131.0248  150.3892 LP  0  0  0  0  0  0  0  0  0  0  0  0  # atno 17370 bound_to 10713
  156.4196  130.3950  149.6834 LP  0  0  0  0  0  0  0  0  0  0  0  0  # atno 17371 bound_to 10713
  141.2099  133.7735  156.9967 LP  0  0  0  0  0  0  0  0  0  0  0  0  # atno 17394 bound_to 11000
  140.0989  134.9547  157.1892 LP  0  0  0  0  0  0  0  0  0  0  0  0  # atno 17395 bound_to 11000

$$$$
