AV-unprocessed.smi:2895|AV-procd|sdf|11135|dock3
  -GOLD-   2272016 13D 1   1.00000     0.00000
 Structure written by MMmdl.
 54 57  0  0  0  0  0  0  0  0  3 V2000
  152.5964  136.7787  158.1028 O   0  0  0  0  0  0  0  0  0  0  0  0
  151.4776  137.0386  157.6584 C   0  0  0  0  0  0  0  0  0  0  0  0
  150.9736  138.2842  157.6889 N   0  0  0  0  0  0  0  0  0  0  0  0
  151.6546  139.4568  158.2270 C   0  0  0  0  0  0  0  0  0  0  0  0
  151.0004  140.7664  157.7545 C   0  0  0  0  0  0  0  0  0  0  0  0
  151.5625  141.9800  158.4701 C   0  0  0  0  0  0  0  0  0  0  0  0
  151.0683  143.2715  158.1823 C   0  0  0  0  0  0  0  0  0  0  0  0
  151.6077  144.3823  158.8629 C   0  0  0  0  0  0  0  0  0  0  0  0
  152.5869  144.2012  159.7761 N   0  3  0  0  0  0  0  0  0  0  0  0
  153.0877  142.9837  160.0805 C   0  0  0  0  0  0  0  0  0  0  0  0
  152.5853  141.8360  159.4338 C   0  0  0  0  0  0  0  0  0  0  0  0
  150.6737  136.1102  157.0788 N   0  0  0  0  0  0  0  0  0  0  0  0
  151.1088  134.8744  156.4079 C   0  0  0  0  0  0  0  0  0  0  0  0
  150.8138  134.9883  154.8992 C   0  0  0  0  0  0  0  0  0  0  0  0
  149.3743  135.2697  154.6296 N   0  3  0  0  0  0  0  0  0  0  0  0
  148.4773  134.0799  154.7485 C   0  0  1  0  0  0  0  0  0  0  0  0
  147.1255  134.2316  154.0075 C   0  0  0  0  0  0  0  0  0  0  0  0
  147.0279  132.9356  153.1813 C   0  0  1  0  0  0  0  0  0  0  0  0
  147.9801  133.0423  151.9779 C   0  0  0  0  0  0  0  0  0  0  0  0
  149.3658  132.9355  152.6388 C   0  0  0  0  0  0  0  0  0  0  0  0
  149.0247  132.7655  154.1355 C   0  0  2  0  0  0  0  0  0  0  0  0
  147.7531  131.9264  154.0627 C   0  0  0  0  0  0  0  0  0  0  0  0
  148.9001  136.4504  155.4075 C   0  0  0  0  0  0  0  0  0  0  0  0
  149.2324  136.3301  156.9092 C   0  0  0  0  0  0  0  0  0  0  0  0
  150.0565  138.4326  157.2935 H   0  0  0  0  0  0  0  0  0  0  0  0
  151.6726  139.4068  159.3172 H   0  0  0  0  0  0  0  0  0  0  0  0
  152.6933  139.4217  157.8973 H   0  0  0  0  0  0  0  0  0  0  0  0
  151.1387  140.8859  156.6792 H   0  0  0  0  0  0  0  0  0  0  0  0
  149.9231  140.7357  157.9232 H   0  0  0  0  0  0  0  0  0  0  0  0
  150.2850  143.4101  157.4510 H   0  0  0  0  0  0  0  0  0  0  0  0
  151.2882  145.4022  158.7052 H   0  0  0  0  0  0  0  0  0  0  0  0
  153.8692  142.9644  160.8263 H   0  0  0  0  0  0  0  0  0  0  0  0
  152.9823  140.8606  159.6757 H   0  0  0  0  0  0  0  0  0  0  0  0
  152.1642  134.6409  156.5466 H   0  0  0  0  0  0  0  0  0  0  0  0
  150.5702  134.0289  156.8375 H   0  0  0  0  0  0  0  0  0  0  0  0
  151.3956  135.8144  154.4880 H   0  0  0  0  0  0  0  0  0  0  0  0
  151.1609  134.1024  154.3703 H   0  0  0  0  0  0  0  0  0  0  0  0
  148.2779  133.8988  155.8056 H   0  0  0  0  0  0  0  0  0  0  0  0
  146.3053  134.3040  154.7229 H   0  0  0  0  0  0  0  0  0  0  0  0
  147.0790  135.1087  153.3610 H   0  0  0  0  0  0  0  0  0  0  0  0
  146.0075  132.6644  152.9081 H   0  0  0  0  0  0  0  0  0  0  0  0
  147.8214  132.2161  151.2830 H   0  0  0  0  0  0  0  0  0  0  0  0
  147.8512  133.9731  151.4241 H   0  0  0  0  0  0  0  0  0  0  0  0
  149.8972  132.0598  152.2640 H   0  0  0  0  0  0  0  0  0  0  0  0
  149.9895  133.8071  152.4402 H   0  0  0  0  0  0  0  0  0  0  0  0
  149.8204  132.3018  154.7190 H   0  0  0  0  0  0  0  0  0  0  0  0
  147.2743  131.7743  155.0318 H   0  0  0  0  0  0  0  0  0  0  0  0
  147.8997  130.9577  153.5812 H   0  0  0  0  0  0  0  0  0  0  0  0
  149.3935  137.3362  155.0052 H   0  0  0  0  0  0  0  0  0  0  0  0
  147.8328  136.6195  155.2711 H   0  0  0  0  0  0  0  0  0  0  0  0
  148.6898  135.4976  157.3579 H   0  0  0  0  0  0  0  0  0  0  0  0
  148.8752  137.2195  157.4297 H   0  0  0  0  0  0  0  0  0  0  0  0
  149.3220  135.5333  153.6556 H   0  0  0  0  0  0  0  0  0  0  0  0
  152.9649  145.0187  160.2558 H   0  0  0  0  0  0  0  0  0  0  0  0
  1  2  2  0  0  0  0
  2  3  1  0  0  0  0
  2 12  1  0  0  0  0
  3  4  1  0  0  0  0
  3 25  1  0  0  0  0
  4  5  1  0  0  0  0
  4 26  1  0  0  0  0
  4 27  1  0  0  0  0
  5  6  1  0  0  0  0
  5 28  1  0  0  0  0
  5 29  1  0  0  0  0
  6 11  1  0  0  0  0
  6  7  2  0  0  0  0
  7  8  1  0  0  0  0
  7 30  1  0  0  0  0
  8  9  2  0  0  0  0
  8 31  1  0  0  0  0
  9 10  1  0  0  0  0
  9 54  1  0  0  0  0
 10 11  2  0  0  0  0
 10 32  1  0  0  0  0
 11 33  1  0  0  0  0
 12 24  1  0  0  0  0
 12 13  1  0  0  0  0
 13 14  1  0  0  0  0
 13 34  1  0  0  0  0
 13 35  1  0  0  0  0
 14 15  1  0  0  0  0
 14 36  1  0  0  0  0
 14 37  1  0  0  0  0
 15 16  1  0  0  0  0
 15 23  1  0  0  0  0
 15 53  1  0  0  0  0
 16 21  1  0  0  0  0
 16 17  1  0  0  0  0
 16 38  1  0  0  0  0
 17 18  1  0  0  0  0
 17 39  1  0  0  0  0
 17 40  1  0  0  0  0
 18 22  1  0  0  0  0
 18 19  1  0  0  0  0
 18 41  1  0  0  0  0
 19 20  1  0  0  0  0
 19 42  1  0  0  0  0
 19 43  1  0  0  0  0
 20 21  1  0  0  0  0
 20 44  1  0  0  0  0
 20 45  1  0  0  0  0
 21 22  1  0  0  0  0
 21 46  1  0  0  0  0
 22 47  1  0  0  0  0
 22 48  1  0  0  0  0
 23 24  1  0  0  0  0
 23 49  1  0  0  0  0
 23 50  1  0  0  0  0
 24 51  1  0  0  0  0
 24 52  1  0  0  0  0
M  CHG  1   9   1
M  CHG  1  15   1
M  END
> <s_m_source_file>
AV-unprocessed.smi

> <i_m_source_file_index>
2895

> <i_lp_mmshare_version>
43012

> <i_f3d_flags>
0

> <s_epik_input>
W0NIMl0xW0NIMl1bQ0BASF0oW0NIMl0yKVtDQEBIXShbQ0gyXVtDQEhdMTIpTihbQ0gyXVtDSDJdMylbQ0gyXVtDSDJdTjNDKD1PKVtOSF1bQ0gyXVtDSDJdYzRbY0hdW2NIXW5bY0hdW2NIXTQ=

> <s_epik_cmdline>
J2VwaWtfcHl0aG9uJywgJy1waCcsICc3LjAnLCAnLXRuJywgJzgnLCAnLW1hJywgJzIwMCcsICctbWV0YWxfYmluZGluZycsICctaW1hZScsICc8aW5maWxlLm1hZT4nLCAnLW9tYWUnLCAnPG91dGZpbGUubWFlPic=

> <r_epik_Ionization_Penalty>
1.44916

> <r_epik_Ionization_Penalty_Charging>
1.44913

> <r_epik_Ionization_Penalty_Neutral>
2.64641e-05

> <r_epik_State_Penalty>
1.53218

> <r_epik_Charging_Adjusted_Penalty>
2.98131

> <i_epik_Tot_Q>
2

> <i_epik_Tot_abs_Q>
2

> <r_epik_Metal_State_Penalty>
1.58241

> <b_epik_Metal_Only>
0

> <s_lp_Force_Field>
OPLS_2005

> <r_lp_Energy>
107.439

> <b_lp_Chiralities_Consistent>
1

> <s_lp_Variant>
AV-unprocessed.smi:2895-8

> <Gold.Version>
5.8.1

> <Gold.Id.Protein>
6NUR|6NUR_protein|mol2

> <Gold.PLP.Fitness>
43.5747

> <Gold.PLP.PLP>
-36.9455

> <Gold.PLP.part.hbond>
-2.0000

> <Gold.PLP.part.metal>
0.0000

> <Gold.PLP.part.buried>
-4.6430

> <Gold.PLP.part.nonpolar>
-30.4663

> <Gold.PLP.part.repulsive>
0.0608

> <Gold.PLP.ligand.clash>
0.6882

> <Gold.PLP.ligand.torsion>
0.5784

> <Gold.PLP.Chemscore.Hbond>
2.7930

> <Gold.PLP.Chemscore.CHOScore>
0.0000

> <Gold.PLP.Chemscore.Metal>
0.0000

> <Gold.Chemscore.Hbonds>
donor molecule, donor type, donor heavy atom, donor atom, acceptor molecule, acceptor atom, score
      L1  H    15    53       P1  7948  2.00

> <Gold.PLP.Chemscore.Internal.Correction>
0.0952

> <Gold.Rescore>
     Score         DG    S(hbond)    S(metal)    S(lipo)     H(rot)  DE(clash)    DE(int)     intcor
     18.69     -19.25       1.74        0.00     100.02       1.46       0.01       0.55       ----

> <Gold.Chemscore.Fitness>
18.6880

> <Gold.Chemscore.DG>
-19.2511

> <Gold.Chemscore.ZeroCoef>
-5.4800

> <Gold.Chemscore.Hbond>
1.7361

> <Gold.Chemscore.Metal>
0.0000

> <Gold.Chemscore.Lipo>
100.0249

> <Gold.Chemscore.Internal_Hbond>
0.0000

> <Gold.Chemscore.DEClash>
0.0081

> <Gold.Chemscore.DEInternal>
0.5550

> <Gold.Chemscore.Rot>
1.4572

> <Gold.Chemscore.Internal.Correction>
   9.000000E+99

> <Gold.Chemscore.Hbonds>
donor molecule, donor type, donor heavy atom, donor atom, acceptor molecule, acceptor atom, score
      L1  H    15    53       P1  7948  0.39

> <Gold.Chemscore.Hbond.Weighted>
-5.7987

> <Gold.Chemscore.Metal.Weighted>
-0.0000

> <Gold.Chemscore.Lipo.Weighted>
-11.7029

> <Gold.Chemscore.Internal_Hbond.Weighted>
0.0000

> <Gold.Chemscore.DEClash.Weighted>
0.0081

> <Gold.Chemscore.DEInternal.Weighted>
0.5550

> <Gold.Chemscore.Rot.Weighted>
3.7305

> <Gold.Chemscore.Internal.Correction.Weighted>
   9.000000E+99

> <Gold.Protein.RotatedTorsions>
[ 6907 6896 6895 6894 ] final  100.49 input  -60.11 | X-H torsion
[ 7974 7965 7964 7962 ] final  -35.13 input  175.53 | X-H torsion
[ 8008 7997 7996 7995 ] final   63.43 input   59.86 | X-H torsion
[ 10167 10162 10161 10158 ] final   72.01 input  -65.29 | X-H torsion
[ 10718 10713 10712 10709 ] final   55.00 input   66.30 | X-H torsion
[ 10763 10752 10751 10750 ] final  -15.00 input  -60.55 | X-H torsion
[ 11005 11000 10999 10996 ] final   59.90 input  -57.11 | X-H torsion

> <Gold.Protein.ActiveResidues>
 VAL166  LYS551  ARG553  GLY616  TRP617  ASP618  TYR619  PRO620  LYS621  CYS622 
 ASP623  PHE694  ASN695  SER759  ASP760  ASP761  ALA762  ILE779  LEU786  VAL792 
 PHE793  MET794  SER795  GLU796  ALA797  LYS798  CYS799  TRP800  GLU811  SER814 

> <Gold.Protein.RotatedAtoms>
  152.5371  134.0269  159.8006 H   0  0  0  0  0  0  0  0  0  0  0  0  # atno 6907 bound_to 6896
  151.0446  133.5669  159.2655 H   0  0  0  0  0  0  0  0  0  0  0  0  # atno 6908 bound_to 6896
  151.2626  135.0666  159.9157 H   0  0  0  0  0  0  0  0  0  0  0  0  # atno 6909 bound_to 6896
  146.0772  140.6123  142.8925 H   0  0  0  0  0  0  0  0  0  0  0  0  # atno 7974 bound_to 7965
  155.6300  140.3496  155.4680 H   0  0  0  0  0  0  0  0  0  0  0  0  # atno 8008 bound_to 7997
  156.0010  140.1213  157.0570 H   0  0  0  0  0  0  0  0  0  0  0  0  # atno 8009 bound_to 7997
  154.4249  140.1100  156.5683 H   0  0  0  0  0  0  0  0  0  0  0  0  # atno 8010 bound_to 7997
  140.0399  144.5398  150.7442 H   0  0  0  0  0  0  0  0  0  0  0  0  # atno 10167 bound_to 10162
  157.5307  130.8628  149.8683 H   0  0  0  0  0  0  0  0  0  0  0  0  # atno 10718 bound_to 10713
  153.5367  135.7014  153.5656 H   0  0  0  0  0  0  0  0  0  0  0  0  # atno 10763 bound_to 10752
  153.3640  135.3962  155.1739 H   0  0  0  0  0  0  0  0  0  0  0  0  # atno 10764 bound_to 10752
  154.8678  135.3795  154.4868 H   0  0  0  0  0  0  0  0  0  0  0  0  # atno 10765 bound_to 10752
  140.0271  134.6067  155.9558 H   0  0  0  0  0  0  0  0  0  0  0  0  # atno 11005 bound_to 11000
  144.7269  140.4552  143.6966 LP  0  0  0  0  0  0  0  0  0  0  0  0  # atno 17320 bound_to 7965
  145.6285  139.1533  143.2982 LP  0  0  0  0  0  0  0  0  0  0  0  0  # atno 17321 bound_to 7965
  140.7265  143.2642  151.4103 LP  0  0  0  0  0  0  0  0  0  0  0  0  # atno 17342 bound_to 10162
  139.6021  144.1274  152.2209 LP  0  0  0  0  0  0  0  0  0  0  0  0  # atno 17343 bound_to 10162
  156.0420  130.3736  150.1411 LP  0  0  0  0  0  0  0  0  0  0  0  0  # atno 17370 bound_to 10713
  156.9596  130.9800  151.3482 LP  0  0  0  0  0  0  0  0  0  0  0  0  # atno 17371 bound_to 10713
  141.1809  133.6546  156.5016 LP  0  0  0  0  0  0  0  0  0  0  0  0  # atno 17394 bound_to 11000
  140.4289  134.7120  157.4931 LP  0  0  0  0  0  0  0  0  0  0  0  0  # atno 17395 bound_to 11000

$$$$
