AV-unprocessed.smi:3011|AV-procd|sdf|11457|dock1
  -GOLD-   2272016393D 1   1.00000     0.00000
 Structure written by MMmdl.
 46 48  0  0  0  0  0  0  0  0  1 V2000
  146.9437  136.7329  154.1735 C   0  0  0  0  0  0  0  0  0  0  0  0
  147.9373  137.5629  154.7553 O   0  0  0  0  0  0  0  0  0  0  0  0
  147.9910  138.8878  154.3733 C   0  0  0  0  0  0  0  0  0  0  0  0
  147.1229  139.4675  153.4138 C   0  0  0  0  0  0  0  0  0  0  0  0
  147.2437  140.8268  153.0716 C   0  0  0  0  0  0  0  0  0  0  0  0
  148.2295  141.6209  153.6824 C   0  0  0  0  0  0  0  0  0  0  0  0
  149.0956  141.0564  154.6363 C   0  0  0  0  0  0  0  0  0  0  0  0
  148.9820  139.6879  154.9863 C   0  0  0  0  0  0  0  0  0  0  0  0
  149.7906  139.0666  155.9120 O   0  0  0  0  0  0  0  0  0  0  0  0
  150.9296  139.7585  156.4041 C   0  0  0  0  0  0  0  0  0  0  0  0
  151.1579  139.3285  157.8598 C   0  0  0  0  0  0  0  0  0  0  0  0
  152.0284  140.2594  158.5663 N   0  0  0  0  0  0  0  0  0  0  0  0
  152.9649  139.9969  159.5153 C   0  0  0  0  0  0  0  0  0  0  0  0
  153.2549  138.6029  160.0142 C   0  0  2  0  0  0  0  0  0  0  0  0
  154.1027  138.6125  161.2937 C   0  0  0  0  0  0  0  0  0  0  0  0
  153.9377  137.8640  158.9570 N   0  0  0  0  0  0  0  0  0  0  0  0
  154.2220  136.5570  159.0173 C   0  0  0  0  0  0  0  0  0  0  0  0
  153.9302  135.8486  159.9775 O   0  0  0  0  0  0  0  0  0  0  0  0
  153.6157  141.0626  159.9898 N   0  0  0  0  0  0  0  0  0  0  0  0
  153.0331  142.1106  159.3067 C   0  0  0  0  0  0  0  0  0  0  0  0
  153.2761  143.5011  159.3778 C   0  0  0  0  0  0  0  0  0  0  0  0
  152.5356  144.3967  158.5790 C   0  0  0  0  0  0  0  0  0  0  0  0
  151.5446  143.9155  157.6993 C   0  0  0  0  0  0  0  0  0  0  0  0
  151.2902  142.5335  157.6104 C   0  0  0  0  0  0  0  0  0  0  0  0
  152.0329  141.6431  158.4096 C   0  0  0  0  0  0  0  0  0  0  0  0
  147.0495  135.7208  154.5638 H   0  0  0  0  0  0  0  0  0  0  0  0
  147.0510  136.6803  153.0892 H   0  0  0  0  0  0  0  0  0  0  0  0
  145.9399  137.0797  154.4226 H   0  0  0  0  0  0  0  0  0  0  0  0
  146.3544  138.8890  152.9244 H   0  0  0  0  0  0  0  0  0  0  0  0
  146.5784  141.2601  152.3394 H   0  0  0  0  0  0  0  0  0  0  0  0
  148.3215  142.6646  153.4202 H   0  0  0  0  0  0  0  0  0  0  0  0
  149.8378  141.6948  155.0903 H   0  0  0  0  0  0  0  0  0  0  0  0
  151.8098  139.5170  155.8067 H   0  0  0  0  0  0  0  0  0  0  0  0
  150.7712  140.8364  156.3548 H   0  0  0  0  0  0  0  0  0  0  0  0
  150.2151  139.2217  158.3957 H   0  0  0  0  0  0  0  0  0  0  0  0
  151.6200  138.3413  157.8793 H   0  0  0  0  0  0  0  0  0  0  0  0
  152.3283  138.0817  160.2502 H   0  0  0  0  0  0  0  0  0  0  0  0
  153.5975  139.1571  162.0919 H   0  0  0  0  0  0  0  0  0  0  0  0
  155.0702  139.0880  161.1287 H   0  0  0  0  0  0  0  0  0  0  0  0
  154.2865  137.5987  161.6506 H   0  0  0  0  0  0  0  0  0  0  0  0
  154.1849  138.3731  158.1207 H   0  0  0  0  0  0  0  0  0  0  0  0
  154.7398  136.2067  158.1103 H   0  0  0  0  0  0  0  0  0  0  0  0
  154.0307  143.8792  160.0515 H   0  0  0  0  0  0  0  0  0  0  0  0
  152.7271  145.4578  158.6432 H   0  0  0  0  0  0  0  0  0  0  0  0
  150.9789  144.6077  157.0929 H   0  0  0  0  0  0  0  0  0  0  0  0
  150.5281  142.1638  156.9409 H   0  0  0  0  0  0  0  0  0  0  0  0
  1  2  1  0  0  0  0
  1 26  1  0  0  0  0
  1 27  1  0  0  0  0
  1 28  1  0  0  0  0
  2  3  1  0  0  0  0
  3  8  1  0  0  0  0
  3  4  2  0  0  0  0
  4  5  1  0  0  0  0
  4 29  1  0  0  0  0
  5  6  2  0  0  0  0
  5 30  1  0  0  0  0
  6  7  1  0  0  0  0
  6 31  1  0  0  0  0
  7  8  2  0  0  0  0
  7 32  1  0  0  0  0
  8  9  1  0  0  0  0
  9 10  1  0  0  0  0
 10 11  1  0  0  0  0
 10 33  1  0  0  0  0
 10 34  1  0  0  0  0
 11 12  1  0  0  0  0
 11 35  1  0  0  0  0
 11 36  1  0  0  0  0
 12 25  1  0  0  0  0
 12 13  1  0  0  0  0
 13 14  1  0  0  0  0
 13 19  2  0  0  0  0
 14 15  1  0  0  0  0
 14 16  1  0  0  0  0
 14 37  1  0  0  0  0
 15 38  1  0  0  0  0
 15 39  1  0  0  0  0
 15 40  1  0  0  0  0
 16 17  1  0  0  0  0
 16 41  1  0  0  0  0
 17 18  2  0  0  0  0
 17 42  1  0  0  0  0
 19 20  1  0  0  0  0
 20 25  2  0  0  0  0
 20 21  1  0  0  0  0
 21 22  2  0  0  0  0
 21 43  1  0  0  0  0
 22 23  1  0  0  0  0
 22 44  1  0  0  0  0
 23 24  2  0  0  0  0
 23 45  1  0  0  0  0
 24 25  1  0  0  0  0
 24 46  1  0  0  0  0
M  END
> <s_m_source_file>
AV-unprocessed.smi

> <i_m_source_file_index>
3011

> <i_lp_mmshare_version>
43012

> <i_f3d_flags>
0

> <s_epik_input>
W0NIM11PYzFbY0hdW2NIXVtjSF1bY0hdYzFPW0NIMl1bQ0gyXW4oYyhuMilbQ0BIXShbQ0gzXSlbTkhdW0NIXT1PKWMoYzIzKVtjSF1bY0hdW2NIXVtjSF0z

> <s_epik_cmdline>
J2VwaWtfcHl0aG9uJywgJy1waCcsICc3LjAnLCAnLXRuJywgJzgnLCAnLW1hJywgJzIwMCcsICctbWV0YWxfYmluZGluZycsICctaW1hZScsICc8aW5maWxlLm1hZT4nLCAnLW9tYWUnLCAnPG91dGZpbGUubWFlPic=

> <r_lp_tautomer_probability>
1

> <r_epik_Ionization_Penalty>
0.0924205

> <r_epik_Ionization_Penalty_Charging>
0

> <r_epik_Ionization_Penalty_Neutral>
0.0924205

> <r_epik_State_Penalty>
0.0827154

> <r_epik_Charging_Adjusted_Penalty>
0.0827154

> <i_epik_Tot_Q>
0

> <i_epik_Tot_abs_Q>
0

> <r_epik_Metal_State_Penalty>
0.071464

> <b_epik_Metal_Only>
0

> <s_lp_Force_Field>
OPLS_2005

> <r_lp_Energy>
15.3464

> <b_lp_Chiralities_Consistent>
1

> <s_lp_Variant>
AV-unprocessed.smi:3011-1

> <Gold.Version>
5.8.1

> <Gold.Id.Protein>
6NUR|6NUR_protein|mol2

> <Gold.PLP.Fitness>
45.1234

> <Gold.PLP.PLP>
-43.7708

> <Gold.PLP.part.hbond>
-1.0000

> <Gold.PLP.part.metal>
0.0000

> <Gold.PLP.part.buried>
-5.2042

> <Gold.PLP.part.nonpolar>
-37.0761

> <Gold.PLP.part.repulsive>
0.1775

> <Gold.PLP.ligand.clash>
0.0000

> <Gold.PLP.ligand.torsion>
0.9934

> <Gold.PLP.Chemscore.Hbond>
1.0000

> <Gold.PLP.Chemscore.CHOScore>
0.0000

> <Gold.PLP.Chemscore.Metal>
0.0000

> <Gold.Chemscore.Hbonds>
donor molecule, donor type, donor heavy atom, donor atom, acceptor molecule, acceptor atom, score
      P1  H  6896  6908       L1    18  1.00

> <Gold.PLP.Chemscore.Internal.Correction>
0.3394

> <Gold.Rescore>
     Score         DG    S(hbond)    S(metal)    S(lipo)     H(rot)  DE(clash)    DE(int)     intcor
     15.19     -16.28       1.00        0.00     120.54       2.59       0.02       1.08       ----

> <Gold.Chemscore.Fitness>
15.1909

> <Gold.Chemscore.DG>
-16.2830

> <Gold.Chemscore.ZeroCoef>
-5.4800

> <Gold.Chemscore.Hbond>
0.9982

> <Gold.Chemscore.Metal>
0.0000

> <Gold.Chemscore.Lipo>
120.5390

> <Gold.Chemscore.Internal_Hbond>
0.0000

> <Gold.Chemscore.DEClash>
0.0167

> <Gold.Chemscore.DEInternal>
1.0754

> <Gold.Chemscore.Rot>
2.5914

> <Gold.Chemscore.Internal.Correction>
   9.000000E+99

> <Gold.Chemscore.Hbonds>
donor molecule, donor type, donor heavy atom, donor atom, acceptor molecule, acceptor atom, score
      P1  H  6896  6908       L1    18  0.98

> <Gold.Chemscore.Hbond.Weighted>
-3.3340

> <Gold.Chemscore.Metal.Weighted>
-0.0000

> <Gold.Chemscore.Lipo.Weighted>
-14.1031

> <Gold.Chemscore.Internal_Hbond.Weighted>
0.0000

> <Gold.Chemscore.DEClash.Weighted>
0.0167

> <Gold.Chemscore.DEInternal.Weighted>
1.0754

> <Gold.Chemscore.Rot.Weighted>
6.6340

> <Gold.Chemscore.Internal.Correction.Weighted>
   9.000000E+99

> <Gold.Protein.RotatedTorsions>
[ 6907 6896 6895 6894 ] final  -76.57 input  -60.11 | X-H torsion
[ 7974 7965 7964 7962 ] final  115.71 input  175.53 | X-H torsion
[ 8008 7997 7996 7995 ] final   33.41 input   59.86 | X-H torsion
[ 10167 10162 10161 10158 ] final   72.82 input  -65.29 | X-H torsion
[ 10718 10713 10712 10709 ] final   -4.45 input   66.30 | X-H torsion
[ 10763 10752 10751 10750 ] final   76.67 input  -60.55 | X-H torsion
[ 11005 11000 10999 10996 ] final  148.56 input  -57.11 | X-H torsion

> <Gold.Protein.ActiveResidues>
 VAL166  LYS551  ARG553  GLY616  TRP617  ASP618  TYR619  PRO620  LYS621  CYS622 
 ASP623  PHE694  ASN695  SER759  ASP760  ASP761  ALA762  ILE779  LEU786  VAL792 
 PHE793  MET794  SER795  GLU796  ALA797  LYS798  CYS799  TRP800  GLU811  SER814 

> <Gold.Protein.RotatedAtoms>
  150.7024  134.4553  159.5354 H   0  0  0  0  0  0  0  0  0  0  0  0  # atno 6907 bound_to 6896
  152.2238  134.8385  160.0492 H   0  0  0  0  0  0  0  0  0  0  0  0  # atno 6908 bound_to 6896
  151.9226  133.3554  159.3939 H   0  0  0  0  0  0  0  0  0  0  0  0  # atno 6909 bound_to 6896
  145.1886  139.3012  143.4380 H   0  0  0  0  0  0  0  0  0  0  0  0  # atno 7974 bound_to 7965
  155.1381  140.3263  155.4458 H   0  0  0  0  0  0  0  0  0  0  0  0  # atno 8008 bound_to 7997
  156.2613  140.1998  156.6448 H   0  0  0  0  0  0  0  0  0  0  0  0  # atno 8009 bound_to 7997
  154.6562  140.0552  156.9998 H   0  0  0  0  0  0  0  0  0  0  0  0  # atno 8010 bound_to 7997
  140.0312  144.5464  150.7506 H   0  0  0  0  0  0  0  0  0  0  0  0  # atno 10167 bound_to 10162
  156.7612  130.5270  149.5785 H   0  0  0  0  0  0  0  0  0  0  0  0  # atno 10718 bound_to 10713
  153.0742  135.4943  154.8369 H   0  0  0  0  0  0  0  0  0  0  0  0  # atno 10763 bound_to 10752
  154.7065  135.3011  154.9265 H   0  0  0  0  0  0  0  0  0  0  0  0  # atno 10764 bound_to 10752
  153.9973  135.6771  153.4810 H   0  0  0  0  0  0  0  0  0  0  0  0  # atno 10765 bound_to 10752
  140.0970  134.9006  157.1738 H   0  0  0  0  0  0  0  0  0  0  0  0  # atno 11005 bound_to 11000
  146.3440  140.2090  142.8590 LP  0  0  0  0  0  0  0  0  0  0  0  0  # atno 17320 bound_to 7965
  145.0064  140.8676  143.5250 LP  0  0  0  0  0  0  0  0  0  0  0  0  # atno 17321 bound_to 7965
  140.7301  143.2680  151.3982 LP  0  0  0  0  0  0  0  0  0  0  0  0  # atno 17342 bound_to 10162
  139.6075  144.1167  152.2264 LP  0  0  0  0  0  0  0  0  0  0  0  0  # atno 17343 bound_to 10162
  156.1338  130.6197  151.0371 LP  0  0  0  0  0  0  0  0  0  0  0  0  # atno 17370 bound_to 10713
  157.6734  131.0856  150.7556 LP  0  0  0  0  0  0  0  0  0  0  0  0  # atno 17371 bound_to 10713
  140.3272  134.2850  155.7234 LP  0  0  0  0  0  0  0  0  0  0  0  0  # atno 17394 bound_to 11000
  141.2095  133.7747  156.9993 LP  0  0  0  0  0  0  0  0  0  0  0  0  # atno 17395 bound_to 11000

$$$$
