AV-unprocessed.smi:1856|AV-procd|sdf|7536|dock3
  -GOLD-   22720 9253D 1   1.00000     0.00000
 Structure written by MMmdl.
 44 45  0  0  0  0  0  0  0  0  1 V2000
  154.3319  136.9057  164.4975 C   0  0  0  0  0  0  0  0  0  0  0  0
  153.6601  137.2018  163.1480 C   0  0  0  0  0  0  0  0  0  0  0  0
  154.4786  136.7778  161.9117 C   0  0  0  0  0  0  0  0  0  0  0  0
  153.7110  136.8843  160.5892 C   0  0  0  0  0  0  0  0  0  0  0  0
  153.6625  135.9284  159.8153 O   0  0  0  0  0  0  0  0  0  0  0  0
  153.1001  138.0549  160.3465 N   0  0  0  0  0  0  0  0  0  0  0  0
  152.3323  138.3698  159.1439 C   0  0  1  0  0  0  0  0  0  0  0  0
  150.9438  137.7190  159.2103 C   0  0  0  0  0  0  0  0  0  0  0  0
  152.2506  139.8703  159.0073 C   0  0  0  0  0  0  0  0  0  0  0  0
  152.8390  140.6888  159.8841 N   0  0  0  0  0  0  0  0  0  0  0  0
  152.5236  141.9408  159.3975 C   0  0  0  0  0  0  0  0  0  0  0  0
  152.8507  143.2249  159.8884 C   0  0  0  0  0  0  0  0  0  0  0  0
  152.4061  144.3810  159.2146 C   0  0  0  0  0  0  0  0  0  0  0  0
  151.6296  144.2696  158.0432 C   0  0  0  0  0  0  0  0  0  0  0  0
  151.2946  142.9994  157.5366 C   0  0  0  0  0  0  0  0  0  0  0  0
  151.7414  141.8478  158.2127 C   0  0  0  0  0  0  0  0  0  0  0  0
  151.5898  140.4820  157.9892 N   0  0  0  0  0  0  0  0  0  0  0  0
  150.8669  139.8747  156.8794 C   0  0  0  0  0  0  0  0  0  0  0  0
  151.7547  138.9579  156.0148 C   0  0  1  0  0  0  0  0  0  0  0  0
  151.1682  138.6500  154.6279 C   0  0  0  0  0  0  0  0  0  0  0  0
  153.0101  139.5810  155.8459 O   0  0  0  0  0  0  0  0  0  0  0  0
  153.6540  137.1305  165.3212 H   0  0  0  0  0  0  0  0  0  0  0  0
  155.2299  137.5041  164.6465 H   0  0  0  0  0  0  0  0  0  0  0  0
  154.6105  135.8546  164.5766 H   0  0  0  0  0  0  0  0  0  0  0  0
  152.7042  136.6779  163.1203 H   0  0  0  0  0  0  0  0  0  0  0  0
  153.4169  138.2635  163.0874 H   0  0  0  0  0  0  0  0  0  0  0  0
  155.3877  137.3757  161.8403 H   0  0  0  0  0  0  0  0  0  0  0  0
  154.8071  135.7461  162.0469 H   0  0  0  0  0  0  0  0  0  0  0  0
  153.1907  138.7891  161.0333 H   0  0  0  0  0  0  0  0  0  0  0  0
  152.8481  137.9359  158.2886 H   0  0  0  0  0  0  0  0  0  0  0  0
  150.3671  137.9393  158.3116 H   0  0  0  0  0  0  0  0  0  0  0  0
  150.3732  138.0788  160.0672 H   0  0  0  0  0  0  0  0  0  0  0  0
  151.0229  136.6346  159.2943 H   0  0  0  0  0  0  0  0  0  0  0  0
  153.4439  143.3207  160.7857 H   0  0  0  0  0  0  0  0  0  0  0  0
  152.6609  145.3578  159.5991 H   0  0  0  0  0  0  0  0  0  0  0  0
  151.2915  145.1599  157.5335 H   0  0  0  0  0  0  0  0  0  0  0  0
  150.6983  142.9135  156.6406 H   0  0  0  0  0  0  0  0  0  0  0  0
  150.0315  139.3037  157.2858 H   0  0  0  0  0  0  0  0  0  0  0  0
  150.4138  140.6620  156.2766 H   0  0  0  0  0  0  0  0  0  0  0  0
  151.9257  138.0173  156.5386 H   0  0  0  0  0  0  0  0  0  0  0  0
  150.2302  138.0998  154.7054 H   0  0  0  0  0  0  0  0  0  0  0  0
  151.8534  138.0388  154.0395 H   0  0  0  0  0  0  0  0  0  0  0  0
  150.9717  139.5649  154.0681 H   0  0  0  0  0  0  0  0  0  0  0  0
  152.9491  140.1919  155.1274 H   0  0  0  0  0  0  0  0  0  0  0  0
  1  2  1  0  0  0  0
  1 22  1  0  0  0  0
  1 23  1  0  0  0  0
  1 24  1  0  0  0  0
  2  3  1  0  0  0  0
  2 25  1  0  0  0  0
  2 26  1  0  0  0  0
  3  4  1  0  0  0  0
  3 27  1  0  0  0  0
  3 28  1  0  0  0  0
  4  5  2  0  0  0  0
  4  6  1  0  0  0  0
  6  7  1  0  0  0  0
  6 29  1  0  0  0  0
  7  8  1  0  0  0  0
  7  9  1  0  0  0  0
  7 30  1  0  0  0  0
  8 31  1  0  0  0  0
  8 32  1  0  0  0  0
  8 33  1  0  0  0  0
  9 17  1  0  0  0  0
  9 10  2  0  0  0  0
 10 11  1  0  0  0  0
 11 16  2  0  0  0  0
 11 12  1  0  0  0  0
 12 13  2  0  0  0  0
 12 34  1  0  0  0  0
 13 14  1  0  0  0  0
 13 35  1  0  0  0  0
 14 15  2  0  0  0  0
 14 36  1  0  0  0  0
 15 16  1  0  0  0  0
 15 37  1  0  0  0  0
 16 17  1  0  0  0  0
 17 18  1  0  0  0  0
 18 19  1  0  0  0  0
 18 38  1  0  0  0  0
 18 39  1  0  0  0  0
 19 20  1  0  0  0  0
 19 21  1  0  0  0  0
 19 40  1  0  0  0  0
 20 41  1  0  0  0  0
 20 42  1  0  0  0  0
 20 43  1  0  0  0  0
 21 44  1  0  0  0  0
M  END
> <s_m_source_file>
AV-unprocessed.smi

> <i_m_source_file_index>
1856

> <i_lp_mmshare_version>
43012

> <i_f3d_flags>
0

> <s_epik_input>
W0NIM11bQ0gyXVtDSDJdQyg9TylbTkhdW0NASF0oW0NIM10pYyhuMSluKFtDSDJdW0NASF0oW0NIM10pW09IXSljKGMxMilbY0hdW2NIXVtjSF1bY0hdMg==

> <s_epik_cmdline>
J2VwaWtfcHl0aG9uJywgJy1waCcsICc3LjAnLCAnLXRuJywgJzgnLCAnLW1hJywgJzIwMCcsICctbWV0YWxfYmluZGluZycsICctaW1hZScsICc8aW5maWxlLm1hZT4nLCAnLW9tYWUnLCAnPG91dGZpbGUubWFlPic=

> <r_epik_Ionization_Penalty>
0.134222

> <r_epik_Ionization_Penalty_Charging>
0

> <r_epik_Ionization_Penalty_Neutral>
0.134222

> <r_epik_State_Penalty>
0.123585

> <r_epik_Charging_Adjusted_Penalty>
0.123585

> <i_epik_Tot_Q>
0

> <i_epik_Tot_abs_Q>
0

> <r_epik_Metal_State_Penalty>
0.100548

> <b_epik_Metal_Only>
0

> <s_lp_Force_Field>
OPLS_2005

> <r_lp_Energy>
2.58859

> <b_lp_Chiralities_Consistent>
1

> <s_lp_Variant>
AV-unprocessed.smi:1856-4

> <Gold.Version>
5.8.1

> <Gold.Id.Protein>
6NUR|6NUR_protein|mol2

> <Gold.PLP.Fitness>
52.9895

> <Gold.PLP.PLP>
-48.0087

> <Gold.PLP.part.hbond>
-1.8418

> <Gold.PLP.part.metal>
0.0000

> <Gold.PLP.part.buried>
-5.8136

> <Gold.PLP.part.nonpolar>
-40.8899

> <Gold.PLP.part.repulsive>
0.0833

> <Gold.PLP.ligand.clash>
0.0000

> <Gold.PLP.ligand.torsion>
0.5268

> <Gold.PLP.Chemscore.Hbond>
2.0000

> <Gold.PLP.Chemscore.CHOScore>
0.0000

> <Gold.PLP.Chemscore.Metal>
0.0000

> <Gold.Chemscore.Hbonds>
donor molecule, donor type, donor heavy atom, donor atom, acceptor molecule, acceptor atom, score
      P1  H  6896  6908       L1     5  1.00
      P1  H  7997  8010       L1    21  0.95

> <Gold.PLP.Chemscore.Internal.Correction>
0.0344

> <Gold.Rescore>
     Score         DG    S(hbond)    S(metal)    S(lipo)     H(rot)  DE(clash)    DE(int)     intcor
     19.50     -19.93       1.96        0.00     121.07       2.45       0.01       0.42       ----

> <Gold.Chemscore.Fitness>
19.5004

> <Gold.Chemscore.DG>
-19.9287

> <Gold.Chemscore.ZeroCoef>
-5.4800

> <Gold.Chemscore.Hbond>
1.9595

> <Gold.Chemscore.Metal>
0.0000

> <Gold.Chemscore.Lipo>
121.0717

> <Gold.Chemscore.Internal_Hbond>
0.0000

> <Gold.Chemscore.DEClash>
0.0073

> <Gold.Chemscore.DEInternal>
0.4209

> <Gold.Chemscore.Rot>
2.4459

> <Gold.Chemscore.Internal.Correction>
   9.000000E+99

> <Gold.Chemscore.Hbonds>
donor molecule, donor type, donor heavy atom, donor atom, acceptor molecule, acceptor atom, score
      P1  H  6896  6908       L1     5  0.98
      P1  H  7997  8010       L1    21  0.20

> <Gold.Chemscore.Hbond.Weighted>
-6.5448

> <Gold.Chemscore.Metal.Weighted>
-0.0000

> <Gold.Chemscore.Lipo.Weighted>
-14.1654

> <Gold.Chemscore.Internal_Hbond.Weighted>
0.0000

> <Gold.Chemscore.DEClash.Weighted>
0.0073

> <Gold.Chemscore.DEInternal.Weighted>
0.4209

> <Gold.Chemscore.Rot.Weighted>
6.2614

> <Gold.Chemscore.Internal.Correction.Weighted>
   9.000000E+99

> <Gold.Protein.RotatedTorsions>
[ 6907 6896 6895 6894 ] final  -53.93 input  -60.11 | X-H torsion
[ 7974 7965 7964 7962 ] final   67.83 input  175.53 | X-H torsion
[ 8008 7997 7996 7995 ] final   67.28 input   59.86 | X-H torsion
[ 10167 10162 10161 10158 ] final    0.11 input  -65.29 | X-H torsion
[ 10718 10713 10712 10709 ] final  -26.79 input   66.30 | X-H torsion
[ 10763 10752 10751 10750 ] final   50.33 input  -60.55 | X-H torsion
[ 11005 11000 10999 10996 ] final  -68.20 input  -57.11 | X-H torsion

> <Gold.Protein.ActiveResidues>
 VAL166  LYS551  ARG553  GLY616  TRP617  ASP618  TYR619  PRO620  LYS621  CYS622 
 ASP623  PHE694  ASN695  SER759  ASP760  ASP761  ALA762  ILE779  LEU786  VAL792 
 PHE793  MET794  SER795  GLU796  ALA797  LYS798  CYS799  TRP800  GLU811  SER814 

> <Gold.Protein.RotatedAtoms>
  150.8383  134.7665  159.6910 H   0  0  0  0  0  0  0  0  0  0  0  0  # atno 6907 bound_to 6896
  152.4475  134.5460  159.9863 H   0  0  0  0  0  0  0  0  0  0  0  0  # atno 6908 bound_to 6896
  151.5606  133.3366  159.3006 H   0  0  0  0  0  0  0  0  0  0  0  0  # atno 6909 bound_to 6896
  145.8099  139.3027  143.1105 H   0  0  0  0  0  0  0  0  0  0  0  0  # atno 7974 bound_to 7965
  155.6905  140.3496  155.4891 H   0  0  0  0  0  0  0  0  0  0  0  0  # atno 8008 bound_to 7997
  155.9528  140.1122  157.0984 H   0  0  0  0  0  0  0  0  0  0  0  0  # atno 8009 bound_to 7997
  154.4126  140.1191  156.5062 H   0  0  0  0  0  0  0  0  0  0  0  0  # atno 8010 bound_to 7997
  140.6743  143.6960  150.7990 H   0  0  0  0  0  0  0  0  0  0  0  0  # atno 10167 bound_to 10162
  156.4466  130.4475  149.7017 H   0  0  0  0  0  0  0  0  0  0  0  0  # atno 10718 bound_to 10713
  152.9785  135.5882  154.4235 H   0  0  0  0  0  0  0  0  0  0  0  0  # atno 10763 bound_to 10752
  154.3857  135.2767  155.2187 H   0  0  0  0  0  0  0  0  0  0  0  0  # atno 10764 bound_to 10752
  154.4081  135.6088  153.5991 H   0  0  0  0  0  0  0  0  0  0  0  0  # atno 10765 bound_to 10752
  141.1526  133.6735  156.6410 H   0  0  0  0  0  0  0  0  0  0  0  0  # atno 11005 bound_to 11000
  145.9788  140.8700  143.0125 LP  0  0  0  0  0  0  0  0  0  0  0  0  # atno 17320 bound_to 7965
  144.6758  140.2050  143.7383 LP  0  0  0  0  0  0  0  0  0  0  0  0  # atno 17321 bound_to 7965
  140.0650  143.5117  152.2608 LP  0  0  0  0  0  0  0  0  0  0  0  0  # atno 17342 bound_to 10162
  139.6027  144.7587  151.3133 LP  0  0  0  0  0  0  0  0  0  0  0  0  # atno 17343 bound_to 10162
  156.3861  130.7603  151.2600 LP  0  0  0  0  0  0  0  0  0  0  0  0  # atno 17370 bound_to 10713
  157.7504  131.0281  150.4036 LP  0  0  0  0  0  0  0  0  0  0  0  0  # atno 17371 bound_to 10713
  140.3393  134.7862  157.4386 LP  0  0  0  0  0  0  0  0  0  0  0  0  # atno 17394 bound_to 11000
  140.0951  134.5548  155.8406 LP  0  0  0  0  0  0  0  0  0  0  0  0  # atno 17395 bound_to 11000

$$$$
