#       Name:                AV-unprocessed.smi:55
#       Creating user name   scv26
#       Creation time:       Thu Mar 26 16:47:09 2020


#       File generated by GOLD software.
#

@<TRIPOS>MOLECULE
AV-unprocessed.smi:55
    41    42     1
SMALL
NO_CHARGES


@<TRIPOS>ATOM
      1 ****        -3.5336   1.7056  -0.1181 C.3            1 S1                 0.0000
      2 ****        -2.8730   0.3396  -0.2037 C.2            1 S1                 0.0000
      3 ****        -1.5249   0.1807  -0.1875 C.2            1 S1                 0.0000
      4 ****        -0.8927  -1.0529  -0.2585 N.am           1 S1                 0.0000
      5 ****         0.6149  -1.1612  -0.2275 C.3            1 S1                 0.0000
      6 ****         1.1387  -1.0284   1.2036 C.3            1 S1                 0.0000
      7 ****         2.4019  -0.2206   0.9912 C.3            1 S1                 0.0000
      8 ****         2.7374   0.4968   2.1612 O.3            1 S1                 0.0000
      9 ****         1.9998   0.6974  -0.1674 C.3            1 S1                 0.0000
     10 ****         3.1726   1.2233  -1.0094 C.3            1 S1                 0.0000
     11 ****         3.9168   2.1775  -0.2824 O.3            1 S1                 0.0000
     12 ****         1.1617  -0.1194  -0.9829 O.3            1 S1                 0.0000
     13 ****        -1.6729  -2.2258  -0.3292 C.2            1 S1                 0.0000
     14 ****        -1.1870  -3.3555  -0.3631 O.2            1 S1                 0.0000
     15 ****        -3.0570  -2.0634  -0.3510 N.am           1 S1                 0.0000
     16 ****        -3.7340  -0.8425  -0.2977 C.2            1 S1                 0.0000
     17 ****        -4.9633  -0.8281  -0.3283 O.2            1 S1                 0.0000
     18 ****         0.8995  -2.0982  -0.7085 H              1 S1                 0.0000
     19 ****         3.2227  -0.8774   0.6998 H              1 S1                 0.0000
     20 ****         1.3944   1.5274   0.2010 H              1 S1                 0.0000
     21 ****        -3.6193  -2.9003  -0.4047 H              1 S1                 0.0000
     22 ****        -2.7976   2.5084  -0.0682 H              1 S1                 0.0000
     23 ****        -4.1596   1.7700   0.7726 H              1 S1                 0.0000
     24 ****        -4.1616   1.8820  -0.9920 H              1 S1                 0.0000
     25 ****        -0.9133   1.0664  -0.1074 H              1 S1                 0.0000
     26 ****         0.4197  -0.4729   1.8088 H              1 S1                 0.0000
     27 ****         1.3070  -2.0055   1.6574 H              1 S1                 0.0000
     28 ****         3.4732   1.0578   1.9670 H              1 S1                 0.0000
     29 ****         3.8264   0.4093  -1.3239 H              1 S1                 0.0000
     30 ****         2.7975   1.7025  -1.9139 H              1 S1                 0.0000
     31 ****         4.6069   2.5068  -0.8379 H              1 S1                 0.0000
     32 ****         2.9830  -0.1421   2.8902 LP             1 S1                 0.0000
     33 ****         1.9578   1.0512   2.4526 LP             1 S1                 0.0000
     34 ****         4.3130   1.7488   0.5295 LP             1 S1                 0.0000
     35 ****         3.3198   2.9300  -0.0042 LP             1 S1                 0.0000
     36 ****         0.4220   0.4389  -1.3587 LP             1 S1                 0.0000
     37 ****         1.7027  -0.5033  -1.7311 LP             1 S1                 0.0000
     38 ****        -0.1943  -3.4737  -0.3406 LP             1 S1                 0.0000
     39 ****        -1.7848  -4.1556  -0.4131 LP             1 S1                 0.0000
     40 ****        -5.4543   0.0421  -0.2879 LP             1 S1                 0.0000
     41 ****        -5.4720  -1.6866  -0.3936 LP             1 S1                 0.0000
@<TRIPOS>BOND
    1    1    2 1     
    2    1   22 1     
    3    1   23 1     
    4    1   24 1     
    5    2   16 1     
    6    2    3 2     
    7    3    4 1     
    8    3   25 1     
    9    4    5 1     
   10    4   13 1     
   11    5   18 1     
   12    5   12 1     
   13    5    6 1     
   14    6    7 1     
   15    6   26 1     
   16    6   27 1     
   17    7   19 1     
   18    7    8 1     
   19    7    9 1     
   20    8   28 1     
   21    9   20 1     
   22    9   10 1     
   23    9   12 1     
   24   10   11 1     
   25   10   29 1     
   26   10   30 1     
   27   11   31 1     
   28   13   14 2     
   29   13   15 1     
   30   15   21 1     
   31   15   16 1     
   32   16   17 2     
   33    8   32 1     
   34    8   33 1     
   35   11   34 1     
   36   11   35 1     
   37   12   36 1     
   38   12   37 1     
   39   14   38 1     
   40   14   39 1     
   41   17   40 1     
   42   17   41 1     
@<TRIPOS>SUBSTRUCTURE
      1 S1             1
@<TRIPOS>SET
LONE_PAIRS      STATIC     ATOMS    <user>   **** ""
10 32 33 34 35 36 37 38 39 40 41
DONOR_HYDROGENS      STATIC     ATOMS    <user>   **** ""
3 28 31 21
ATOM$BLUE        STATIC     ATOMS    COLORGROUP SYSTEM
10 32 33 34 35 36 37 38 39 40 41
ATOM$RED        STATIC     ATOMS    COLORGROUP SYSTEM
3 28 31 21
