AV-unprocessed.smi:3025|AV-procd|sdf|11506|dock4
  -GOLD-   2272016443D 1   1.00000     0.00000
 Structure written by MMmdl.
 42 43  0  0  0  0  0  0  0  0  2 V2000
  145.6192  131.6872  150.3809 C   0  0  0  0  0  0  0  0  0  0  0  0
  144.1613  132.0415  150.6929 C   0  0  0  0  0  0  0  0  0  0  0  0
  143.9996  132.7052  152.0710 C   0  0  0  0  0  0  0  0  0  0  0  0
  144.1429  134.2413  152.0544 C   0  0  2  0  0  0  0  0  0  0  0  0
  145.4087  134.7123  151.3059 C   0  0  0  0  0  0  0  0  0  0  0  0
  145.5458  136.2446  151.3218 C   0  0  0  0  0  0  0  0  0  0  0  0
  145.5299  136.8220  152.7530 C   0  0  2  0  0  0  0  0  0  0  0  0
  146.7557  136.4835  153.5137 N   0  3  0  0  0  0  0  0  0  0  0  0
  147.1573  137.4657  154.5424 C   0  0  0  0  0  0  0  0  0  0  0  0
  147.1375  138.8919  153.9771 C   0  0  0  0  0  0  0  0  0  0  0  0
  148.2472  139.7337  154.5166 C   0  0  0  0  0  0  0  0  0  0  0  0
  149.5334  139.4278  154.3339 N   0  0  0  0  0  0  0  0  0  0  0  0
  150.3018  140.3549  154.9428 N   0  0  0  0  0  0  0  0  0  0  0  0
  149.3909  141.1743  155.4646 C   0  0  0  0  0  0  0  0  0  0  0  0
  148.0853  140.8389  155.2356 N   0  0  0  0  0  0  0  0  0  0  0  0
  144.2792  136.3367  153.5091 C   0  0  0  0  0  0  0  0  0  0  0  0
  144.1423  134.8038  153.4899 C   0  0  0  0  0  0  0  0  0  0  0  0
  149.9161  138.6421  153.8272 H   0  0  0  0  0  0  0  0  0  0  0  0
  145.7043  131.2253  149.3970 H   0  0  0  0  0  0  0  0  0  0  0  0
  146.0200  130.9854  151.1126 H   0  0  0  0  0  0  0  0  0  0  0  0
  146.2504  132.5761  150.3864 H   0  0  0  0  0  0  0  0  0  0  0  0
  143.7883  132.7016  149.9104 H   0  0  0  0  0  0  0  0  0  0  0  0
  143.5564  131.1351  150.6487 H   0  0  0  0  0  0  0  0  0  0  0  0
  143.0116  132.4495  152.4563 H   0  0  0  0  0  0  0  0  0  0  0  0
  144.7155  132.2751  152.7727 H   0  0  0  0  0  0  0  0  0  0  0  0
  143.2721  134.6521  151.5411 H   0  0  0  0  0  0  0  0  0  0  0  0
  146.2946  134.2582  151.7517 H   0  0  0  0  0  0  0  0  0  0  0  0
  145.3830  134.3772  150.2693 H   0  0  0  0  0  0  0  0  0  0  0  0
  146.4439  136.5463  150.7835 H   0  0  0  0  0  0  0  0  0  0  0  0
  144.7133  136.6733  150.7620 H   0  0  0  0  0  0  0  0  0  0  0  0
  145.4757  137.9100  152.6917 H   0  0  0  0  0  0  0  0  0  0  0  0
  146.5863  135.6070  153.9861 H   0  0  0  0  0  0  0  0  0  0  0  0
  146.4827  137.4019  155.3962 H   0  0  0  0  0  0  0  0  0  0  0  0
  148.1592  137.2266  154.9015 H   0  0  0  0  0  0  0  0  0  0  0  0
  147.2098  138.8657  152.8888 H   0  0  0  0  0  0  0  0  0  0  0  0
  146.1900  139.3776  154.2144 H   0  0  0  0  0  0  0  0  0  0  0  0
  149.6766  142.0468  156.0337 H   0  0  0  0  0  0  0  0  0  0  0  0
  144.2952  136.6975  154.5383 H   0  0  0  0  0  0  0  0  0  0  0  0
  143.3922  136.7760  153.0507 H   0  0  0  0  0  0  0  0  0  0  0  0
  143.2200  134.5207  153.9989 H   0  0  0  0  0  0  0  0  0  0  0  0
  144.9550  134.3548  154.0624 H   0  0  0  0  0  0  0  0  0  0  0  0
  147.5169  136.3527  152.8627 H   0  0  0  0  0  0  0  0  0  0  0  0
  1  2  1  0  0  0  0
  1 19  1  0  0  0  0
  1 20  1  0  0  0  0
  1 21  1  0  0  0  0
  2  3  1  0  0  0  0
  2 22  1  0  0  0  0
  2 23  1  0  0  0  0
  3  4  1  0  0  0  0
  3 24  1  0  0  0  0
  3 25  1  0  0  0  0
  4 17  1  0  0  0  0
  4  5  1  0  0  0  0
  4 26  1  0  0  0  0
  5  6  1  0  0  0  0
  5 27  1  0  0  0  0
  5 28  1  0  0  0  0
  6  7  1  0  0  0  0
  6 29  1  0  0  0  0
  6 30  1  0  0  0  0
  7  8  1  0  0  0  0
  7 16  1  0  0  0  0
  7 31  1  0  0  0  0
  8  9  1  0  0  0  0
  8 32  1  0  0  0  0
  8 42  1  0  0  0  0
  9 10  1  0  0  0  0
  9 33  1  0  0  0  0
  9 34  1  0  0  0  0
 10 35  1  0  0  0  0
 10 36  1  0  0  0  0
 10 11  1  0  0  0  0
 11 15  2  0  0  0  0
 11 12  1  0  0  0  0
 12 18  1  0  0  0  0
 12 13  1  0  0  0  0
 13 14  2  0  0  0  0
 14 15  1  0  0  0  0
 14 37  1  0  0  0  0
 16 17  1  0  0  0  0
 16 38  1  0  0  0  0
 16 39  1  0  0  0  0
 17 40  1  0  0  0  0
 17 41  1  0  0  0  0
M  CHG  1   8   1
M  END
> <s_m_source_file>
AV-unprocessed.smi

> <i_m_source_file_index>
3025

> <i_lp_mmshare_version>
43012

> <i_f3d_flags>
0

> <s_epik_input>
W0NIM11bQ0gyXVtDSDJdW0NAQEhdMVtDSDJdW0NIMl1bQ0BIXShbQ0gyXVtDSDJdMSlbTkhdW0NIMl1bQ0gyXWMybm5bY0hdW25IXTI=

> <s_epik_cmdline>
J2VwaWtfcHl0aG9uJywgJy1waCcsICc3LjAnLCAnLXRuJywgJzgnLCAnLW1hJywgJzIwMCcsICctbWV0YWxfYmluZGluZycsICctaW1hZScsICc8aW5maWxlLm1hZT4nLCAnLW9tYWUnLCAnPG91dGZpbGUubWFlPic=

> <r_lp_tautomer_probability>
0.948284

> <r_epik_Ionization_Penalty>
0.0093758

> <r_epik_Ionization_Penalty_Charging>
0.000546397

> <r_epik_Ionization_Penalty_Neutral>
0.00882941

> <r_epik_State_Penalty>
0.401098

> <r_epik_Charging_Adjusted_Penalty>
0.401645

> <i_epik_Tot_Q>
1

> <i_epik_Tot_abs_Q>
1

> <r_epik_Metal_State_Penalty>
0.634803

> <b_epik_Metal_Only>
0

> <s_lp_Force_Field>
OPLS_2005

> <r_lp_Energy>
16.9982

> <b_lp_Chiralities_Consistent>
1

> <s_lp_Variant>
AV-unprocessed.smi:3025-2

> <Gold.Version>
5.8.1

> <Gold.Id.Protein>
6NUR|6NUR_protein|mol2

> <Gold.PLP.Fitness>
43.3069

> <Gold.PLP.PLP>
-32.9698

> <Gold.PLP.part.hbond>
-3.0000

> <Gold.PLP.part.metal>
0.0000

> <Gold.PLP.part.buried>
-3.6032

> <Gold.PLP.part.nonpolar>
-27.6165

> <Gold.PLP.part.repulsive>
0.3674

> <Gold.PLP.ligand.clash>
0.0000

> <Gold.PLP.ligand.torsion>
0.8364

> <Gold.PLP.Chemscore.Hbond>
2.9760

> <Gold.PLP.Chemscore.CHOScore>
1.0000

> <Gold.PLP.Chemscore.Metal>
0.0000

> <Gold.Chemscore.Hbonds>
donor molecule, donor type, donor heavy atom, donor atom, acceptor molecule, acceptor atom, score
      L1  H     8    42       P1  7948  2.00
      P1  H  7989  7998       L1    13  1.00
      L1  C    14    37       P1  8028  0.29

> <Gold.PLP.Chemscore.Internal.Correction>
0.0818

> <Gold.Rescore>
     Score         DG    S(hbond)    S(metal)    S(lipo)     H(rot)  DE(clash)    DE(int)     intcor
     12.05     -13.13       1.81        0.00      69.78       2.56       0.31       0.77       ----

> <Gold.Chemscore.Fitness>
12.0487

> <Gold.Chemscore.DG>
-13.1302

> <Gold.Chemscore.ZeroCoef>
-5.4800

> <Gold.Chemscore.Hbond>
1.8085

> <Gold.Chemscore.Metal>
0.0000

> <Gold.Chemscore.Lipo>
69.7778

> <Gold.Chemscore.Internal_Hbond>
0.0000

> <Gold.Chemscore.DEClash>
0.3078

> <Gold.Chemscore.DEInternal>
0.7737

> <Gold.Chemscore.Rot>
2.5602

> <Gold.Chemscore.Internal.Correction>
   9.000000E+99

> <Gold.Chemscore.Hbonds>
donor molecule, donor type, donor heavy atom, donor atom, acceptor molecule, acceptor atom, score
      L1  H     8    42       P1  7948  1.00
      P1  H  7989  7998       L1    13  0.36

> <Gold.Chemscore.Hbond.Weighted>
-6.0404

> <Gold.Chemscore.Metal.Weighted>
-0.0000

> <Gold.Chemscore.Lipo.Weighted>
-8.1640

> <Gold.Chemscore.Internal_Hbond.Weighted>
0.0000

> <Gold.Chemscore.DEClash.Weighted>
0.3078

> <Gold.Chemscore.DEInternal.Weighted>
0.7737

> <Gold.Chemscore.Rot.Weighted>
6.5542

> <Gold.Chemscore.Internal.Correction.Weighted>
   9.000000E+99

> <Gold.Protein.RotatedTorsions>
[ 6907 6896 6895 6894 ] final  -93.57 input  -60.11 | X-H torsion
[ 7974 7965 7964 7962 ] final   75.50 input  175.53 | X-H torsion
[ 8008 7997 7996 7995 ] final  100.24 input   59.86 | X-H torsion
[ 10167 10162 10161 10158 ] final  -75.50 input  -65.29 | X-H torsion
[ 10718 10713 10712 10709 ] final  -49.09 input   66.30 | X-H torsion
[ 10763 10752 10751 10750 ] final   70.23 input  -60.55 | X-H torsion
[ 11005 11000 10999 10996 ] final  -98.82 input  -57.11 | X-H torsion

> <Gold.Protein.ActiveResidues>
 VAL166  LYS551  ARG553  GLY616  TRP617  ASP618  TYR619  PRO620  LYS621  CYS622 
 ASP623  PHE694  ASN695  SER759  ASP760  ASP761  ALA762  ILE779  LEU786  VAL792 
 PHE793  MET794  SER795  GLU796  ALA797  LYS798  CYS799  TRP800  GLU811  SER814 

> <Gold.Protein.RotatedAtoms>
  150.6925  134.1947  159.4298 H   0  0  0  0  0  0  0  0  0  0  0  0  # atno 6907 bound_to 6896
  151.9916  134.9974  160.0571 H   0  0  0  0  0  0  0  0  0  0  0  0  # atno 6908 bound_to 6896
  152.1662  133.4579  159.4923 H   0  0  0  0  0  0  0  0  0  0  0  0  # atno 6909 bound_to 6896
  145.7148  139.2627  143.1630 H   0  0  0  0  0  0  0  0  0  0  0  0  # atno 7974 bound_to 7965
  156.1184  140.3216  155.8172 H   0  0  0  0  0  0  0  0  0  0  0  0  # atno 8008 bound_to 7997
  155.4549  140.0535  157.3014 H   0  0  0  0  0  0  0  0  0  0  0  0  # atno 8009 bound_to 7997
  154.4809  140.2052  155.9779 H   0  0  0  0  0  0  0  0  0  0  0  0  # atno 8010 bound_to 7997
  140.4937  143.2375  151.7866 H   0  0  0  0  0  0  0  0  0  0  0  0  # atno 10167 bound_to 10162
  156.1926  130.4153  149.9351 H   0  0  0  0  0  0  0  0  0  0  0  0  # atno 10718 bound_to 10713
  153.0330  135.5181  154.7410 H   0  0  0  0  0  0  0  0  0  0  0  0  # atno 10763 bound_to 10752
  154.6409  135.2912  155.0106 H   0  0  0  0  0  0  0  0  0  0  0  0  # atno 10764 bound_to 10752
  154.1024  135.6634  153.4923 H   0  0  0  0  0  0  0  0  0  0  0  0  # atno 10765 bound_to 10752
  141.1331  133.8274  157.0890 H   0  0  0  0  0  0  0  0  0  0  0  0  # atno 11005 bound_to 11000
  146.0680  140.7900  142.9702 LP  0  0  0  0  0  0  0  0  0  0  0  0  # atno 17320 bound_to 7965
  144.6932  140.3298  143.7218 LP  0  0  0  0  0  0  0  0  0  0  0  0  # atno 17321 bound_to 7965
  139.4856  144.4615  151.9535 LP  0  0  0  0  0  0  0  0  0  0  0  0  # atno 17342 bound_to 10162
  140.3703  144.2864  150.5921 LP  0  0  0  0  0  0  0  0  0  0  0  0  # atno 17343 bound_to 10162
  156.7086  130.8961  151.3607 LP  0  0  0  0  0  0  0  0  0  0  0  0  # atno 17370 bound_to 10713
  157.6938  130.9261  150.0587 LP  0  0  0  0  0  0  0  0  0  0  0  0  # atno 17371 bound_to 10713
  140.0404  134.9857  157.0950 LP  0  0  0  0  0  0  0  0  0  0  0  0  # atno 17394 bound_to 11000
  140.4145  134.1946  155.7163 LP  0  0  0  0  0  0  0  0  0  0  0  0  # atno 17395 bound_to 11000

$$$$
