AV-unprocessed.smi:2398|AV-procd|sdf|9498|dock4
  -GOLD-   2272013123D 1   1.00000     0.00000
 Structure written by MMmdl.
 34 35  0  0  0  0  0  0  0  0  1 V2000
  150.7663  140.5918  156.3889 O   0  0  0  0  0  0  0  0  0  0  0  0
  150.2385  141.7010  156.3133 C   0  0  0  0  0  0  0  0  0  0  0  0
  150.4722  142.7365  157.1383 N   0  0  0  0  0  0  0  0  0  0  0  0
  151.3611  142.8247  158.2463 C   0  0  0  0  0  0  0  0  0  0  0  0
  152.0378  141.7220  158.8235 C   0  0  0  0  0  0  0  0  0  0  0  0
  152.9026  141.9543  159.9120 C   0  0  0  0  0  0  0  0  0  0  0  0
  153.1284  143.1773  160.4362 N   0  0  0  0  0  0  0  0  0  0  0  0
  152.4906  144.2273  159.8776 C   0  0  0  0  0  0  0  0  0  0  0  0
  151.6067  144.1052  158.7868 C   0  0  0  0  0  0  0  0  0  0  0  0
  151.0038  145.2037  158.2713 F   0  0  0  0  0  0  0  0  0  0  0  0
  149.3310  142.0225  155.3793 N   0  0  0  0  0  0  0  0  0  0  0  0
  148.8578  141.1326  154.3226 C   0  0  1  0  0  0  0  0  0  0  0  0
  148.6137  139.7254  154.8970 C   0  0  0  0  0  0  0  0  0  0  0  0
  148.0738  138.7652  153.8218 C   0  0  0  0  0  0  0  0  0  0  0  0
  146.8077  139.3102  153.1338 C   0  0  1  0  0  0  0  0  0  0  0  0
  145.7177  139.2845  154.0340 O   0  0  0  0  0  0  0  0  0  0  0  0
  147.0203  140.7406  152.6029 C   0  0  0  0  0  0  0  0  0  0  0  0
  147.5704  141.6893  153.6824 C   0  0  0  0  0  0  0  0  0  0  0  0
  149.6280  141.0515  153.5529 H   0  0  0  0  0  0  0  0  0  0  0  0
  146.5452  138.6573  152.3006 H   0  0  0  0  0  0  0  0  0  0  0  0
  149.9141  143.5622  156.9762 H   0  0  0  0  0  0  0  0  0  0  0  0
  151.9258  140.7145  158.4561 H   0  0  0  0  0  0  0  0  0  0  0  0
  153.4327  141.1329  160.3713 H   0  0  0  0  0  0  0  0  0  0  0  0
  152.6925  145.1955  160.3116 H   0  0  0  0  0  0  0  0  0  0  0  0
  148.9441  142.9549  155.3932 H   0  0  0  0  0  0  0  0  0  0  0  0
  149.5403  139.3255  155.3101 H   0  0  0  0  0  0  0  0  0  0  0  0
  147.9064  139.7799  155.7261 H   0  0  0  0  0  0  0  0  0  0  0  0
  148.8474  138.6106  153.0687 H   0  0  0  0  0  0  0  0  0  0  0  0
  147.8764  137.7855  154.2582 H   0  0  0  0  0  0  0  0  0  0  0  0
  144.9504  139.6064  153.5860 H   0  0  0  0  0  0  0  0  0  0  0  0
  147.7245  140.7091  151.7706 H   0  0  0  0  0  0  0  0  0  0  0  0
  146.0885  141.1356  152.1960 H   0  0  0  0  0  0  0  0  0  0  0  0
  146.8125  141.8435  154.4515 H   0  0  0  0  0  0  0  0  0  0  0  0
  147.7625  142.6677  153.2406 H   0  0  0  0  0  0  0  0  0  0  0  0
  1  2  2  0  0  0  0
  2  3  1  0  0  0  0
  2 11  1  0  0  0  0
  3  4  1  0  0  0  0
  3 21  1  0  0  0  0
  4  9  1  0  0  0  0
  4  5  2  0  0  0  0
  5  6  1  0  0  0  0
  5 22  1  0  0  0  0
  6  7  2  0  0  0  0
  6 23  1  0  0  0  0
  7  8  1  0  0  0  0
  8  9  2  0  0  0  0
  8 24  1  0  0  0  0
  9 10  1  0  0  0  0
 11 12  1  0  0  0  0
 11 25  1  0  0  0  0
 12 19  1  0  0  0  0
 12 18  1  0  0  0  0
 12 13  1  0  0  0  0
 13 14  1  0  0  0  0
 13 26  1  0  0  0  0
 13 27  1  0  0  0  0
 14 15  1  0  0  0  0
 14 28  1  0  0  0  0
 14 29  1  0  0  0  0
 15 20  1  0  0  0  0
 15 16  1  0  0  0  0
 15 17  1  0  0  0  0
 16 30  1  0  0  0  0
 17 18  1  0  0  0  0
 17 31  1  0  0  0  0
 17 32  1  0  0  0  0
 18 33  1  0  0  0  0
 18 34  1  0  0  0  0
M  END
> <s_m_source_file>
AV-unprocessed.smi

> <i_m_source_file_index>
2398

> <i_lp_mmshare_version>
43012

> <i_f3d_flags>
0

> <s_epik_input>
W0NIMl0xW0NIMl1bQ0BASF0oW09IXSlbQ0gyXVtDSDJdW0NAQEhdMVtOSF1DKD1PKVtOSF1jMltjSF1bY0hdbltjSF1jMkY=

> <s_epik_cmdline>
J2VwaWtfcHl0aG9uJywgJy1waCcsICc3LjAnLCAnLXRuJywgJzgnLCAnLW1hJywgJzIwMCcsICctbWV0YWxfYmluZGluZycsICctaW1hZScsICc8aW5maWxlLm1hZT4nLCAnLW9tYWUnLCAnPG91dGZpbGUubWFlPic=

> <r_epik_Ionization_Penalty>
0.00343298

> <r_epik_Ionization_Penalty_Charging>
0

> <r_epik_Ionization_Penalty_Neutral>
0.00343298

> <r_epik_State_Penalty>
0.00240232

> <r_epik_Charging_Adjusted_Penalty>
0.00240232

> <i_epik_Tot_Q>
0

> <i_epik_Tot_abs_Q>
0

> <r_epik_Metal_State_Penalty>
-0

> <b_epik_Metal_Only>
0

> <s_lp_Force_Field>
OPLS_2005

> <r_lp_Energy>
16.4629

> <b_lp_Chiralities_Consistent>
1

> <s_lp_Variant>
AV-unprocessed.smi:2398-2

> <Gold.Version>
5.8.1

> <Gold.Id.Protein>
6NUR|6NUR_protein|mol2

> <Gold.PLP.Fitness>
44.2590

> <Gold.PLP.PLP>
-35.8381

> <Gold.PLP.part.hbond>
-3.0000

> <Gold.PLP.part.metal>
0.0000

> <Gold.PLP.part.buried>
-5.1072

> <Gold.PLP.part.nonpolar>
-28.0247

> <Gold.PLP.part.repulsive>
0.2040

> <Gold.PLP.ligand.clash>
0.0000

> <Gold.PLP.ligand.torsion>
0.2424

> <Gold.PLP.Chemscore.Hbond>
2.9675

> <Gold.PLP.Chemscore.CHOScore>
0.0000

> <Gold.PLP.Chemscore.Metal>
0.0000

> <Gold.Chemscore.Hbonds>
donor molecule, donor type, donor heavy atom, donor atom, acceptor molecule, acceptor atom, score
      L1  H     3    21       P1  8028  0.98
      L1  H    11    25       P1  8028  1.00
      L1  H    16    30       P1 10175  1.00

> <Gold.PLP.Chemscore.Internal.Correction>
0.0032

> <Gold.Rescore>
     Score         DG    S(hbond)    S(metal)    S(lipo)     H(rot)  DE(clash)    DE(int)     intcor
     19.26     -22.52       2.93        0.00      94.08       1.47       0.47       2.79       ----

> <Gold.Chemscore.Fitness>
19.2594

> <Gold.Chemscore.DG>
-22.5191

> <Gold.Chemscore.ZeroCoef>
-5.4800

> <Gold.Chemscore.Hbond>
2.9291

> <Gold.Chemscore.Metal>
0.0000

> <Gold.Chemscore.Lipo>
94.0775

> <Gold.Chemscore.Internal_Hbond>
0.0000

> <Gold.Chemscore.DEClash>
0.4738

> <Gold.Chemscore.DEInternal>
2.7858

> <Gold.Chemscore.Rot>
1.4653

> <Gold.Chemscore.Internal.Correction>
   9.000000E+99

> <Gold.Chemscore.Hbonds>
donor molecule, donor type, donor heavy atom, donor atom, acceptor molecule, acceptor atom, score
      L1  H     3    21       P1  8028  0.87
      L1  H    11    25       P1  8028  0.99
      L1  H    16    30       P1 10175  1.00

> <Gold.Chemscore.Hbond.Weighted>
-9.7831

> <Gold.Chemscore.Metal.Weighted>
-0.0000

> <Gold.Chemscore.Lipo.Weighted>
-11.0071

> <Gold.Chemscore.Internal_Hbond.Weighted>
0.0000

> <Gold.Chemscore.DEClash.Weighted>
0.4738

> <Gold.Chemscore.DEInternal.Weighted>
2.7858

> <Gold.Chemscore.Rot.Weighted>
3.7511

> <Gold.Chemscore.Internal.Correction.Weighted>
   9.000000E+99

> <Gold.Protein.RotatedTorsions>
[ 6907 6896 6895 6894 ] final -110.69 input  -60.11 | X-H torsion
[ 7974 7965 7964 7962 ] final  150.97 input  175.53 | X-H torsion
[ 8008 7997 7996 7995 ] final   89.72 input   59.86 | X-H torsion
[ 10167 10162 10161 10158 ] final -144.71 input  -65.29 | X-H torsion
[ 10718 10713 10712 10709 ] final   26.36 input   66.30 | X-H torsion
[ 10763 10752 10751 10750 ] final   98.38 input  -60.55 | X-H torsion
[ 11005 11000 10999 10996 ] final -172.72 input  -57.11 | X-H torsion

> <Gold.Protein.ActiveResidues>
 VAL166  LYS551  ARG553  GLY616  TRP617  ASP618  TYR619  PRO620  LYS621  CYS622 
 ASP623  PHE694  ASN695  SER759  ASP760  ASP761  ALA762  ILE779  LEU786  VAL792 
 PHE793  MET794  SER795  GLU796  ALA797  LYS798  CYS799  TRP800  GLU811  SER814 

> <Gold.Protein.RotatedAtoms>
  150.7641  133.9344  159.3436 H   0  0  0  0  0  0  0  0  0  0  0  0  # atno 6907 bound_to 6896
  151.7246  135.0885  160.0299 H   0  0  0  0  0  0  0  0  0  0  0  0  # atno 6908 bound_to 6896
  152.3628  133.6281  159.6064 H   0  0  0  0  0  0  0  0  0  0  0  0  # atno 6909 bound_to 6896
  144.8326  139.6477  143.6052 H   0  0  0  0  0  0  0  0  0  0  0  0  # atno 7974 bound_to 7965
  156.0033  140.3357  155.6867 H   0  0  0  0  0  0  0  0  0  0  0  0  # atno 8008 bound_to 7997
  155.6259  140.0680  157.2681 H   0  0  0  0  0  0  0  0  0  0  0  0  # atno 8009 bound_to 7997
  154.4256  140.1768  156.1409 H   0  0  0  0  0  0  0  0  0  0  0  0  # atno 8010 bound_to 7997
  139.7873  143.8016  152.2646 H   0  0  0  0  0  0  0  0  0  0  0  0  # atno 10167 bound_to 10162
  157.2058  130.6911  149.6207 H   0  0  0  0  0  0  0  0  0  0  0  0  # atno 10718 bound_to 10713
  153.2884  135.4150  155.1144 H   0  0  0  0  0  0  0  0  0  0  0  0  # atno 10763 bound_to 10752
  154.8512  135.3512  154.6015 H   0  0  0  0  0  0  0  0  0  0  0  0  # atno 10764 bound_to 10752
  153.6437  135.7056  153.5290 H   0  0  0  0  0  0  0  0  0  0  0  0  # atno 10765 bound_to 10752
  140.4938  134.5959  157.4964 H   0  0  0  0  0  0  0  0  0  0  0  0  # atno 11005 bound_to 11000
  146.2627  139.6448  142.9350 LP  0  0  0  0  0  0  0  0  0  0  0  0  # atno 17320 bound_to 7965
  145.4864  141.0438  143.2617 LP  0  0  0  0  0  0  0  0  0  0  0  0  # atno 17321 bound_to 7965
  139.8096  144.7341  150.9715 LP  0  0  0  0  0  0  0  0  0  0  0  0  # atno 17342 bound_to 10162
  140.7820  143.4263  151.0762 LP  0  0  0  0  0  0  0  0  0  0  0  0  # atno 17343 bound_to 10162
  155.9695  130.4567  150.5937 LP  0  0  0  0  0  0  0  0  0  0  0  0  # atno 17370 bound_to 10713
  157.3722  131.0767  151.1548 LP  0  0  0  0  0  0  0  0  0  0  0  0  # atno 17371 bound_to 10713
  139.9753  134.7225  155.9961 LP  0  0  0  0  0  0  0  0  0  0  0  0  # atno 17394 bound_to 11000
  141.1471  133.6554  156.3899 LP  0  0  0  0  0  0  0  0  0  0  0  0  # atno 17395 bound_to 11000

$$$$
