#       Name:                AV-unprocessed.smi:1960
#       Creating user name   scv26
#       Creation time:       Fri Mar 27 10:08:24 2020


#       File generated by GOLD software.
#

@<TRIPOS>MOLECULE
AV-unprocessed.smi:1960
    41    42     1
SMALL
NO_CHARGES


@<TRIPOS>ATOM
      1 ****        -3.2875   3.2706  -0.4263 C.3            1 S1                 0.0000
      2 ****        -4.6897   2.0837  -0.3341 S.o2           1 S1                 0.0000
      3 ****        -5.5199   2.4436   0.8257 O.2            1 S1                 0.0000
      4 ****        -5.3018   1.9926  -1.6686 O.2            1 S1                 0.0000
      5 ****        -3.9300   0.5556   0.0084 N.pl3          1 S1                 0.0000
      6 ****        -3.2236  -0.1734  -1.0640 C.3            1 S1                 0.0000
      7 ****        -1.6978   0.0001  -0.9617 C.3            1 S1                 0.0000
      8 ****        -1.1813  -0.3852   0.4351 C.3            1 S1                 0.0000
      9 ****         0.2554  -0.1467   0.5454 N.am           1 S1                 0.0000
     10 ****         1.2121  -0.9788   0.1091 C.2            1 S1                 0.0000
     11 ****         0.9768  -2.0484  -0.4523 O.2            1 S1                 0.0000
     12 ****         2.4378  -0.4801   0.3471 N.am           1 S1                 0.0000
     13 ****         3.7023  -1.0572   0.0477 C.ar           1 S1                 0.0000
     14 ****         4.8139  -0.1893  -0.0354 C.ar           1 S1                 0.0000
     15 ****         6.0906  -0.7183  -0.3145 C.ar           1 S1                 0.0000
     16 ****         6.2437  -2.0483  -0.4901 N.pl3          1 S1                 1.0000
     17 ****         5.2149  -2.9188  -0.4060 C.ar           1 S1                 0.0000
     18 ****         3.9149  -2.4485  -0.1293 C.ar           1 S1                 0.0000
     19 ****        -1.9286   0.4368   1.4952 C.3            1 S1                 0.0000
     20 ****        -3.4522   0.2578   1.3737 C.3            1 S1                 0.0000
     21 ****        -3.6780   4.2654  -0.6388 H              1 S1                 0.0000
     22 ****        -2.6078   2.9807  -1.2256 H              1 S1                 0.0000
     23 ****        -2.7585   3.2952   0.5247 H              1 S1                 0.0000
     24 ****        -3.4750  -1.2315  -0.9830 H              1 S1                 0.0000
     25 ****        -3.5775   0.1519  -2.0418 H              1 S1                 0.0000
     26 ****        -1.2156  -0.6139  -1.7231 H              1 S1                 0.0000
     27 ****        -1.4248   1.0305  -1.1867 H              1 S1                 0.0000
     28 ****        -1.3840  -1.4431   0.6136 H              1 S1                 0.0000
     29 ****         0.5380   0.7144   0.9901 H              1 S1                 0.0000
     30 ****         2.4681   0.4491   0.7403 H              1 S1                 0.0000
     31 ****         4.6924   0.8749   0.1066 H              1 S1                 0.0000
     32 ****         6.9874  -0.1222  -0.3998 H              1 S1                 0.0000
     33 ****         5.4613  -3.9601  -0.5547 H              1 S1                 0.0000
     34 ****         3.1117  -3.1646  -0.0461 H              1 S1                 0.0000
     35 ****        -1.6075   0.1360   2.4931 H              1 S1                 0.0000
     36 ****        -1.6704   1.4909   1.3988 H              1 S1                 0.0000
     37 ****        -3.9671   0.8836   2.1020 H              1 S1                 0.0000
     38 ****        -3.7179  -0.7724   1.6131 H              1 S1                 0.0000
     39 ****         7.1762  -2.4116  -0.6896 H              1 S1                 0.0000
     40 ****         0.0311  -2.3362  -0.6037 LP             1 S1                 0.0000
     41 ****         1.7312  -2.6297  -0.7570 LP             1 S1                 0.0000
@<TRIPOS>BOND
    1    1    2 1     
    2    1   21 1     
    3    1   22 1     
    4    1   23 1     
    5    2    3 2     
    6    2    4 2     
    7    2    5 1     
    8    5   20 1     
    9    5    6 1     
   10    6    7 1     
   11    6   24 1     
   12    6   25 1     
   13    7    8 1     
   14    7   26 1     
   15    7   27 1     
   16    8    9 1     
   17    8   19 1     
   18    8   28 1     
   19    9   10 am    
   20    9   29 1     
   21   10   11 2     
   22   10   12 am    
   23   12   13 1     
   24   12   30 1     
   25   13   18 ar    
   26   13   14 ar    
   27   14   15 ar    
   28   14   31 1     
   29   15   16 ar    
   30   15   32 1     
   31   16   17 ar    
   32   16   39 1     
   33   17   18 ar    
   34   17   33 1     
   35   18   34 1     
   36   19   20 1     
   37   19   35 1     
   38   19   36 1     
   39   20   37 1     
   40   20   38 1     
   41   11   40 1     
   42   11   41 1     
@<TRIPOS>SUBSTRUCTURE
      1 S1             1
@<TRIPOS>SET
LONE_PAIRS      STATIC     ATOMS    <user>   **** ""
4 3 4 40 41
DONOR_HYDROGENS      STATIC     ATOMS    <user>   **** ""
3 29 30 39
ATOM$BLUE        STATIC     ATOMS    COLORGROUP SYSTEM
4 3 4 40 41
ATOM$RED        STATIC     ATOMS    COLORGROUP SYSTEM
3 29 30 39
