AV-unprocessed.smi:1048|AV-procd|sdf|4605|dock6
  -GOLD-   22720 3103D 1   1.00000     0.00000
 Structure written by MMmdl.
 46 47  0  0  0  0  0  0  0  0  2 V2000
  141.8931  141.6142  156.9788 C   0  0  0  0  0  0  0  0  0  0  0  0
  143.3343  141.8843  156.5238 C   0  0  2  0  0  0  0  0  0  0  0  0
  143.3815  142.8341  155.3148 C   0  0  0  0  0  0  0  0  0  0  0  0
  144.8262  143.0688  154.8428 C   0  0  0  0  0  0  0  0  0  0  0  0
  145.4960  141.7843  154.5163 N   0  3  1  0  0  0  0  0  0  0  0  0
  146.8392  141.9805  153.9118 C   0  0  0  0  0  0  0  0  0  0  0  0
  147.7357  140.7340  154.0587 C   0  0  1  0  0  0  0  0  0  0  0  0
  147.4682  139.8923  152.9535 O   0  0  0  0  0  0  0  0  0  0  0  0
  149.2324  141.1049  154.0476 C   0  0  0  0  0  0  0  0  0  0  0  0
  149.5600  142.0720  155.0902 N   0  0  0  0  0  0  0  0  0  0  0  0
  150.4173  141.8557  156.0975 C   0  0  0  0  0  0  0  0  0  0  0  0
  151.0335  140.8009  156.2471 O   0  0  0  0  0  0  0  0  0  0  0  0
  150.4889  142.9233  156.9109 N   0  0  0  0  0  0  0  0  0  0  0  0
  151.2696  143.0920  158.0866 C   0  0  0  0  0  0  0  0  0  0  0  0
  151.4077  144.3959  158.6053 C   0  0  0  0  0  0  0  0  0  0  0  0
  152.1882  144.5975  159.7593 C   0  0  0  0  0  0  0  0  0  0  0  0
  152.8117  143.4810  160.3487 C   0  0  0  0  0  0  0  0  0  0  0  0
  152.7030  142.2285  159.8583 N   0  0  0  0  0  0  0  0  0  0  0  0
  151.9512  142.0423  158.7519 C   0  0  0  0  0  0  0  0  0  0  0  0
  145.5035  140.8628  155.6834 C   0  0  0  0  0  0  0  0  0  0  0  0
  144.0737  140.5812  156.1753 C   0  0  0  0  0  0  0  0  0  0  0  0
  141.3105  141.1369  156.1903 H   0  0  0  0  0  0  0  0  0  0  0  0
  141.3865  142.5406  157.2510 H   0  0  0  0  0  0  0  0  0  0  0  0
  141.8725  140.9589  157.8502 H   0  0  0  0  0  0  0  0  0  0  0  0
  143.8597  142.3622  157.3522 H   0  0  0  0  0  0  0  0  0  0  0  0
  142.7950  142.4186  154.4940 H   0  0  0  0  0  0  0  0  0  0  0  0
  142.9201  143.7885  155.5709 H   0  0  0  0  0  0  0  0  0  0  0  0
  144.8116  143.7120  153.9621 H   0  0  0  0  0  0  0  0  0  0  0  0
  145.3962  143.5937  155.6111 H   0  0  0  0  0  0  0  0  0  0  0  0
  146.7400  142.2125  152.8500 H   0  0  0  0  0  0  0  0  0  0  0  0
  147.3114  142.8528  154.3666 H   0  0  0  0  0  0  0  0  0  0  0  0
  147.4993  140.2026  154.9804 H   0  0  0  0  0  0  0  0  0  0  0  0
  148.0734  140.1010  152.2576 H   0  0  0  0  0  0  0  0  0  0  0  0
  149.8669  140.2184  154.1057 H   0  0  0  0  0  0  0  0  0  0  0  0
  149.4784  141.5885  153.1017 H   0  0  0  0  0  0  0  0  0  0  0  0
  149.0968  142.9679  155.0446 H   0  0  0  0  0  0  0  0  0  0  0  0
  149.8669  143.6879  156.6935 H   0  0  0  0  0  0  0  0  0  0  0  0
  150.9186  145.2334  158.1293 H   0  0  0  0  0  0  0  0  0  0  0  0
  152.3068  145.5841  160.1819 H   0  0  0  0  0  0  0  0  0  0  0  0
  153.4189  143.5979  161.2341 H   0  0  0  0  0  0  0  0  0  0  0  0
  151.9250  141.0251  158.3950 H   0  0  0  0  0  0  0  0  0  0  0  0
  145.9781  139.9184  155.4201 H   0  0  0  0  0  0  0  0  0  0  0  0
  146.0971  141.2983  156.4889 H   0  0  0  0  0  0  0  0  0  0  0  0
  144.1092  139.9284  157.0482 H   0  0  0  0  0  0  0  0  0  0  0  0
  143.5249  140.0371  155.4051 H   0  0  0  0  0  0  0  0  0  0  0  0
  144.9300  141.3499  153.8007 H   0  0  0  0  0  0  0  0  0  0  0  0
  1  2  1  0  0  0  0
  1 22  1  0  0  0  0
  1 23  1  0  0  0  0
  1 24  1  0  0  0  0
  2 21  1  0  0  0  0
  2  3  1  0  0  0  0
  2 25  1  0  0  0  0
  3  4  1  0  0  0  0
  3 26  1  0  0  0  0
  3 27  1  0  0  0  0
  4  5  1  0  0  0  0
  4 28  1  0  0  0  0
  4 29  1  0  0  0  0
  5  6  1  0  0  0  0
  5 20  1  0  0  0  0
  5 46  1  0  0  0  0
  6  7  1  0  0  0  0
  6 30  1  0  0  0  0
  6 31  1  0  0  0  0
  7  8  1  0  0  0  0
  7  9  1  0  0  0  0
  7 32  1  0  0  0  0
  8 33  1  0  0  0  0
  9 10  1  0  0  0  0
  9 34  1  0  0  0  0
  9 35  1  0  0  0  0
 10 11  1  0  0  0  0
 10 36  1  0  0  0  0
 11 12  2  0  0  0  0
 11 13  1  0  0  0  0
 13 14  1  0  0  0  0
 13 37  1  0  0  0  0
 14 19  1  0  0  0  0
 14 15  2  0  0  0  0
 15 16  1  0  0  0  0
 15 38  1  0  0  0  0
 16 17  2  0  0  0  0
 16 39  1  0  0  0  0
 17 18  1  0  0  0  0
 17 40  1  0  0  0  0
 18 19  2  0  0  0  0
 19 41  1  0  0  0  0
 20 21  1  0  0  0  0
 20 42  1  0  0  0  0
 20 43  1  0  0  0  0
 21 44  1  0  0  0  0
 21 45  1  0  0  0  0
M  CHG  1   5   1
M  END
> <s_m_source_file>
AV-unprocessed.smi

> <i_m_source_file_index>
1048

> <i_lp_mmshare_version>
43012

> <i_f3d_flags>
0

> <s_epik_input>
W0NIM11bQ0hdMVtDSDJdW0NIMl1OKFtDSDJdW0NIMl0xKVtDSDJdW0NASF0oW09IXSlbQ0gyXVtOSF1DKD1PKVtOSF1jMltjSF1bY0hdW2NIXW5bY0hdMg==

> <s_epik_cmdline>
J2VwaWtfcHl0aG9uJywgJy1waCcsICc3LjAnLCAnLXRuJywgJzgnLCAnLW1hJywgJzIwMCcsICctbWV0YWxfYmluZGluZycsICctaW1hZScsICc8aW5maWxlLm1hZT4nLCAnLW9tYWUnLCAnPG91dGZpbGUubWFlPic=

> <r_lp_tautomer_probability>
1

> <r_epik_Ionization_Penalty>
0.00581049

> <r_epik_Ionization_Penalty_Charging>
0.00147689

> <r_epik_Ionization_Penalty_Neutral>
0.0043336

> <r_epik_State_Penalty>
-0

> <r_epik_Charging_Adjusted_Penalty>
0.00147689

> <i_epik_Tot_Q>
1

> <i_epik_Tot_abs_Q>
1

> <r_epik_Metal_State_Penalty>
-0

> <b_epik_Metal_Only>
0

> <s_lp_Force_Field>
OPLS_2005

> <r_lp_Energy>
22.9407

> <b_lp_Chiralities_Consistent>
1

> <s_lp_Variant>
AV-unprocessed.smi:1048-2

> <Gold.Version>
5.8.1

> <Gold.Id.Protein>
6NUR|6NUR_protein|mol2

> <Gold.PLP.Fitness>
51.5188

> <Gold.PLP.PLP>
-37.7706

> <Gold.PLP.part.hbond>
-3.9788

> <Gold.PLP.part.metal>
0.0000

> <Gold.PLP.part.buried>
-5.0223

> <Gold.PLP.part.nonpolar>
-28.8116

> <Gold.PLP.part.repulsive>
0.2624

> <Gold.PLP.ligand.clash>
0.0000

> <Gold.PLP.ligand.torsion>
0.6451

> <Gold.PLP.Chemscore.Hbond>
5.0000

> <Gold.PLP.Chemscore.CHOScore>
0.0000

> <Gold.PLP.Chemscore.Metal>
0.0000

> <Gold.Chemscore.Hbonds>
donor molecule, donor type, donor heavy atom, donor atom, acceptor molecule, acceptor atom, score
      L1  H     5    46       P1 10175  2.00
      L1  H     8    33       P1  7957  1.00
      L1  H    10    36       P1  8028  1.00
      L1  H    13    37       P1  8028  1.00

> <Gold.PLP.Chemscore.Internal.Correction>
0.0383

> <Gold.Rescore>
     Score         DG    S(hbond)    S(metal)    S(lipo)     H(rot)  DE(clash)    DE(int)     intcor
     20.44     -22.37       3.65        0.00      90.23       2.29       0.10       1.84       ----

> <Gold.Chemscore.Fitness>
20.4389

> <Gold.Chemscore.DG>
-22.3706

> <Gold.Chemscore.ZeroCoef>
-5.4800

> <Gold.Chemscore.Hbond>
3.6490

> <Gold.Chemscore.Metal>
0.0000

> <Gold.Chemscore.Lipo>
90.2280

> <Gold.Chemscore.Internal_Hbond>
0.0000

> <Gold.Chemscore.DEClash>
0.0959

> <Gold.Chemscore.DEInternal>
1.8358

> <Gold.Chemscore.Rot>
2.2865

> <Gold.Chemscore.Internal.Correction>
   9.000000E+99

> <Gold.Chemscore.Hbonds>
donor molecule, donor type, donor heavy atom, donor atom, acceptor molecule, acceptor atom, score
      L1  H     5    46       P1 10175  0.34
      L1  H     8    33       P1  7957  1.00
      L1  H    10    36       P1  8028  0.95
      L1  H    13    37       P1  8028  0.99

> <Gold.Chemscore.Hbond.Weighted>
-12.1875

> <Gold.Chemscore.Metal.Weighted>
-0.0000

> <Gold.Chemscore.Lipo.Weighted>
-10.5567

> <Gold.Chemscore.Internal_Hbond.Weighted>
0.0000

> <Gold.Chemscore.DEClash.Weighted>
0.0959

> <Gold.Chemscore.DEInternal.Weighted>
1.8358

> <Gold.Chemscore.Rot.Weighted>
5.8536

> <Gold.Chemscore.Internal.Correction.Weighted>
   9.000000E+99

> <Gold.Protein.RotatedTorsions>
[ 6907 6896 6895 6894 ] final   99.98 input  -60.11 | X-H torsion
[ 7974 7965 7964 7962 ] final   60.20 input  175.53 | X-H torsion
[ 8008 7997 7996 7995 ] final  -13.45 input   59.86 | X-H torsion
[ 10167 10162 10161 10158 ] final  162.25 input  -65.29 | X-H torsion
[ 10718 10713 10712 10709 ] final   61.99 input   66.30 | X-H torsion
[ 10763 10752 10751 10750 ] final   74.25 input  -60.55 | X-H torsion
[ 11005 11000 10999 10996 ] final -118.31 input  -57.11 | X-H torsion

> <Gold.Protein.ActiveResidues>
 VAL166  LYS551  ARG553  GLY616  TRP617  ASP618  TYR619  PRO620  LYS621  CYS622 
 ASP623  PHE694  ASN695  SER759  ASP760  ASP761  ALA762  ILE779  LEU786  VAL792 
 PHE793  MET794  SER795  GLU796  ALA797  LYS798  CYS799  TRP800  GLU811  SER814 

> <Gold.Protein.RotatedAtoms>
  152.5381  134.0346  159.8039 H   0  0  0  0  0  0  0  0  0  0  0  0  # atno 6907 bound_to 6896
  151.0511  133.5615  159.2649 H   0  0  0  0  0  0  0  0  0  0  0  0  # atno 6908 bound_to 6896
  151.2549  135.0642  159.9130 H   0  0  0  0  0  0  0  0  0  0  0  0  # atno 6909 bound_to 6896
  145.8987  139.3564  143.0606 H   0  0  0  0  0  0  0  0  0  0  0  0  # atno 7974 bound_to 7965
  154.5291  140.2249  155.8836 H   0  0  0  0  0  0  0  0  0  0  0  0  # atno 8008 bound_to 7997
  156.1745  140.3114  155.8998 H   0  0  0  0  0  0  0  0  0  0  0  0  # atno 8009 bound_to 7997
  155.3488  140.0454  157.3036 H   0  0  0  0  0  0  0  0  0  0  0  0  # atno 8010 bound_to 7997
  139.4858  144.4456  151.8895 H   0  0  0  0  0  0  0  0  0  0  0  0  # atno 10167 bound_to 10162
  157.5868  130.9025  149.9531 H   0  0  0  0  0  0  0  0  0  0  0  0  # atno 10718 bound_to 10713
  153.0575  135.5032  154.8015 H   0  0  0  0  0  0  0  0  0  0  0  0  # atno 10763 bound_to 10752
  154.6830  135.2971  154.9589 H   0  0  0  0  0  0  0  0  0  0  0  0  # atno 10764 bound_to 10752
  154.0369  135.6722  153.4839 H   0  0  0  0  0  0  0  0  0  0  0  0  # atno 10765 bound_to 10752
  141.0294  134.0004  157.3165 H   0  0  0  0  0  0  0  0  0  0  0  0  # atno 11005 bound_to 11000
  145.8819  140.9358  143.0597 LP  0  0  0  0  0  0  0  0  0  0  0  0  # atno 17320 bound_to 7965
  144.6734  140.0790  143.7470 LP  0  0  0  0  0  0  0  0  0  0  0  0  # atno 17321 bound_to 7965
  140.3910  144.2615  150.5899 LP  0  0  0  0  0  0  0  0  0  0  0  0  # atno 17342 bound_to 10162
  140.5145  143.2281  151.8484 LP  0  0  0  0  0  0  0  0  0  0  0  0  # atno 17343 bound_to 10162
  156.0918  130.3662  150.0380 LP  0  0  0  0  0  0  0  0  0  0  0  0  # atno 17370 bound_to 10713
  156.8510  130.9459  151.3625 LP  0  0  0  0  0  0  0  0  0  0  0  0  # atno 17371 bound_to 10713
  139.9198  135.0199  156.8020 LP  0  0  0  0  0  0  0  0  0  0  0  0  # atno 17394 bound_to 11000
  140.6433  133.9798  155.7718 LP  0  0  0  0  0  0  0  0  0  0  0  0  # atno 17395 bound_to 11000

$$$$
