#       Name:                AV-unprocessed.smi:1752
#       Creating user name   scv26
#       Creation time:       Fri Mar 27 08:27:35 2020


#       File generated by GOLD software.
#

@<TRIPOS>MOLECULE
AV-unprocessed.smi:1752
    46    47     1
SMALL
NO_CHARGES


@<TRIPOS>ATOM
      1 ****        -3.3814  -0.0402   1.0726 C.3            1 S1                 0.0000
      2 ****        -2.2529   0.2772   0.0772 C.3            1 S1                 0.0000
      3 ****        -2.4343  -0.4001  -1.2962 C.3            1 S1                 0.0000
      4 ****        -3.6938  -0.0574  -1.9321 N.pl3          1 S1                 0.0000
      5 ****        -4.0437   1.1212  -2.5568 C.2            1 S1                 0.0000
      6 ****        -5.3269   0.9800  -3.0016 C.2            1 S1                 0.0000
      7 ****        -5.6809  -0.3380  -2.5986 C.2            1 S1                 0.0000
      8 ****        -4.7006  -0.9573  -1.9608 N.2            1 S1                 0.0000
      9 ****        -0.9750  -0.1405   0.6483 N.am           1 S1                 0.0000
     10 ****         0.0472   0.6631   0.9923 C.2            1 S1                 0.0000
     11 ****        -0.0065   1.8891   0.8877 O.2            1 S1                 0.0000
     12 ****         1.1144   0.0141   1.5230 N.am           1 S1                 0.0000
     13 ****         1.3580  -1.4377   1.3660 C.3            1 S1                 0.0000
     14 ****         2.8539  -1.8307   1.3337 C.3            1 S1                 0.0000
     15 ****         3.6875  -1.1531   0.2243 C.3            1 S1                 0.0000
     16 ****         3.4105   0.2948   0.0216 N.4            1 S1                 1.0000
     17 ****         4.2976   0.8836  -1.0057 C.3            1 S1                 0.0000
     18 ****         3.3618   1.1178   1.2603 C.3            1 S1                 0.0000
     19 ****         2.1828   0.7690   2.2001 C.3            1 S1                 0.0000
     20 ****        -4.3474   0.3110   0.7091 H              1 S1                 0.0000
     21 ****        -3.2035   0.4445   2.0332 H              1 S1                 0.0000
     22 ****        -3.4631  -1.1130   1.2504 H              1 S1                 0.0000
     23 ****        -2.2550   1.3565  -0.0839 H              1 S1                 0.0000
     24 ****        -1.6273  -0.1059  -1.9687 H              1 S1                 0.0000
     25 ****        -2.3734  -1.4855  -1.1949 H              1 S1                 0.0000
     26 ****        -3.3590   1.9533  -2.6293 H              1 S1                 0.0000
     27 ****        -5.9225   1.7072  -3.5335 H              1 S1                 0.0000
     28 ****        -6.6147  -0.8593  -2.7497 H              1 S1                 0.0000
     29 ****        -0.8565  -1.1321   0.7967 H              1 S1                 0.0000
     30 ****         0.8590  -1.9615   2.1822 H              1 S1                 0.0000
     31 ****         0.9126  -1.8079   0.4409 H              1 S1                 0.0000
     32 ****         3.3202  -1.6557   2.3027 H              1 S1                 0.0000
     33 ****         2.9235  -2.9107   1.1995 H              1 S1                 0.0000
     34 ****         4.7478  -1.2963   0.4376 H              1 S1                 0.0000
     35 ****         3.4914  -1.6613  -0.7208 H              1 S1                 0.0000
     36 ****         5.3326   0.9045  -0.6616 H              1 S1                 0.0000
     37 ****         3.9944   1.9041  -1.2422 H              1 S1                 0.0000
     38 ****         4.2554   0.3057  -1.9297 H              1 S1                 0.0000
     39 ****         4.3113   1.0549   1.7938 H              1 S1                 0.0000
     40 ****         3.2468   2.1612   0.9633 H              1 S1                 0.0000
     41 ****         1.7964   1.6848   2.6512 H              1 S1                 0.0000
     42 ****         2.5361   0.2016   3.0608 H              1 S1                 0.0000
     43 ****         2.4779   0.3433  -0.3635 H              1 S1                 0.0000
     44 ****        -4.7044  -1.8837  -1.5845 LP             1 S1                 0.0000
     45 ****        -0.8345   2.3251   0.5349 LP             1 S1                 0.0000
     46 ****         0.7778   2.4486   1.1556 LP             1 S1                 0.0000
@<TRIPOS>BOND
    1    1    2 1     
    2    1   20 1     
    3    1   21 1     
    4    1   22 1     
    5    2    3 1     
    6    2    9 1     
    7    2   23 1     
    8    3    4 1     
    9    3   24 1     
   10    3   25 1     
   11    4    8 1     
   12    4    5 1     
   13    5    6 2     
   14    5   26 1     
   15    6    7 1     
   16    6   27 1     
   17    7    8 2     
   18    7   28 1     
   19    9   10 am    
   20    9   29 1     
   21   10   11 2     
   22   10   12 am    
   23   12   19 1     
   24   12   13 1     
   25   13   14 1     
   26   13   30 1     
   27   13   31 1     
   28   14   15 1     
   29   14   32 1     
   30   14   33 1     
   31   15   16 1     
   32   15   34 1     
   33   15   35 1     
   34   16   17 1     
   35   16   18 1     
   36   16   43 1     
   37   17   36 1     
   38   17   37 1     
   39   17   38 1     
   40   18   19 1     
   41   18   39 1     
   42   18   40 1     
   43   19   41 1     
   44   19   42 1     
   45    8   44 1     
   46   11   45 1     
   47   11   46 1     
@<TRIPOS>SUBSTRUCTURE
      1 S1             1
@<TRIPOS>SET
LONE_PAIRS      STATIC     ATOMS    <user>   **** ""
3 44 45 46
DONOR_HYDROGENS      STATIC     ATOMS    <user>   **** ""
2 29 43
ATOM$BLUE        STATIC     ATOMS    COLORGROUP SYSTEM
3 44 45 46
ATOM$RED        STATIC     ATOMS    COLORGROUP SYSTEM
2 29 43
