#       Name:                AV-unprocessed.smi:1464
#       Creating user name   scv26
#       Creation time:       Fri Mar 27 06:03:02 2020


#       File generated by GOLD software.
#

@<TRIPOS>MOLECULE
AV-unprocessed.smi:1464
    48    49     1
SMALL
NO_CHARGES


@<TRIPOS>ATOM
      1 ****        -4.1610   0.1644  -0.3376 C.3            1 S1                 0.0000
      2 ****        -3.5766  -0.8714   0.6449 C.3            1 S1                 0.0000
      3 ****        -3.7741  -0.4379   2.1116 C.3            1 S1                 0.0000
      4 ****        -2.8440   0.7202   2.5046 C.3            1 S1                 0.0000
      5 ****        -1.3747   0.3634   2.2418 C.3            1 S1                 0.0000
      6 ****        -1.1376  -0.0709   0.7824 C.3            1 S1                 0.0000
      7 ****         0.2614  -0.4722   0.6400 N.am           1 S1                 0.0000
      8 ****         1.1298  -0.0030  -0.2696 C.2            1 S1                 0.0000
      9 ****         0.8316   0.8289  -1.1279 O.2            1 S1                 0.0000
     10 ****         2.5458  -0.5935  -0.2062 C.3            1 S1                 0.0000
     11 ****         3.5662   0.2667  -0.8223 N.am           1 S1                 0.0000
     12 ****         3.9359  -0.1196  -2.1017 N.2            1 S1                 0.0000
     13 ****         4.8179   0.5623  -2.7510 C.2            1 S1                 0.0000
     14 ****         5.1522   0.1464  -4.0161 O.3            1 S1                 0.0000
     15 ****         5.4392   1.7307  -2.1679 C.2            1 S1                 0.0000
     16 ****         5.0751   2.0973  -0.9196 C.2            1 S1                 0.0000
     17 ****         4.0774   1.3468  -0.1550 C.2            1 S1                 0.0000
     18 ****         3.7281   1.6562   0.9840 O.2            1 S1                 0.0000
     19 ****        -2.0893  -1.2291   0.3800 C.3            1 S1                 0.0000
     20 ****        -1.8568  -1.7344  -1.0579 C.3            1 S1                 0.0000
     21 ****         4.6179  -0.6157  -4.1787 H              1 S1                 0.0000
     22 ****        -3.6095   1.1039  -0.3232 H              1 S1                 0.0000
     23 ****        -5.1984   0.3909  -0.0912 H              1 S1                 0.0000
     24 ****        -4.1538  -0.2066  -1.3622 H              1 S1                 0.0000
     25 ****        -4.1596  -1.7831   0.5068 H              1 S1                 0.0000
     26 ****        -4.8133  -0.1576   2.2872 H              1 S1                 0.0000
     27 ****        -3.5776  -1.2881   2.7661 H              1 S1                 0.0000
     28 ****        -3.1099   1.6197   1.9489 H              1 S1                 0.0000
     29 ****        -2.9815   0.9617   3.5588 H              1 S1                 0.0000
     30 ****        -0.7426   1.2189   2.4835 H              1 S1                 0.0000
     31 ****        -1.0764  -0.4393   2.9179 H              1 S1                 0.0000
     32 ****        -1.3428   0.7881   0.1419 H              1 S1                 0.0000
     33 ****         0.5995  -1.1607   1.2966 H              1 S1                 0.0000
     34 ****         2.8109  -0.7968   0.8332 H              1 S1                 0.0000
     35 ****         2.5257  -1.5676  -0.6984 H              1 S1                 0.0000
     36 ****         6.1760   2.2903  -2.7251 H              1 S1                 0.0000
     37 ****         5.5310   2.9679  -0.4718 H              1 S1                 0.0000
     38 ****        -1.8577  -2.0709   1.0350 H              1 S1                 0.0000
     39 ****        -1.9307  -0.9247  -1.7842 H              1 S1                 0.0000
     40 ****        -2.5863  -2.4974  -1.3299 H              1 S1                 0.0000
     41 ****        -0.8692  -2.1823  -1.1688 H              1 S1                 0.0000
     42 ****        -0.0997   1.1903  -1.1716 LP             1 S1                 0.0000
     43 ****         1.5210   1.1427  -1.7808 LP             1 S1                 0.0000
     44 ****         3.5192  -0.9263  -2.5208 LP             1 S1                 0.0000
     45 ****         6.1227  -0.0905  -4.0616 LP             1 S1                 0.0000
     46 ****         4.9523   0.8630  -4.6843 LP             1 S1                 0.0000
     47 ****         3.0418   1.1086   1.4626 LP             1 S1                 0.0000
     48 ****         4.1308   2.4551   1.4308 LP             1 S1                 0.0000
@<TRIPOS>BOND
    1    1    2 1     
    2    1   22 1     
    3    1   23 1     
    4    1   24 1     
    5    2   19 1     
    6    2    3 1     
    7    2   25 1     
    8    3    4 1     
    9    3   26 1     
   10    3   27 1     
   11    4    5 1     
   12    4   28 1     
   13    4   29 1     
   14    5    6 1     
   15    5   30 1     
   16    5   31 1     
   17    6    7 1     
   18    6   19 1     
   19    6   32 1     
   20    7    8 am    
   21    7   33 1     
   22    8    9 2     
   23    8   10 1     
   24   10   34 1     
   25   10   35 1     
   26   10   11 1     
   27   11   12 1     
   28   11   17 am    
   29   12   13 2     
   30   13   14 1     
   31   13   15 1     
   32   14   21 1     
   33   15   36 1     
   34   15   16 2     
   35   16   37 1     
   36   16   17 1     
   37   17   18 2     
   38   19   20 1     
   39   19   38 1     
   40   20   39 1     
   41   20   40 1     
   42   20   41 1     
   43    9   42 1     
   44    9   43 1     
   45   12   44 1     
   46   14   45 1     
   47   14   46 1     
   48   18   47 1     
   49   18   48 1     
@<TRIPOS>SUBSTRUCTURE
      1 S1             1
@<TRIPOS>SET
LONE_PAIRS      STATIC     ATOMS    <user>   **** ""
7 42 43 44 45 46 47 48
DONOR_HYDROGENS      STATIC     ATOMS    <user>   **** ""
2 33 21
ATOM$BLUE        STATIC     ATOMS    COLORGROUP SYSTEM
7 42 43 44 45 46 47 48
ATOM$RED        STATIC     ATOMS    COLORGROUP SYSTEM
2 33 21
