AV-unprocessed.smi:2338|AV-procd|sdf|9335|dock7
  -GOLD-   2272012553D 1   1.00000     0.00000
 Structure written by MMmdl.
 31 32  0  0  0  0  0  0  0  0  1 V2000
  149.9060  138.1185  155.6926 N   0  0  0  0  0  0  0  0  0  0  0  0
  150.3295  139.1408  154.9452 C   0  0  0  0  0  0  0  0  0  0  0  0
  151.5186  139.3061  154.6772 O   0  0  0  0  0  0  0  0  0  0  0  0
  149.2610  140.1272  154.4391 C   0  0  1  0  0  0  0  0  0  0  0  0
  148.2077  139.3368  153.6284 C   0  0  0  0  0  0  0  0  0  0  0  0
  147.1949  140.2113  153.1434 O   0  0  0  0  0  0  0  0  0  0  0  0
  146.4915  140.8403  154.2069 C   0  0  0  0  0  0  0  0  0  0  0  0
  147.4703  141.7029  155.0169 C   0  0  0  0  0  0  0  0  0  0  0  0
  148.5867  140.8939  155.4968 N   0  0  0  0  0  0  0  0  0  0  0  0
  149.4025  141.6262  156.3825 C   0  0  0  0  0  0  0  0  0  0  0  0
  150.7022  141.8116  156.0439 N   0  0  0  0  0  0  0  0  0  0  0  0
  151.4959  142.5117  156.8816 C   0  0  0  0  0  0  0  0  0  0  0  0
  151.0420  143.0738  158.0934 C   0  0  0  0  0  0  0  0  0  0  0  0
  151.9786  143.8426  159.0108 C   0  0  0  0  0  0  0  0  0  0  0  0
  152.8151  143.0052  159.6242 F   0  0  0  0  0  0  0  0  0  0  0  0
  152.6887  144.7075  158.2878 F   0  0  0  0  0  0  0  0  0  0  0  0
  151.3007  144.5152  159.9413 F   0  0  0  0  0  0  0  0  0  0  0  0
  149.6891  142.8839  158.4413 C   0  0  0  0  0  0  0  0  0  0  0  0
  148.8523  142.1537  157.5754 C   0  0  0  0  0  0  0  0  0  0  0  0
  147.1938  141.9063  157.9973 Cl  0  0  0  0  0  0  0  0  0  0  0  0
  150.5712  137.4425  156.0391 H   0  0  0  0  0  0  0  0  0  0  0  0
  148.9232  138.0196  155.9020 H   0  0  0  0  0  0  0  0  0  0  0  0
  149.7382  140.8372  153.7605 H   0  0  0  0  0  0  0  0  0  0  0  0
  148.6746  138.8477  152.7728 H   0  0  0  0  0  0  0  0  0  0  0  0
  147.7522  138.5486  154.2315 H   0  0  0  0  0  0  0  0  0  0  0  0
  145.6977  141.4607  153.7906 H   0  0  0  0  0  0  0  0  0  0  0  0
  146.0131  140.0912  154.8401 H   0  0  0  0  0  0  0  0  0  0  0  0
  147.8494  142.5161  154.3955 H   0  0  0  0  0  0  0  0  0  0  0  0
  146.9433  142.1608  155.8554 H   0  0  0  0  0  0  0  0  0  0  0  0
  152.5247  142.6189  156.5712 H   0  0  0  0  0  0  0  0  0  0  0  0
  149.2977  143.2880  159.3635 H   0  0  0  0  0  0  0  0  0  0  0  0
  1  2  1  0  0  0  0
  1 21  1  0  0  0  0
  1 22  1  0  0  0  0
  2  3  2  0  0  0  0
  2  4  1  0  0  0  0
  4  9  1  0  0  0  0
  4  5  1  0  0  0  0
  4 23  1  0  0  0  0
  5  6  1  0  0  0  0
  5 24  1  0  0  0  0
  5 25  1  0  0  0  0
  6  7  1  0  0  0  0
  7  8  1  0  0  0  0
  7 26  1  0  0  0  0
  7 27  1  0  0  0  0
  8  9  1  0  0  0  0
  8 28  1  0  0  0  0
  8 29  1  0  0  0  0
  9 10  1  0  0  0  0
 10 19  1  0  0  0  0
 10 11  2  0  0  0  0
 11 12  1  0  0  0  0
 12 13  2  0  0  0  0
 12 30  1  0  0  0  0
 13 14  1  0  0  0  0
 13 18  1  0  0  0  0
 14 15  1  0  0  0  0
 14 16  1  0  0  0  0
 14 17  1  0  0  0  0
 18 19  2  0  0  0  0
 18 31  1  0  0  0  0
 19 20  1  0  0  0  0
M  END
> <s_m_source_file>
AV-unprocessed.smi

> <i_m_source_file_index>
2338

> <i_lp_mmshare_version>
43012

> <i_f3d_flags>
0

> <s_epik_input>
W05IMl1DKD1PKVtDQEBIXTFbQ0gyXU9bQ0gyXVtDSDJdTjFjMm5bY0hdYyhDKEYpKEYpRilbY0hdYzJDbA==

> <s_epik_cmdline>
J2VwaWtfcHl0aG9uJywgJy1waCcsICc3LjAnLCAnLXRuJywgJzgnLCAnLW1hJywgJzIwMCcsICctbWV0YWxfYmluZGluZycsICctaW1hZScsICc8aW5maWxlLm1hZT4nLCAnLW9tYWUnLCAnPG91dGZpbGUubWFlPic=

> <r_lp_tautomer_probability>
1

> <r_epik_Ionization_Penalty>
1.71167e-07

> <r_epik_Ionization_Penalty_Charging>
0

> <r_epik_Ionization_Penalty_Neutral>
1.71167e-07

> <r_epik_State_Penalty>
-0

> <r_epik_Charging_Adjusted_Penalty>
0

> <i_epik_Tot_Q>
0

> <i_epik_Tot_abs_Q>
0

> <r_epik_Metal_State_Penalty>
-0

> <b_epik_Metal_Only>
0

> <s_lp_Force_Field>
OPLS_2005

> <r_lp_Energy>
18.2769

> <b_lp_Chiralities_Consistent>
1

> <s_lp_Variant>
AV-unprocessed.smi:2338-2

> <Gold.Version>
5.8.1

> <Gold.Id.Protein>
6NUR|6NUR_protein|mol2

> <Gold.PLP.Fitness>
36.9883

> <Gold.PLP.PLP>
-35.1556

> <Gold.PLP.part.hbond>
-1.0000

> <Gold.PLP.part.metal>
0.0000

> <Gold.PLP.part.buried>
-3.5633

> <Gold.PLP.part.nonpolar>
-31.3315

> <Gold.PLP.part.repulsive>
0.5638

> <Gold.PLP.ligand.clash>
0.3574

> <Gold.PLP.ligand.torsion>
0.6707

> <Gold.PLP.Chemscore.Hbond>
1.0000

> <Gold.PLP.Chemscore.CHOScore>
0.0000

> <Gold.PLP.Chemscore.Metal>
0.0000

> <Gold.Chemscore.Hbonds>
donor molecule, donor type, donor heavy atom, donor atom, acceptor molecule, acceptor atom, score
      P1  H  7989  7998       L1     3  1.00

> <Gold.PLP.Chemscore.Internal.Correction>
0.5315

> <Gold.Rescore>
     Score         DG    S(hbond)    S(metal)    S(lipo)     H(rot)  DE(clash)    DE(int)     intcor
      9.56     -11.99       0.97        0.00      61.01       1.51       0.62       1.81       ----

> <Gold.Chemscore.Fitness>
9.5556

> <Gold.Chemscore.DG>
-11.9876

> <Gold.Chemscore.ZeroCoef>
-5.4800

> <Gold.Chemscore.Hbond>
0.9689

> <Gold.Chemscore.Metal>
0.0000

> <Gold.Chemscore.Lipo>
61.0147

> <Gold.Chemscore.Internal_Hbond>
0.0000

> <Gold.Chemscore.DEClash>
0.6180

> <Gold.Chemscore.DEInternal>
1.8140

> <Gold.Chemscore.Rot>
1.5107

> <Gold.Chemscore.Internal.Correction>
   9.000000E+99

> <Gold.Chemscore.Hbonds>
donor molecule, donor type, donor heavy atom, donor atom, acceptor molecule, acceptor atom, score
      P1  H  7989  7998       L1     3  0.64

> <Gold.Chemscore.Hbond.Weighted>
-3.2362

> <Gold.Chemscore.Metal.Weighted>
-0.0000

> <Gold.Chemscore.Lipo.Weighted>
-7.1387

> <Gold.Chemscore.Internal_Hbond.Weighted>
0.0000

> <Gold.Chemscore.DEClash.Weighted>
0.6180

> <Gold.Chemscore.DEInternal.Weighted>
1.8140

> <Gold.Chemscore.Rot.Weighted>
3.8674

> <Gold.Chemscore.Internal.Correction.Weighted>
   9.000000E+99

> <Gold.Protein.RotatedTorsions>
[ 6907 6896 6895 6894 ] final   34.66 input  -60.11 | X-H torsion
[ 7974 7965 7964 7962 ] final -129.06 input  175.53 | X-H torsion
[ 8008 7997 7996 7995 ] final  -70.45 input   59.86 | X-H torsion
[ 10167 10162 10161 10158 ] final -147.69 input  -65.29 | X-H torsion
[ 10718 10713 10712 10709 ] final  155.96 input   66.30 | X-H torsion
[ 10763 10752 10751 10750 ] final  -93.42 input  -60.55 | X-H torsion
[ 11005 11000 10999 10996 ] final    1.03 input  -57.11 | X-H torsion

> <Gold.Protein.ActiveResidues>
 VAL166  LYS551  ARG553  GLY616  TRP617  ASP618  TYR619  PRO620  LYS621  CYS622 
 ASP623  PHE694  ASN695  SER759  ASP760  ASP761  ALA762  ILE779  LEU786  VAL792 
 PHE793  MET794  SER795  GLU796  ALA797  LYS798  CYS799  TRP800  GLU811  SER814 

> <Gold.Protein.RotatedAtoms>
  152.1054  134.9312  160.0568 H   0  0  0  0  0  0  0  0  0  0  0  0  # atno 6907 bound_to 6896
  152.0510  133.4014  159.4385 H   0  0  0  0  0  0  0  0  0  0  0  0  # atno 6908 bound_to 6896
  150.6841  134.3229  159.4837 H   0  0  0  0  0  0  0  0  0  0  0  0  # atno 6909 bound_to 6896
  144.9609  140.7446  143.4729 H   0  0  0  0  0  0  0  0  0  0  0  0  # atno 7974 bound_to 7965
  154.5013  140.0834  156.7803 H   0  0  0  0  0  0  0  0  0  0  0  0  # atno 8008 bound_to 7997
  155.3997  140.3436  155.4238 H   0  0  0  0  0  0  0  0  0  0  0  0  # atno 8009 bound_to 7997
  156.1459  140.1543  156.8834 H   0  0  0  0  0  0  0  0  0  0  0  0  # atno 8010 bound_to 7997
  139.7599  143.8392  152.2605 H   0  0  0  0  0  0  0  0  0  0  0  0  # atno 10167 bound_to 10162
  157.2114  131.0698  151.1967 H   0  0  0  0  0  0  0  0  0  0  0  0  # atno 10718 bound_to 10713
  154.6958  135.5195  153.8456 H   0  0  0  0  0  0  0  0  0  0  0  0  # atno 10763 bound_to 10752
  153.0666  135.6587  154.0351 H   0  0  0  0  0  0  0  0  0  0  0  0  # atno 10764 bound_to 10752
  154.0218  135.2993  155.3359 H   0  0  0  0  0  0  0  0  0  0  0  0  # atno 10765 bound_to 10752
  140.6199  133.9671  155.8219 H   0  0  0  0  0  0  0  0  0  0  0  0  # atno 11005 bound_to 11000
  145.2701  139.1958  143.4846 LP  0  0  0  0  0  0  0  0  0  0  0  0  # atno 17320 bound_to 7965
  146.3353  140.2646  142.8603 LP  0  0  0  0  0  0  0  0  0  0  0  0  # atno 17321 bound_to 7965
  139.8395  144.7216  150.9349 LP  0  0  0  0  0  0  0  0  0  0  0  0  # atno 17342 bound_to 10162
  140.7806  143.3996  151.1171 LP  0  0  0  0  0  0  0  0  0  0  0  0  # atno 17343 bound_to 10162
  157.3669  130.7160  149.6538 LP  0  0  0  0  0  0  0  0  0  0  0  0  # atno 17370 bound_to 10713
  155.9690  130.4210  150.4448 LP  0  0  0  0  0  0  0  0  0  0  0  0  # atno 17371 bound_to 10713
  141.0749  134.0149  157.3472 LP  0  0  0  0  0  0  0  0  0  0  0  0  # atno 17394 bound_to 11000
  139.9157  135.0196  156.7873 LP  0  0  0  0  0  0  0  0  0  0  0  0  # atno 17395 bound_to 11000

$$$$
