#       Name:                AV-unprocessed.smi:274
#       Creating user name   scv26
#       Creation time:       Thu Mar 26 21:30:14 2020


#       File generated by GOLD software.
#

@<TRIPOS>MOLECULE
AV-unprocessed.smi:274
    59    62     1
SMALL
NO_CHARGES


@<TRIPOS>ATOM
      1 ****        -4.6662  -0.9759   2.0325 C.3            1 S1                 0.0000
      2 ****        -3.9711  -0.0745   0.9923 C.3            1 S1                 0.0000
      3 ****        -3.7533  -0.8850  -0.3007 C.3            1 S1                 0.0000
      4 ****        -2.6540   0.5777   1.5224 C.3            1 S1                 0.0000
      5 ****        -2.9003   1.4815   2.7543 C.2            1 S1                 0.0000
      6 ****        -3.0191   0.9771   3.8691 O.2            1 S1                 0.0000
      7 ****        -2.9498   2.8157   2.5889 N.am           1 S1                 0.0000
      8 ****        -2.7605   3.5412   1.3321 C.3            1 S1                 0.0000
      9 ****        -2.6106   2.6231   0.1023 C.3            1 S1                 0.0000
     10 ****        -1.9876   1.3463   0.4577 N.pl3          1 S1                 0.0000
     11 ****        -0.6294   1.2531   0.4019 C.ar           1 S1                 0.0000
     12 ****         0.1309   2.3766   0.5055 N.ar           1 S1                 0.0000
     13 ****         1.4639   2.3024   0.4659 C.ar           1 S1                 0.0000
     14 ****         2.2346   1.2233   0.3263 N.ar           1 S1                 0.0000
     15 ****         1.4827   0.0921   0.2093 C.ar           1 S1                 0.0000
     16 ****         0.0606   0.0172   0.2366 C.ar           1 S1                 0.0000
     17 ****        -0.3415  -1.3039   0.0788 N.2            1 S1                 0.0000
     18 ****         0.7750  -1.9708  -0.0238 C.2            1 S1                 0.0000
     19 ****         1.9199  -1.2099   0.0383 N.pl3          1 S1                 0.0000
     20 ****         3.2900  -1.6909  -0.0510 C.3            1 S1                 0.0000
     21 ****         3.7785  -1.8871  -1.5048 C.3            1 S1                 0.0000
     22 ****         3.0085  -2.9090  -2.1149 O.3            1 S1                 0.0000
     23 ****         3.6906  -0.6317  -2.3680 C.3            1 S1                 0.0000
     24 ****         4.8631  -0.7944  -3.3246 C.3            1 S1                 0.0000
     25 ****         5.8706  -1.3374  -2.4886 O.3            1 S1                 0.0000
     26 ****         5.2677  -2.2747  -1.6018 C.3            1 S1                 0.0000
     27 ****        -3.9953  -1.7582   2.3893 H              1 S1                 0.0000
     28 ****        -5.5428  -1.4633   1.6050 H              1 S1                 0.0000
     29 ****        -5.0157  -0.4123   2.8968 H              1 S1                 0.0000
     30 ****        -4.6779   0.7203   0.7515 H              1 S1                 0.0000
     31 ****        -3.0746  -1.7208  -0.1327 H              1 S1                 0.0000
     32 ****        -3.3428  -0.2753  -1.1054 H              1 S1                 0.0000
     33 ****        -4.6942  -1.2969  -0.6661 H              1 S1                 0.0000
     34 ****        -2.0061  -0.2277   1.8690 H              1 S1                 0.0000
     35 ****        -3.1080   3.3783   3.4121 H              1 S1                 0.0000
     36 ****        -3.5808   4.2441   1.1851 H              1 S1                 0.0000
     37 ****        -1.8582   4.1421   1.4471 H              1 S1                 0.0000
     38 ****        -3.5969   2.4128  -0.3099 H              1 S1                 0.0000
     39 ****        -2.0729   3.1301  -0.7005 H              1 S1                 0.0000
     40 ****         1.9876   3.2421   0.5607 H              1 S1                 0.0000
     41 ****         0.7948  -3.0429  -0.1553 H              1 S1                 0.0000
     42 ****         3.9347  -0.9802   0.4676 H              1 S1                 0.0000
     43 ****         3.3618  -2.6278   0.5032 H              1 S1                 0.0000
     44 ****         3.3211  -3.0324  -2.9983 H              1 S1                 0.0000
     45 ****         2.7324  -0.5088  -2.8746 H              1 S1                 0.0000
     46 ****         3.8606   0.2573  -1.7599 H              1 S1                 0.0000
     47 ****         4.6253  -1.4985  -4.1233 H              1 S1                 0.0000
     48 ****         5.1768   0.1484  -3.7734 H              1 S1                 0.0000
     49 ****         5.7730  -2.2248  -0.6367 H              1 S1                 0.0000
     50 ****         5.4058  -3.2856  -1.9889 H              1 S1                 0.0000
     51 ****        -2.9566  -0.0150   3.9783 LP             1 S1                 0.0000
     52 ****        -3.1783   1.5588   4.6668 LP             1 S1                 0.0000
     53 ****        -0.3126   3.2665   0.6124 LP             1 S1                 0.0000
     54 ****         3.2343   1.2414   0.3096 LP             1 S1                 0.0000
     55 ****        -1.2748  -1.6619   0.0504 LP             1 S1                 0.0000
     56 ****         2.0452  -2.6410  -2.1321 LP             1 S1                 0.0000
     57 ****         3.1085  -3.7602  -1.5995 LP             1 S1                 0.0000
     58 ****         6.3026  -0.6051  -1.9622 LP             1 S1                 0.0000
     59 ****         6.5603  -1.7978  -3.0474 LP             1 S1                 0.0000
@<TRIPOS>BOND
    1    1    2 1     
    2    1   27 1     
    3    1   28 1     
    4    1   29 1     
    5    2    3 1     
    6    2    4 1     
    7    2   30 1     
    8    3   31 1     
    9    3   32 1     
   10    3   33 1     
   11    4   10 1     
   12    4    5 1     
   13    4   34 1     
   14    5    6 2     
   15    5    7 am    
   16    7    8 1     
   17    7   35 1     
   18    8    9 1     
   19    8   36 1     
   20    8   37 1     
   21    9   10 1     
   22    9   38 1     
   23    9   39 1     
   24   10   11 1     
   25   11   16 ar    
   26   11   12 ar    
   27   12   13 ar    
   28   13   14 ar    
   29   13   40 1     
   30   14   15 ar    
   31   15   19 1     
   32   15   16 ar    
   33   16   17 1     
   34   17   18 2     
   35   18   19 1     
   36   18   41 1     
   37   19   20 1     
   38   20   21 1     
   39   20   42 1     
   40   20   43 1     
   41   21   26 1     
   42   21   22 1     
   43   21   23 1     
   44   22   44 1     
   45   23   24 1     
   46   23   45 1     
   47   23   46 1     
   48   24   25 1     
   49   24   47 1     
   50   24   48 1     
   51   25   26 1     
   52   26   49 1     
   53   26   50 1     
   54    6   51 1     
   55    6   52 1     
   56   12   53 1     
   57   14   54 1     
   58   17   55 1     
   59   22   56 1     
   60   22   57 1     
   61   25   58 1     
   62   25   59 1     
@<TRIPOS>SUBSTRUCTURE
      1 S1             1
@<TRIPOS>SET
LONE_PAIRS      STATIC     ATOMS    <user>   **** ""
9 51 52 53 54 55 56 57 58 59
DONOR_HYDROGENS      STATIC     ATOMS    <user>   **** ""
2 35 44
ATOM$BLUE        STATIC     ATOMS    COLORGROUP SYSTEM
9 51 52 53 54 55 56 57 58 59
ATOM$RED        STATIC     ATOMS    COLORGROUP SYSTEM
2 35 44
