AV-unprocessed.smi:72|AV-procd|sdf|752|dock8
  -GOLD-   2262017 83D 1   1.00000     0.00000
 Structure written by MMmdl.
 29 30  0  0  0  0  0  0  0  0  1 V2000
  150.8487  143.4570  157.2711 N   0  0  0  0  0  0  0  0  0  0  0  0
  151.1231  142.1397  156.9700 C   0  0  0  0  0  0  0  0  0  0  0  0
  150.4346  141.5939  155.8787 N   0  0  0  0  0  0  0  0  0  0  0  0
  150.7004  140.3615  155.5824 C   0  0  0  0  0  0  0  0  0  0  0  0
  151.6872  139.5970  156.3305 N   0  0  0  0  0  0  0  0  0  0  0  0
  152.0040  138.1395  156.0270 C   0  0  1  0  0  0  0  0  0  0  0  0
  151.5172  137.3130  157.0420 O   0  0  0  0  0  0  0  0  0  0  0  0
  150.2188  136.8466  156.6964 C   0  0  2  0  0  0  0  0  0  0  0  0
  149.8720  135.6001  157.5239 C   0  0  0  0  0  0  0  0  0  0  0  0
  149.7189  135.9515  158.8826 O   0  0  0  0  0  0  0  0  0  0  0  0
  150.3684  136.5704  155.1995 C   0  0  1  0  0  0  0  0  0  0  0  0
  149.1161  136.6788  154.5531 O   0  0  0  0  0  0  0  0  0  0  0  0
  151.3177  137.6696  154.7242 C   0  0  2  0  0  0  0  0  0  0  0  0
  152.2526  137.1403  153.8063 O   0  0  0  0  0  0  0  0  0  0  0  0
  152.3063  140.2024  157.4605 C   0  0  0  0  0  0  0  0  0  0  0  0
  153.0880  139.5554  158.1576 O   0  0  0  0  0  0  0  0  0  0  0  0
  151.9900  141.5384  157.7323 N   0  0  0  0  0  0  0  0  0  0  0  0
  153.0945  138.0954  156.0058 H   0  0  0  0  0  0  0  0  0  0  0  0
  149.4819  137.6368  156.8530 H   0  0  0  0  0  0  0  0  0  0  0  0
  150.7984  135.5801  155.0390 H   0  0  0  0  0  0  0  0  0  0  0  0
  150.7727  138.4958  154.2647 H   0  0  0  0  0  0  0  0  0  0  0  0
  151.2821  143.9536  158.0359 H   0  0  0  0  0  0  0  0  0  0  0  0
  150.1909  144.0205  156.7525 H   0  0  0  0  0  0  0  0  0  0  0  0
  150.2026  139.8357  154.7677 H   0  0  0  0  0  0  0  0  0  0  0  0
  148.9248  135.1781  157.1866 H   0  0  0  0  0  0  0  0  0  0  0  0
  150.6308  134.8250  157.4137 H   0  0  0  0  0  0  0  0  0  0  0  0
  149.8131  136.8883  158.9636 H   0  0  0  0  0  0  0  0  0  0  0  0
  149.2186  136.4013  153.6554 H   0  0  0  0  0  0  0  0  0  0  0  0
  151.7927  136.8939  153.0183 H   0  0  0  0  0  0  0  0  0  0  0  0
  1  2  1  0  0  0  0
  1 22  1  0  0  0  0
  1 23  1  0  0  0  0
  2 17  2  0  0  0  0
  2  3  1  0  0  0  0
  3  4  2  0  0  0  0
  4  5  1  0  0  0  0
  4 24  1  0  0  0  0
  5  6  1  0  0  0  0
  5 15  1  0  0  0  0
  6 18  1  0  0  0  0
  6 13  1  0  0  0  0
  6  7  1  0  0  0  0
  7  8  1  0  0  0  0
  8 19  1  0  0  0  0
  8  9  1  0  0  0  0
  8 11  1  0  0  0  0
  9 10  1  0  0  0  0
  9 25  1  0  0  0  0
  9 26  1  0  0  0  0
 10 27  1  0  0  0  0
 11 20  1  0  0  0  0
 11 12  1  0  0  0  0
 11 13  1  0  0  0  0
 12 28  1  0  0  0  0
 13 21  1  0  0  0  0
 13 14  1  0  0  0  0
 14 29  1  0  0  0  0
 15 16  2  0  0  0  0
 15 17  1  0  0  0  0
M  END
> <s_m_source_file>
AV-unprocessed.smi

> <i_m_source_file_index>
72

> <i_lp_mmshare_version>
43012

> <i_f3d_flags>
0

> <s_epik_input>
W05IMl1jMW5bY0hdbihjKD1PKW4xKVtDQEBIXTJPW0NASF0oW0NIMl1bT0hdKVtDQEBIXShbT0hdKVtDQEhdMltPSF0=

> <s_epik_cmdline>
J2VwaWtfcHl0aG9uJywgJy1waCcsICc3LjAnLCAnLXRuJywgJzgnLCAnLW1hJywgJzIwMCcsICctbWV0YWxfYmluZGluZycsICctaW1hZScsICc8aW5maWxlLm1hZT4nLCAnLW9tYWUnLCAnPG91dGZpbGUubWFlPic=

> <r_lp_tautomer_probability>
4.77166e-05

> <r_epik_Ionization_Penalty>
1.3546

> <r_epik_Ionization_Penalty_Charging>
1.46833e-10

> <r_epik_Ionization_Penalty_Neutral>
1.3546

> <r_epik_State_Penalty>
3.51908

> <r_epik_Charging_Adjusted_Penalty>
3.51908

> <i_epik_Tot_Q>
0

> <i_epik_Tot_abs_Q>
0

> <r_epik_Metal_State_Penalty>
3.44088

> <b_epik_Metal_Only>
1

> <s_epik_Chemistry_Notes>
This compound contains an acetal/aminal-like group ( X-CH(R)-Y where X, Y are N, S, or O) that may be acid/base labile, releasing an aldehyde.

> <s_lp_Force_Field>
OPLS_2005

> <r_lp_Energy>
23.1081

> <b_lp_Chiralities_Consistent>
1

> <s_lp_Variant>
AV-unprocessed.smi:72-90

> <Gold.Version>
5.8.1

> <Gold.Id.Protein>
6NUR|6NUR_protein|mol2

> <Gold.PLP.Fitness>
41.0247

> <Gold.PLP.PLP>
-23.2407

> <Gold.PLP.part.hbond>
-6.0000

> <Gold.PLP.part.metal>
0.0000

> <Gold.PLP.part.buried>
-2.3240

> <Gold.PLP.part.nonpolar>
-14.1407

> <Gold.PLP.part.repulsive>
0.0953

> <Gold.PLP.ligand.clash>
0.0000

> <Gold.PLP.ligand.torsion>
0.1291

> <Gold.PLP.Chemscore.Hbond>
6.0000

> <Gold.PLP.Chemscore.CHOScore>
0.0000

> <Gold.PLP.Chemscore.Metal>
0.0000

> <Gold.Chemscore.Hbonds>
donor molecule, donor type, donor heavy atom, donor atom, acceptor molecule, acceptor atom, score
      L1  H     1    23       P1  8028  1.00
      L1  H    12    28       P1  7948  1.00
      L1  H    14    29       P1  7949  1.00
      P1  H  6896  6909       L1    10  1.00
      P1  H  7997  8009       L1    16  0.75
      P1  H 10752 10764       L1    14  0.83

> <Gold.PLP.Chemscore.Internal.Correction>
0.0422

> <Gold.Rescore>
     Score         DG    S(hbond)    S(metal)    S(lipo)     H(rot)  DE(clash)    DE(int)     intcor
     11.50     -12.93       4.68        0.00      18.76       4.06       0.08       1.34       ----

> <Gold.Chemscore.Fitness>
11.5017

> <Gold.Chemscore.DG>
-12.9265

> <Gold.Chemscore.ZeroCoef>
-5.4800

> <Gold.Chemscore.Hbond>
4.6842

> <Gold.Chemscore.Metal>
0.0000

> <Gold.Chemscore.Lipo>
18.7604

> <Gold.Chemscore.Internal_Hbond>
0.0000

> <Gold.Chemscore.DEClash>
0.0847

> <Gold.Chemscore.DEInternal>
1.3401

> <Gold.Chemscore.Rot>
4.0600

> <Gold.Chemscore.Internal.Correction>
   9.000000E+99

> <Gold.Chemscore.Hbonds>
donor molecule, donor type, donor heavy atom, donor atom, acceptor molecule, acceptor atom, score
      L1  H     1    23       P1  8028  1.00
      L1  H    12    28       P1  7948  0.94
      L1  H    14    29       P1  7949  0.99
      P1  H  6896  6909       L1    10  0.30
      P1  H  7997  8009       L1    16  0.09
      P1  H 10752 10764       L1    14  0.14

> <Gold.Chemscore.Hbond.Weighted>
-15.6451

> <Gold.Chemscore.Metal.Weighted>
-0.0000

> <Gold.Chemscore.Lipo.Weighted>
-2.1950

> <Gold.Chemscore.Internal_Hbond.Weighted>
0.0000

> <Gold.Chemscore.DEClash.Weighted>
0.0847

> <Gold.Chemscore.DEInternal.Weighted>
1.3401

> <Gold.Chemscore.Rot.Weighted>
10.3936

> <Gold.Chemscore.Internal.Correction.Weighted>
   9.000000E+99

> <Gold.Protein.RotatedTorsions>
[ 6907 6896 6895 6894 ] final   62.17 input  -60.11 | X-H torsion
[ 7974 7965 7964 7962 ] final  169.80 input  175.53 | X-H torsion
[ 8008 7997 7996 7995 ] final  145.91 input   59.86 | X-H torsion
[ 10167 10162 10161 10158 ] final  163.41 input  -65.29 | X-H torsion
[ 10718 10713 10712 10709 ] final  -39.96 input   66.30 | X-H torsion
[ 10763 10752 10751 10750 ] final  -91.54 input  -60.55 | X-H torsion
[ 11005 11000 10999 10996 ] final  -54.48 input  -57.11 | X-H torsion

> <Gold.Protein.ActiveResidues>
 VAL166  LYS551  ARG553  GLY616  TRP617  ASP618  TYR619  PRO620  LYS621  CYS622 
 ASP623  PHE694  ASN695  SER759  ASP760  ASP761  ALA762  ILE779  LEU786  VAL792 
 PHE793  MET794  SER795  GLU796  ALA797  LYS798  CYS799  TRP800  GLU811  SER814 

> <Gold.Protein.RotatedAtoms>
  152.4150  134.6058  160.0012 H   0  0  0  0  0  0  0  0  0  0  0  0  # atno 6907 bound_to 6896
  151.6224  133.3332  159.3099 H   0  0  0  0  0  0  0  0  0  0  0  0  # atno 6908 bound_to 6896
  150.8039  134.7190  159.6692 H   0  0  0  0  0  0  0  0  0  0  0  0  # atno 6909 bound_to 6896
  144.7343  139.9107  143.6415 H   0  0  0  0  0  0  0  0  0  0  0  0  # atno 7974 bound_to 7965
  156.2870  140.2196  156.5291 H   0  0  0  0  0  0  0  0  0  0  0  0  # atno 8008 bound_to 7997
  154.7464  140.0484  157.0877 H   0  0  0  0  0  0  0  0  0  0  0  0  # atno 8009 bound_to 7997
  155.0166  140.3119  155.4812 H   0  0  0  0  0  0  0  0  0  0  0  0  # atno 8010 bound_to 7997
  139.4873  144.4340  151.9035 H   0  0  0  0  0  0  0  0  0  0  0  0  # atno 10167 bound_to 10162
  156.2867  130.4223  149.8281 H   0  0  0  0  0  0  0  0  0  0  0  0  # atno 10718 bound_to 10713
  154.6771  135.5264  153.8214 H   0  0  0  0  0  0  0  0  0  0  0  0  # atno 10763 bound_to 10752
  153.0539  135.6543  154.0634 H   0  0  0  0  0  0  0  0  0  0  0  0  # atno 10764 bound_to 10752
  154.0526  135.2968  155.3318 H   0  0  0  0  0  0  0  0  0  0  0  0  # atno 10765 bound_to 10752
  141.1028  133.6616  156.4327 H   0  0  0  0  0  0  0  0  0  0  0  0  # atno 11005 bound_to 11000
  146.1003  139.3998  143.0351 LP  0  0  0  0  0  0  0  0  0  0  0  0  # atno 17320 bound_to 7965
  145.7588  140.9943  143.1211 LP  0  0  0  0  0  0  0  0  0  0  0  0  # atno 17321 bound_to 7965
  140.3789  144.2761  150.5911 LP  0  0  0  0  0  0  0  0  0  0  0  0  # atno 17342 bound_to 10162
  140.5251  143.2256  151.8327 LP  0  0  0  0  0  0  0  0  0  0  0  0  # atno 17343 bound_to 10162
  156.5709  130.8424  151.3356 LP  0  0  0  0  0  0  0  0  0  0  0  0  # atno 17370 bound_to 10713
  157.7330  130.9724  150.1958 LP  0  0  0  0  0  0  0  0  0  0  0  0  # atno 17371 bound_to 10713
  140.4979  134.6513  157.5237 LP  0  0  0  0  0  0  0  0  0  0  0  0  # atno 17394 bound_to 11000
  139.9885  134.7022  155.9730 LP  0  0  0  0  0  0  0  0  0  0  0  0  # atno 17395 bound_to 11000

$$$$
