AV-unprocessed.smi:1914|AV-procd|sdf|7758|dock6
  -GOLD-   22720 9503D 1   1.00000     0.00000
 Structure written by MMmdl.
 44 45  0  0  0  0  0  0  0  0  2 V2000
  150.7110  138.2755  158.4307 C   0  0  0  0  0  0  0  0  0  0  0  0
  149.8412  137.6971  157.3007 C   0  0  2  0  0  0  0  0  0  0  0  0
  150.6387  136.8081  156.3286 C   0  0  0  0  0  0  0  0  0  0  0  0
  151.5330  137.6515  155.4088 C   0  0  0  0  0  0  0  0  0  0  0  0
  150.7168  138.7394  154.6931 C   0  0  0  0  0  0  0  0  0  0  0  0
  149.9961  139.5974  155.6685 N   0  3  1  0  0  0  0  0  0  0  0  0
  149.3245  140.7484  155.0141 C   0  0  0  0  0  0  0  0  0  0  0  0
  148.6445  141.6836  156.0270 C   0  0  0  0  0  0  0  0  0  0  0  0
  149.6067  142.6346  156.5656 N   0  0  0  0  0  0  0  0  0  0  0  0
  150.7253  142.2909  157.2190 C   0  0  0  0  0  0  0  0  0  0  0  0
  151.0530  141.1206  157.4185 O   0  0  0  0  0  0  0  0  0  0  0  0
  151.6121  143.4502  157.6959 C   0  0  0  0  0  0  0  0  0  0  0  0
  151.9724  143.3590  159.1208 N   0  0  0  0  0  0  0  0  0  0  0  0
  152.7006  142.2237  159.5288 C   0  0  0  0  0  0  0  0  0  0  0  0
  153.0796  142.0443  160.8041 C   0  0  0  0  0  0  0  0  0  0  0  0
  152.7210  143.0541  161.7714 C   0  0  0  0  0  0  0  0  0  0  0  0
  152.0222  144.1426  161.3925 C   0  0  0  0  0  0  0  0  0  0  0  0
  151.6058  144.3427  159.9996 C   0  0  0  0  0  0  0  0  0  0  0  0
  150.9670  145.3335  159.6434 O   0  0  0  0  0  0  0  0  0  0  0  0
  149.0829  138.7973  156.5297 C   0  0  0  0  0  0  0  0  0  0  0  0
  151.4745  138.9547  158.0514 H   0  0  0  0  0  0  0  0  0  0  0  0
  151.2175  137.4818  158.9809 H   0  0  0  0  0  0  0  0  0  0  0  0
  150.1033  138.8313  159.1453 H   0  0  0  0  0  0  0  0  0  0  0  0
  149.0961  137.0621  157.7821 H   0  0  0  0  0  0  0  0  0  0  0  0
  151.2374  136.0803  156.8773 H   0  0  0  0  0  0  0  0  0  0  0  0
  149.9432  136.2316  155.7171 H   0  0  0  0  0  0  0  0  0  0  0  0
  152.3346  138.1127  155.9868 H   0  0  0  0  0  0  0  0  0  0  0  0
  152.0188  137.0088  154.6740 H   0  0  0  0  0  0  0  0  0  0  0  0
  151.3917  139.3485  154.0906 H   0  0  0  0  0  0  0  0  0  0  0  0
  150.0007  138.2853  154.0061 H   0  0  0  0  0  0  0  0  0  0  0  0
  150.0657  141.3321  154.4660 H   0  0  0  0  0  0  0  0  0  0  0  0
  148.6084  140.3869  154.2743 H   0  0  0  0  0  0  0  0  0  0  0  0
  147.8299  142.2405  155.5637 H   0  0  0  0  0  0  0  0  0  0  0  0
  148.2148  141.1011  156.8436 H   0  0  0  0  0  0  0  0  0  0  0  0
  149.4089  143.6171  156.4405 H   0  0  0  0  0  0  0  0  0  0  0  0
  152.5077  143.4678  157.0734 H   0  0  0  0  0  0  0  0  0  0  0  0
  151.1108  144.4002  157.5002 H   0  0  0  0  0  0  0  0  0  0  0  0
  152.9229  141.5125  158.7467 H   0  0  0  0  0  0  0  0  0  0  0  0
  153.6345  141.1658  161.0989 H   0  0  0  0  0  0  0  0  0  0  0  0
  153.0128  142.9349  162.8044 H   0  0  0  0  0  0  0  0  0  0  0  0
  151.7616  144.8872  162.1304 H   0  0  0  0  0  0  0  0  0  0  0  0
  148.3130  138.3427  155.9042 H   0  0  0  0  0  0  0  0  0  0  0  0
  148.5626  139.4387  157.2400 H   0  0  0  0  0  0  0  0  0  0  0  0
  150.7046  139.9876  156.2738 H   0  0  0  0  0  0  0  0  0  0  0  0
  1  2  1  0  0  0  0
  1 21  1  0  0  0  0
  1 22  1  0  0  0  0
  1 23  1  0  0  0  0
  2 20  1  0  0  0  0
  2  3  1  0  0  0  0
  2 24  1  0  0  0  0
  3  4  1  0  0  0  0
  3 25  1  0  0  0  0
  3 26  1  0  0  0  0
  4  5  1  0  0  0  0
  4 27  1  0  0  0  0
  4 28  1  0  0  0  0
  5  6  1  0  0  0  0
  5 29  1  0  0  0  0
  5 30  1  0  0  0  0
  6  7  1  0  0  0  0
  6 20  1  0  0  0  0
  6 44  1  0  0  0  0
  7  8  1  0  0  0  0
  7 31  1  0  0  0  0
  7 32  1  0  0  0  0
  8  9  1  0  0  0  0
  8 33  1  0  0  0  0
  8 34  1  0  0  0  0
  9 10  1  0  0  0  0
  9 35  1  0  0  0  0
 10 11  2  0  0  0  0
 10 12  1  0  0  0  0
 12 13  1  0  0  0  0
 12 36  1  0  0  0  0
 12 37  1  0  0  0  0
 13 18  1  0  0  0  0
 13 14  1  0  0  0  0
 14 15  2  0  0  0  0
 14 38  1  0  0  0  0
 15 16  1  0  0  0  0
 15 39  1  0  0  0  0
 16 17  2  0  0  0  0
 16 40  1  0  0  0  0
 17 18  1  0  0  0  0
 17 41  1  0  0  0  0
 18 19  2  0  0  0  0
 20 42  1  0  0  0  0
 20 43  1  0  0  0  0
M  CHG  1   6   1
M  END
> <s_m_source_file>
AV-unprocessed.smi

> <i_m_source_file_index>
1914

> <i_lp_mmshare_version>
43012

> <i_f3d_flags>
0

> <s_epik_input>
W0NIM11bQ0BASF0xW0NIMl1bQ0gyXVtDSDJdTihbQ0gyXTEpW0NIMl1bQ0gyXVtOSF1DKD1PKVtDSDJdbjJbY0hdW2NIXVtjSF1bY0hdYzI9Tw==

> <s_epik_cmdline>
J2VwaWtfcHl0aG9uJywgJy1waCcsICc3LjAnLCAnLXRuJywgJzgnLCAnLW1hJywgJzIwMCcsICctbWV0YWxfYmluZGluZycsICctaW1hZScsICc8aW5maWxlLm1hZT4nLCAnLW9tYWUnLCAnPG91dGZpbGUubWFlPic=

> <r_lp_tautomer_probability>
1

> <r_epik_Ionization_Penalty>
0.00192477

> <r_epik_Ionization_Penalty_Charging>
0.00192469

> <r_epik_Ionization_Penalty_Neutral>
8.16761e-08

> <r_epik_State_Penalty>
0.00131115

> <r_epik_Charging_Adjusted_Penalty>
0.00323584

> <i_epik_Tot_Q>
1

> <i_epik_Tot_abs_Q>
1

> <r_epik_Metal_State_Penalty>
-0

> <b_epik_Metal_Only>
0

> <s_lp_Force_Field>
OPLS_2005

> <r_lp_Energy>
28.3213

> <b_lp_Chiralities_Consistent>
1

> <s_lp_Variant>
AV-unprocessed.smi:1914-3

> <Gold.Version>
5.8.1

> <Gold.Id.Protein>
6NUR|6NUR_protein|mol2

> <Gold.PLP.Fitness>
44.5766

> <Gold.PLP.PLP>
-42.0302

> <Gold.PLP.part.hbond>
-0.7697

> <Gold.PLP.part.metal>
0.0000

> <Gold.PLP.part.buried>
-5.9969

> <Gold.PLP.part.nonpolar>
-35.4927

> <Gold.PLP.part.repulsive>
0.3001

> <Gold.PLP.ligand.clash>
0.0000

> <Gold.PLP.ligand.torsion>
0.2058

> <Gold.PLP.Chemscore.Hbond>
0.9760

> <Gold.PLP.Chemscore.CHOScore>
0.0000

> <Gold.PLP.Chemscore.Metal>
0.0000

> <Gold.Chemscore.Hbonds>
donor molecule, donor type, donor heavy atom, donor atom, acceptor molecule, acceptor atom, score
      L1  H     9    35       P1  8028  0.78

> <Gold.PLP.Chemscore.Internal.Correction>
0.0299

> <Gold.Rescore>
     Score         DG    S(hbond)    S(metal)    S(lipo)     H(rot)  DE(clash)    DE(int)     intcor
     12.21     -15.28       0.98        0.00      96.32       1.86       0.02       3.05       ----

> <Gold.Chemscore.Fitness>
12.2083

> <Gold.Chemscore.DG>
-15.2793

> <Gold.Chemscore.ZeroCoef>
-5.4800

> <Gold.Chemscore.Hbond>
0.9843

> <Gold.Chemscore.Metal>
0.0000

> <Gold.Chemscore.Lipo>
96.3237

> <Gold.Chemscore.Internal_Hbond>
0.0000

> <Gold.Chemscore.DEClash>
0.0217

> <Gold.Chemscore.DEInternal>
3.0493

> <Gold.Chemscore.Rot>
1.8586

> <Gold.Chemscore.Internal.Correction>
   9.000000E+99

> <Gold.Chemscore.Hbonds>
donor molecule, donor type, donor heavy atom, donor atom, acceptor molecule, acceptor atom, score
      L1  H     9    35       P1  8028  0.76

> <Gold.Chemscore.Hbond.Weighted>
-3.2875

> <Gold.Chemscore.Metal.Weighted>
-0.0000

> <Gold.Chemscore.Lipo.Weighted>
-11.2699

> <Gold.Chemscore.Internal_Hbond.Weighted>
0.0000

> <Gold.Chemscore.DEClash.Weighted>
0.0217

> <Gold.Chemscore.DEInternal.Weighted>
3.0493

> <Gold.Chemscore.Rot.Weighted>
4.7581

> <Gold.Chemscore.Internal.Correction.Weighted>
   9.000000E+99

> <Gold.Protein.RotatedTorsions>
[ 6907 6896 6895 6894 ] final  -73.70 input  -60.11 | X-H torsion
[ 7974 7965 7964 7962 ] final   73.45 input  175.53 | X-H torsion
[ 8008 7997 7996 7995 ] final  113.47 input   59.86 | X-H torsion
[ 10167 10162 10161 10158 ] final -141.02 input  -65.29 | X-H torsion
[ 10718 10713 10712 10709 ] final  120.35 input   66.30 | X-H torsion
[ 10763 10752 10751 10750 ] final -176.13 input  -60.55 | X-H torsion
[ 11005 11000 10999 10996 ] final -140.24 input  -57.11 | X-H torsion

> <Gold.Protein.ActiveResidues>
 VAL166  LYS551  ARG553  GLY616  TRP617  ASP618  TYR619  PRO620  LYS621  CYS622 
 ASP623  PHE694  ASN695  SER759  ASP760  ASP761  ALA762  ILE779  LEU786  VAL792 
 PHE793  MET794  SER795  GLU796  ALA797  LYS798  CYS799  TRP800  GLU811  SER814 

> <Gold.Protein.RotatedAtoms>
  150.7120  134.4978  159.5546 H   0  0  0  0  0  0  0  0  0  0  0  0  # atno 6907 bound_to 6896
  152.2582  134.8059  160.0444 H   0  0  0  0  0  0  0  0  0  0  0  0  # atno 6908 bound_to 6896
  151.8782  133.3454  159.3794 H   0  0  0  0  0  0  0  0  0  0  0  0  # atno 6909 bound_to 6896
  145.7407  139.2720  143.1488 H   0  0  0  0  0  0  0  0  0  0  0  0  # atno 7974 bound_to 7965
  156.2260  140.2979  156.0068 H   0  0  0  0  0  0  0  0  0  0  0  0  # atno 8008 bound_to 7997
  155.2355  140.0420  157.2985 H   0  0  0  0  0  0  0  0  0  0  0  0  # atno 8009 bound_to 7997
  154.5916  140.2403  155.7920 H   0  0  0  0  0  0  0  0  0  0  0  0  # atno 8010 bound_to 7997
  139.8225  143.7555  152.2666 H   0  0  0  0  0  0  0  0  0  0  0  0  # atno 10167 bound_to 10162
  157.5897  131.1065  150.8023 H   0  0  0  0  0  0  0  0  0  0  0  0  # atno 10718 bound_to 10713
  154.5761  135.2832  155.0779 H   0  0  0  0  0  0  0  0  0  0  0  0  # atno 10763 bound_to 10752
  154.2133  135.6404  153.5126 H   0  0  0  0  0  0  0  0  0  0  0  0  # atno 10764 bound_to 10752
  153.0073  135.5497  154.6400 H   0  0  0  0  0  0  0  0  0  0  0  0  # atno 10765 bound_to 10752
  140.8442  134.2365  157.4794 H   0  0  0  0  0  0  0  0  0  0  0  0  # atno 11005 bound_to 11000
  146.0450  140.8127  142.9810 LP  0  0  0  0  0  0  0  0  0  0  0  0  # atno 17320 bound_to 7965
  144.6871  140.2967  143.7269 LP  0  0  0  0  0  0  0  0  0  0  0  0  # atno 17321 bound_to 7965
  139.7737  144.7468  151.0187 LP  0  0  0  0  0  0  0  0  0  0  0  0  # atno 17342 bound_to 10162
  140.7812  143.4617  151.0269 LP  0  0  0  0  0  0  0  0  0  0  0  0  # atno 17343 bound_to 10162
  156.8448  130.5060  149.5317 LP  0  0  0  0  0  0  0  0  0  0  0  0  # atno 17370 bound_to 10713
  156.0950  130.5925  150.9798 LP  0  0  0  0  0  0  0  0  0  0  0  0  # atno 17371 bound_to 10713
  139.8703  134.9651  156.4516 LP  0  0  0  0  0  0  0  0  0  0  0  0  # atno 17394 bound_to 11000
  140.8862  133.7882  155.9520 LP  0  0  0  0  0  0  0  0  0  0  0  0  # atno 17395 bound_to 11000

$$$$
