AV-unprocessed.smi:3070|AV-procd|sdf|11712|dock4
  -GOLD-   2272017113D 1   1.00000     0.00000
 Structure written by MMmdl.
 21 22  0  0  0  0  0  0  0  0  2 V2000
  152.9739  142.5681  162.1020 C   0  0  0  0  0  0  0  0  0  0  0  0
  152.4661  143.8301  162.2242 N   0  0  0  0  0  0  0  0  0  0  0  0
  152.2063  144.0893  160.9505 C   0  0  0  0  0  0  0  0  0  0  0  0
  152.5183  143.0918  160.1208 N   0  0  0  0  0  0  0  0  0  0  0  0
  152.3808  142.9977  158.6751 C   0  0  1  0  0  0  0  0  0  0  0  0
  151.3716  141.9473  158.2123 C   0  0  0  0  0  0  0  0  0  0  0  0
  151.0624  142.3870  156.7803 C   0  0  0  0  0  0  0  0  0  0  0  0
  151.2198  143.8558  156.7551 N   0  3  0  0  0  0  0  0  0  0  0  0
  151.8665  144.2816  158.0124 C   0  0  0  0  0  0  0  0  0  0  0  0
  153.0268  142.0781  160.8632 N   0  0  0  0  0  0  0  0  0  0  0  0
  153.3141  141.9933  162.9508 H   0  0  0  0  0  0  0  0  0  0  0  0
  151.7793  145.0241  160.6175 H   0  0  0  0  0  0  0  0  0  0  0  0
  153.3572  142.7516  158.2536 H   0  0  0  0  0  0  0  0  0  0  0  0
  151.7616  140.9305  158.2670 H   0  0  0  0  0  0  0  0  0  0  0  0
  150.4604  141.9899  158.8107 H   0  0  0  0  0  0  0  0  0  0  0  0
  151.7870  141.9521  156.0909 H   0  0  0  0  0  0  0  0  0  0  0  0
  150.0665  142.0848  156.4558 H   0  0  0  0  0  0  0  0  0  0  0  0
  151.7924  144.1168  155.9649 H   0  0  0  0  0  0  0  0  0  0  0  0
  151.1091  144.7707  158.6260 H   0  0  0  0  0  0  0  0  0  0  0  0
  152.6633  145.0025  157.8280 H   0  0  0  0  0  0  0  0  0  0  0  0
  150.3156  144.2998  156.6802 H   0  0  0  0  0  0  0  0  0  0  0  0
  1 10  2  0  0  0  0
  1  2  1  0  0  0  0
  1 11  1  0  0  0  0
  2  3  2  0  0  0  0
  3  4  1  0  0  0  0
  3 12  1  0  0  0  0
  4  5  1  0  0  0  0
  4 10  1  0  0  0  0
  5  9  1  0  0  0  0
  5  6  1  0  0  0  0
  5 13  1  0  0  0  0
  6  7  1  0  0  0  0
  6 14  1  0  0  0  0
  6 15  1  0  0  0  0
  7  8  1  0  0  0  0
  7 16  1  0  0  0  0
  7 17  1  0  0  0  0
  8  9  1  0  0  0  0
  8 18  1  0  0  0  0
  8 21  1  0  0  0  0
  9 19  1  0  0  0  0
  9 20  1  0  0  0  0
M  CHG  1   8   1
M  END
> <s_m_source_file>
AV-unprocessed.smi

> <i_m_source_file_index>
3070

> <i_lp_mmshare_version>
43012

> <i_f3d_flags>
0

> <s_epik_input>
bjFbY0hdbltjSF1uMVtDQEBIXTJbQ0gyXVtDSDJdW05IXVtDSDJdMg==

> <s_epik_cmdline>
J2VwaWtfcHl0aG9uJywgJy1waCcsICc3LjAnLCAnLXRuJywgJzgnLCAnLW1hJywgJzIwMCcsICctbWV0YWxfYmluZGluZycsICctaW1hZScsICc8aW5maWxlLm1hZT4nLCAnLW9tYWUnLCAnPG91dGZpbGUubWFlPic=

> <r_lp_tautomer_probability>
1

> <r_epik_Ionization_Penalty>
0.000421274

> <r_epik_Ionization_Penalty_Charging>
0.000420295

> <r_epik_Ionization_Penalty_Neutral>
9.79543e-07

> <r_epik_State_Penalty>
0.000258452

> <r_epik_Charging_Adjusted_Penalty>
0.000678746

> <i_epik_Tot_Q>
1

> <i_epik_Tot_abs_Q>
1

> <r_epik_Metal_State_Penalty>
-0

> <b_epik_Metal_Only>
0

> <s_lp_Force_Field>
OPLS_2005

> <r_lp_Energy>
29.098

> <b_lp_Chiralities_Consistent>
1

> <s_lp_Variant>
AV-unprocessed.smi:3070-2

> <Gold.Version>
5.8.1

> <Gold.Id.Protein>
6NUR|6NUR_protein|mol2

> <Gold.PLP.Fitness>
34.1557

> <Gold.PLP.PLP>
-28.2946

> <Gold.PLP.part.hbond>
-1.0000

> <Gold.PLP.part.metal>
0.0000

> <Gold.PLP.part.buried>
-4.5432

> <Gold.PLP.part.nonpolar>
-22.3592

> <Gold.PLP.part.repulsive>
0.2188

> <Gold.PLP.ligand.clash>
0.0000

> <Gold.PLP.ligand.torsion>
0.0479

> <Gold.PLP.Chemscore.Hbond>
1.9840

> <Gold.PLP.Chemscore.CHOScore>
0.0000

> <Gold.PLP.Chemscore.Metal>
0.0000

> <Gold.Chemscore.Hbonds>
donor molecule, donor type, donor heavy atom, donor atom, acceptor molecule, acceptor atom, score
      L1  H     8    21       P1  8028  1.98

> <Gold.PLP.Chemscore.Internal.Correction>
0.0050

> <Gold.Rescore>
     Score         DG    S(hbond)    S(metal)    S(lipo)     H(rot)  DE(clash)    DE(int)     intcor
     11.22     -11.29       0.99        0.00      43.19       1.00       0.06       0.01       ----

> <Gold.Chemscore.Fitness>
11.2214

> <Gold.Chemscore.DG>
-11.2904

> <Gold.Chemscore.ZeroCoef>
-5.4800

> <Gold.Chemscore.Hbond>
0.9933

> <Gold.Chemscore.Metal>
0.0000

> <Gold.Chemscore.Lipo>
43.1852

> <Gold.Chemscore.Internal_Hbond>
0.0000

> <Gold.Chemscore.DEClash>
0.0551

> <Gold.Chemscore.DEInternal>
0.0139

> <Gold.Chemscore.Rot>
1.0000

> <Gold.Chemscore.Internal.Correction>
   9.000000E+99

> <Gold.Chemscore.Hbonds>
donor molecule, donor type, donor heavy atom, donor atom, acceptor molecule, acceptor atom, score
      L1  H     8    21       P1  8028  0.92

> <Gold.Chemscore.Hbond.Weighted>
-3.3177

> <Gold.Chemscore.Metal.Weighted>
-0.0000

> <Gold.Chemscore.Lipo.Weighted>
-5.0527

> <Gold.Chemscore.Internal_Hbond.Weighted>
0.0000

> <Gold.Chemscore.DEClash.Weighted>
0.0551

> <Gold.Chemscore.DEInternal.Weighted>
0.0139

> <Gold.Chemscore.Rot.Weighted>
2.5600

> <Gold.Chemscore.Internal.Correction.Weighted>
   9.000000E+99

> <Gold.Protein.RotatedTorsions>
[ 6907 6896 6895 6894 ] final  100.19 input  -60.11 | X-H torsion
[ 7974 7965 7964 7962 ] final -177.03 input  175.53 | X-H torsion
[ 8008 7997 7996 7995 ] final -165.91 input   59.86 | X-H torsion
[ 10167 10162 10161 10158 ] final  128.79 input  -65.29 | X-H torsion
[ 10718 10713 10712 10709 ] final -156.20 input   66.30 | X-H torsion
[ 10763 10752 10751 10750 ] final -174.77 input  -60.55 | X-H torsion
[ 11005 11000 10999 10996 ] final  109.82 input  -57.11 | X-H torsion

> <Gold.Protein.ActiveResidues>
 VAL166  LYS551  ARG553  GLY616  TRP617  ASP618  TYR619  PRO620  LYS621  CYS622 
 ASP623  PHE694  ASN695  SER759  ASP760  ASP761  ALA762  ILE779  LEU786  VAL792 
 PHE793  MET794  SER795  GLU796  ALA797  LYS798  CYS799  TRP800  GLU811  SER814 

> <Gold.Protein.RotatedAtoms>
  152.5377  134.0315  159.8026 H   0  0  0  0  0  0  0  0  0  0  0  0  # atno 6907 bound_to 6896
  151.0485  133.5637  159.2651 H   0  0  0  0  0  0  0  0  0  0  0  0  # atno 6908 bound_to 6896
  151.2580  135.0652  159.9141 H   0  0  0  0  0  0  0  0  0  0  0  0  # atno 6909 bound_to 6896
  144.7127  140.1081  143.6412 H   0  0  0  0  0  0  0  0  0  0  0  0  # atno 7974 bound_to 7965
  155.8565  140.0971  157.1641 H   0  0  0  0  0  0  0  0  0  0  0  0  # atno 8008 bound_to 7997
  154.3988  140.1373  156.3970 H   0  0  0  0  0  0  0  0  0  0  0  0  # atno 8009 bound_to 7997
  155.7904  140.3456  155.5349 H   0  0  0  0  0  0  0  0  0  0  0  0  # atno 8010 bound_to 7997
  139.5510  144.6812  151.4325 H   0  0  0  0  0  0  0  0  0  0  0  0  # atno 10167 bound_to 10162
  156.5232  130.8487  151.2689 H   0  0  0  0  0  0  0  0  0  0  0  0  # atno 10718 bound_to 10713
  154.5923  135.2846  155.0623 H   0  0  0  0  0  0  0  0  0  0  0  0  # atno 10763 bound_to 10752
  154.1918  135.6439  153.5066 H   0  0  0  0  0  0  0  0  0  0  0  0  # atno 10764 bound_to 10752
  153.0126  135.5448  154.6613 H   0  0  0  0  0  0  0  0  0  0  0  0  # atno 10765 bound_to 10752
  139.8869  134.9468  156.6184 H   0  0  0  0  0  0  0  0  0  0  0  0  # atno 11005 bound_to 11000
  145.9479  139.2713  143.1230 LP  0  0  0  0  0  0  0  0  0  0  0  0  # atno 17320 bound_to 7965
  145.9355  140.9018  143.0334 LP  0  0  0  0  0  0  0  0  0  0  0  0  # atno 17321 bound_to 7965
  140.6772  143.8164  150.7073 LP  0  0  0  0  0  0  0  0  0  0  0  0  # atno 17342 bound_to 10162
  140.1606  143.4279  152.2069 LP  0  0  0  0  0  0  0  0  0  0  0  0  # atno 17343 bound_to 10162
  157.7433  130.9910  150.2586 LP  0  0  0  0  0  0  0  0  0  0  0  0  # atno 17370 bound_to 10713
  156.3129  130.3774  149.7644 LP  0  0  0  0  0  0  0  0  0  0  0  0  # atno 17371 bound_to 10713
  140.7758  133.8701  155.8528 LP  0  0  0  0  0  0  0  0  0  0  0  0  # atno 17394 bound_to 11000
  140.9803  134.1414  157.4500 LP  0  0  0  0  0  0  0  0  0  0  0  0  # atno 17395 bound_to 11000

$$$$
