#       Name:                AV-unprocessed.smi:630
#       Creating user name   scv26
#       Creation time:       Fri Mar 27 00:04:13 2020


#       File generated by GOLD software.
#

@<TRIPOS>MOLECULE
AV-unprocessed.smi:630
    42    43     1
SMALL
NO_CHARGES


@<TRIPOS>ATOM
      1 ****        -0.0307  -1.1176  -3.2232 N.am           1 S1                 0.0000
      2 ****        -0.8096  -0.3559  -2.4503 C.2            1 S1                 0.0000
      3 ****        -1.1757   0.7652  -2.7978 O.2            1 S1                 0.0000
      4 ****        -1.2390  -0.9356  -1.0887 C.3            1 S1                 0.0000
      5 ****        -2.7750  -1.1281  -1.0862 C.3            1 S1                 0.0000
      6 ****        -3.2631  -2.1036  -0.0026 C.3            1 S1                 0.0000
      7 ****        -3.5648  -1.4637   1.3622 C.3            1 S1                 0.0000
      8 ****        -2.6150  -0.3395   1.8078 C.3            1 S1                 0.0000
      9 ****        -1.1282  -0.5696   1.4918 C.3            1 S1                 0.0000
     10 ****        -0.7097  -0.0678   0.0895 C.3            1 S1                 0.0000
     11 ****         0.7534   0.0011   0.0327 N.am           1 S1                 0.0000
     12 ****         1.5006   1.0590   0.3822 C.2            1 S1                 0.0000
     13 ****         1.0324   2.1025   0.8382 O.2            1 S1                 0.0000
     14 ****         2.8062   0.8218   0.1667 N.am           1 S1                 0.0000
     15 ****         3.9050   1.6932   0.3865 C.2            1 S1                 0.0000
     16 ****         3.7998   2.9306   0.8851 N.2            1 S1                 0.0000
     17 ****         5.0421   3.5606   0.9917 C.2            1 S1                 0.0000
     18 ****         6.0905   2.7824   0.5677 C.2            1 S1                 0.0000
     19 ****         5.5557   1.2180   0.0141 S.3            1 S1                 0.0000
     20 ****         0.2678  -0.7732  -4.1244 H              1 S1                 0.0000
     21 ****         0.2537  -2.0335  -2.9085 H              1 S1                 0.0000
     22 ****        -0.7817  -1.9235  -1.0054 H              1 S1                 0.0000
     23 ****        -3.2923  -0.1710  -1.0056 H              1 S1                 0.0000
     24 ****        -3.0781  -1.5426  -2.0494 H              1 S1                 0.0000
     25 ****        -4.1734  -2.5937  -0.3497 H              1 S1                 0.0000
     26 ****        -2.5370  -2.9077   0.1210 H              1 S1                 0.0000
     27 ****        -4.5800  -1.0649   1.3533 H              1 S1                 0.0000
     28 ****        -3.5675  -2.2521   2.1157 H              1 S1                 0.0000
     29 ****        -2.9363   0.6082   1.3739 H              1 S1                 0.0000
     30 ****        -2.7323  -0.2125   2.8846 H              1 S1                 0.0000
     31 ****        -0.5564  -0.0165   2.2386 H              1 S1                 0.0000
     32 ****        -0.8575  -1.6169   1.6323 H              1 S1                 0.0000
     33 ****        -1.1027   0.9432  -0.0371 H              1 S1                 0.0000
     34 ****         1.2287  -0.8141  -0.3250 H              1 S1                 0.0000
     35 ****         3.0409  -0.0841  -0.2108 H              1 S1                 0.0000
     36 ****         5.0883   4.5668   1.3813 H              1 S1                 0.0000
     37 ****         7.1405   3.0337   0.5474 H              1 S1                 0.0000
     38 ****        -0.8902   1.1324  -3.6831 LP             1 S1                 0.0000
     39 ****        -1.7589   1.3099  -2.1952 LP             1 S1                 0.0000
     40 ****         0.0447   2.1938   0.9655 LP             1 S1                 0.0000
     41 ****         1.6398   2.8588   1.0813 LP             1 S1                 0.0000
     42 ****         2.9338   3.3545   1.1502 LP             1 S1                 0.0000
@<TRIPOS>BOND
    1    1    2 am    
    2    1   20 1     
    3    1   21 1     
    4    2    3 2     
    5    2    4 1     
    6    4   10 1     
    7    4    5 1     
    8    4   22 1     
    9    5    6 1     
   10    5   23 1     
   11    5   24 1     
   12    6    7 1     
   13    6   25 1     
   14    6   26 1     
   15    7    8 1     
   16    7   27 1     
   17    7   28 1     
   18    8    9 1     
   19    8   29 1     
   20    8   30 1     
   21    9   10 1     
   22    9   31 1     
   23    9   32 1     
   24   10   11 1     
   25   10   33 1     
   26   11   12 am    
   27   11   34 1     
   28   12   13 2     
   29   12   14 am    
   30   14   15 1     
   31   14   35 1     
   32   15   19 1     
   33   15   16 2     
   34   16   17 1     
   35   17   18 2     
   36   17   36 1     
   37   18   19 1     
   38   18   37 1     
   39    3   38 1     
   40    3   39 1     
   41   13   40 1     
   42   13   41 1     
   43   16   42 1     
@<TRIPOS>SUBSTRUCTURE
      1 S1             1
@<TRIPOS>SET
LONE_PAIRS      STATIC     ATOMS    <user>   **** ""
5 38 39 40 41 42
DONOR_HYDROGENS      STATIC     ATOMS    <user>   **** ""
4 20 21 34 35
ATOM$BLUE        STATIC     ATOMS    COLORGROUP SYSTEM
5 38 39 40 41 42
ATOM$RED        STATIC     ATOMS    COLORGROUP SYSTEM
4 20 21 34 35
