AV-unprocessed.smi:2359|AV-procd|sdf|9407|dock1
  -GOLD-   2272013 43D 1   1.00000     0.00000
 Structure written by MMmdl.
 40 41  0  0  0  0  0  0  0  0  1 V2000
  150.8850  141.8470  156.7917 C   0  0  0  0  0  0  0  0  0  0  0  0
  150.1304  140.8698  155.9151 C   0  0  0  0  0  0  0  0  0  0  0  0
  150.6096  139.5642  155.6970 C   0  0  0  0  0  0  0  0  0  0  0  0
  149.8677  138.6987  154.8703 C   0  0  0  0  0  0  0  0  0  0  0  0
  148.6677  139.1570  154.2815 C   0  0  0  0  0  0  0  0  0  0  0  0
  148.0019  138.2084  153.4606 N   0  0  0  0  0  0  0  0  0  0  0  0
  146.6809  138.0696  153.2516 C   0  0  0  0  0  0  0  0  0  0  0  0
  145.7999  138.7502  153.7783 O   0  0  0  0  0  0  0  0  0  0  0  0
  146.4298  137.0783  152.3842 N   0  0  0  0  0  0  0  0  0  0  0  0
  145.1024  136.6698  151.9396 C   0  0  0  0  0  0  0  0  0  0  0  0
  145.1771  135.7425  150.7148 C   0  0  0  0  0  0  0  0  0  0  0  0
  144.4253  134.4187  150.9240 C   0  0  2  0  0  0  0  0  0  0  0  0
  145.1466  133.4976  151.9275 C   0  0  0  0  0  0  0  0  0  0  0  0
  144.4144  132.1564  152.0517 C   0  0  0  0  0  0  0  0  0  0  0  0
  144.2187  131.5423  150.6616 C   0  0  0  0  0  0  0  0  0  0  0  0
  143.5525  132.5565  149.7188 C   0  0  0  0  0  0  0  0  0  0  0  0
  144.3267  133.7508  149.6671 O   0  0  0  0  0  0  0  0  0  0  0  0
  148.2136  140.4166  154.4989 N   0  0  0  0  0  0  0  0  0  0  0  0
  148.9250  141.2455  155.2914 C   0  0  0  0  0  0  0  0  0  0  0  0
  151.7538  141.3764  157.2527 H   0  0  0  0  0  0  0  0  0  0  0  0
  150.2384  142.2206  157.5859 H   0  0  0  0  0  0  0  0  0  0  0  0
  151.2292  142.6956  156.2003 H   0  0  0  0  0  0  0  0  0  0  0  0
  151.5296  139.2276  156.1517 H   0  0  0  0  0  0  0  0  0  0  0  0
  150.2219  137.6938  154.6912 H   0  0  0  0  0  0  0  0  0  0  0  0
  148.6031  137.5678  152.9640 H   0  0  0  0  0  0  0  0  0  0  0  0
  147.2131  136.5705  152.0002 H   0  0  0  0  0  0  0  0  0  0  0  0
  144.5642  136.1844  152.7554 H   0  0  0  0  0  0  0  0  0  0  0  0
  144.5409  137.5712  151.6926 H   0  0  0  0  0  0  0  0  0  0  0  0
  144.7790  136.2554  149.8382 H   0  0  0  0  0  0  0  0  0  0  0  0
  146.2233  135.5254  150.4946 H   0  0  0  0  0  0  0  0  0  0  0  0
  143.4221  134.6392  151.2937 H   0  0  0  0  0  0  0  0  0  0  0  0
  146.1715  133.3238  151.5971 H   0  0  0  0  0  0  0  0  0  0  0  0
  145.2105  133.9777  152.9045 H   0  0  0  0  0  0  0  0  0  0  0  0
  144.9732  131.4749  152.6934 H   0  0  0  0  0  0  0  0  0  0  0  0
  143.4439  132.3104  152.5251 H   0  0  0  0  0  0  0  0  0  0  0  0
  145.1849  131.2461  150.2518 H   0  0  0  0  0  0  0  0  0  0  0  0
  143.6162  130.6363  150.7301 H   0  0  0  0  0  0  0  0  0  0  0  0
  143.4790  132.1411  148.7135 H   0  0  0  0  0  0  0  0  0  0  0  0
  142.5362  132.7832  150.0446 H   0  0  0  0  0  0  0  0  0  0  0  0
  148.5202  142.2374  155.4294 H   0  0  0  0  0  0  0  0  0  0  0  0
  1  2  1  0  0  0  0
  1 20  1  0  0  0  0
  1 21  1  0  0  0  0
  1 22  1  0  0  0  0
  2 19  1  0  0  0  0
  2  3  2  0  0  0  0
  3  4  1  0  0  0  0
  3 23  1  0  0  0  0
  4  5  2  0  0  0  0
  4 24  1  0  0  0  0
  5  6  1  0  0  0  0
  5 18  1  0  0  0  0
  6  7  1  0  0  0  0
  6 25  1  0  0  0  0
  7  8  2  0  0  0  0
  7  9  1  0  0  0  0
  9 10  1  0  0  0  0
  9 26  1  0  0  0  0
 10 11  1  0  0  0  0
 10 27  1  0  0  0  0
 10 28  1  0  0  0  0
 11 12  1  0  0  0  0
 11 29  1  0  0  0  0
 11 30  1  0  0  0  0
 12 17  1  0  0  0  0
 12 13  1  0  0  0  0
 12 31  1  0  0  0  0
 13 14  1  0  0  0  0
 13 32  1  0  0  0  0
 13 33  1  0  0  0  0
 14 15  1  0  0  0  0
 14 34  1  0  0  0  0
 14 35  1  0  0  0  0
 15 16  1  0  0  0  0
 15 36  1  0  0  0  0
 15 37  1  0  0  0  0
 16 17  1  0  0  0  0
 16 38  1  0  0  0  0
 16 39  1  0  0  0  0
 18 19  2  0  0  0  0
 19 40  1  0  0  0  0
M  END
> <s_m_source_file>
AV-unprocessed.smi

> <i_m_source_file_index>
2359

> <i_lp_mmshare_version>
43012

> <i_f3d_flags>
0

> <s_epik_input>
W0NIM11jMVtjSF1bY0hdYyhuW2NIXTEpW05IXUMoPU8pW05IXVtDSDJdW0NIMl1bQ0BASF0yW0NIMl1bQ0gyXVtDSDJdW0NIMl1PMg==

> <s_epik_cmdline>
J2VwaWtfcHl0aG9uJywgJy1waCcsICc3LjAnLCAnLXRuJywgJzgnLCAnLW1hJywgJzIwMCcsICctbWV0YWxfYmluZGluZycsICctaW1hZScsICc8aW5maWxlLm1hZT4nLCAnLW9tYWUnLCAnPG91dGZpbGUubWFlPic=

> <r_lp_tautomer_probability>
1

> <r_epik_Ionization_Penalty>
5.73679e-05

> <r_epik_Ionization_Penalty_Charging>
0

> <r_epik_Ionization_Penalty_Neutral>
5.73679e-05

> <r_epik_State_Penalty>
-0

> <r_epik_Charging_Adjusted_Penalty>
0

> <i_epik_Tot_Q>
0

> <i_epik_Tot_abs_Q>
0

> <r_epik_Metal_State_Penalty>
-0

> <b_epik_Metal_Only>
0

> <s_lp_Force_Field>
OPLS_2005

> <r_lp_Energy>
10.9797

> <b_lp_Chiralities_Consistent>
1

> <s_lp_Variant>
AV-unprocessed.smi:2359-1

> <Gold.Version>
5.8.1

> <Gold.Id.Protein>
6NUR|6NUR_protein|mol2

> <Gold.PLP.Fitness>
44.0689

> <Gold.PLP.PLP>
-36.6396

> <Gold.PLP.part.hbond>
-2.7675

> <Gold.PLP.part.metal>
0.0000

> <Gold.PLP.part.buried>
-4.8383

> <Gold.PLP.part.nonpolar>
-30.8622

> <Gold.PLP.part.repulsive>
1.7974

> <Gold.PLP.ligand.clash>
0.0000

> <Gold.PLP.ligand.torsion>
0.7158

> <Gold.PLP.Chemscore.Hbond>
1.9520

> <Gold.PLP.Chemscore.CHOScore>
1.0000

> <Gold.PLP.Chemscore.Metal>
0.0000

> <Gold.Chemscore.Hbonds>
donor molecule, donor type, donor heavy atom, donor atom, acceptor molecule, acceptor atom, score
      L1  H     6    25       P1  7948  1.00
      L1  H     9    26       P1  7948  1.00
      L1  C    19    40       P1  8028  1.00

> <Gold.PLP.Chemscore.Internal.Correction>
0.0050

> <Gold.Rescore>
     Score         DG    S(hbond)    S(metal)    S(lipo)     H(rot)  DE(clash)    DE(int)     intcor
     15.18     -18.19       1.86        0.00      86.75       1.42       1.35       1.66       ----

> <Gold.Chemscore.Fitness>
15.1792

> <Gold.Chemscore.DG>
-18.1904

> <Gold.Chemscore.ZeroCoef>
-5.4800

> <Gold.Chemscore.Hbond>
1.8586

> <Gold.Chemscore.Metal>
0.0000

> <Gold.Chemscore.Lipo>
86.7541

> <Gold.Chemscore.Internal_Hbond>
0.0000

> <Gold.Chemscore.DEClash>
1.3500

> <Gold.Chemscore.DEInternal>
1.6612

> <Gold.Chemscore.Rot>
1.4248

> <Gold.Chemscore.Internal.Correction>
   9.000000E+99

> <Gold.Chemscore.Hbonds>
donor molecule, donor type, donor heavy atom, donor atom, acceptor molecule, acceptor atom, score
      L1  H     6    25       P1  7948  0.99
      L1  H     9    26       P1  7948  0.97

> <Gold.Chemscore.Hbond.Weighted>
-6.2078

> <Gold.Chemscore.Metal.Weighted>
-0.0000

> <Gold.Chemscore.Lipo.Weighted>
-10.1502

> <Gold.Chemscore.Internal_Hbond.Weighted>
0.0000

> <Gold.Chemscore.DEClash.Weighted>
1.3500

> <Gold.Chemscore.DEInternal.Weighted>
1.6612

> <Gold.Chemscore.Rot.Weighted>
3.6476

> <Gold.Chemscore.Internal.Correction.Weighted>
   9.000000E+99

> <Gold.Protein.RotatedTorsions>
[ 6907 6896 6895 6894 ] final -101.69 input  -60.11 | X-H torsion
[ 7974 7965 7964 7962 ] final -178.14 input  175.53 | X-H torsion
[ 8008 7997 7996 7995 ] final -111.13 input   59.86 | X-H torsion
[ 10167 10162 10161 10158 ] final  154.50 input  -65.29 | X-H torsion
[ 10718 10713 10712 10709 ] final  -27.49 input   66.30 | X-H torsion
[ 10763 10752 10751 10750 ] final  164.80 input  -60.55 | X-H torsion
[ 11005 11000 10999 10996 ] final  103.91 input  -57.11 | X-H torsion

> <Gold.Protein.ActiveResidues>
 VAL166  LYS551  ARG553  GLY616  TRP617  ASP618  TYR619  PRO620  LYS621  CYS622 
 ASP623  PHE694  ASN695  SER759  ASP760  ASP761  ALA762  ILE779  LEU786  VAL792 
 PHE793  MET794  SER795  GLU796  ALA797  LYS798  CYS799  TRP800  GLU811  SER814 

> <Gold.Protein.RotatedAtoms>
  150.7165  134.0695  159.3859 H   0  0  0  0  0  0  0  0  0  0  0  0  # atno 6907 bound_to 6896
  151.8677  135.0499  160.0485 H   0  0  0  0  0  0  0  0  0  0  0  0  # atno 6908 bound_to 6896
  152.2668  133.5310  159.5451 H   0  0  0  0  0  0  0  0  0  0  0  0  # atno 6909 bound_to 6896
  144.7130  140.0913  143.6421 H   0  0  0  0  0  0  0  0  0  0  0  0  # atno 7974 bound_to 7965
  154.9850  140.0396  157.2294 H   0  0  0  0  0  0  0  0  0  0  0  0  # atno 8008 bound_to 7997
  154.7679  140.2796  155.6138 H   0  0  0  0  0  0  0  0  0  0  0  0  # atno 8009 bound_to 7997
  156.2916  140.2615  156.2475 H   0  0  0  0  0  0  0  0  0  0  0  0  # atno 8010 bound_to 7997
  139.4823  144.5181  151.7919 H   0  0  0  0  0  0  0  0  0  0  0  0  # atno 10167 bound_to 10162
  156.4374  130.4457  149.7075 H   0  0  0  0  0  0  0  0  0  0  0  0  # atno 10718 bound_to 10713
  154.3144  135.2757  155.2550 H   0  0  0  0  0  0  0  0  0  0  0  0  # atno 10763 bound_to 10752
  154.4931  135.5828  153.6477 H   0  0  0  0  0  0  0  0  0  0  0  0  # atno 10764 bound_to 10752
  152.9884  135.6139  154.3324 H   0  0  0  0  0  0  0  0  0  0  0  0  # atno 10765 bound_to 10752
  139.8787  134.9281  156.5282 H   0  0  0  0  0  0  0  0  0  0  0  0  # atno 11005 bound_to 11000
  145.9617  139.2805  143.1151 LP  0  0  0  0  0  0  0  0  0  0  0  0  # atno 17320 bound_to 7965
  145.9213  140.9113  143.0403 LP  0  0  0  0  0  0  0  0  0  0  0  0  # atno 17321 bound_to 7965
  140.4692  144.1611  150.5915 LP  0  0  0  0  0  0  0  0  0  0  0  0  # atno 17342 bound_to 10162
  140.4401  143.2530  151.9484 LP  0  0  0  0  0  0  0  0  0  0  0  0  # atno 17343 bound_to 10162
  156.3954  130.7648  151.2652 LP  0  0  0  0  0  0  0  0  0  0  0  0  # atno 17370 bound_to 10713
  157.7507  131.0255  150.3924 LP  0  0  0  0  0  0  0  0  0  0  0  0  # atno 17371 bound_to 10713
  140.8400  133.8212  155.9066 LP  0  0  0  0  0  0  0  0  0  0  0  0  # atno 17394 bound_to 11000
  140.9246  134.2098  157.4904 LP  0  0  0  0  0  0  0  0  0  0  0  0  # atno 17395 bound_to 11000

$$$$
