AV-unprocessed.smi:2881|AV-procd|sdf|11061|dock3
  -GOLD-   2272015533D 1   1.00000     0.00000
 Structure written by MMmdl.
 40 42  0  0  0  0  0  0  0  0  1 V2000
  138.0584  137.4286  154.3914 C   0  0  0  0  0  0  0  0  0  0  0  0
  139.4689  136.9895  154.1904 C   0  0  0  0  0  0  0  0  0  0  0  0
  140.3312  137.1694  153.1462 C   0  0  0  0  0  0  0  0  0  0  0  0
  141.5315  136.5208  153.5626 C   0  0  0  0  0  0  0  0  0  0  0  0
  142.8358  136.4211  152.8169 C   0  0  0  0  0  0  0  0  0  0  0  0
  143.2695  134.9576  152.7469 C   0  0  0  0  0  0  0  0  0  0  0  0
  143.5611  134.3500  153.7768 O   0  0  0  0  0  0  0  0  0  0  0  0
  143.2712  134.3989  151.5269 N   0  0  0  0  0  0  0  0  0  0  0  0
  143.4959  132.9823  151.2396 C   0  0  2  0  0  0  0  0  0  0  0  0
  144.7318  132.4129  151.9788 C   0  0  2  0  0  0  0  0  0  0  0  0
  145.9744  133.3057  151.7737 C   0  0  0  0  0  0  0  0  0  0  0  0
  146.3150  133.0705  150.2915 C   0  0  0  0  0  0  0  0  0  0  0  0
  145.2427  132.0531  149.8468 C   0  0  1  0  0  0  0  0  0  0  0  0
  145.0926  131.2125  151.1093 C   0  0  0  0  0  0  0  0  0  0  0  0
  143.8358  132.6933  149.7481 C   0  0  2  0  0  0  0  0  0  0  0  0
  143.6941  133.8653  148.7479 C   0  0  0  0  0  0  0  0  0  0  0  0
  143.8271  133.4015  147.4214 O   0  0  0  0  0  0  0  0  0  0  0  0
  141.4185  135.9763  154.7668 N   0  0  0  0  0  0  0  0  0  0  0  0
  140.1588  136.2705  155.1390 N   0  0  0  0  0  0  0  0  0  0  0  0
  139.7872  135.9761  156.0310 H   0  0  0  0  0  0  0  0  0  0  0  0
  137.6469  137.8491  153.4736 H   0  0  0  0  0  0  0  0  0  0  0  0
  137.9982  138.1916  155.1677 H   0  0  0  0  0  0  0  0  0  0  0  0
  137.4280  136.5903  154.6891 H   0  0  0  0  0  0  0  0  0  0  0  0
  140.1392  137.6949  152.2222 H   0  0  0  0  0  0  0  0  0  0  0  0
  142.7464  136.8258  151.8075 H   0  0  0  0  0  0  0  0  0  0  0  0
  143.6070  137.0051  153.3202 H   0  0  0  0  0  0  0  0  0  0  0  0
  143.0207  134.9843  150.7429 H   0  0  0  0  0  0  0  0  0  0  0  0
  142.6202  132.3970  151.5268 H   0  0  0  0  0  0  0  0  0  0  0  0
  144.5386  132.1755  153.0254 H   0  0  0  0  0  0  0  0  0  0  0  0
  145.8060  134.3573  152.0058 H   0  0  0  0  0  0  0  0  0  0  0  0
  146.7946  132.9644  152.4069 H   0  0  0  0  0  0  0  0  0  0  0  0
  146.3093  133.9891  149.7068 H   0  0  0  0  0  0  0  0  0  0  0  0
  147.3118  132.6375  150.1996 H   0  0  0  0  0  0  0  0  0  0  0  0
  145.5241  131.4860  148.9589 H   0  0  0  0  0  0  0  0  0  0  0  0
  146.0164  130.7171  151.4144 H   0  0  0  0  0  0  0  0  0  0  0  0
  144.2962  130.4688  151.0452 H   0  0  0  0  0  0  0  0  0  0  0  0
  143.1491  131.9148  149.4099 H   0  0  0  0  0  0  0  0  0  0  0  0
  142.7102  134.3247  148.8454 H   0  0  0  0  0  0  0  0  0  0  0  0
  144.4257  134.6527  148.9265 H   0  0  0  0  0  0  0  0  0  0  0  0
  142.9801  133.4407  147.0040 H   0  0  0  0  0  0  0  0  0  0  0  0
  1  2  1  0  0  0  0
  1 21  1  0  0  0  0
  1 22  1  0  0  0  0
  1 23  1  0  0  0  0
  2 19  1  0  0  0  0
  2  3  2  0  0  0  0
  3  4  1  0  0  0  0
  3 24  1  0  0  0  0
  4  5  1  0  0  0  0
  4 18  2  0  0  0  0
  5  6  1  0  0  0  0
  5 25  1  0  0  0  0
  5 26  1  0  0  0  0
  6  7  2  0  0  0  0
  6  8  1  0  0  0  0
  8  9  1  0  0  0  0
  8 27  1  0  0  0  0
  9 15  1  0  0  0  0
  9 10  1  0  0  0  0
  9 28  1  0  0  0  0
 10 14  1  0  0  0  0
 10 11  1  0  0  0  0
 10 29  1  0  0  0  0
 11 12  1  0  0  0  0
 11 30  1  0  0  0  0
 11 31  1  0  0  0  0
 12 13  1  0  0  0  0
 12 32  1  0  0  0  0
 12 33  1  0  0  0  0
 13 14  1  0  0  0  0
 13 15  1  0  0  0  0
 13 34  1  0  0  0  0
 14 35  1  0  0  0  0
 14 36  1  0  0  0  0
 15 16  1  0  0  0  0
 15 37  1  0  0  0  0
 16 17  1  0  0  0  0
 16 38  1  0  0  0  0
 16 39  1  0  0  0  0
 17 40  1  0  0  0  0
 18 19  1  0  0  0  0
 19 20  1  0  0  0  0
M  END
> <s_m_source_file>
AV-unprocessed.smi

> <i_m_source_file_index>
2881

> <i_lp_mmshare_version>
43012

> <i_f3d_flags>
0

> <s_epik_input>
W0NIM11jMVtjSF1jKG5bbkhdMSlbQ0gyXUMoPU8pW05IXVtDQEhdKFtDQEBIXTIzKVtDQEhdKFtDSDJdW09IXSlbQ0BASF0oW0NIMl0zKVtDSDJdW0NIMl0y

> <s_epik_cmdline>
J2VwaWtfcHl0aG9uJywgJy1waCcsICc3LjAnLCAnLXRuJywgJzgnLCAnLW1hJywgJzIwMCcsICctbWV0YWxfYmluZGluZycsICctaW1hZScsICc8aW5maWxlLm1hZT4nLCAnLW9tYWUnLCAnPG91dGZpbGUubWFlPic=

> <r_lp_tautomer_probability>
0.5

> <r_epik_Ionization_Penalty>
9.4349e-05

> <r_epik_Ionization_Penalty_Charging>
0

> <r_epik_Ionization_Penalty_Neutral>
9.4349e-05

> <r_epik_State_Penalty>
0.41068

> <r_epik_Charging_Adjusted_Penalty>
0.41068

> <i_epik_Tot_Q>
0

> <i_epik_Tot_abs_Q>
0

> <r_epik_Metal_State_Penalty>
0.4107

> <b_epik_Metal_Only>
0

> <s_lp_Force_Field>
OPLS_2005

> <r_lp_Energy>
48.5283

> <b_lp_Chiralities_Consistent>
1

> <s_lp_Variant>
AV-unprocessed.smi:2881-7

> <Gold.Version>
5.8.1

> <Gold.Id.Protein>
6NUR|6NUR_protein|mol2

> <Gold.PLP.Fitness>
42.8268

> <Gold.PLP.PLP>
-36.8384

> <Gold.PLP.part.hbond>
-6.0000

> <Gold.PLP.part.metal>
0.0000

> <Gold.PLP.part.buried>
-3.0475

> <Gold.PLP.part.nonpolar>
-30.0192

> <Gold.PLP.part.repulsive>
1.4098

> <Gold.PLP.ligand.clash>
0.0000

> <Gold.PLP.ligand.torsion>
0.3010

> <Gold.PLP.Chemscore.Hbond>
2.1920

> <Gold.PLP.Chemscore.CHOScore>
0.0000

> <Gold.PLP.Chemscore.Metal>
0.0000

> <Gold.Chemscore.Hbonds>
donor molecule, donor type, donor heavy atom, donor atom, acceptor molecule, acceptor atom, score
      L1  H     8    27       P1 10186  0.02
      L1  H    17    40       P1 10195  1.00
      L1  H    19    20       P1 11000  0.35
      P1  H  7918  7932       L1    17  0.82

> <Gold.PLP.Chemscore.Internal.Correction>
0.0144

> <Gold.Rescore>
     Score         DG    S(hbond)    S(metal)    S(lipo)     H(rot)  DE(clash)    DE(int)     intcor
     13.62     -19.56       2.14        0.00     109.15       2.28       3.45       2.49       ----

> <Gold.Chemscore.Fitness>
13.6227

> <Gold.Chemscore.DG>
-19.5642

> <Gold.Chemscore.ZeroCoef>
-5.4800

> <Gold.Chemscore.Hbond>
2.1373

> <Gold.Chemscore.Metal>
0.0000

> <Gold.Chemscore.Lipo>
109.1513

> <Gold.Chemscore.Internal_Hbond>
0.0000

> <Gold.Chemscore.DEClash>
3.4536

> <Gold.Chemscore.DEInternal>
2.4878

> <Gold.Chemscore.Rot>
2.2755

> <Gold.Chemscore.Internal.Correction>
   9.000000E+99

> <Gold.Chemscore.Hbonds>
donor molecule, donor type, donor heavy atom, donor atom, acceptor molecule, acceptor atom, score
      L1  H    17    40       P1 10195  0.97
      L1  H    19    20       P1 11000  0.30
      P1  H  7918  7932       L1    17  0.57

> <Gold.Chemscore.Hbond.Weighted>
-7.1387

> <Gold.Chemscore.Metal.Weighted>
-0.0000

> <Gold.Chemscore.Lipo.Weighted>
-12.7707

> <Gold.Chemscore.Internal_Hbond.Weighted>
0.0000

> <Gold.Chemscore.DEClash.Weighted>
3.4536

> <Gold.Chemscore.DEInternal.Weighted>
2.4878

> <Gold.Chemscore.Rot.Weighted>
5.8252

> <Gold.Chemscore.Internal.Correction.Weighted>
   9.000000E+99

> <Gold.Protein.RotatedTorsions>
[ 6907 6896 6895 6894 ] final   45.92 input  -60.11 | X-H torsion
[ 7974 7965 7964 7962 ] final -168.25 input  175.53 | X-H torsion
[ 8008 7997 7996 7995 ] final -163.81 input   59.86 | X-H torsion
[ 10167 10162 10161 10158 ] final  -64.53 input  -65.29 | X-H torsion
[ 10718 10713 10712 10709 ] final  -59.59 input   66.30 | X-H torsion
[ 10763 10752 10751 10750 ] final  102.15 input  -60.55 | X-H torsion
[ 11005 11000 10999 10996 ] final -127.58 input  -57.11 | X-H torsion

> <Gold.Protein.ActiveResidues>
 VAL166  LYS551  ARG553  GLY616  TRP617  ASP618  TYR619  PRO620  LYS621  CYS622 
 ASP623  PHE694  ASN695  SER759  ASP760  ASP761  ALA762  ILE779  LEU786  VAL792 
 PHE793  MET794  SER795  GLU796  ALA797  LYS798  CYS799  TRP800  GLU811  SER814 

> <Gold.Protein.RotatedAtoms>
  152.2502  134.8140  160.0446 H   0  0  0  0  0  0  0  0  0  0  0  0  # atno 6907 bound_to 6896
  151.8823  133.3493  159.3778 H   0  0  0  0  0  0  0  0  0  0  0  0  # atno 6908 bound_to 6896
  150.7081  134.4933  159.5570 H   0  0  0  0  0  0  0  0  0  0  0  0  # atno 6909 bound_to 6896
  144.7207  140.2398  143.6293 H   0  0  0  0  0  0  0  0  0  0  0  0  # atno 7974 bound_to 7965
  155.8266  140.0927  157.1818 H   0  0  0  0  0  0  0  0  0  0  0  0  # atno 8008 bound_to 7997
  154.3979  140.1427  156.3624 H   0  0  0  0  0  0  0  0  0  0  0  0  # atno 8009 bound_to 7997
  155.8210  140.3446  155.5517 H   0  0  0  0  0  0  0  0  0  0  0  0  # atno 8010 bound_to 7997
  140.5794  143.2325  151.6373 H   0  0  0  0  0  0  0  0  0  0  0  0  # atno 10167 bound_to 10162
  156.1051  130.4181  150.0736 H   0  0  0  0  0  0  0  0  0  0  0  0  # atno 10718 bound_to 10713
  153.3358  135.4020  155.1532 H   0  0  0  0  0  0  0  0  0  0  0  0  # atno 10763 bound_to 10752
  154.8633  135.3621  154.5410 H   0  0  0  0  0  0  0  0  0  0  0  0  # atno 10764 bound_to 10752
  153.5852  135.7075  153.5506 H   0  0  0  0  0  0  0  0  0  0  0  0  # atno 10765 bound_to 10752
  140.9587  134.0966  157.3990 H   0  0  0  0  0  0  0  0  0  0  0  0  # atno 11005 bound_to 11000
  145.8330  139.2095  143.1871 LP  0  0  0  0  0  0  0  0  0  0  0  0  # atno 17320 bound_to 7965
  146.0414  140.8161  142.9827 LP  0  0  0  0  0  0  0  0  0  0  0  0  # atno 17321 bound_to 7965
  139.5161  144.3357  152.0786 LP  0  0  0  0  0  0  0  0  0  0  0  0  # atno 17342 bound_to 10162
  140.2505  144.4174  150.6224 LP  0  0  0  0  0  0  0  0  0  0  0  0  # atno 17343 bound_to 10162
  156.8714  130.9525  151.3609 LP  0  0  0  0  0  0  0  0  0  0  0  0  # atno 17370 bound_to 10713
  157.6226  130.8667  149.9135 LP  0  0  0  0  0  0  0  0  0  0  0  0  # atno 17371 bound_to 10713
  139.8871  135.0087  156.6538 LP  0  0  0  0  0  0  0  0  0  0  0  0  # atno 17394 bound_to 11000
  140.7498  133.8906  155.8339 LP  0  0  0  0  0  0  0  0  0  0  0  0  # atno 17395 bound_to 11000

$$$$
