AV-unprocessed.smi:1240|AV-procd|sdf|5206|dock7
  -GOLD-   22720 4293D 1   1.00000     0.00000
 Structure written by MMmdl.
 48 50  0  0  0  0  0  0  0  0  2 V2000
  146.2692  131.4657  153.7878 O   0  0  0  0  0  0  0  0  0  0  0  0
  147.0777  131.3973  152.8624 C   0  0  0  0  0  0  0  0  0  0  0  0
  148.2927  130.8442  152.9830 N   0  0  0  0  0  0  0  0  0  0  0  0
  148.8237  130.2487  154.2056 C   0  0  0  0  0  0  0  0  0  0  0  0
  149.9976  129.2637  153.9381 C   0  0  1  0  0  0  0  0  0  0  0  0
  151.0988  129.3310  155.0395 C   0  0  1  0  0  0  0  0  0  0  0  0
  152.4004  128.5597  154.8066 C   0  0  0  0  0  0  0  0  0  0  0  0
  153.4915  129.5235  155.2795 C   0  0  0  0  0  0  0  0  0  0  0  0
  152.8087  130.4705  156.0872 O   0  0  0  0  0  0  0  0  0  0  0  0
  151.5691  130.7311  155.4504 C   0  0  0  0  0  0  0  0  0  0  0  0
  149.5873  127.8999  153.5511 N   0  0  0  0  0  0  0  0  0  0  0  0
  148.8507  127.1505  154.5671 C   0  0  0  0  0  0  0  0  0  0  0  0
  148.5486  125.7129  154.1087 C   0  0  0  0  0  0  0  0  0  0  0  0
  147.8547  125.7346  152.8657 O   0  0  0  0  0  0  0  0  0  0  0  0
  148.5856  126.4026  151.8428 C   0  0  0  0  0  0  0  0  0  0  0  0
  148.8680  127.8492  152.2802 C   0  0  0  0  0  0  0  0  0  0  0  0
  146.8637  131.8353  151.6096 N   0  0  0  0  0  0  0  0  0  0  0  0
  145.7111  132.4786  151.0816 C   0  0  0  0  0  0  0  0  0  0  0  0
  145.4164  132.2734  149.7152 C   0  0  0  0  0  0  0  0  0  0  0  0
  144.2917  132.9027  149.1436 C   0  0  0  0  0  0  0  0  0  0  0  0
  143.5120  133.7035  149.9010 N   0  3  0  0  0  0  0  0  0  0  0  0
  143.7612  133.9418  151.2064 C   0  0  0  0  0  0  0  0  0  0  0  0
  144.8716  133.3399  151.8333 C   0  0  0  0  0  0  0  0  0  0  0  0
  148.8935  130.8246  152.1720 H   0  0  0  0  0  0  0  0  0  0  0  0
  149.1443  131.0637  154.8534 H   0  0  0  0  0  0  0  0  0  0  0  0
  148.0043  129.7561  154.7290 H   0  0  0  0  0  0  0  0  0  0  0  0
  150.5059  129.6597  153.0578 H   0  0  0  0  0  0  0  0  0  0  0  0
  150.6643  128.9000  155.9428 H   0  0  0  0  0  0  0  0  0  0  0  0
  152.4040  127.6496  155.4075 H   0  0  0  0  0  0  0  0  0  0  0  0
  152.5639  128.2588  153.7732 H   0  0  0  0  0  0  0  0  0  0  0  0
  154.2845  129.0219  155.8344 H   0  0  0  0  0  0  0  0  0  0  0  0
  153.9433  130.0380  154.4303 H   0  0  0  0  0  0  0  0  0  0  0  0
  151.7467  131.3839  154.5951 H   0  0  0  0  0  0  0  0  0  0  0  0
  150.8691  131.2290  156.1216 H   0  0  0  0  0  0  0  0  0  0  0  0
  149.4268  127.0920  155.4877 H   0  0  0  0  0  0  0  0  0  0  0  0
  147.9141  127.6562  154.8031 H   0  0  0  0  0  0  0  0  0  0  0  0
  149.4719  125.1410  154.0050 H   0  0  0  0  0  0  0  0  0  0  0  0
  147.9366  125.1997  154.8504 H   0  0  0  0  0  0  0  0  0  0  0  0
  149.5160  125.8695  151.6404 H   0  0  0  0  0  0  0  0  0  0  0  0
  148.0022  126.3914  150.9222 H   0  0  0  0  0  0  0  0  0  0  0  0
  147.9171  128.3755  152.3605 H   0  0  0  0  0  0  0  0  0  0  0  0
  149.4443  128.3547  151.5046 H   0  0  0  0  0  0  0  0  0  0  0  0
  147.5914  131.6316  150.9404 H   0  0  0  0  0  0  0  0  0  0  0  0
  146.0410  131.6342  149.1081 H   0  0  0  0  0  0  0  0  0  0  0  0
  143.9956  132.7914  148.1107 H   0  0  0  0  0  0  0  0  0  0  0  0
  143.0731  134.6073  151.7066 H   0  0  0  0  0  0  0  0  0  0  0  0
  145.0628  133.5605  152.8721 H   0  0  0  0  0  0  0  0  0  0  0  0
  142.7035  134.1509  149.4679 H   0  0  0  0  0  0  0  0  0  0  0  0
  1  2  2  0  0  0  0
  2  3  1  0  0  0  0
  2 17  1  0  0  0  0
  3  4  1  0  0  0  0
  3 24  1  0  0  0  0
  4  5  1  0  0  0  0
  4 25  1  0  0  0  0
  4 26  1  0  0  0  0
  5  6  1  0  0  0  0
  5 11  1  0  0  0  0
  5 27  1  0  0  0  0
  6 10  1  0  0  0  0
  6  7  1  0  0  0  0
  6 28  1  0  0  0  0
  7  8  1  0  0  0  0
  7 29  1  0  0  0  0
  7 30  1  0  0  0  0
  8  9  1  0  0  0  0
  8 31  1  0  0  0  0
  8 32  1  0  0  0  0
  9 10  1  0  0  0  0
 10 33  1  0  0  0  0
 10 34  1  0  0  0  0
 11 16  1  0  0  0  0
 11 12  1  0  0  0  0
 12 13  1  0  0  0  0
 12 35  1  0  0  0  0
 12 36  1  0  0  0  0
 13 14  1  0  0  0  0
 13 37  1  0  0  0  0
 13 38  1  0  0  0  0
 14 15  1  0  0  0  0
 15 16  1  0  0  0  0
 15 39  1  0  0  0  0
 15 40  1  0  0  0  0
 16 41  1  0  0  0  0
 16 42  1  0  0  0  0
 17 18  1  0  0  0  0
 17 43  1  0  0  0  0
 18 23  1  0  0  0  0
 18 19  2  0  0  0  0
 19 20  1  0  0  0  0
 19 44  1  0  0  0  0
 20 21  2  0  0  0  0
 20 45  1  0  0  0  0
 21 22  1  0  0  0  0
 21 48  1  0  0  0  0
 22 23  2  0  0  0  0
 22 46  1  0  0  0  0
 23 47  1  0  0  0  0
M  CHG  1  21   1
M  END
> <s_m_source_file>
AV-unprocessed.smi

> <i_m_source_file_index>
1240

> <i_lp_mmshare_version>
43012

> <i_f3d_flags>
0

> <s_epik_input>
W2NIXTFbY0hdbltjSF1bY0hdYzFbTkhdQyg9TylbTkhdW0NIMl1bQ0BIXShbQ0BASF0yW0NIMl1bQ0gyXU9bQ0gyXTIpTjNbQ0gyXVtDSDJdT1tDSDJdW0NIMl0z

> <s_epik_cmdline>
J2VwaWtfcHl0aG9uJywgJy1waCcsICc3LjAnLCAnLXRuJywgJzgnLCAnLW1hJywgJzIwMCcsICctbWV0YWxfYmluZGluZycsICctaW1hZScsICc8aW5maWxlLm1hZT4nLCAnLW9tYWUnLCAnPG91dGZpbGUubWFlPic=

> <r_epik_Ionization_Penalty>
1.15944

> <r_epik_Ionization_Penalty_Charging>
1.0344

> <r_epik_Ionization_Penalty_Neutral>
0.125034

> <r_epik_State_Penalty>
1.2199

> <r_epik_Charging_Adjusted_Penalty>
2.25431

> <i_epik_Tot_Q>
1

> <i_epik_Tot_abs_Q>
1

> <r_epik_Metal_State_Penalty>
1.3155

> <b_epik_Metal_Only>
0

> <s_lp_Force_Field>
OPLS_2005

> <r_lp_Energy>
63.7867

> <b_lp_Chiralities_Consistent>
1

> <s_lp_Variant>
AV-unprocessed.smi:1240-12

> <Gold.Version>
5.8.1

> <Gold.Id.Protein>
6NUR|6NUR_protein|mol2

> <Gold.PLP.Fitness>
47.6067

> <Gold.PLP.PLP>
-37.0682

> <Gold.PLP.part.hbond>
-4.0000

> <Gold.PLP.part.metal>
0.0000

> <Gold.PLP.part.buried>
-4.2619

> <Gold.PLP.part.nonpolar>
-29.3260

> <Gold.PLP.part.repulsive>
0.9171

> <Gold.PLP.ligand.clash>
0.0000

> <Gold.PLP.ligand.torsion>
0.8791

> <Gold.PLP.Chemscore.Hbond>
4.0000

> <Gold.PLP.Chemscore.CHOScore>
0.0000

> <Gold.PLP.Chemscore.Metal>
0.0000

> <Gold.Chemscore.Hbonds>
donor molecule, donor type, donor heavy atom, donor atom, acceptor molecule, acceptor atom, score
      L1  H     3    24       P1 10747  0.94
      L1  H    17    43       P1 10747  1.00
      L1  H    21    48       P1 10186  1.89

> <Gold.PLP.Chemscore.Internal.Correction>
0.2968

> <Gold.Rescore>
     Score         DG    S(hbond)    S(metal)    S(lipo)     H(rot)  DE(clash)    DE(int)     intcor
     18.64     -20.23       2.55        0.00      90.39       1.69       0.59       1.00       ----

> <Gold.Chemscore.Fitness>
18.6373

> <Gold.Chemscore.DG>
-20.2267

> <Gold.Chemscore.ZeroCoef>
-5.4800

> <Gold.Chemscore.Hbond>
2.5452

> <Gold.Chemscore.Metal>
0.0000

> <Gold.Chemscore.Lipo>
90.3870

> <Gold.Chemscore.Internal_Hbond>
0.0000

> <Gold.Chemscore.DEClash>
0.5903

> <Gold.Chemscore.DEInternal>
0.9992

> <Gold.Chemscore.Rot>
1.6912

> <Gold.Chemscore.Internal.Correction>
   9.000000E+99

> <Gold.Chemscore.Hbonds>
donor molecule, donor type, donor heavy atom, donor atom, acceptor molecule, acceptor atom, score
      L1  H     3    24       P1 10747  0.51
      L1  H    17    43       P1 10747  0.99
      L1  H    21    48       P1 10186  0.91

> <Gold.Chemscore.Hbond.Weighted>
-8.5009

> <Gold.Chemscore.Metal.Weighted>
-0.0000

> <Gold.Chemscore.Lipo.Weighted>
-10.5753

> <Gold.Chemscore.Internal_Hbond.Weighted>
0.0000

> <Gold.Chemscore.DEClash.Weighted>
0.5903

> <Gold.Chemscore.DEInternal.Weighted>
0.9992

> <Gold.Chemscore.Rot.Weighted>
4.3295

> <Gold.Chemscore.Internal.Correction.Weighted>
   9.000000E+99

> <Gold.Protein.RotatedTorsions>
[ 6907 6896 6895 6894 ] final   28.97 input  -60.11 | X-H torsion
[ 7974 7965 7964 7962 ] final  117.57 input  175.53 | X-H torsion
[ 8008 7997 7996 7995 ] final -143.97 input   59.86 | X-H torsion
[ 10167 10162 10161 10158 ] final -136.64 input  -65.29 | X-H torsion
[ 10718 10713 10712 10709 ] final -140.96 input   66.30 | X-H torsion
[ 10763 10752 10751 10750 ] final -146.56 input  -60.55 | X-H torsion
[ 11005 11000 10999 10996 ] final  -41.45 input  -57.11 | X-H torsion

> <Gold.Protein.ActiveResidues>
 VAL166  LYS551  ARG553  GLY616  TRP617  ASP618  TYR619  PRO620  LYS621  CYS622 
 ASP623  PHE694  ASN695  SER759  ASP760  ASP761  ALA762  ILE779  LEU786  VAL792 
 PHE793  MET794  SER795  GLU796  ALA797  LYS798  CYS799  TRP800  GLU811  SER814 

> <Gold.Protein.RotatedAtoms>
  152.0248  134.9802  160.0571 H   0  0  0  0  0  0  0  0  0  0  0  0  # atno 6907 bound_to 6896
  152.1302  133.4399  159.4725 H   0  0  0  0  0  0  0  0  0  0  0  0  # atno 6908 bound_to 6896
  150.6855  134.2348  159.4492 H   0  0  0  0  0  0  0  0  0  0  0  0  # atno 6909 bound_to 6896
  145.1658  139.3129  143.4493 H   0  0  0  0  0  0  0  0  0  0  0  0  # atno 7974 bound_to 7965
  155.5192  140.0590  157.2910 H   0  0  0  0  0  0  0  0  0  0  0  0  # atno 8008 bound_to 7997
  154.4523  140.1955  156.0427 H   0  0  0  0  0  0  0  0  0  0  0  0  # atno 8009 bound_to 7997
  156.0730  140.3257  155.7603 H   0  0  0  0  0  0  0  0  0  0  0  0  # atno 8010 bound_to 7997
  139.8657  143.7020  152.2645 H   0  0  0  0  0  0  0  0  0  0  0  0  # atno 10167 bound_to 10162
  156.3285  130.7573  151.1686 H   0  0  0  0  0  0  0  0  0  0  0  0  # atno 10718 bound_to 10713
  154.8330  135.3383  154.6681 H   0  0  0  0  0  0  0  0  0  0  0  0  # atno 10763 bound_to 10752
  153.7299  135.6953  153.4996 H   0  0  0  0  0  0  0  0  0  0  0  0  # atno 10764 bound_to 10752
  153.2320  135.4413  155.0557 H   0  0  0  0  0  0  0  0  0  0  0  0  # atno 10765 bound_to 10752
  141.0246  133.6847  156.2458 H   0  0  0  0  0  0  0  0  0  0  0  0  # atno 11005 bound_to 11000
  146.3476  140.1785  142.8589 LP  0  0  0  0  0  0  0  0  0  0  0  0  # atno 17320 bound_to 7965
  145.0284  140.8851  143.5124 LP  0  0  0  0  0  0  0  0  0  0  0  0  # atno 17321 bound_to 7965
  139.7331  144.7578  151.0771 LP  0  0  0  0  0  0  0  0  0  0  0  0  # atno 17342 bound_to 10162
  140.7768  143.5064  150.9707 LP  0  0  0  0  0  0  0  0  0  0  0  0  # atno 17343 bound_to 10162
  157.7426  131.0488  150.5014 LP  0  0  0  0  0  0  0  0  0  0  0  0  # atno 17370 bound_to 10713
  156.5176  130.4154  149.6268 LP  0  0  0  0  0  0  0  0  0  0  0  0  # atno 17371 bound_to 10713
  140.6513  134.5064  157.5577 LP  0  0  0  0  0  0  0  0  0  0  0  0  # atno 17394 bound_to 11000
  139.9168  134.8230  156.1341 LP  0  0  0  0  0  0  0  0  0  0  0  0  # atno 17395 bound_to 11000

$$$$
