AV-unprocessed.smi:1973|AV-procd|sdf|7977|dock3
  -GOLD-   2272010153D 1   1.00000     0.00000
 Structure written by MMmdl.
 48 50  0  0  0  0  0  0  0  0  2 V2000
  139.1822  135.3377  160.3096 C   0  0  0  0  0  0  0  0  0  0  0  0
  138.1869  135.1522  159.3186 O   0  0  0  0  0  0  0  0  0  0  0  0
  138.2925  136.0908  158.2618 C   0  0  0  0  0  0  0  0  0  0  0  0
  137.1200  135.8826  157.2920 C   0  0  0  0  0  0  0  0  0  0  0  0
  137.4179  136.4376  155.9681 N   0  0  0  0  0  0  0  0  0  0  0  0
  138.7553  136.3657  155.6160 N   0  0  0  0  0  0  0  0  0  0  0  0
  139.1548  136.8390  154.4800 C   0  0  0  0  0  0  0  0  0  0  0  0
  140.5864  136.7960  154.0723 C   0  0  0  0  0  0  0  0  0  0  0  0
  141.0660  137.6176  153.2893 O   0  0  0  0  0  0  0  0  0  0  0  0
  141.3139  135.8089  154.6258 N   0  0  0  0  0  0  0  0  0  0  0  0
  142.7384  135.5893  154.4029 C   0  0  0  0  0  0  0  0  0  0  0  0
  143.0901  135.5918  152.9031 C   0  0  1  0  0  0  0  0  0  0  0  0
  144.5591  135.8774  152.5900 C   0  0  0  0  0  0  0  0  0  0  0  0
  144.7743  135.2723  151.1971 C   0  0  0  0  0  0  0  0  0  0  0  0
  143.6556  134.3293  150.9622 N   0  3  1  0  0  0  0  0  0  0  0  0
  144.0691  133.0155  150.4252 C   0  0  0  0  0  0  0  0  0  0  0  0
  145.5302  132.9509  150.0496 C   0  0  0  0  0  0  0  0  0  0  0  0
  144.4739  133.0577  148.9711 C   0  0  0  0  0  0  0  0  0  0  0  0
  142.8693  134.2488  152.2098 C   0  0  0  0  0  0  0  0  0  0  0  0
  138.2133  137.4448  153.5535 C   0  0  0  0  0  0  0  0  0  0  0  0
  136.9130  137.5134  153.9141 C   0  0  0  0  0  0  0  0  0  0  0  0
  136.4365  136.9981  155.1987 C   0  0  0  0  0  0  0  0  0  0  0  0
  135.2617  137.0679  155.5580 O   0  0  0  0  0  0  0  0  0  0  0  0
  139.0562  134.5968  161.0988 H   0  0  0  0  0  0  0  0  0  0  0  0
  139.1093  136.3276  160.7619 H   0  0  0  0  0  0  0  0  0  0  0  0
  140.1821  135.2166  159.8910 H   0  0  0  0  0  0  0  0  0  0  0  0
  138.2790  137.1057  158.6622 H   0  0  0  0  0  0  0  0  0  0  0  0
  139.2404  135.9554  157.7381 H   0  0  0  0  0  0  0  0  0  0  0  0
  136.9063  134.8158  157.2049 H   0  0  0  0  0  0  0  0  0  0  0  0
  136.2114  136.3272  157.7017 H   0  0  0  0  0  0  0  0  0  0  0  0
  140.8444  135.1724  155.2544 H   0  0  0  0  0  0  0  0  0  0  0  0
  143.2869  136.3774  154.9197 H   0  0  0  0  0  0  0  0  0  0  0  0
  143.0456  134.6486  154.8632 H   0  0  0  0  0  0  0  0  0  0  0  0
  142.4791  136.3376  152.3911 H   0  0  0  0  0  0  0  0  0  0  0  0
  144.7989  136.9407  152.6269 H   0  0  0  0  0  0  0  0  0  0  0  0
  145.1999  135.3676  153.3110 H   0  0  0  0  0  0  0  0  0  0  0  0
  144.7412  136.0446  150.4282 H   0  0  0  0  0  0  0  0  0  0  0  0
  145.7480  134.7838  151.1328 H   0  0  0  0  0  0  0  0  0  0  0  0
  143.5635  132.1421  150.8337 H   0  0  0  0  0  0  0  0  0  0  0  0
  146.1497  133.8266  150.2356 H   0  0  0  0  0  0  0  0  0  0  0  0
  146.0350  131.9930  150.1590 H   0  0  0  0  0  0  0  0  0  0  0  0
  144.2840  132.1702  148.3707 H   0  0  0  0  0  0  0  0  0  0  0  0
  144.3915  134.0044  148.4399 H   0  0  0  0  0  0  0  0  0  0  0  0
  143.2519  133.4391  152.8339 H   0  0  0  0  0  0  0  0  0  0  0  0
  141.8167  134.0494  152.0060 H   0  0  0  0  0  0  0  0  0  0  0  0
  138.5366  137.8326  152.5986 H   0  0  0  0  0  0  0  0  0  0  0  0
  136.2019  137.9613  153.2353 H   0  0  0  0  0  0  0  0  0  0  0  0
  143.0582  134.7657  150.2744 H   0  0  0  0  0  0  0  0  0  0  0  0
  1  2  1  0  0  0  0
  1 24  1  0  0  0  0
  1 25  1  0  0  0  0
  1 26  1  0  0  0  0
  2  3  1  0  0  0  0
  3  4  1  0  0  0  0
  3 27  1  0  0  0  0
  3 28  1  0  0  0  0
  4  5  1  0  0  0  0
  4 29  1  0  0  0  0
  4 30  1  0  0  0  0
  5 22  1  0  0  0  0
  5  6  1  0  0  0  0
  6  7  2  0  0  0  0
  7  8  1  0  0  0  0
  7 20  1  0  0  0  0
  8  9  2  0  0  0  0
  8 10  1  0  0  0  0
 10 11  1  0  0  0  0
 10 31  1  0  0  0  0
 11 12  1  0  0  0  0
 11 32  1  0  0  0  0
 11 33  1  0  0  0  0
 12 19  1  0  0  0  0
 12 13  1  0  0  0  0
 12 34  1  0  0  0  0
 13 14  1  0  0  0  0
 13 35  1  0  0  0  0
 13 36  1  0  0  0  0
 14 15  1  0  0  0  0
 14 37  1  0  0  0  0
 14 38  1  0  0  0  0
 15 16  1  0  0  0  0
 15 19  1  0  0  0  0
 15 48  1  0  0  0  0
 16 18  1  0  0  0  0
 16 17  1  0  0  0  0
 16 39  1  0  0  0  0
 17 18  1  0  0  0  0
 17 40  1  0  0  0  0
 17 41  1  0  0  0  0
 18 42  1  0  0  0  0
 18 43  1  0  0  0  0
 19 44  1  0  0  0  0
 19 45  1  0  0  0  0
 20 21  2  0  0  0  0
 20 46  1  0  0  0  0
 21 22  1  0  0  0  0
 21 47  1  0  0  0  0
 22 23  2  0  0  0  0
M  CHG  1  15   1
M  END
> <s_m_source_file>
AV-unprocessed.smi

> <i_m_source_file_index>
1973

> <i_lp_mmshare_version>
43012

> <i_f3d_flags>
0

> <s_epik_input>
W0NIM11PW0NIMl1bQ0gyXW4xbmMoW2NIXVtjSF1jMT1PKUMoPU8pW05IXVtDSDJdW0NAQEhdMltDSDJdW0NIMl1OKFtDSDJdMilbQ0hdM1tDSDJdW0NIMl0z

> <s_epik_cmdline>
J2VwaWtfcHl0aG9uJywgJy1waCcsICc3LjAnLCAnLXRuJywgJzgnLCAnLW1hJywgJzIwMCcsICctbWV0YWxfYmluZGluZycsICctaW1hZScsICc8aW5maWxlLm1hZT4nLCAnLW9tYWUnLCAnPG91dGZpbGUubWFlPic=

> <r_lp_tautomer_probability>
1

> <r_epik_Ionization_Penalty>
0.000225706

> <r_epik_Ionization_Penalty_Charging>
0.000223776

> <r_epik_Ionization_Penalty_Neutral>
1.93004e-06

> <r_epik_State_Penalty>
-0

> <r_epik_Charging_Adjusted_Penalty>
0.000223776

> <i_epik_Tot_Q>
1

> <i_epik_Tot_abs_Q>
1

> <r_epik_Metal_State_Penalty>
-0

> <b_epik_Metal_Only>
0

> <s_lp_Force_Field>
OPLS_2005

> <r_lp_Energy>
57.2407

> <b_lp_Chiralities_Consistent>
1

> <s_lp_Variant>
AV-unprocessed.smi:1973-2

> <Gold.Version>
5.8.1

> <Gold.Id.Protein>
6NUR|6NUR_protein|mol2

> <Gold.PLP.Fitness>
45.5995

> <Gold.PLP.PLP>
-40.8302

> <Gold.PLP.part.hbond>
-3.0000

> <Gold.PLP.part.metal>
0.0000

> <Gold.PLP.part.buried>
-7.8176

> <Gold.PLP.part.nonpolar>
-30.9343

> <Gold.PLP.part.repulsive>
0.3732

> <Gold.PLP.ligand.clash>
1.8859

> <Gold.PLP.ligand.torsion>
1.8792

> <Gold.PLP.Chemscore.Hbond>
3.0000

> <Gold.PLP.Chemscore.CHOScore>
0.0000

> <Gold.PLP.Chemscore.Metal>
0.0000

> <Gold.Chemscore.Hbonds>
donor molecule, donor type, donor heavy atom, donor atom, acceptor molecule, acceptor atom, score
      L1  H    10    31       P1 11000  1.00
      L1  H    15    48       P1 10186  0.87

> <Gold.PLP.Chemscore.Internal.Correction>
1.4136

> <Gold.Rescore>
     Score         DG    S(hbond)    S(metal)    S(lipo)     H(rot)  DE(clash)    DE(int)     intcor
     11.29     -14.49       1.20        0.00      85.86       1.97       0.09       3.11       ----

> <Gold.Chemscore.Fitness>
11.2931

> <Gold.Chemscore.DG>
-14.4950

> <Gold.Chemscore.ZeroCoef>
-5.4800

> <Gold.Chemscore.Hbond>
1.2021

> <Gold.Chemscore.Metal>
0.0000

> <Gold.Chemscore.Lipo>
85.8633

> <Gold.Chemscore.Internal_Hbond>
0.0000

> <Gold.Chemscore.DEClash>
0.0931

> <Gold.Chemscore.DEInternal>
3.1087

> <Gold.Chemscore.Rot>
1.9711

> <Gold.Chemscore.Internal.Correction>
   9.000000E+99

> <Gold.Chemscore.Hbonds>
donor molecule, donor type, donor heavy atom, donor atom, acceptor molecule, acceptor atom, score
      L1  H    10    31       P1 11000  0.70
      L1  H    15    48       P1 10186  0.19

> <Gold.Chemscore.Hbond.Weighted>
-4.0150

> <Gold.Chemscore.Metal.Weighted>
-0.0000

> <Gold.Chemscore.Lipo.Weighted>
-10.0460

> <Gold.Chemscore.Internal_Hbond.Weighted>
0.0000

> <Gold.Chemscore.DEClash.Weighted>
0.0931

> <Gold.Chemscore.DEInternal.Weighted>
3.1087

> <Gold.Chemscore.Rot.Weighted>
5.0460

> <Gold.Chemscore.Internal.Correction.Weighted>
   9.000000E+99

> <Gold.Protein.RotatedTorsions>
[ 6907 6896 6895 6894 ] final  -20.36 input  -60.11 | X-H torsion
[ 7974 7965 7964 7962 ] final  -42.72 input  175.53 | X-H torsion
[ 8008 7997 7996 7995 ] final  113.29 input   59.86 | X-H torsion
[ 10167 10162 10161 10158 ] final  178.19 input  -65.29 | X-H torsion
[ 10718 10713 10712 10709 ] final  117.75 input   66.30 | X-H torsion
[ 10763 10752 10751 10750 ] final   70.43 input  -60.55 | X-H torsion
[ 11005 11000 10999 10996 ] final -112.52 input  -57.11 | X-H torsion

> <Gold.Protein.ActiveResidues>
 VAL166  LYS551  ARG553  GLY616  TRP617  ASP618  TYR619  PRO620  LYS621  CYS622 
 ASP623  PHE694  ASN695  SER759  ASP760  ASP761  ALA762  ILE779  LEU786  VAL792 
 PHE793  MET794  SER795  GLU796  ALA797  LYS798  CYS799  TRP800  GLU811  SER814 

> <Gold.Protein.RotatedAtoms>
  151.2493  135.0616  159.9055 H   0  0  0  0  0  0  0  0  0  0  0  0  # atno 6907 bound_to 6896
  152.5382  134.0349  159.8052 H   0  0  0  0  0  0  0  0  0  0  0  0  # atno 6908 bound_to 6896
  151.0555  133.5538  159.2670 H   0  0  0  0  0  0  0  0  0  0  0  0  # atno 6909 bound_to 6896
  146.0088  140.6988  142.9234 H   0  0  0  0  0  0  0  0  0  0  0  0  # atno 7974 bound_to 7965
  156.2249  140.2982  156.0041 H   0  0  0  0  0  0  0  0  0  0  0  0  # atno 8008 bound_to 7997
  155.2384  140.0421  157.2989 H   0  0  0  0  0  0  0  0  0  0  0  0  # atno 8009 bound_to 7997
  154.5899  140.2398  155.7943 H   0  0  0  0  0  0  0  0  0  0  0  0  # atno 8010 bound_to 7997
  139.5284  144.2709  152.0628 H   0  0  0  0  0  0  0  0  0  0  0  0  # atno 10167 bound_to 10162
  157.6076  131.1040  150.7658 H   0  0  0  0  0  0  0  0  0  0  0  0  # atno 10718 bound_to 10713
  153.0341  135.5174  154.7439 H   0  0  0  0  0  0  0  0  0  0  0  0  # atno 10763 bound_to 10752
  154.6430  135.2915  155.0082 H   0  0  0  0  0  0  0  0  0  0  0  0  # atno 10764 bound_to 10752
  154.0993  135.6638  153.4918 H   0  0  0  0  0  0  0  0  0  0  0  0  # atno 10765 bound_to 10752
  141.0670  133.9442  157.2559 H   0  0  0  0  0  0  0  0  0  0  0  0  # atno 11005 bound_to 11000
  144.6945  140.3362  143.7207 LP  0  0  0  0  0  0  0  0  0  0  0  0  # atno 17320 bound_to 7965
  145.7374  139.1754  143.2395 LP  0  0  0  0  0  0  0  0  0  0  0  0  # atno 17321 bound_to 7965
  140.2169  144.4506  150.6360 LP  0  0  0  0  0  0  0  0  0  0  0  0  # atno 17342 bound_to 10162
  140.6444  143.2210  151.6219 LP  0  0  0  0  0  0  0  0  0  0  0  0  # atno 17343 bound_to 10162
  156.8043  130.4931  149.5365 LP  0  0  0  0  0  0  0  0  0  0  0  0  # atno 17370 bound_to 10713
  156.1168  130.6080  151.0132 LP  0  0  0  0  0  0  0  0  0  0  0  0  # atno 17371 bound_to 10713
  139.9486  135.0179  156.8927 LP  0  0  0  0  0  0  0  0  0  0  0  0  # atno 17394 bound_to 11000
  140.5753  134.0404  155.7444 LP  0  0  0  0  0  0  0  0  0  0  0  0  # atno 17395 bound_to 11000

$$$$
