AV-unprocessed.smi:1443|AV-procd|sdf|5879|dock7
  -GOLD-   22720 5553D 1   1.00000     0.00000
 Structure written by MMmdl.
 27 28  0  0  0  0  0  0  0  0  1 V2000
  151.3260  142.3138  157.4468 C   0  0  0  0  0  0  0  0  0  0  0  0
  150.9038  142.0753  155.7004 S   0  0  0  0  0  0  0  0  0  0  0  0
  151.1888  140.3695  155.3528 C   0  0  0  0  0  0  0  0  0  0  0  0
  152.4388  139.8729  155.3753 N   0  0  0  0  0  0  0  0  0  0  0  0
  152.3727  138.2286  154.9919 S   0  0  0  0  0  0  0  0  0  0  0  0
  150.6446  138.3079  154.8166 C   0  0  0  0  0  0  0  0  0  0  0  0
  149.8656  137.1707  154.4558 N   0  0  0  0  0  0  0  0  0  0  0  0
  149.3173  136.1905  155.2050 C   0  0  0  0  0  0  0  0  0  0  0  0
  149.4517  136.1787  156.4273 O   0  0  0  0  0  0  0  0  0  0  0  0
  148.6302  135.2496  154.5387 N   0  0  0  0  0  0  0  0  0  0  0  0
  147.9934  134.1117  155.1194 C   0  0  2  0  0  0  0  0  0  0  0  0
  148.5796  132.7544  154.7958 C   0  0  0  0  0  0  0  0  0  0  0  0
  147.2456  133.1461  154.2182 C   0  0  2  0  0  0  0  0  0  0  0  0
  147.0878  133.3913  152.7307 C   0  0  0  0  0  0  0  0  0  0  0  0
  150.1773  139.5346  155.0516 N   0  0  0  0  0  0  0  0  0  0  0  0
  151.1210  143.3416  157.7458 H   0  0  0  0  0  0  0  0  0  0  0  0
  152.3845  142.1131  157.6084 H   0  0  0  0  0  0  0  0  0  0  0  0
  150.7405  141.6461  158.0789 H   0  0  0  0  0  0  0  0  0  0  0  0
  149.6635  137.1020  153.4689 H   0  0  0  0  0  0  0  0  0  0  0  0
  148.5668  135.3413  153.5348 H   0  0  0  0  0  0  0  0  0  0  0  0
  147.5992  134.2265  156.1282 H   0  0  0  0  0  0  0  0  0  0  0  0
  149.4332  132.7185  154.1209 H   0  0  0  0  0  0  0  0  0  0  0  0
  148.5835  132.0085  155.5879 H   0  0  0  0  0  0  0  0  0  0  0  0
  146.3757  132.6706  154.6673 H   0  0  0  0  0  0  0  0  0  0  0  0
  147.9974  133.8124  152.3039 H   0  0  0  0  0  0  0  0  0  0  0  0
  146.2666  134.0853  152.5517 H   0  0  0  0  0  0  0  0  0  0  0  0
  146.8690  132.4539  152.2192 H   0  0  0  0  0  0  0  0  0  0  0  0
  1  2  1  0  0  0  0
  1 16  1  0  0  0  0
  1 17  1  0  0  0  0
  1 18  1  0  0  0  0
  2  3  1  0  0  0  0
  3 15  1  0  0  0  0
  3  4  2  0  0  0  0
  4  5  1  0  0  0  0
  5  6  1  0  0  0  0
  6  7  1  0  0  0  0
  6 15  2  0  0  0  0
  7  8  1  0  0  0  0
  7 19  1  0  0  0  0
  8  9  2  0  0  0  0
  8 10  1  0  0  0  0
 10 11  1  0  0  0  0
 10 20  1  0  0  0  0
 11 13  1  0  0  0  0
 11 12  1  0  0  0  0
 11 21  1  0  0  0  0
 12 13  1  0  0  0  0
 12 22  1  0  0  0  0
 12 23  1  0  0  0  0
 13 14  1  0  0  0  0
 13 24  1  0  0  0  0
 14 25  1  0  0  0  0
 14 26  1  0  0  0  0
 14 27  1  0  0  0  0
M  END
> <s_m_source_file>
AV-unprocessed.smi

> <i_m_source_file_index>
1443

> <i_lp_mmshare_version>
43012

> <i_f3d_flags>
0

> <s_epik_input>
W0NIM11TYzFuc2MobjEpW05IXUMoPU8pW05IXVtDQEBIXTJbQ0gyXVtDQEhdMltDSDNd

> <s_epik_cmdline>
J2VwaWtfcHl0aG9uJywgJy1waCcsICc3LjAnLCAnLXRuJywgJzgnLCAnLW1hJywgJzIwMCcsICctbWV0YWxfYmluZGluZycsICctaW1hZScsICc8aW5maWxlLm1hZT4nLCAnLW9tYWUnLCAnPG91dGZpbGUubWFlPic=

> <r_lp_tautomer_probability>
1

> <r_epik_Ionization_Penalty>
2.74658e-05

> <r_epik_Ionization_Penalty_Charging>
0

> <r_epik_Ionization_Penalty_Neutral>
2.74658e-05

> <r_epik_State_Penalty>
-0

> <r_epik_Charging_Adjusted_Penalty>
0

> <i_epik_Tot_Q>
0

> <i_epik_Tot_abs_Q>
0

> <r_epik_Metal_State_Penalty>
-0

> <b_epik_Metal_Only>
0

> <s_lp_Force_Field>
OPLS_2005

> <r_lp_Energy>
21.2108

> <b_lp_Chiralities_Consistent>
1

> <s_lp_Variant>
AV-unprocessed.smi:1443-3

> <Gold.Version>
5.8.1

> <Gold.Id.Protein>
6NUR|6NUR_protein|mol2

> <Gold.PLP.Fitness>
37.5326

> <Gold.PLP.PLP>
-30.1392

> <Gold.PLP.part.hbond>
-4.4827

> <Gold.PLP.part.metal>
0.0000

> <Gold.PLP.part.buried>
-2.7574

> <Gold.PLP.part.nonpolar>
-23.3295

> <Gold.PLP.part.repulsive>
0.1536

> <Gold.PLP.ligand.clash>
0.0000

> <Gold.PLP.ligand.torsion>
0.8217

> <Gold.PLP.Chemscore.Hbond>
3.0000

> <Gold.PLP.Chemscore.CHOScore>
0.0000

> <Gold.PLP.Chemscore.Metal>
0.0000

> <Gold.Chemscore.Hbonds>
donor molecule, donor type, donor heavy atom, donor atom, acceptor molecule, acceptor atom, score
      L1  H     7    19       P1  7948  1.00
      L1  H    10    20       P1  7948  1.00
      P1  H  7997  8010       L1     4  0.88

> <Gold.PLP.Chemscore.Internal.Correction>
0.0368

> <Gold.Rescore>
     Score         DG    S(hbond)    S(metal)    S(lipo)     H(rot)  DE(clash)    DE(int)     intcor
     14.75     -15.66       2.52        0.00      42.94       1.27       0.19       0.73       ----

> <Gold.Chemscore.Fitness>
14.7470

> <Gold.Chemscore.DG>
-15.6600

> <Gold.Chemscore.ZeroCoef>
-5.4800

> <Gold.Chemscore.Hbond>
2.5170

> <Gold.Chemscore.Metal>
0.0000

> <Gold.Chemscore.Lipo>
42.9400

> <Gold.Chemscore.Internal_Hbond>
0.0000

> <Gold.Chemscore.DEClash>
0.1878

> <Gold.Chemscore.DEInternal>
0.7252

> <Gold.Chemscore.Rot>
1.2699

> <Gold.Chemscore.Internal.Correction>
   9.000000E+99

> <Gold.Chemscore.Hbonds>
donor molecule, donor type, donor heavy atom, donor atom, acceptor molecule, acceptor atom, score
      L1  H     7    19       P1  7948  0.73
      L1  H    10    20       P1  7948  0.91
      P1  H  7997  8010       L1     4  0.43

> <Gold.Chemscore.Hbond.Weighted>
-8.4069

> <Gold.Chemscore.Metal.Weighted>
-0.0000

> <Gold.Chemscore.Lipo.Weighted>
-5.0240

> <Gold.Chemscore.Internal_Hbond.Weighted>
0.0000

> <Gold.Chemscore.DEClash.Weighted>
0.1878

> <Gold.Chemscore.DEInternal.Weighted>
0.7252

> <Gold.Chemscore.Rot.Weighted>
3.2509

> <Gold.Chemscore.Internal.Correction.Weighted>
   9.000000E+99

> <Gold.Protein.RotatedTorsions>
[ 6907 6896 6895 6894 ] final   81.34 input  -60.11 | X-H torsion
[ 7974 7965 7964 7962 ] final   54.68 input  175.53 | X-H torsion
[ 8008 7997 7996 7995 ] final   93.30 input   59.86 | X-H torsion
[ 10167 10162 10161 10158 ] final  160.85 input  -65.29 | X-H torsion
[ 10718 10713 10712 10709 ] final   41.02 input   66.30 | X-H torsion
[ 10763 10752 10751 10750 ] final  -98.21 input  -60.55 | X-H torsion
[ 11005 11000 10999 10996 ] final   14.77 input  -57.11 | X-H torsion

> <Gold.Protein.ActiveResidues>
 VAL166  LYS551  ARG553  GLY616  TRP617  ASP618  TYR619  PRO620  LYS621  CYS622 
 ASP623  PHE694  ASN695  SER759  ASP760  ASP761  ALA762  ILE779  LEU786  VAL792 
 PHE793  MET794  SER795  GLU796  ALA797  LYS798  CYS799  TRP800  GLU811  SER814 

> <Gold.Protein.RotatedAtoms>
  152.5265  134.3220  159.9151 H   0  0  0  0  0  0  0  0  0  0  0  0  # atno 6907 bound_to 6896
  151.3169  133.4050  159.2659 H   0  0  0  0  0  0  0  0  0  0  0  0  # atno 6908 bound_to 6896
  150.9992  134.9325  159.8001 H   0  0  0  0  0  0  0  0  0  0  0  0  # atno 6909 bound_to 6896
  145.9583  139.4035  143.0264 H   0  0  0  0  0  0  0  0  0  0  0  0  # atno 7974 bound_to 7965
  156.0451  140.3314  155.7288 H   0  0  0  0  0  0  0  0  0  0  0  0  # atno 8008 bound_to 7997
  155.5685  140.0625  157.2830 H   0  0  0  0  0  0  0  0  0  0  0  0  # atno 8009 bound_to 7997
  154.4410  140.1865  156.0843 H   0  0  0  0  0  0  0  0  0  0  0  0  # atno 8010 bound_to 7997
  139.4843  144.4594  151.8725 H   0  0  0  0  0  0  0  0  0  0  0  0  # atno 10167 bound_to 10162
  157.3888  130.7795  149.7252 H   0  0  0  0  0  0  0  0  0  0  0  0  # atno 10718 bound_to 10713
  154.7395  135.5018  153.9098 H   0  0  0  0  0  0  0  0  0  0  0  0  # atno 10763 bound_to 10752
  153.1029  135.6689  153.9648 H   0  0  0  0  0  0  0  0  0  0  0  0  # atno 10764 bound_to 10752
  153.9429  135.3066  155.3421 H   0  0  0  0  0  0  0  0  0  0  0  0  # atno 10765 bound_to 10752
  140.4657  134.1081  155.7724 H   0  0  0  0  0  0  0  0  0  0  0  0  # atno 11005 bound_to 11000
  145.8076  140.9741  143.0966 LP  0  0  0  0  0  0  0  0  0  0  0  0  # atno 17320 bound_to 7965
  144.6809  139.9880  143.7484 LP  0  0  0  0  0  0  0  0  0  0  0  0  # atno 17321 bound_to 7965
  140.4055  144.2437  150.5891 LP  0  0  0  0  0  0  0  0  0  0  0  0  # atno 17342 bound_to 10162
  140.5016  143.2316  151.8670 LP  0  0  0  0  0  0  0  0  0  0  0  0  # atno 17343 bound_to 10162
  155.9793  130.4041  150.3594 LP  0  0  0  0  0  0  0  0  0  0  0  0  # atno 17370 bound_to 10713
  157.1708  131.0368  151.2796 LP  0  0  0  0  0  0  0  0  0  0  0  0  # atno 17371 bound_to 10713
  141.1600  133.8810  157.1873 LP  0  0  0  0  0  0  0  0  0  0  0  0  # atno 17394 bound_to 11000
  139.9917  135.0062  156.9989 LP  0  0  0  0  0  0  0  0  0  0  0  0  # atno 17395 bound_to 11000

$$$$
