AV-unprocessed.smi:3191|AV-procd|sdf|12199|dock2
  -GOLD-   2272018 33D 1   1.00000     0.00000
 Structure written by MMmdl.
 35 36  0  0  0  0  0  0  0  0  1 V2000
  150.6084  138.4096  157.8549 C   0  0  0  0  0  0  0  0  0  0  0  0
  151.0240  138.0093  156.5256 N   0  0  0  0  0  0  0  0  0  0  0  0
  151.0214  136.7676  156.0219 C   0  0  0  0  0  0  0  0  0  0  0  0
  151.4540  136.6809  154.7716 N   0  0  0  0  0  0  0  0  0  0  0  0
  151.7660  137.9960  154.4382 C   0  0  0  0  0  0  0  0  0  0  0  0
  151.5077  138.8272  155.5080 C   0  0  0  0  0  0  0  0  0  0  0  0
  151.6710  140.3085  155.6613 C   0  0  0  0  0  0  0  0  0  0  0  0
  150.3586  141.0639  155.9352 C   0  0  0  0  0  0  0  0  0  0  0  0
  150.6060  142.3716  156.5316 N   0  0  0  0  0  0  0  0  0  0  0  0
  151.3710  142.5947  157.6111 C   0  0  0  0  0  0  0  0  0  0  0  0
  151.9542  141.6918  158.2123 O   0  0  0  0  0  0  0  0  0  0  0  0
  151.4525  144.0381  158.0019 C   0  0  2  0  0  0  0  0  0  0  0  0
  152.8104  144.7088  157.9670 C   0  0  0  0  0  0  0  0  0  0  0  0
  152.1444  144.4496  159.3001 C   0  0  0  0  0  0  0  0  0  0  0  0
  151.5540  145.6097  160.0823 C   0  0  0  0  0  0  0  0  0  0  0  0
  152.7671  143.4451  160.2623 C   0  0  0  0  0  0  0  0  0  0  0  0
  150.6006  144.6484  157.7048 H   0  0  0  0  0  0  0  0  0  0  0  0
  150.2513  137.5453  158.4159 H   0  0  0  0  0  0  0  0  0  0  0  0
  149.8038  139.1419  157.7842 H   0  0  0  0  0  0  0  0  0  0  0  0
  151.4513  138.8527  158.3858 H   0  0  0  0  0  0  0  0  0  0  0  0
  150.6943  135.9054  156.5846 H   0  0  0  0  0  0  0  0  0  0  0  0
  152.1506  138.2410  153.4590 H   0  0  0  0  0  0  0  0  0  0  0  0
  152.3756  140.5014  156.4712 H   0  0  0  0  0  0  0  0  0  0  0  0
  152.1318  140.7095  154.7578 H   0  0  0  0  0  0  0  0  0  0  0  0
  149.8157  141.2187  155.0023 H   0  0  0  0  0  0  0  0  0  0  0  0
  149.7051  140.4774  156.5835 H   0  0  0  0  0  0  0  0  0  0  0  0
  150.1616  143.1649  156.0926 H   0  0  0  0  0  0  0  0  0  0  0  0
  153.6827  144.1089  157.7128 H   0  0  0  0  0  0  0  0  0  0  0  0
  152.8428  145.7324  157.5992 H   0  0  0  0  0  0  0  0  0  0  0  0
  152.3289  146.1135  160.6611 H   0  0  0  0  0  0  0  0  0  0  0  0
  150.7837  145.2525  160.7665 H   0  0  0  0  0  0  0  0  0  0  0  0
  151.1031  146.3409  159.4106 H   0  0  0  0  0  0  0  0  0  0  0  0
  153.4023  143.9555  160.9868 H   0  0  0  0  0  0  0  0  0  0  0  0
  153.3901  142.7201  159.7401 H   0  0  0  0  0  0  0  0  0  0  0  0
  151.9879  142.9082  160.8040 H   0  0  0  0  0  0  0  0  0  0  0  0
  1  2  1  0  0  0  0
  1 18  1  0  0  0  0
  1 19  1  0  0  0  0
  1 20  1  0  0  0  0
  2  6  1  0  0  0  0
  2  3  1  0  0  0  0
  3  4  2  0  0  0  0
  3 21  1  0  0  0  0
  4  5  1  0  0  0  0
  5  6  2  0  0  0  0
  5 22  1  0  0  0  0
  6  7  1  0  0  0  0
  7  8  1  0  0  0  0
  7 23  1  0  0  0  0
  7 24  1  0  0  0  0
  8  9  1  0  0  0  0
  8 25  1  0  0  0  0
  8 26  1  0  0  0  0
  9 10  1  0  0  0  0
  9 27  1  0  0  0  0
 10 11  2  0  0  0  0
 10 12  1  0  0  0  0
 12 17  1  0  0  0  0
 12 14  1  0  0  0  0
 12 13  1  0  0  0  0
 13 14  1  0  0  0  0
 13 28  1  0  0  0  0
 13 29  1  0  0  0  0
 14 15  1  0  0  0  0
 14 16  1  0  0  0  0
 15 30  1  0  0  0  0
 15 31  1  0  0  0  0
 15 32  1  0  0  0  0
 16 33  1  0  0  0  0
 16 34  1  0  0  0  0
 16 35  1  0  0  0  0
M  END
> <s_m_source_file>
AV-unprocessed.smi

> <i_m_source_file_index>
3191

> <i_lp_mmshare_version>
43012

> <i_f3d_flags>
0

> <s_epik_input>
W0NIM11uMVtjSF1uW2NIXWMxW0NIMl1bQ0gyXVtOSF1DKD1PKVtDQEBIXShbQ0gyXTIpQzIoW0NIM10pW0NIM10=

> <s_epik_cmdline>
J2VwaWtfcHl0aG9uJywgJy1waCcsICc3LjAnLCAnLXRuJywgJzgnLCAnLW1hJywgJzIwMCcsICctbWV0YWxfYmluZGluZycsICctaW1hZScsICc8aW5maWxlLm1hZT4nLCAnLW9tYWUnLCAnPG91dGZpbGUubWFlPic=

> <r_lp_tautomer_probability>
1

> <r_epik_Ionization_Penalty>
0.874249

> <r_epik_Ionization_Penalty_Charging>
0.874249

> <r_epik_Ionization_Penalty_Neutral>
1.97773e-08

> <r_epik_State_Penalty>
0.911868

> <r_epik_Charging_Adjusted_Penalty>
1.78612

> <i_epik_Tot_Q>
0

> <i_epik_Tot_abs_Q>
0

> <r_epik_Metal_State_Penalty>
0.361186

> <b_epik_Metal_Only>
0

> <s_lp_Force_Field>
OPLS_2005

> <r_lp_Energy>
11.6999

> <b_lp_Chiralities_Consistent>
1

> <s_lp_Variant>
AV-unprocessed.smi:3191-4

> <Gold.Version>
5.8.1

> <Gold.Id.Protein>
6NUR|6NUR_protein|mol2

> <Gold.PLP.Fitness>
45.7715

> <Gold.PLP.PLP>
-40.0550

> <Gold.PLP.part.hbond>
-2.0000

> <Gold.PLP.part.metal>
0.0000

> <Gold.PLP.part.buried>
-4.7486

> <Gold.PLP.part.nonpolar>
-34.0247

> <Gold.PLP.part.repulsive>
0.2340

> <Gold.PLP.ligand.clash>
0.0000

> <Gold.PLP.ligand.torsion>
0.1910

> <Gold.PLP.Chemscore.Hbond>
2.0000

> <Gold.PLP.Chemscore.CHOScore>
0.0000

> <Gold.PLP.Chemscore.Metal>
0.0000

> <Gold.Chemscore.Hbonds>
donor molecule, donor type, donor heavy atom, donor atom, acceptor molecule, acceptor atom, score
      L1  H     9    27       P1  8028  0.94
      P1  H 10752 10764       L1     4  1.00

> <Gold.PLP.Chemscore.Internal.Correction>
0.0987

> <Gold.Rescore>
     Score         DG    S(hbond)    S(metal)    S(lipo)     H(rot)  DE(clash)    DE(int)     intcor
     14.95     -17.84       1.74        0.00      93.09       1.69       0.11       2.78       ----

> <Gold.Chemscore.Fitness>
14.9451

> <Gold.Chemscore.DG>
-17.8397

> <Gold.Chemscore.ZeroCoef>
-5.4800

> <Gold.Chemscore.Hbond>
1.7365

> <Gold.Chemscore.Metal>
0.0000

> <Gold.Chemscore.Lipo>
93.0854

> <Gold.Chemscore.Internal_Hbond>
0.0000

> <Gold.Chemscore.DEClash>
0.1103

> <Gold.Chemscore.DEInternal>
2.7844

> <Gold.Chemscore.Rot>
1.6919

> <Gold.Chemscore.Internal.Correction>
   9.000000E+99

> <Gold.Chemscore.Hbonds>
donor molecule, donor type, donor heavy atom, donor atom, acceptor molecule, acceptor atom, score
      L1  H     9    27       P1  8028  0.90
      P1  H 10752 10764       L1     4  0.63

> <Gold.Chemscore.Hbond.Weighted>
-5.7999

> <Gold.Chemscore.Metal.Weighted>
-0.0000

> <Gold.Chemscore.Lipo.Weighted>
-10.8910

> <Gold.Chemscore.Internal_Hbond.Weighted>
0.0000

> <Gold.Chemscore.DEClash.Weighted>
0.1103

> <Gold.Chemscore.DEInternal.Weighted>
2.7844

> <Gold.Chemscore.Rot.Weighted>
4.3312

> <Gold.Chemscore.Internal.Correction.Weighted>
   9.000000E+99

> <Gold.Protein.RotatedTorsions>
[ 6907 6896 6895 6894 ] final   78.60 input  -60.11 | X-H torsion
[ 7974 7965 7964 7962 ] final    0.78 input  175.53 | X-H torsion
[ 8008 7997 7996 7995 ] final  -64.78 input   59.86 | X-H torsion
[ 10167 10162 10161 10158 ] final -111.84 input  -65.29 | X-H torsion
[ 10718 10713 10712 10709 ] final   16.71 input   66.30 | X-H torsion
[ 10763 10752 10751 10750 ] final  -69.09 input  -60.55 | X-H torsion
[ 11005 11000 10999 10996 ] final  -28.58 input  -57.11 | X-H torsion

> <Gold.Protein.ActiveResidues>
 VAL166  LYS551  ARG553  GLY616  TRP617  ASP618  TYR619  PRO620  LYS621  CYS622 
 ASP623  PHE694  ASN695  SER759  ASP760  ASP761  ALA762  ILE779  LEU786  VAL792 
 PHE793  MET794  SER795  GLU796  ALA797  LYS798  CYS799  TRP800  GLU811  SER814 

> <Gold.Protein.RotatedAtoms>
  152.5166  134.3640  159.9294 H   0  0  0  0  0  0  0  0  0  0  0  0  # atno 6907 bound_to 6896
  151.3592  133.3889  159.2696 H   0  0  0  0  0  0  0  0  0  0  0  0  # atno 6908 bound_to 6896
  150.9665  134.9064  159.7820 H   0  0  0  0  0  0  0  0  0  0  0  0  # atno 6909 bound_to 6896
  146.2436  140.1086  142.8345 H   0  0  0  0  0  0  0  0  0  0  0  0  # atno 7974 bound_to 7965
  154.4632  140.0947  156.6949 H   0  0  0  0  0  0  0  0  0  0  0  0  # atno 8008 bound_to 7997
  155.4934  140.3471  155.4340 H   0  0  0  0  0  0  0  0  0  0  0  0  # atno 8009 bound_to 7997
  156.0908  140.1397  156.9582 H   0  0  0  0  0  0  0  0  0  0  0  0  # atno 8010 bound_to 7997
  140.1292  143.4376  152.1639 H   0  0  0  0  0  0  0  0  0  0  0  0  # atno 10167 bound_to 10162
  157.0717  130.6351  149.5807 H   0  0  0  0  0  0  0  0  0  0  0  0  # atno 10718 bound_to 10713
  154.3983  135.6037  153.5883 H   0  0  0  0  0  0  0  0  0  0  0  0  # atno 10763 bound_to 10752
  152.9788  135.5900  154.4214 H   0  0  0  0  0  0  0  0  0  0  0  0  # atno 10764 bound_to 10752
  154.4009  135.2843  155.2075 H   0  0  0  0  0  0  0  0  0  0  0  0  # atno 10765 bound_to 10752
  140.9221  133.7392  156.0816 H   0  0  0  0  0  0  0  0  0  0  0  0  # atno 11005 bound_to 11000
  145.0506  140.9015  143.4998 LP  0  0  0  0  0  0  0  0  0  0  0  0  # atno 17320 bound_to 7965
  145.1184  139.2710  143.5601 LP  0  0  0  0  0  0  0  0  0  0  0  0  # atno 17321 bound_to 7965
  139.5528  144.7351  151.4382 LP  0  0  0  0  0  0  0  0  0  0  0  0  # atno 17342 bound_to 10162
  140.6827  143.8045  150.7143 LP  0  0  0  0  0  0  0  0  0  0  0  0  # atno 17343 bound_to 10162
  155.9948  130.5013  150.7436 LP  0  0  0  0  0  0  0  0  0  0  0  0  # atno 17370 bound_to 10713
  157.4873  131.0908  151.0468 LP  0  0  0  0  0  0  0  0  0  0  0  0  # atno 17371 bound_to 10713
  140.7974  134.3548  157.5448 LP  0  0  0  0  0  0  0  0  0  0  0  0  # atno 17394 bound_to 11000
  139.8777  134.9177  156.3185 LP  0  0  0  0  0  0  0  0  0  0  0  0  # atno 17395 bound_to 11000

$$$$
