#       Name:                AV-unprocessed.smi:2510
#       Creating user name   scv26
#       Creation time:       Fri Mar 27 13:51:59 2020


#       File generated by GOLD software.
#

@<TRIPOS>MOLECULE
AV-unprocessed.smi:2510
    53    54     1
SMALL
NO_CHARGES


@<TRIPOS>ATOM
      1 ****        -2.8123   1.1563  -2.3353 C.3            1 S1                 0.0000
      2 ****        -2.2025  -0.2387  -2.5551 C.3            1 S1                 0.0000
      3 ****        -1.6034  -0.9464  -1.3152 C.3            1 S1                 0.0000
      4 ****        -0.7284  -2.1193  -1.8440 C.3            1 S1                 0.0000
      5 ****        -1.4257  -3.1261  -2.7792 C.3            1 S1                 0.0000
      6 ****        -0.9330  -0.0415  -0.2377 C.3            1 S1                 0.0000
      7 ****         0.5266  -0.0422  -0.2781 N.am           1 S1                 0.0000
      8 ****         1.3148   0.7423   0.4706 C.2            1 S1                 0.0000
      9 ****         0.8747   1.5663   1.2739 O.2            1 S1                 0.0000
     10 ****         2.8231   0.5490   0.2727 C.3            1 S1                 0.0000
     11 ****         3.6479   1.5100   1.0716 C.2            1 S1                 0.0000
     12 ****         4.1576   2.7397   0.7602 C.2            1 S1                 0.0000
     13 ****         4.8552   3.1413   1.9371 C.2            1 S1                 0.0000
     14 ****         5.6141   4.4130   2.1766 C.3            1 S1                 0.0000
     15 ****         4.7865   2.2343   2.9001 N.2            1 S1                 0.0000
     16 ****         4.0493   1.2454   2.3617 N.pl3          1 S1                 0.0000
     17 ****        -1.5075  -0.9416   0.8643 C.3            1 S1                 0.0000
     18 ****        -1.8971  -0.3134   2.1974 C.3            1 S1                 0.0000
     19 ****        -2.5961  -1.2838  -0.1659 C.3            1 S1                 0.0000
     20 ****        -3.0138  -2.6402  -0.1567 O.3            1 S1                 0.0000
     21 ****        -3.9135  -2.9504   0.8926 C.3            1 S1                 0.0000
     22 ****         3.8271   0.4077   2.8807 H              1 S1                 0.0000
     23 ****        -3.2869   1.5083  -3.2514 H              1 S1                 0.0000
     24 ****        -2.0525   1.8919  -2.0716 H              1 S1                 0.0000
     25 ****        -3.5753   1.1549  -1.5578 H              1 S1                 0.0000
     26 ****        -2.9872  -0.8649  -2.9805 H              1 S1                 0.0000
     27 ****        -1.4456  -0.1441  -3.3349 H              1 S1                 0.0000
     28 ****         0.1372  -1.7229  -2.3761 H              1 S1                 0.0000
     29 ****        -0.3125  -2.6846  -1.0100 H              1 S1                 0.0000
     30 ****        -0.7503  -3.9471  -3.0201 H              1 S1                 0.0000
     31 ****        -1.7160  -2.6697  -3.7252 H              1 S1                 0.0000
     32 ****        -2.3167  -3.5631  -2.3317 H              1 S1                 0.0000
     33 ****        -1.3628   0.9589  -0.1704 H              1 S1                 0.0000
     34 ****         0.9658  -0.6897  -0.9162 H              1 S1                 0.0000
     35 ****         3.0839  -0.4754   0.5420 H              1 S1                 0.0000
     36 ****         3.0560   0.6613  -0.7869 H              1 S1                 0.0000
     37 ****         4.0471   3.2749  -0.1714 H              1 S1                 0.0000
     38 ****         5.5786   5.0640   1.3028 H              1 S1                 0.0000
     39 ****         6.6625   4.2094   2.3957 H              1 S1                 0.0000
     40 ****         5.1979   4.9662   3.0189 H              1 S1                 0.0000
     41 ****        -0.8628  -1.8082   1.0217 H              1 S1                 0.0000
     42 ****        -2.5826   0.5227   2.0582 H              1 S1                 0.0000
     43 ****        -1.0210   0.0644   2.7243 H              1 S1                 0.0000
     44 ****        -2.3840  -1.0337   2.8535 H              1 S1                 0.0000
     45 ****        -3.4391  -0.5915  -0.1250 H              1 S1                 0.0000
     46 ****        -4.2441  -3.9839   0.7923 H              1 S1                 0.0000
     47 ****        -4.7964  -2.3108   0.8624 H              1 S1                 0.0000
     48 ****        -3.4377  -2.8495   1.8673 H              1 S1                 0.0000
     49 ****        -0.1127   1.6730   1.3903 LP             1 S1                 0.0000
     50 ****         1.5050   2.1284   1.8094 LP             1 S1                 0.0000
     51 ****         5.1889   2.2750   3.8146 LP             1 S1                 0.0000
     52 ****        -2.2043  -3.2194  -0.0605 LP             1 S1                 0.0000
     53 ****        -3.4637  -2.8382  -1.0276 LP             1 S1                 0.0000
@<TRIPOS>BOND
    1    1    2 1     
    2    1   23 1     
    3    1   24 1     
    4    1   25 1     
    5    2    3 1     
    6    2   26 1     
    7    2   27 1     
    8    3   19 1     
    9    3    4 1     
   10    3    6 1     
   11    4    5 1     
   12    4   28 1     
   13    4   29 1     
   14    5   30 1     
   15    5   31 1     
   16    5   32 1     
   17    6    7 1     
   18    6   17 1     
   19    6   33 1     
   20    7    8 am    
   21    7   34 1     
   22    8    9 2     
   23    8   10 1     
   24   10   35 1     
   25   10   36 1     
   26   10   11 1     
   27   11   16 1     
   28   11   12 2     
   29   12   13 1     
   30   12   37 1     
   31   13   14 1     
   32   13   15 2     
   33   14   38 1     
   34   14   39 1     
   35   14   40 1     
   36   15   16 1     
   37   16   22 1     
   38   17   18 1     
   39   17   19 1     
   40   17   41 1     
   41   18   42 1     
   42   18   43 1     
   43   18   44 1     
   44   19   20 1     
   45   19   45 1     
   46   20   21 1     
   47   21   46 1     
   48   21   47 1     
   49   21   48 1     
   50    9   49 1     
   51    9   50 1     
   52   15   51 1     
   53   20   52 1     
   54   20   53 1     
@<TRIPOS>SUBSTRUCTURE
      1 S1             1
@<TRIPOS>SET
LONE_PAIRS      STATIC     ATOMS    <user>   **** ""
5 49 50 51 52 53
DONOR_HYDROGENS      STATIC     ATOMS    <user>   **** ""
2 34 22
ATOM$BLUE        STATIC     ATOMS    COLORGROUP SYSTEM
5 49 50 51 52 53
ATOM$RED        STATIC     ATOMS    COLORGROUP SYSTEM
2 34 22
