#       Name:                AV-unprocessed.smi:2883
#       Creating user name   scv26
#       Creation time:       Fri Mar 27 15:55:17 2020


#       File generated by GOLD software.
#

@<TRIPOS>MOLECULE
AV-unprocessed.smi:2883
    43    45     1
SMALL
NO_CHARGES


@<TRIPOS>ATOM
      1 ****        -3.3419   1.3762  -1.6781 C.3            1 S1                 0.0000
      2 ****        -2.9062   1.1389  -0.2207 C.3            1 S1                 0.0000
      3 ****        -2.0019   2.3038   0.2474 C.3            1 S1                 0.0000
      4 ****        -4.1485   1.1643   0.7006 C.3            1 S1                 0.0000
      5 ****        -2.1667  -0.2060  -0.1198 C.ar           1 S1                 0.0000
      6 ****        -2.9115  -1.3053   0.0583 N.ar           1 S1                 0.0000
      7 ****        -2.2816  -2.4985   0.0190 C.ar           1 S1                 0.0000
      8 ****        -0.8996  -2.6000  -0.2322 C.ar           1 S1                 0.0000
      9 ****        -0.2110  -1.3899  -0.4468 C.ar           1 S1                 0.0000
     10 ****         1.1644  -1.4176  -0.7148 N.pl3          1 S1                 0.0000
     11 ****         1.9534  -0.1892  -0.7049 C.3            1 S1                 0.0000
     12 ****         3.4014  -0.4021  -1.1526 C.3            1 S1                 0.0000
     13 ****         4.1859   0.2131   0.0149 C.3            1 S1                 0.0000
     14 ****         4.1679  -0.6992   1.2479 C.3            1 S1                 0.0000
     15 ****         2.7284  -0.5368   1.7323 C.3            1 S1                 0.0000
     16 ****         2.1493   0.4363   0.6911 C.3            1 S1                 0.0000
     17 ****         3.2942   1.2325   0.4352 O.3            1 S1                 0.0000
     18 ****        -0.8586  -0.2028  -0.4069 N.ar           1 S1                 0.0000
     19 ****        -3.8708   2.3236  -1.7864 H              1 S1                 0.0000
     20 ****        -4.0080   0.5858  -2.0256 H              1 S1                 0.0000
     21 ****        -2.4826   1.4004  -2.3492 H              1 S1                 0.0000
     22 ****        -1.1227   2.4203  -0.3876 H              1 S1                 0.0000
     23 ****        -1.6525   2.1498   1.2692 H              1 S1                 0.0000
     24 ****        -2.5347   3.2550   0.2234 H              1 S1                 0.0000
     25 ****        -4.6482   2.1330   0.6656 H              1 S1                 0.0000
     26 ****        -3.8772   0.9734   1.7396 H              1 S1                 0.0000
     27 ****        -4.8891   0.4185   0.4094 H              1 S1                 0.0000
     28 ****        -2.8853  -3.3789   0.1826 H              1 S1                 0.0000
     29 ****        -0.4010  -3.5576  -0.2638 H              1 S1                 0.0000
     30 ****         1.6517  -2.3015  -0.6969 H              1 S1                 0.0000
     31 ****         1.4899   0.5420  -1.3690 H              1 S1                 0.0000
     32 ****         3.6640  -1.4487  -1.3134 H              1 S1                 0.0000
     33 ****         3.5931   0.1399  -2.0791 H              1 S1                 0.0000
     34 ****         5.1802   0.5680  -0.2575 H              1 S1                 0.0000
     35 ****         4.4198  -1.7319   1.0050 H              1 S1                 0.0000
     36 ****         4.8685  -0.3446   2.0046 H              1 S1                 0.0000
     37 ****         2.1863  -1.4812   1.7844 H              1 S1                 0.0000
     38 ****         2.7126  -0.0868   2.7256 H              1 S1                 0.0000
     39 ****         1.2885   1.0019   1.0489 H              1 S1                 0.0000
     40 ****        -3.8973  -1.2441   0.2145 LP             1 S1                 0.0000
     41 ****         3.1288   1.9061  -0.2852 LP             1 S1                 0.0000
     42 ****         3.6186   1.6980   1.2587 LP             1 S1                 0.0000
     43 ****        -0.3740   0.6533  -0.5868 LP             1 S1                 0.0000
@<TRIPOS>BOND
    1    1    2 1     
    2    1   19 1     
    3    1   20 1     
    4    1   21 1     
    5    2    3 1     
    6    2    4 1     
    7    2    5 1     
    8    3   22 1     
    9    3   23 1     
   10    3   24 1     
   11    4   25 1     
   12    4   26 1     
   13    4   27 1     
   14    5   18 ar    
   15    5    6 ar    
   16    6    7 ar    
   17    7    8 ar    
   18    7   28 1     
   19    8    9 ar    
   20    8   29 1     
   21    9   10 1     
   22    9   18 ar    
   23   10   11 1     
   24   10   30 1     
   25   11   16 1     
   26   11   12 1     
   27   11   31 1     
   28   12   13 1     
   29   12   32 1     
   30   12   33 1     
   31   13   17 1     
   32   13   14 1     
   33   13   34 1     
   34   14   15 1     
   35   14   35 1     
   36   14   36 1     
   37   15   16 1     
   38   15   37 1     
   39   15   38 1     
   40   16   17 1     
   41   16   39 1     
   42    6   40 1     
   43   17   41 1     
   44   17   42 1     
   45   18   43 1     
@<TRIPOS>SUBSTRUCTURE
      1 S1             1
@<TRIPOS>SET
LONE_PAIRS      STATIC     ATOMS    <user>   **** ""
4 40 41 42 43
DONOR_HYDROGENS      STATIC     ATOMS    <user>   **** ""
1 30
ATOM$BLUE        STATIC     ATOMS    COLORGROUP SYSTEM
4 40 41 42 43
ATOM$RED        STATIC     ATOMS    COLORGROUP SYSTEM
1 30
