AV-unprocessed.smi:2747|AV-procd|sdf|10579|dock1
  -GOLD-   2272015 33D 1   1.00000     0.00000
 Structure written by MMmdl.
 23 24  0  0  0  0  0  0  0  0  2 V2000
  150.0856  142.6058  158.6862 O   0  5  0  0  0  0  0  0  0  0  0  0
  151.1271  143.0075  157.9962 C   0  0  2  0  0  0  0  0  0  0  0  0
  152.1064  141.8064  157.8811 C   0  0  0  0  0  0  0  0  0  0  0  0
  151.7176  140.7947  156.9009 N   0  0  0  0  0  0  0  0  0  0  0  0
  152.4738  139.6660  156.7542 N   0  0  0  0  0  0  0  0  0  0  0  0
  151.9227  138.9065  155.8546 N   0  0  0  0  0  0  0  0  0  0  0  0
  150.7764  139.5394  155.4040 C   0  0  0  0  0  0  0  0  0  0  0  0
  149.8071  139.1634  154.4473 C   0  0  0  0  0  0  0  0  0  0  0  0
  148.7089  140.0082  154.1731 C   0  0  0  0  0  0  0  0  0  0  0  0
  147.5436  139.5121  152.9976 Cl  0  0  0  0  0  0  0  0  0  0  0  0
  148.5684  141.2415  154.8542 C   0  0  0  0  0  0  0  0  0  0  0  0
  147.2313  142.2870  154.5306 Cl  0  0  0  0  0  0  0  0  0  0  0  0
  149.5268  141.6281  155.8116 C   0  0  0  0  0  0  0  0  0  0  0  0
  150.6120  140.7733  156.0693 C   0  0  0  0  0  0  0  0  0  0  0  0
  151.7732  144.1872  158.7627 C   0  0  0  0  0  0  0  0  0  0  0  0
  150.8766  145.1533  158.9704 F   0  0  0  0  0  0  0  0  0  0  0  0
  152.2742  143.7959  159.9370 F   0  0  0  0  0  0  0  0  0  0  0  0
  152.7659  144.7030  158.0364 F   0  0  0  0  0  0  0  0  0  0  0  0
  150.9940  143.3692  156.9752 H   0  0  0  0  0  0  0  0  0  0  0  0
  153.1015  142.1653  157.6144 H   0  0  0  0  0  0  0  0  0  0  0  0
  152.2202  141.3125  158.8474 H   0  0  0  0  0  0  0  0  0  0  0  0
  149.9075  138.2230  153.9257 H   0  0  0  0  0  0  0  0  0  0  0  0
  149.4360  142.5677  156.3370 H   0  0  0  0  0  0  0  0  0  0  0  0
  1  2  1  0  0  0  0
  2  3  1  0  0  0  0
  2 15  1  0  0  0  0
  2 19  1  0  0  0  0
  3  4  1  0  0  0  0
  3 20  1  0  0  0  0
  3 21  1  0  0  0  0
  4 14  1  0  0  0  0
  4  5  1  0  0  0  0
  5  6  2  0  0  0  0
  6  7  1  0  0  0  0
  7 14  2  0  0  0  0
  7  8  1  0  0  0  0
  8  9  2  0  0  0  0
  8 22  1  0  0  0  0
  9 10  1  0  0  0  0
  9 11  1  0  0  0  0
 11 12  1  0  0  0  0
 11 13  2  0  0  0  0
 13 14  1  0  0  0  0
 13 23  1  0  0  0  0
 15 16  1  0  0  0  0
 15 17  1  0  0  0  0
 15 18  1  0  0  0  0
M  CHG  1   1  -1
M  END
> <s_m_source_file>
AV-unprocessed.smi

> <i_m_source_file_index>
2747

> <i_lp_mmshare_version>
43012

> <i_f3d_flags>
0

> <s_epik_input>
RkMoRikoRilbQ0BIXShbT0hdKVtDSDJdbihubjEpYyhjMTIpW2NIXWMoQ2wpYyhDbClbY0hdMg==

> <s_epik_cmdline>
J2VwaWtfcHl0aG9uJywgJy1waCcsICc3LjAnLCAnLXRuJywgJzgnLCAnLW1hJywgJzIwMCcsICctbWV0YWxfYmluZGluZycsICctaW1hZScsICc8aW5maWxlLm1hZT4nLCAnLW9tYWUnLCAnPG91dGZpbGUubWFlPic=

> <r_lp_tautomer_probability>
1

> <r_epik_Ionization_Penalty>
1.2724

> <r_epik_Ionization_Penalty_Charging>
1.2724

> <r_epik_Ionization_Penalty_Neutral>
1.57383e-10

> <r_epik_State_Penalty>
1.34397

> <r_epik_Charging_Adjusted_Penalty>
2.61637

> <i_epik_Tot_Q>
-1

> <i_epik_Tot_abs_Q>
1

> <r_epik_Metal_State_Penalty>
1.34397

> <b_epik_Metal_Only>
0

> <s_lp_Force_Field>
OPLS_2005

> <r_lp_Energy>
12.5023

> <b_lp_Chiralities_Consistent>
1

> <s_lp_Variant>
AV-unprocessed.smi:2747-3

> <Gold.Version>
5.8.1

> <Gold.Id.Protein>
6NUR|6NUR_protein|mol2

> <Gold.PLP.Fitness>
42.3233

> <Gold.PLP.PLP>
-39.6839

> <Gold.PLP.part.hbond>
-1.0000

> <Gold.PLP.part.metal>
0.0000

> <Gold.PLP.part.buried>
-0.3461

> <Gold.PLP.part.nonpolar>
-37.5393

> <Gold.PLP.part.repulsive>
0.0953

> <Gold.PLP.ligand.clash>
0.0000

> <Gold.PLP.ligand.torsion>
0.1863

> <Gold.PLP.Chemscore.Hbond>
1.0000

> <Gold.PLP.Chemscore.CHOScore>
0.0000

> <Gold.PLP.Chemscore.Metal>
0.0000

> <Gold.Chemscore.Hbonds>
donor molecule, donor type, donor heavy atom, donor atom, acceptor molecule, acceptor atom, score
      P1  H  7997  8009       L1     5  1.00

> <Gold.PLP.Chemscore.Internal.Correction>
0.0121

> <Gold.Rescore>
     Score         DG    S(hbond)    S(metal)    S(lipo)     H(rot)  DE(clash)    DE(int)     intcor
     12.96     -14.52       0.91        0.00      80.75       1.35       0.55       1.01       ----

> <Gold.Chemscore.Fitness>
12.9595

> <Gold.Chemscore.DG>
-14.5180

> <Gold.Chemscore.ZeroCoef>
-5.4800

> <Gold.Chemscore.Hbond>
0.9101

> <Gold.Chemscore.Metal>
0.0000

> <Gold.Chemscore.Lipo>
80.7510

> <Gold.Chemscore.Internal_Hbond>
0.0000

> <Gold.Chemscore.DEClash>
0.5493

> <Gold.Chemscore.DEInternal>
1.0092

> <Gold.Chemscore.Rot>
1.3474

> <Gold.Chemscore.Internal.Correction>
   9.000000E+99

> <Gold.Chemscore.Hbonds>
donor molecule, donor type, donor heavy atom, donor atom, acceptor molecule, acceptor atom, score
      P1  H  7997  8009       L1     5  0.74

> <Gold.Chemscore.Hbond.Weighted>
-3.0396

> <Gold.Chemscore.Metal.Weighted>
-0.0000

> <Gold.Chemscore.Lipo.Weighted>
-9.4479

> <Gold.Chemscore.Internal_Hbond.Weighted>
0.0000

> <Gold.Chemscore.DEClash.Weighted>
0.5493

> <Gold.Chemscore.DEInternal.Weighted>
1.0092

> <Gold.Chemscore.Rot.Weighted>
3.4494

> <Gold.Chemscore.Internal.Correction.Weighted>
   9.000000E+99

> <Gold.Protein.RotatedTorsions>
[ 6907 6896 6895 6894 ] final  117.55 input  -60.11 | X-H torsion
[ 7974 7965 7964 7962 ] final   33.20 input  175.53 | X-H torsion
[ 8008 7997 7996 7995 ] final -172.63 input   59.86 | X-H torsion
[ 10167 10162 10161 10158 ] final  -75.34 input  -65.29 | X-H torsion
[ 10718 10713 10712 10709 ] final  -29.76 input   66.30 | X-H torsion
[ 10763 10752 10751 10750 ] final   57.78 input  -60.55 | X-H torsion
[ 11005 11000 10999 10996 ] final  -70.44 input  -57.11 | X-H torsion

> <Gold.Protein.ActiveResidues>
 VAL166  LYS551  ARG553  GLY616  TRP617  ASP618  TYR619  PRO620  LYS621  CYS622 
 ASP623  PHE694  ASN695  SER759  ASP760  ASP761  ALA762  ILE779  LEU786  VAL792 
 PHE793  MET794  SER795  GLU796  ALA797  LYS798  CYS799  TRP800  GLU811  SER814 

> <Gold.Protein.RotatedAtoms>
  152.4604  133.7810  159.6850 H   0  0  0  0  0  0  0  0  0  0  0  0  # atno 6907 bound_to 6896
  150.8546  133.7725  159.3020 H   0  0  0  0  0  0  0  0  0  0  0  0  # atno 6908 bound_to 6896
  151.5310  135.1071  159.9954 H   0  0  0  0  0  0  0  0  0  0  0  0  # atno 6909 bound_to 6896
  146.1436  139.6427  142.9146 H   0  0  0  0  0  0  0  0  0  0  0  0  # atno 7974 bound_to 7965
  155.9470  140.1119  157.1008 H   0  0  0  0  0  0  0  0  0  0  0  0  # atno 8008 bound_to 7997
  154.4101  140.1208  156.5068 H   0  0  0  0  0  0  0  0  0  0  0  0  # atno 8009 bound_to 7997
  155.6890  140.3472  155.4888 H   0  0  0  0  0  0  0  0  0  0  0  0  # atno 8010 bound_to 7997
  140.4951  143.2372  151.7844 H   0  0  0  0  0  0  0  0  0  0  0  0  # atno 10167 bound_to 10162
  156.4083  130.4403  149.7271 H   0  0  0  0  0  0  0  0  0  0  0  0  # atno 10718 bound_to 10713
  152.9857  135.5630  154.5446 H   0  0  0  0  0  0  0  0  0  0  0  0  # atno 10763 bound_to 10752
  154.4894  135.2792  155.1510 H   0  0  0  0  0  0  0  0  0  0  0  0  # atno 10764 bound_to 10752
  154.2986  135.6312  153.5468 H   0  0  0  0  0  0  0  0  0  0  0  0  # atno 10765 bound_to 10752
  141.1574  133.6790  156.6753 H   0  0  0  0  0  0  0  0  0  0  0  0  # atno 11005 bound_to 11000
  145.4989  141.0438  143.2551 LP  0  0  0  0  0  0  0  0  0  0  0  0  # atno 17320 bound_to 7965
  144.7821  139.6505  143.7150 LP  0  0  0  0  0  0  0  0  0  0  0  0  # atno 17321 bound_to 7965
  139.4859  144.4597  151.9555 LP  0  0  0  0  0  0  0  0  0  0  0  0  # atno 17342 bound_to 10162
  140.3685  144.2885  150.5923 LP  0  0  0  0  0  0  0  0  0  0  0  0  # atno 17343 bound_to 10162
  156.4259  130.7792  151.2810 LP  0  0  0  0  0  0  0  0  0  0  0  0  # atno 17370 bound_to 10713
  157.7506  131.0168  150.3561 LP  0  0  0  0  0  0  0  0  0  0  0  0  # atno 17371 bound_to 10713
  140.3144  134.8059  157.4202 LP  0  0  0  0  0  0  0  0  0  0  0  0  # atno 17394 bound_to 11000
  140.1151  134.5294  155.8232 LP  0  0  0  0  0  0  0  0  0  0  0  0  # atno 17395 bound_to 11000

$$$$
