#       Name:                AV-unprocessed.smi:1196
#       Creating user name   scv26
#       Creation time:       Fri Mar 27 04:01:56 2020


#       File generated by GOLD software.
#

@<TRIPOS>MOLECULE
AV-unprocessed.smi:1196
    44    45     1
SMALL
NO_CHARGES


@<TRIPOS>ATOM
      1 ****        -3.2210   0.1140   2.5748 C.3            1 S1                 0.0000
      2 ****        -2.5083   0.4618   1.2611 C.3            1 S1                 0.0000
      3 ****        -3.0913  -0.3388   0.0768 C.3            1 S1                 0.0000
      4 ****        -2.5203   0.0534  -1.2002 N.pl3          1 S1                 0.0000
      5 ****        -2.7894   1.1792  -1.9497 C.2            1 S1                 0.0000
      6 ****        -1.9975   1.1263  -3.0608 C.2            1 S1                 0.0000
      7 ****        -1.2701  -0.0861  -2.9000 C.2            1 S1                 0.0000
      8 ****        -1.5902  -0.7294  -1.7891 N.2            1 S1                 0.0000
      9 ****        -1.0774   0.2008   1.4143 N.am           1 S1                 0.0000
     10 ****        -0.0851   0.9887   0.9699 C.2            1 S1                 0.0000
     11 ****        -0.2740   2.0634   0.3996 O.2            1 S1                 0.0000
     12 ****         1.3395   0.4825   1.1981 C.3            1 S1                 0.0000
     13 ****         2.1114   0.3191  -0.1240 C.3            1 S1                 0.0000
     14 ****         3.5628  -0.1567   0.0834 C.3            1 S1                 0.0000
     15 ****         3.6047  -1.5197   0.5681 N.am           1 S1                 0.0000
     16 ****         4.3108  -2.3026  -0.2451 C.2            1 S1                 0.0000
     17 ****         4.4909  -3.4935  -0.0003 O.2            1 S1                 0.0000
     18 ****         4.7501  -1.5956  -1.3043 N.pl3          1 S1                -1.0000
     19 ****         4.3518  -0.3080  -1.2170 C.2            1 S1                 0.0000
     20 ****         4.5447   0.6379  -1.9793 O.2            1 S1                 0.0000
     21 ****        -4.2880   0.3284   2.5106 H              1 S1                 0.0000
     22 ****        -2.8192   0.6943   3.4060 H              1 S1                 0.0000
     23 ****        -3.1084  -0.9427   2.8206 H              1 S1                 0.0000
     24 ****        -2.6740   1.5249   1.0772 H              1 S1                 0.0000
     25 ****        -2.9386  -1.4094   0.2246 H              1 S1                 0.0000
     26 ****        -4.1696  -0.1853   0.0186 H              1 S1                 0.0000
     27 ****        -3.5084   1.9189  -1.6296 H              1 S1                 0.0000
     28 ****        -1.9428   1.8457  -3.8641 H              1 S1                 0.0000
     29 ****        -0.5257  -0.5162  -3.5537 H              1 S1                 0.0000
     30 ****        -0.8211  -0.6651   1.8659 H              1 S1                 0.0000
     31 ****         1.8561   1.1927   1.8445 H              1 S1                 0.0000
     32 ****         1.3115  -0.4657   1.7368 H              1 S1                 0.0000
     33 ****         1.5815  -0.3749  -0.7795 H              1 S1                 0.0000
     34 ****         2.1280   1.2759  -0.6483 H              1 S1                 0.0000
     35 ****         4.1029   0.5014   0.7655 H              1 S1                 0.0000
     36 ****         3.1733  -1.8197   1.4297 H              1 S1                 0.0000
     37 ****        -1.2253  -1.6001  -1.4593 LP             1 S1                 0.0000
     38 ****        -1.2063   2.3909   0.2461 LP             1 S1                 0.0000
     39 ****         0.5049   2.6088   0.0898 LP             1 S1                 0.0000
     40 ****         4.1027  -3.8980   0.8277 LP             1 S1                 0.0000
     41 ****         5.0257  -4.0579  -0.6292 LP             1 S1                 0.0000
     42 ****         5.2962  -1.9724  -2.0526 LP             1 S1                 0.0000
     43 ****         4.1805   1.5421  -1.7563 LP             1 S1                 0.0000
     44 ****         5.0657   0.5027  -2.8221 LP             1 S1                 0.0000
@<TRIPOS>BOND
    1    1    2 1     
    2    1   21 1     
    3    1   22 1     
    4    1   23 1     
    5    2    3 1     
    6    2    9 1     
    7    2   24 1     
    8    3    4 1     
    9    3   25 1     
   10    3   26 1     
   11    4    8 1     
   12    4    5 1     
   13    5    6 2     
   14    5   27 1     
   15    6    7 1     
   16    6   28 1     
   17    7    8 2     
   18    7   29 1     
   19    9   10 am    
   20    9   30 1     
   21   10   11 2     
   22   10   12 1     
   23   12   13 1     
   24   12   31 1     
   25   12   32 1     
   26   13   14 1     
   27   13   33 1     
   28   13   34 1     
   29   14   19 1     
   30   14   15 1     
   31   14   35 1     
   32   15   16 am    
   33   15   36 1     
   34   16   17 2     
   35   16   18 1     
   36   18   19 1     
   37   19   20 2     
   38    8   37 1     
   39   11   38 1     
   40   11   39 1     
   41   17   40 1     
   42   17   41 1     
   43   18   42 1     
   44   20   43 1     
   45   20   44 1     
@<TRIPOS>SUBSTRUCTURE
      1 S1             1
@<TRIPOS>SET
LONE_PAIRS      STATIC     ATOMS    <user>   **** ""
8 37 38 39 40 41 42 43 44
DONOR_HYDROGENS      STATIC     ATOMS    <user>   **** ""
2 30 36
ATOM$BLUE        STATIC     ATOMS    COLORGROUP SYSTEM
8 37 38 39 40 41 42 43 44
ATOM$RED        STATIC     ATOMS    COLORGROUP SYSTEM
2 30 36
