AV-unprocessed.smi:2773|AV-procd|sdf|10679|dock3
  -GOLD-   2272015123D 1   1.00000     0.00000
 Structure written by MMmdl.
 30 31  0  0  0  0  0  0  0  0  1 V2000
  147.1101  140.2299  152.8723 C   0  0  0  0  0  0  0  0  0  0  0  0
  147.7276  140.6370  154.1928 C   0  0  1  0  0  0  0  0  0  0  0  0
  148.6187  139.6761  154.9332 C   0  0  0  0  0  0  0  0  0  0  0  0
  149.2125  140.9174  154.3041 C   0  0  2  0  0  0  0  0  0  0  0  0
  149.6439  141.9444  155.2046 N   0  0  0  0  0  0  0  0  0  0  0  0
  150.3786  141.8107  156.3239 C   0  0  0  0  0  0  0  0  0  0  0  0
  150.7450  140.7026  156.7116 O   0  0  0  0  0  0  0  0  0  0  0  0
  150.6275  142.9688  156.9680 N   0  0  0  0  0  0  0  0  0  0  0  0
  151.3924  143.1756  158.1463 C   0  0  0  0  0  0  0  0  0  0  0  0
  151.3151  144.4770  158.6894 C   0  0  0  0  0  0  0  0  0  0  0  0
  152.0402  144.7837  159.8565 C   0  0  0  0  0  0  0  0  0  0  0  0
  152.8268  143.7814  160.4511 C   0  0  0  0  0  0  0  0  0  0  0  0
  152.8536  142.5062  159.8472 C   0  0  0  0  0  0  0  0  0  0  0  0
  153.6837  141.3673  160.4228 C   0  0  0  0  0  0  0  0  0  0  0  0
  154.9286  141.3735  159.9446 F   0  0  0  0  0  0  0  0  0  0  0  0
  153.7419  141.4784  161.7499 F   0  0  0  0  0  0  0  0  0  0  0  0
  153.1196  140.1999  160.1131 F   0  0  0  0  0  0  0  0  0  0  0  0
  152.1545  142.2164  158.7266 N   0  0  0  0  0  0  0  0  0  0  0  0
  147.8020  139.6184  152.2920 H   0  0  0  0  0  0  0  0  0  0  0  0
  146.8568  141.1153  152.2894 H   0  0  0  0  0  0  0  0  0  0  0  0
  146.2002  139.6553  153.0462 H   0  0  0  0  0  0  0  0  0  0  0  0
  147.0731  141.2513  154.8088 H   0  0  0  0  0  0  0  0  0  0  0  0
  148.5280  139.6455  156.0175 H   0  0  0  0  0  0  0  0  0  0  0  0
  148.8417  138.7218  154.4600 H   0  0  0  0  0  0  0  0  0  0  0  0
  149.8152  140.7342  153.4157 H   0  0  0  0  0  0  0  0  0  0  0  0
  149.3027  142.8731  155.0026 H   0  0  0  0  0  0  0  0  0  0  0  0
  150.2337  143.8009  156.5544 H   0  0  0  0  0  0  0  0  0  0  0  0
  150.7065  145.2363  158.2199 H   0  0  0  0  0  0  0  0  0  0  0  0
  151.9938  145.7729  160.2875 H   0  0  0  0  0  0  0  0  0  0  0  0
  153.3924  143.9945  161.3460 H   0  0  0  0  0  0  0  0  0  0  0  0
  1  2  1  0  0  0  0
  1 19  1  0  0  0  0
  1 20  1  0  0  0  0
  1 21  1  0  0  0  0
  2  4  1  0  0  0  0
  2  3  1  0  0  0  0
  2 22  1  0  0  0  0
  3  4  1  0  0  0  0
  3 23  1  0  0  0  0
  3 24  1  0  0  0  0
  4  5  1  0  0  0  0
  4 25  1  0  0  0  0
  5  6  1  0  0  0  0
  5 26  1  0  0  0  0
  6  7  2  0  0  0  0
  6  8  1  0  0  0  0
  8  9  1  0  0  0  0
  8 27  1  0  0  0  0
  9 18  1  0  0  0  0
  9 10  2  0  0  0  0
 10 11  1  0  0  0  0
 10 28  1  0  0  0  0
 11 12  2  0  0  0  0
 11 29  1  0  0  0  0
 12 13  1  0  0  0  0
 12 30  1  0  0  0  0
 13 14  1  0  0  0  0
 13 18  2  0  0  0  0
 14 15  1  0  0  0  0
 14 16  1  0  0  0  0
 14 17  1  0  0  0  0
M  END
> <s_m_source_file>
AV-unprocessed.smi

> <i_m_source_file_index>
2773

> <i_lp_mmshare_version>
43012

> <i_f3d_flags>
0

> <s_epik_input>
W0NIM11bQ0BASF0xW0NIMl1bQ0BIXTFbTkhdQyg9TylbTkhdYzJbY0hdW2NIXVtjSF1jKG4yKUMoRikoRilG

> <s_epik_cmdline>
J2VwaWtfcHl0aG9uJywgJy1waCcsICc3LjAnLCAnLXRuJywgJzgnLCAnLW1hJywgJzIwMCcsICctbWV0YWxfYmluZGluZycsICctaW1hZScsICc8aW5maWxlLm1hZT4nLCAnLW9tYWUnLCAnPG91dGZpbGUubWFlPic=

> <r_lp_tautomer_probability>
1

> <r_epik_Ionization_Penalty>
4.04275e-05

> <r_epik_Ionization_Penalty_Charging>
0

> <r_epik_Ionization_Penalty_Neutral>
4.04275e-05

> <r_epik_State_Penalty>
-0

> <r_epik_Charging_Adjusted_Penalty>
0

> <i_epik_Tot_Q>
0

> <i_epik_Tot_abs_Q>
0

> <r_epik_Metal_State_Penalty>
-0

> <b_epik_Metal_Only>
0

> <s_lp_Force_Field>
OPLS_2005

> <r_lp_Energy>
31.9266

> <b_lp_Chiralities_Consistent>
1

> <s_lp_Variant>
AV-unprocessed.smi:2773-4

> <Gold.Version>
5.8.1

> <Gold.Id.Protein>
6NUR|6NUR_protein|mol2

> <Gold.PLP.Fitness>
45.1241

> <Gold.PLP.PLP>
-41.5689

> <Gold.PLP.part.hbond>
-2.0000

> <Gold.PLP.part.metal>
0.0000

> <Gold.PLP.part.buried>
-3.3471

> <Gold.PLP.part.nonpolar>
-36.0525

> <Gold.PLP.part.repulsive>
0.2552

> <Gold.PLP.ligand.clash>
0.0000

> <Gold.PLP.ligand.torsion>
1.2279

> <Gold.PLP.Chemscore.Hbond>
1.9920

> <Gold.PLP.Chemscore.CHOScore>
0.0000

> <Gold.PLP.Chemscore.Metal>
0.0000

> <Gold.Chemscore.Hbonds>
donor molecule, donor type, donor heavy atom, donor atom, acceptor molecule, acceptor atom, score
      L1  H     5    26       P1  8028  0.99
      L1  H     8    27       P1  8028  1.00

> <Gold.PLP.Chemscore.Internal.Correction>
0.0350

> <Gold.Rescore>
     Score         DG    S(hbond)    S(metal)    S(lipo)     H(rot)  DE(clash)    DE(int)     intcor
     17.73     -19.36       1.95        0.00      84.83       1.00       0.27       1.36       ----

> <Gold.Chemscore.Fitness>
17.7307

> <Gold.Chemscore.DG>
-19.3552

> <Gold.Chemscore.ZeroCoef>
-5.4800

> <Gold.Chemscore.Hbond>
1.9491

> <Gold.Chemscore.Metal>
0.0000

> <Gold.Chemscore.Lipo>
84.8323

> <Gold.Chemscore.Internal_Hbond>
0.0000

> <Gold.Chemscore.DEClash>
0.2654

> <Gold.Chemscore.DEInternal>
1.3591

> <Gold.Chemscore.Rot>
1.0000

> <Gold.Chemscore.Internal.Correction>
   9.000000E+99

> <Gold.Chemscore.Hbonds>
donor molecule, donor type, donor heavy atom, donor atom, acceptor molecule, acceptor atom, score
      L1  H     5    26       P1  8028  0.91
      L1  H     8    27       P1  8028  0.98

> <Gold.Chemscore.Hbond.Weighted>
-6.5098

> <Gold.Chemscore.Metal.Weighted>
-0.0000

> <Gold.Chemscore.Lipo.Weighted>
-9.9254

> <Gold.Chemscore.Internal_Hbond.Weighted>
0.0000

> <Gold.Chemscore.DEClash.Weighted>
0.2654

> <Gold.Chemscore.DEInternal.Weighted>
1.3591

> <Gold.Chemscore.Rot.Weighted>
2.5600

> <Gold.Chemscore.Internal.Correction.Weighted>
   9.000000E+99

> <Gold.Protein.RotatedTorsions>
[ 6907 6896 6895 6894 ] final   10.20 input  -60.11 | X-H torsion
[ 7974 7965 7964 7962 ] final  161.63 input  175.53 | X-H torsion
[ 8008 7997 7996 7995 ] final  138.11 input   59.86 | X-H torsion
[ 10167 10162 10161 10158 ] final   10.34 input  -65.29 | X-H torsion
[ 10718 10713 10712 10709 ] final  -27.24 input   66.30 | X-H torsion
[ 10763 10752 10751 10750 ] final  -14.67 input  -60.55 | X-H torsion
[ 11005 11000 10999 10996 ] final   51.96 input  -57.11 | X-H torsion

> <Gold.Protein.ActiveResidues>
 VAL166  LYS551  ARG553  GLY616  TRP617  ASP618  TYR619  PRO620  LYS621  CYS622 
 ASP623  PHE694  ASN695  SER759  ASP760  ASP761  ALA762  ILE779  LEU786  VAL792 
 PHE793  MET794  SER795  GLU796  ALA797  LYS798  CYS799  TRP800  GLU811  SER814 

> <Gold.Protein.RotatedAtoms>
  151.7345  135.0868  160.0305 H   0  0  0  0  0  0  0  0  0  0  0  0  # atno 6907 bound_to 6896
  152.3520  133.6186  159.5960 H   0  0  0  0  0  0  0  0  0  0  0  0  # atno 6908 bound_to 6896
  150.7546  133.9476  159.3517 H   0  0  0  0  0  0  0  0  0  0  0  0  # atno 6909 bound_to 6896
  144.7676  139.7925  143.6309 H   0  0  0  0  0  0  0  0  0  0  0  0  # atno 7974 bound_to 7965
  156.2999  140.2402  156.4020 H   0  0  0  0  0  0  0  0  0  0  0  0  # atno 8008 bound_to 7997
  154.8519  140.0423  157.1629 H   0  0  0  0  0  0  0  0  0  0  0  0  # atno 8009 bound_to 7997
  154.8990  140.2974  155.5332 H   0  0  0  0  0  0  0  0  0  0  0  0  # atno 8010 bound_to 7997
  140.6200  143.8224  150.7164 H   0  0  0  0  0  0  0  0  0  0  0  0  # atno 10167 bound_to 10162
  156.4407  130.4464  149.7054 H   0  0  0  0  0  0  0  0  0  0  0  0  # atno 10718 bound_to 10713
  153.5317  135.7014  153.5680 H   0  0  0  0  0  0  0  0  0  0  0  0  # atno 10763 bound_to 10752
  153.3685  135.3951  155.1771 H   0  0  0  0  0  0  0  0  0  0  0  0  # atno 10764 bound_to 10752
  154.8684  135.3806  154.4814 H   0  0  0  0  0  0  0  0  0  0  0  0  # atno 10765 bound_to 10752
  140.0889  134.5237  155.8872 H   0  0  0  0  0  0  0  0  0  0  0  0  # atno 11005 bound_to 11000
  146.1797  139.4984  142.9874 LP  0  0  0  0  0  0  0  0  0  0  0  0  # atno 17320 bound_to 7965
  145.6421  141.0282  143.1806 LP  0  0  0  0  0  0  0  0  0  0  0  0  # atno 17321 bound_to 7965
  140.1812  143.4113  152.1931 LP  0  0  0  0  0  0  0  0  0  0  0  0  # atno 17342 bound_to 10162
  139.5431  144.7274  151.4671 LP  0  0  0  0  0  0  0  0  0  0  0  0  # atno 17343 bound_to 10162
  156.3920  130.7632  151.2633 LP  0  0  0  0  0  0  0  0  0  0  0  0  # atno 17370 bound_to 10713
  157.7506  131.0265  150.3965 LP  0  0  0  0  0  0  0  0  0  0  0  0  # atno 17371 bound_to 10713
  141.2071  133.6661  156.6286 LP  0  0  0  0  0  0  0  0  0  0  0  0  # atno 17394 bound_to 11000
  140.3381  134.7872  157.4377 LP  0  0  0  0  0  0  0  0  0  0  0  0  # atno 17395 bound_to 11000

$$$$
