AV-unprocessed.smi:2509|AV-procd|sdf|9867|dock8
  -GOLD-   2272013493D 1   1.00000     0.00000
 Structure written by MMmdl.
 45 46  0  0  0  0  0  0  0  0  1 V2000
  145.8647  132.0280  149.3403 C   0  0  0  0  0  0  0  0  0  0  0  0
  145.1558  132.2516  150.6970 C   0  0  0  0  0  0  0  0  0  0  0  0
  143.6420  132.1003  150.4179 C   0  0  0  0  0  0  0  0  0  0  0  0
  145.6073  131.1715  151.6974 C   0  0  0  0  0  0  0  0  0  0  0  0
  145.4753  133.6446  151.2675 C   0  0  0  0  0  0  0  0  0  0  0  0
  145.8688  133.7060  152.5461 N   0  0  0  0  0  0  0  0  0  0  0  0
  146.0283  134.9289  153.0939 C   0  0  0  0  0  0  0  0  0  0  0  0
  145.7613  136.1121  152.3765 C   0  0  0  0  0  0  0  0  0  0  0  0
  145.9536  137.3610  153.0294 N   0  0  0  0  0  0  0  0  0  0  0  0
  146.4702  138.5029  152.5443 C   0  0  0  0  0  0  0  0  0  0  0  0
  146.8793  138.6739  151.3968 O   0  0  0  0  0  0  0  0  0  0  0  0
  146.4912  139.4593  153.4834 N   0  0  0  0  0  0  0  0  0  0  0  0
  147.0053  140.8116  153.2913 C   0  0  0  0  0  0  0  0  0  0  0  0
  147.8609  141.2830  154.4865 C   0  0  1  0  0  0  0  0  0  0  0  0
  147.6799  140.4508  155.7617 C   0  0  0  0  0  0  0  0  0  0  0  0
  148.9536  140.6753  156.5924 C   0  0  0  0  0  0  0  0  0  0  0  0
  149.9412  141.4294  155.6874 C   0  0  0  0  0  0  0  0  0  0  0  0
  149.3819  141.3098  154.2668 C   0  0  1  0  0  0  0  0  0  0  0  0
  149.8454  140.1022  153.6908 O   0  0  0  0  0  0  0  0  0  0  0  0
  145.3108  135.9322  151.0460 C   0  0  0  0  0  0  0  0  0  0  0  0
  145.1562  134.7024  150.5105 N   0  0  0  0  0  0  0  0  0  0  0  0
  145.6054  131.0590  148.9122 H   0  0  0  0  0  0  0  0  0  0  0  0
  146.9506  132.0475  149.4377 H   0  0  0  0  0  0  0  0  0  0  0  0
  145.5839  132.7925  148.6147 H   0  0  0  0  0  0  0  0  0  0  0  0
  143.2860  132.8691  149.7311 H   0  0  0  0  0  0  0  0  0  0  0  0
  143.0485  132.1714  151.3301 H   0  0  0  0  0  0  0  0  0  0  0  0
  143.4155  131.1317  149.9711 H   0  0  0  0  0  0  0  0  0  0  0  0
  145.4001  130.1691  151.3218 H   0  0  0  0  0  0  0  0  0  0  0  0
  145.0926  131.2779  152.6530 H   0  0  0  0  0  0  0  0  0  0  0  0
  146.6783  131.2355  151.8924 H   0  0  0  0  0  0  0  0  0  0  0  0
  146.3672  134.9603  154.1191 H   0  0  0  0  0  0  0  0  0  0  0  0
  145.6612  137.3877  153.9953 H   0  0  0  0  0  0  0  0  0  0  0  0
  146.1378  139.2348  154.4020 H   0  0  0  0  0  0  0  0  0  0  0  0
  147.5892  140.8578  152.3707 H   0  0  0  0  0  0  0  0  0  0  0  0
  146.1560  141.4790  153.1437 H   0  0  0  0  0  0  0  0  0  0  0  0
  147.5586  142.3027  154.7324 H   0  0  0  0  0  0  0  0  0  0  0  0
  146.7776  140.7319  156.3058 H   0  0  0  0  0  0  0  0  0  0  0  0
  147.5921  139.3928  155.5110 H   0  0  0  0  0  0  0  0  0  0  0  0
  148.7436  141.2504  157.4950 H   0  0  0  0  0  0  0  0  0  0  0  0
  149.3699  139.7178  156.9069 H   0  0  0  0  0  0  0  0  0  0  0  0
  149.9532  142.4812  155.9761 H   0  0  0  0  0  0  0  0  0  0  0  0
  150.9640  141.0611  155.7781 H   0  0  0  0  0  0  0  0  0  0  0  0
  149.6912  142.1444  153.6366 H   0  0  0  0  0  0  0  0  0  0  0  0
  149.9604  140.2383  152.7627 H   0  0  0  0  0  0  0  0  0  0  0  0
  145.0609  136.7497  150.3896 H   0  0  0  0  0  0  0  0  0  0  0  0
  1  2  1  0  0  0  0
  1 22  1  0  0  0  0
  1 23  1  0  0  0  0
  1 24  1  0  0  0  0
  2  3  1  0  0  0  0
  2  4  1  0  0  0  0
  2  5  1  0  0  0  0
  3 25  1  0  0  0  0
  3 26  1  0  0  0  0
  3 27  1  0  0  0  0
  4 28  1  0  0  0  0
  4 29  1  0  0  0  0
  4 30  1  0  0  0  0
  5 21  1  0  0  0  0
  5  6  2  0  0  0  0
  6  7  1  0  0  0  0
  7  8  2  0  0  0  0
  7 31  1  0  0  0  0
  8  9  1  0  0  0  0
  8 20  1  0  0  0  0
  9 10  1  0  0  0  0
  9 32  1  0  0  0  0
 10 11  2  0  0  0  0
 10 12  1  0  0  0  0
 12 13  1  0  0  0  0
 12 33  1  0  0  0  0
 13 14  1  0  0  0  0
 13 34  1  0  0  0  0
 13 35  1  0  0  0  0
 14 18  1  0  0  0  0
 14 15  1  0  0  0  0
 14 36  1  0  0  0  0
 15 16  1  0  0  0  0
 15 37  1  0  0  0  0
 15 38  1  0  0  0  0
 16 17  1  0  0  0  0
 16 39  1  0  0  0  0
 16 40  1  0  0  0  0
 17 18  1  0  0  0  0
 17 41  1  0  0  0  0
 17 42  1  0  0  0  0
 18 19  1  0  0  0  0
 18 43  1  0  0  0  0
 19 44  1  0  0  0  0
 20 21  2  0  0  0  0
 20 45  1  0  0  0  0
M  END
> <s_m_source_file>
AV-unprocessed.smi

> <i_m_source_file_index>
2509

> <i_lp_mmshare_version>
43012

> <i_f3d_flags>
0

> <s_epik_input>
W0NIM11DKFtDSDNdKShbQ0gzXSljMW5bY0hdYyhbY0hdbjEpW05IXUMoPU8pW05IXVtDSDJdW0NAQEhdMltDSDJdW0NIMl1bQ0gyXVtDQEhdMltPSF0=

> <s_epik_cmdline>
J2VwaWtfcHl0aG9uJywgJy1waCcsICc3LjAnLCAnLXRuJywgJzgnLCAnLW1hJywgJzIwMCcsICctbWV0YWxfYmluZGluZycsICctaW1hZScsICc8aW5maWxlLm1hZT4nLCAnLW9tYWUnLCAnPG91dGZpbGUubWFlPic=

> <r_lp_tautomer_probability>
1

> <r_epik_Ionization_Penalty>
2.77586e-05

> <r_epik_Ionization_Penalty_Charging>
0

> <r_epik_Ionization_Penalty_Neutral>
2.77586e-05

> <r_epik_State_Penalty>
-0

> <r_epik_Charging_Adjusted_Penalty>
0

> <i_epik_Tot_Q>
0

> <i_epik_Tot_abs_Q>
0

> <r_epik_Metal_State_Penalty>
-0

> <b_epik_Metal_Only>
0

> <s_lp_Force_Field>
OPLS_2005

> <r_lp_Energy>
25.7942

> <b_lp_Chiralities_Consistent>
1

> <s_lp_Variant>
AV-unprocessed.smi:2509-2

> <Gold.Version>
5.8.1

> <Gold.Id.Protein>
6NUR|6NUR_protein|mol2

> <Gold.PLP.Fitness>
44.3956

> <Gold.PLP.PLP>
-37.6308

> <Gold.PLP.part.hbond>
-3.9271

> <Gold.PLP.part.metal>
0.0000

> <Gold.PLP.part.buried>
-5.8887

> <Gold.PLP.part.nonpolar>
-30.9068

> <Gold.PLP.part.repulsive>
3.6018

> <Gold.PLP.ligand.clash>
0.0000

> <Gold.PLP.ligand.torsion>
1.1885

> <Gold.PLP.Chemscore.Hbond>
2.0000

> <Gold.PLP.Chemscore.CHOScore>
1.0000

> <Gold.PLP.Chemscore.Metal>
0.0000

> <Gold.Chemscore.Hbonds>
donor molecule, donor type, donor heavy atom, donor atom, acceptor molecule, acceptor atom, score
      L1  H    19    44       P1  7957  1.00
      P1  H  7954  7966       L1    11  0.75
      L1  C    20    45       P1 10171  1.00

> <Gold.PLP.Chemscore.Internal.Correction>
0.1418

> <Gold.Rescore>
     Score         DG    S(hbond)    S(metal)    S(lipo)     H(rot)  DE(clash)    DE(int)     intcor
     15.29     -17.77       1.95        0.00      91.16       1.91       1.25       1.23       ----

> <Gold.Chemscore.Fitness>
15.2879

> <Gold.Chemscore.DG>
-17.7670

> <Gold.Chemscore.ZeroCoef>
-5.4800

> <Gold.Chemscore.Hbond>
1.9506

> <Gold.Chemscore.Metal>
0.0000

> <Gold.Chemscore.Lipo>
91.1596

> <Gold.Chemscore.Internal_Hbond>
0.0000

> <Gold.Chemscore.DEClash>
1.2527

> <Gold.Chemscore.DEInternal>
1.2264

> <Gold.Chemscore.Rot>
1.9116

> <Gold.Chemscore.Internal.Correction>
   9.000000E+99

> <Gold.Chemscore.Hbonds>
donor molecule, donor type, donor heavy atom, donor atom, acceptor molecule, acceptor atom, score
      L1  H    19    44       P1  7957  0.98
      P1  H  7954  7966       L1    11  0.72

> <Gold.Chemscore.Hbond.Weighted>
-6.5149

> <Gold.Chemscore.Metal.Weighted>
-0.0000

> <Gold.Chemscore.Lipo.Weighted>
-10.6657

> <Gold.Chemscore.Internal_Hbond.Weighted>
0.0000

> <Gold.Chemscore.DEClash.Weighted>
1.2527

> <Gold.Chemscore.DEInternal.Weighted>
1.2264

> <Gold.Chemscore.Rot.Weighted>
4.8936

> <Gold.Chemscore.Internal.Correction.Weighted>
   9.000000E+99

> <Gold.Protein.RotatedTorsions>
[ 6907 6896 6895 6894 ] final  -51.93 input  -60.11 | X-H torsion
[ 7974 7965 7964 7962 ] final  163.64 input  175.53 | X-H torsion
[ 8008 7997 7996 7995 ] final   65.27 input   59.86 | X-H torsion
[ 10167 10162 10161 10158 ] final  129.95 input  -65.29 | X-H torsion
[ 10718 10713 10712 10709 ] final   66.64 input   66.30 | X-H torsion
[ 10763 10752 10751 10750 ] final -163.41 input  -60.55 | X-H torsion
[ 11005 11000 10999 10996 ] final  -66.46 input  -57.11 | X-H torsion

> <Gold.Protein.ActiveResidues>
 VAL166  LYS551  ARG553  GLY616  TRP617  ASP618  TYR619  PRO620  LYS621  CYS622 
 ASP623  PHE694  ASN695  SER759  ASP760  ASP761  ALA762  ILE779  LEU786  VAL792 
 PHE793  MET794  SER795  GLU796  ALA797  LYS798  CYS799  TRP800  GLU811  SER814 

> <Gold.Protein.RotatedAtoms>
  150.8565  134.7905  159.7049 H   0  0  0  0  0  0  0  0  0  0  0  0  # atno 6907 bound_to 6896
  152.4615  134.5171  159.9781 H   0  0  0  0  0  0  0  0  0  0  0  0  # atno 6908 bound_to 6896
  151.5282  133.3416  159.2949 H   0  0  0  0  0  0  0  0  0  0  0  0  # atno 6909 bound_to 6896
  144.7581  139.8211  143.6342 H   0  0  0  0  0  0  0  0  0  0  0  0  # atno 7974 bound_to 7965
  155.6591  140.3497  155.4776 H   0  0  0  0  0  0  0  0  0  0  0  0  # atno 8008 bound_to 7997
  155.9784  140.1169  157.0772 H   0  0  0  0  0  0  0  0  0  0  0  0  # atno 8009 bound_to 7997
  154.4185  140.1143  156.5388 H   0  0  0  0  0  0  0  0  0  0  0  0  # atno 8010 bound_to 7997
  139.5453  144.6768  151.4493 H   0  0  0  0  0  0  0  0  0  0  0  0  # atno 10167 bound_to 10162
  157.6181  130.9278  150.0135 H   0  0  0  0  0  0  0  0  0  0  0  0  # atno 10718 bound_to 10713
  154.7125  135.3009  154.9175 H   0  0  0  0  0  0  0  0  0  0  0  0  # atno 10763 bound_to 10752
  154.0073  135.6699  153.4767 H   0  0  0  0  0  0  0  0  0  0  0  0  # atno 10764 bound_to 10752
  153.0766  135.5031  154.8331 H   0  0  0  0  0  0  0  0  0  0  0  0  # atno 10765 bound_to 10752
  141.1483  133.6700  156.6143 H   0  0  0  0  0  0  0  0  0  0  0  0  # atno 11005 bound_to 11000
  146.1614  139.4729  142.9986 LP  0  0  0  0  0  0  0  0  0  0  0  0  # atno 17320 bound_to 7965
  145.6712  141.0216  143.1657 LP  0  0  0  0  0  0  0  0  0  0  0  0  # atno 17321 bound_to 7965
  140.6699  143.8317  150.6986 LP  0  0  0  0  0  0  0  0  0  0  0  0  # atno 17342 bound_to 10162
  140.1738  143.4172  152.1982 LP  0  0  0  0  0  0  0  0  0  0  0  0  # atno 17343 bound_to 10162
  156.1313  130.3643  149.9727 LP  0  0  0  0  0  0  0  0  0  0  0  0  # atno 17370 bound_to 10713
  156.7787  130.9213  151.3645 LP  0  0  0  0  0  0  0  0  0  0  0  0  # atno 17371 bound_to 10713
  140.3590  134.7704  157.4520 LP  0  0  0  0  0  0  0  0  0  0  0  0  # atno 17394 bound_to 11000
  140.0800  134.5744  155.8550 LP  0  0  0  0  0  0  0  0  0  0  0  0  # atno 17395 bound_to 11000

$$$$
