AV-unprocessed.smi:2565|AV-procd|sdf|10071|dock9
  -GOLD-   2272014103D 1   1.00000     0.00000
 Structure written by MMmdl.
 24 25  0  0  0  0  0  0  0  0  1 V2000
  150.6744  142.8493  158.0155 C   0  0  0  0  0  0  0  0  0  0  0  0
  151.2416  141.6080  157.5278 N   0  0  0  0  0  0  0  0  0  0  0  0
  152.1739  140.8320  158.1004 C   0  0  0  0  0  0  0  0  0  0  0  0
  152.5086  139.7463  157.4049 N   0  0  0  0  0  0  0  0  0  0  0  0
  151.7270  139.8083  156.2682 N   0  0  0  0  0  0  0  0  0  0  0  0
  150.9907  140.9209  156.3942 C   0  0  0  0  0  0  0  0  0  0  0  0
  150.0031  141.3961  155.3690 C   0  0  1  0  0  0  0  0  0  0  0  0
  149.8980  140.4344  154.1694 C   0  0  0  0  0  0  0  0  0  0  0  0
  148.8678  140.8949  153.2398 N   0  0  0  0  0  0  0  0  0  0  0  0
  147.5837  141.0695  153.9173 C   0  0  0  0  0  0  0  0  0  0  0  0
  147.7397  142.0023  155.1320 C   0  0  0  0  0  0  0  0  0  0  0  0
  148.7326  141.4826  156.0102 O   0  0  0  0  0  0  0  0  0  0  0  0
  151.1993  143.1739  158.9145 H   0  0  0  0  0  0  0  0  0  0  0  0
  149.6205  142.7040  158.2533 H   0  0  0  0  0  0  0  0  0  0  0  0
  150.7679  143.6233  157.2533 H   0  0  0  0  0  0  0  0  0  0  0  0
  152.6247  141.0691  159.0530 H   0  0  0  0  0  0  0  0  0  0  0  0
  150.2938  142.3919  155.0304 H   0  0  0  0  0  0  0  0  0  0  0  0
  150.8583  140.3648  153.6580 H   0  0  0  0  0  0  0  0  0  0  0  0
  149.6558  139.4307  154.5212 H   0  0  0  0  0  0  0  0  0  0  0  0
  148.7653  140.2230  152.4860 H   0  0  0  0  0  0  0  0  0  0  0  0
  146.8473  141.4770  153.2245 H   0  0  0  0  0  0  0  0  0  0  0  0
  147.2030  140.1017  154.2458 H   0  0  0  0  0  0  0  0  0  0  0  0
  148.0050  143.0129  154.8172 H   0  0  0  0  0  0  0  0  0  0  0  0
  146.7952  142.0757  155.6712 H   0  0  0  0  0  0  0  0  0  0  0  0
  1  2  1  0  0  0  0
  1 13  1  0  0  0  0
  1 14  1  0  0  0  0
  1 15  1  0  0  0  0
  2  6  1  0  0  0  0
  2  3  1  0  0  0  0
  3  4  2  0  0  0  0
  3 16  1  0  0  0  0
  4  5  1  0  0  0  0
  5  6  2  0  0  0  0
  6  7  1  0  0  0  0
  7 12  1  0  0  0  0
  7  8  1  0  0  0  0
  7 17  1  0  0  0  0
  8  9  1  0  0  0  0
  8 18  1  0  0  0  0
  8 19  1  0  0  0  0
  9 10  1  0  0  0  0
  9 20  1  0  0  0  0
 10 11  1  0  0  0  0
 10 21  1  0  0  0  0
 10 22  1  0  0  0  0
 11 12  1  0  0  0  0
 11 23  1  0  0  0  0
 11 24  1  0  0  0  0
M  END
> <s_m_source_file>
AV-unprocessed.smi

> <i_m_source_file_index>
2565

> <i_lp_mmshare_version>
43012

> <i_f3d_flags>
0

> <s_epik_input>
W0NIM11uMVtjSF1ubmMxW0NAQEhdMltDSDJdW05IXVtDSDJdW0NIMl1PMg==

> <s_epik_cmdline>
J2VwaWtfcHl0aG9uJywgJy1waCcsICc3LjAnLCAnLXRuJywgJzgnLCAnLW1hJywgJzIwMCcsICctbWV0YWxfYmluZGluZycsICctaW1hZScsICc8aW5maWxlLm1hZT4nLCAnLW9tYWUnLCAnPG91dGZpbGUubWFlPic=

> <r_lp_tautomer_probability>
1

> <r_epik_Ionization_Penalty>
0.980774

> <r_epik_Ionization_Penalty_Charging>
0

> <r_epik_Ionization_Penalty_Neutral>
0.980774

> <r_epik_State_Penalty>
1.0271

> <r_epik_Charging_Adjusted_Penalty>
1.0271

> <i_epik_Tot_Q>
0

> <i_epik_Tot_abs_Q>
0

> <r_epik_Metal_State_Penalty>
1.02688

> <b_epik_Metal_Only>
0

> <s_lp_Force_Field>
OPLS_2005

> <r_lp_Energy>
14.243

> <b_lp_Chiralities_Consistent>
1

> <s_lp_Variant>
AV-unprocessed.smi:2565-4

> <Gold.Version>
5.8.1

> <Gold.Id.Protein>
6NUR|6NUR_protein|mol2

> <Gold.PLP.Fitness>
26.4932

> <Gold.PLP.PLP>
-18.4805

> <Gold.PLP.part.hbond>
-2.7359

> <Gold.PLP.part.metal>
0.0000

> <Gold.PLP.part.buried>
2.6873

> <Gold.PLP.part.nonpolar>
-18.3156

> <Gold.PLP.part.repulsive>
0.1023

> <Gold.PLP.ligand.clash>
0.0000

> <Gold.PLP.ligand.torsion>
0.0032

> <Gold.PLP.Chemscore.Hbond>
2.6720

> <Gold.PLP.Chemscore.CHOScore>
0.0000

> <Gold.PLP.Chemscore.Metal>
0.0000

> <Gold.Chemscore.Hbonds>
donor molecule, donor type, donor heavy atom, donor atom, acceptor molecule, acceptor atom, score
      L1  H     9    20       P1  7957  0.61
      P1  H  7997  8009       L1     4  0.98
      P1  H  8011  8017       L1     9  1.00

> <Gold.PLP.Chemscore.Internal.Correction>
0.0030

> <Gold.Rescore>
     Score         DG    S(hbond)    S(metal)    S(lipo)     H(rot)  DE(clash)    DE(int)     intcor
     11.24     -12.90       1.75        0.00      35.33       1.00       1.65       0.01       ----

> <Gold.Chemscore.Fitness>
11.2378

> <Gold.Chemscore.DG>
-12.8963

> <Gold.Chemscore.ZeroCoef>
-5.4800

> <Gold.Chemscore.Hbond>
1.7494

> <Gold.Chemscore.Metal>
0.0000

> <Gold.Chemscore.Lipo>
35.3279

> <Gold.Chemscore.Internal_Hbond>
0.0000

> <Gold.Chemscore.DEClash>
1.6497

> <Gold.Chemscore.DEInternal>
0.0088

> <Gold.Chemscore.Rot>
1.0000

> <Gold.Chemscore.Internal.Correction>
   9.000000E+99

> <Gold.Chemscore.Hbonds>
donor molecule, donor type, donor heavy atom, donor atom, acceptor molecule, acceptor atom, score
      L1  H     9    20       P1  7957  0.58
      P1  H  7997  8009       L1     4  0.19
      P1  H  8011  8017       L1     9  0.11

> <Gold.Chemscore.Hbond.Weighted>
-5.8429

> <Gold.Chemscore.Metal.Weighted>
-0.0000

> <Gold.Chemscore.Lipo.Weighted>
-4.1334

> <Gold.Chemscore.Internal_Hbond.Weighted>
0.0000

> <Gold.Chemscore.DEClash.Weighted>
1.6497

> <Gold.Chemscore.DEInternal.Weighted>
0.0088

> <Gold.Chemscore.Rot.Weighted>
2.5600

> <Gold.Chemscore.Internal.Correction.Weighted>
   9.000000E+99

> <Gold.Protein.RotatedTorsions>
[ 6907 6896 6895 6894 ] final    9.62 input  -60.11 | X-H torsion
[ 7974 7965 7964 7962 ] final -153.70 input  175.53 | X-H torsion
[ 8008 7997 7996 7995 ] final -179.94 input   59.86 | X-H torsion
[ 10167 10162 10161 10158 ] final  146.68 input  -65.29 | X-H torsion
[ 10718 10713 10712 10709 ] final  106.99 input   66.30 | X-H torsion
[ 10763 10752 10751 10750 ] final  163.45 input  -60.55 | X-H torsion
[ 11005 11000 10999 10996 ] final  178.53 input  -57.11 | X-H torsion

> <Gold.Protein.ActiveResidues>
 VAL166  LYS551  ARG553  GLY616  TRP617  ASP618  TYR619  PRO620  LYS621  CYS622 
 ASP623  PHE694  ASN695  SER759  ASP760  ASP761  ALA762  ILE779  LEU786  VAL792 
 PHE793  MET794  SER795  GLU796  ALA797  LYS798  CYS799  TRP800  GLU811  SER814 

> <Gold.Protein.RotatedAtoms>
  151.7251  135.0886  160.0290 H   0  0  0  0  0  0  0  0  0  0  0  0  # atno 6907 bound_to 6896
  152.3577  133.6253  159.6000 H   0  0  0  0  0  0  0  0  0  0  0  0  # atno 6908 bound_to 6896
  150.7582  133.9390  159.3492 H   0  0  0  0  0  0  0  0  0  0  0  0  # atno 6909 bound_to 6896
  144.7727  140.4489  143.5896 H   0  0  0  0  0  0  0  0  0  0  0  0  # atno 7974 bound_to 7965
  156.0363  140.1293  157.0204 H   0  0  0  0  0  0  0  0  0  0  0  0  # atno 8008 bound_to 7997
  154.4371  140.1039  156.6243 H   0  0  0  0  0  0  0  0  0  0  0  0  # atno 8009 bound_to 7997
  155.5732  140.3467  155.4523 H   0  0  0  0  0  0  0  0  0  0  0  0  # atno 8010 bound_to 7997
  139.4903  144.5811  151.6869 H   0  0  0  0  0  0  0  0  0  0  0  0  # atno 10167 bound_to 10162
  157.6646  131.0863  150.6089 H   0  0  0  0  0  0  0  0  0  0  0  0  # atno 10718 bound_to 10713
  154.2939  135.2760  155.2642 H   0  0  0  0  0  0  0  0  0  0  0  0  # atno 10763 bound_to 10752
  154.5108  135.5783  153.6607 H   0  0  0  0  0  0  0  0  0  0  0  0  # atno 10764 bound_to 10752
  152.9910  135.6181  154.3106 H   0  0  0  0  0  0  0  0  0  0  0  0  # atno 10765 bound_to 10752
  140.3961  134.6819  157.4535 H   0  0  0  0  0  0  0  0  0  0  0  0  # atno 11005 bound_to 11000
  145.6277  139.1532  143.2987 LP  0  0  0  0  0  0  0  0  0  0  0  0  # atno 17320 bound_to 7965
  146.1885  140.6383  142.9156 LP  0  0  0  0  0  0  0  0  0  0  0  0  # atno 17321 bound_to 7965
  140.5418  144.0567  150.6091 LP  0  0  0  0  0  0  0  0  0  0  0  0  # atno 17342 bound_to 10162
  140.3592  143.2918  152.0402 LP  0  0  0  0  0  0  0  0  0  0  0  0  # atno 17343 bound_to 10162
  156.6390  130.4453  149.5759 LP  0  0  0  0  0  0  0  0  0  0  0  0  # atno 17370 bound_to 10713
  156.2223  130.6745  151.1381 LP  0  0  0  0  0  0  0  0  0  0  0  0  # atno 17371 bound_to 10713
  140.0370  134.6322  155.9030 LP  0  0  0  0  0  0  0  0  0  0  0  0  # atno 17394 bound_to 11000
  141.1873  133.6559  156.5278 LP  0  0  0  0  0  0  0  0  0  0  0  0  # atno 17395 bound_to 11000

$$$$
