AV-unprocessed.smi:1190|AV-procd|sdf|4982|dock9
  -GOLD-   22720 3583D 1   1.00000     0.00000
 Structure written by MMmdl.
 44 45  0  0  0  0  0  0  0  0  2 V2000
  151.7732  141.4177  157.3973 C   0  0  0  0  0  0  0  0  0  0  0  0
  152.4921  140.2076  157.1867 O   0  0  0  0  0  0  0  0  0  0  0  0
  151.8705  139.1886  156.4945 C   0  0  0  0  0  0  0  0  0  0  0  0
  150.9111  139.5235  155.5189 C   0  0  0  0  0  0  0  0  0  0  0  0
  150.2759  138.4874  154.8094 C   0  0  0  0  0  0  0  0  0  0  0  0
  150.6210  137.1493  155.0868 C   0  0  0  0  0  0  0  0  0  0  0  0
  149.9493  136.1270  154.3626 N   0  0  0  0  0  0  0  0  0  0  0  0
  149.8610  134.8161  154.6457 C   0  0  0  0  0  0  0  0  0  0  0  0
  150.3822  134.2570  155.6094 O   0  0  0  0  0  0  0  0  0  0  0  0
  149.1377  134.1700  153.7203 N   0  0  0  0  0  0  0  0  0  0  0  0
  148.8350  132.7391  153.7262 C   0  0  0  0  0  0  0  0  0  0  0  0
  147.5712  132.3694  152.9034 C   0  0  2  0  0  0  0  0  0  0  0  0
  146.3107  132.9351  153.5938 C   0  0  0  0  0  0  0  0  0  0  0  0
  147.4681  130.8988  152.6302 N   0  3  0  0  0  0  0  0  0  0  0  0
  147.7107  130.0374  153.8204 C   0  0  0  0  0  0  0  0  0  0  0  0
  147.6084  128.5458  153.4588 C   0  0  0  0  0  0  0  0  0  0  0  0
  146.3369  128.2743  152.8891 O   0  0  0  0  0  0  0  0  0  0  0  0
  146.1404  129.0047  151.6880 C   0  0  0  0  0  0  0  0  0  0  0  0
  146.1818  130.5120  151.9881 C   0  0  0  0  0  0  0  0  0  0  0  0
  151.5881  136.9152  156.0950 C   0  0  0  0  0  0  0  0  0  0  0  0
  152.2004  137.9047  156.7795 N   0  0  0  0  0  0  0  0  0  0  0  0
  152.3965  142.1147  157.9571 H   0  0  0  0  0  0  0  0  0  0  0  0
  150.8655  141.2468  157.9777 H   0  0  0  0  0  0  0  0  0  0  0  0
  151.5097  141.8952  156.4524 H   0  0  0  0  0  0  0  0  0  0  0  0
  150.6668  140.5564  155.3193 H   0  0  0  0  0  0  0  0  0  0  0  0
  149.5355  138.7215  154.0584 H   0  0  0  0  0  0  0  0  0  0  0  0
  149.5215  136.4243  153.4982 H   0  0  0  0  0  0  0  0  0  0  0  0
  148.7420  134.7140  152.9674 H   0  0  0  0  0  0  0  0  0  0  0  0
  149.6974  132.1635  153.3852 H   0  0  0  0  0  0  0  0  0  0  0  0
  148.7013  132.4404  154.7655 H   0  0  0  0  0  0  0  0  0  0  0  0
  147.6528  132.8771  151.9409 H   0  0  0  0  0  0  0  0  0  0  0  0
  146.4630  133.9691  153.9047 H   0  0  0  0  0  0  0  0  0  0  0  0
  146.0455  132.3605  154.4815 H   0  0  0  0  0  0  0  0  0  0  0  0
  145.4490  132.9441  152.9268 H   0  0  0  0  0  0  0  0  0  0  0  0
  148.7057  130.2076  154.2292 H   0  0  0  0  0  0  0  0  0  0  0  0
  146.9913  130.2835  154.6029 H   0  0  0  0  0  0  0  0  0  0  0  0
  148.4012  128.2576  152.7666 H   0  0  0  0  0  0  0  0  0  0  0  0
  147.7307  127.9342  154.3531 H   0  0  0  0  0  0  0  0  0  0  0  0
  146.8967  128.7316  150.9501 H   0  0  0  0  0  0  0  0  0  0  0  0
  145.1726  128.7332  151.2661 H   0  0  0  0  0  0  0  0  0  0  0  0
  145.3517  130.7832  152.6422 H   0  0  0  0  0  0  0  0  0  0  0  0
  146.0370  131.0459  151.0502 H   0  0  0  0  0  0  0  0  0  0  0  0
  151.8802  135.9202  156.3910 H   0  0  0  0  0  0  0  0  0  0  0  0
  148.2003  130.6808  151.9694 H   0  0  0  0  0  0  0  0  0  0  0  0
  1  2  1  0  0  0  0
  1 22  1  0  0  0  0
  1 23  1  0  0  0  0
  1 24  1  0  0  0  0
  2  3  1  0  0  0  0
  3 21  1  0  0  0  0
  3  4  2  0  0  0  0
  4  5  1  0  0  0  0
  4 25  1  0  0  0  0
  5  6  2  0  0  0  0
  5 26  1  0  0  0  0
  6  7  1  0  0  0  0
  6 20  1  0  0  0  0
  7  8  1  0  0  0  0
  7 27  1  0  0  0  0
  8  9  2  0  0  0  0
  8 10  1  0  0  0  0
 10 11  1  0  0  0  0
 10 28  1  0  0  0  0
 11 12  1  0  0  0  0
 11 29  1  0  0  0  0
 11 30  1  0  0  0  0
 12 13  1  0  0  0  0
 12 14  1  0  0  0  0
 12 31  1  0  0  0  0
 13 32  1  0  0  0  0
 13 33  1  0  0  0  0
 13 34  1  0  0  0  0
 14 19  1  0  0  0  0
 14 15  1  0  0  0  0
 14 44  1  0  0  0  0
 15 16  1  0  0  0  0
 15 35  1  0  0  0  0
 15 36  1  0  0  0  0
 16 17  1  0  0  0  0
 16 37  1  0  0  0  0
 16 38  1  0  0  0  0
 17 18  1  0  0  0  0
 18 19  1  0  0  0  0
 18 39  1  0  0  0  0
 18 40  1  0  0  0  0
 19 41  1  0  0  0  0
 19 42  1  0  0  0  0
 20 21  2  0  0  0  0
 20 43  1  0  0  0  0
M  CHG  1  14   1
M  END
> <s_m_source_file>
AV-unprocessed.smi

> <i_m_source_file_index>
1190

> <i_lp_mmshare_version>
43012

> <i_f3d_flags>
0

> <s_epik_input>
W0NIM11PYzFbY0hdW2NIXWMoW2NIXW4xKVtOSF1DKD1PKVtOSF1bQ0gyXVtDQEhdKFtDSDNdKU4yW0NIMl1bQ0gyXU9bQ0gyXVtDSDJdMg==

> <s_epik_cmdline>
J2VwaWtfcHl0aG9uJywgJy1waCcsICc3LjAnLCAnLXRuJywgJzgnLCAnLW1hJywgJzIwMCcsICctbWV0YWxfYmluZGluZycsICctaW1hZScsICc8aW5maWxlLm1hZT4nLCAnLW9tYWUnLCAnPG91dGZpbGUubWFlPic=

> <r_lp_tautomer_probability>
1

> <r_epik_Ionization_Penalty>
0.602608

> <r_epik_Ionization_Penalty_Charging>
0.602531

> <r_epik_Ionization_Penalty_Neutral>
7.70246e-05

> <r_epik_State_Penalty>
0.617039

> <r_epik_Charging_Adjusted_Penalty>
1.21957

> <i_epik_Tot_Q>
1

> <i_epik_Tot_abs_Q>
1

> <r_epik_Metal_State_Penalty>
0.617043

> <b_epik_Metal_Only>
0

> <s_lp_Force_Field>
OPLS_2005

> <r_lp_Energy>
31.3292

> <b_lp_Chiralities_Consistent>
1

> <s_lp_Variant>
AV-unprocessed.smi:1190-3

> <Gold.Version>
5.8.1

> <Gold.Id.Protein>
6NUR|6NUR_protein|mol2

> <Gold.PLP.Fitness>
41.4876

> <Gold.PLP.PLP>
-31.5594

> <Gold.PLP.part.hbond>
-4.5082

> <Gold.PLP.part.metal>
0.0000

> <Gold.PLP.part.buried>
-3.7244

> <Gold.PLP.part.nonpolar>
-22.9595

> <Gold.PLP.part.repulsive>
0.1927

> <Gold.PLP.ligand.clash>
0.0000

> <Gold.PLP.ligand.torsion>
0.8374

> <Gold.PLP.Chemscore.Hbond>
3.8384

> <Gold.PLP.Chemscore.CHOScore>
0.0000

> <Gold.PLP.Chemscore.Metal>
0.0000

> <Gold.Chemscore.Hbonds>
donor molecule, donor type, donor heavy atom, donor atom, acceptor molecule, acceptor atom, score
      L1  H     7    27       P1  7948  1.00
      L1  H    10    28       P1  7948  0.82
      L1  H    14    44       P1 10747  1.00
      P1  H  7997  8009       L1     2  0.91

> <Gold.PLP.Chemscore.Internal.Correction>
0.0879

> <Gold.Rescore>
     Score         DG    S(hbond)    S(metal)    S(lipo)     H(rot)  DE(clash)    DE(int)     intcor
     17.20     -19.31       3.04        0.00      70.41       1.79       0.15       1.96       ----

> <Gold.Chemscore.Fitness>
17.2037

> <Gold.Chemscore.DG>
-19.3063

> <Gold.Chemscore.ZeroCoef>
-5.4800

> <Gold.Chemscore.Hbond>
3.0436

> <Gold.Chemscore.Metal>
0.0000

> <Gold.Chemscore.Lipo>
70.4126

> <Gold.Chemscore.Internal_Hbond>
0.0000

> <Gold.Chemscore.DEClash>
0.1450

> <Gold.Chemscore.DEInternal>
1.9575

> <Gold.Chemscore.Rot>
1.7881

> <Gold.Chemscore.Internal.Correction>
   9.000000E+99

> <Gold.Chemscore.Hbonds>
donor molecule, donor type, donor heavy atom, donor atom, acceptor molecule, acceptor atom, score
      L1  H     7    27       P1  7948  0.64
      L1  H    10    28       P1  7948  0.16
      L1  H    14    44       P1 10747  0.95
      P1  H  7997  8009       L1     2  0.56

> <Gold.Chemscore.Hbond.Weighted>
-10.1655

> <Gold.Chemscore.Metal.Weighted>
-0.0000

> <Gold.Chemscore.Lipo.Weighted>
-8.2383

> <Gold.Chemscore.Internal_Hbond.Weighted>
0.0000

> <Gold.Chemscore.DEClash.Weighted>
0.1450

> <Gold.Chemscore.DEInternal.Weighted>
1.9575

> <Gold.Chemscore.Rot.Weighted>
4.5775

> <Gold.Chemscore.Internal.Correction.Weighted>
   9.000000E+99

> <Gold.Protein.RotatedTorsions>
[ 6907 6896 6895 6894 ] final   26.58 input  -60.11 | X-H torsion
[ 7974 7965 7964 7962 ] final -102.57 input  175.53 | X-H torsion
[ 8008 7997 7996 7995 ] final  166.44 input   59.86 | X-H torsion
[ 10167 10162 10161 10158 ] final  152.79 input  -65.29 | X-H torsion
[ 10718 10713 10712 10709 ] final  -84.20 input   66.30 | X-H torsion
[ 10763 10752 10751 10750 ] final  -20.27 input  -60.55 | X-H torsion
[ 11005 11000 10999 10996 ] final   21.75 input  -57.11 | X-H torsion

> <Gold.Protein.ActiveResidues>
 VAL166  LYS551  ARG553  GLY616  TRP617  ASP618  TYR619  PRO620  LYS621  CYS622 
 ASP623  PHE694  ASN695  SER759  ASP760  ASP761  ALA762  ILE779  LEU786  VAL792 
 PHE793  MET794  SER795  GLU796  ALA797  LYS798  CYS799  TRP800  GLU811  SER814 

> <Gold.Protein.RotatedAtoms>
  151.9896  134.9986  160.0560 H   0  0  0  0  0  0  0  0  0  0  0  0  # atno 6907 bound_to 6896
  152.1620  133.4583  159.4874 H   0  0  0  0  0  0  0  0  0  0  0  0  # atno 6908 bound_to 6896
  150.6889  134.1977  159.4353 H   0  0  0  0  0  0  0  0  0  0  0  0  # atno 6909 bound_to 6896
  145.2670  140.9287  143.3008 H   0  0  0  0  0  0  0  0  0  0  0  0  # atno 7974 bound_to 7965
  156.1718  140.1643  156.8433 H   0  0  0  0  0  0  0  0  0  0  0  0  # atno 8008 bound_to 7997
  154.5265  140.0766  156.8302 H   0  0  0  0  0  0  0  0  0  0  0  0  # atno 8009 bound_to 7997
  155.3496  140.3389  155.4241 H   0  0  0  0  0  0  0  0  0  0  0  0  # atno 8010 bound_to 7997
  139.4831  144.5328  151.7694 H   0  0  0  0  0  0  0  0  0  0  0  0  # atno 10167 bound_to 10162
  156.0009  130.4690  150.4373 H   0  0  0  0  0  0  0  0  0  0  0  0  # atno 10718 bound_to 10713
  153.6177  135.6994  153.5322 H   0  0  0  0  0  0  0  0  0  0  0  0  # atno 10763 bound_to 10752
  153.2963  135.4142  155.1212 H   0  0  0  0  0  0  0  0  0  0  0  0  # atno 10764 bound_to 10752
  154.8550  135.3638  154.5717 H   0  0  0  0  0  0  0  0  0  0  0  0  # atno 10765 bound_to 10752
  140.3881  134.1848  155.7663 H   0  0  0  0  0  0  0  0  0  0  0  0  # atno 11005 bound_to 11000
  144.9368  139.4235  143.6468 LP  0  0  0  0  0  0  0  0  0  0  0  0  # atno 17320 bound_to 7965
  146.3258  139.8307  142.8909 LP  0  0  0  0  0  0  0  0  0  0  0  0  # atno 17321 bound_to 7965
  140.4857  144.1385  150.5940 LP  0  0  0  0  0  0  0  0  0  0  0  0  # atno 17342 bound_to 10162
  140.4228  143.2603  151.9694 LP  0  0  0  0  0  0  0  0  0  0  0  0  # atno 17343 bound_to 10162
  157.2417  131.0527  151.2432 LP  0  0  0  0  0  0  0  0  0  0  0  0  # atno 17370 bound_to 10713
  157.3613  130.7133  149.6504 LP  0  0  0  0  0  0  0  0  0  0  0  0  # atno 17371 bound_to 10713
  141.1900  133.8226  157.0934 LP  0  0  0  0  0  0  0  0  0  0  0  0  # atno 17394 bound_to 11000
  140.0427  134.9846  157.0992 LP  0  0  0  0  0  0  0  0  0  0  0  0  # atno 17395 bound_to 11000

$$$$
