AV-unprocessed.smi:35|AV-procd|sdf|266|dock4
  -GOLD-   2262016 33D 1   1.00000     0.00000
 Structure written by MMmdl.
 28 29  0  0  0  0  0  0  0  0  2 V2000
  151.7430  137.1929  159.7037 O   0  0  0  0  0  0  0  0  0  0  0  0
  151.4616  137.7635  158.6515 C   0  0  0  0  0  0  0  0  0  0  0  0
  152.4010  138.3373  157.8452 N   0  5  0  0  0  0  0  0  0  0  0  0
  152.0827  138.9692  156.6773 C   0  0  0  0  0  0  0  0  0  0  0  0
  152.9200  139.5058  155.9514 O   0  0  0  0  0  0  0  0  0  0  0  0
  150.7202  139.0284  156.2754 N   0  0  0  0  0  0  0  0  0  0  0  0
  150.3692  139.7297  154.9767 C   0  0  1  0  0  0  0  0  0  0  0  0
  149.2560  139.1074  154.3981 O   0  0  0  0  0  0  0  0  0  0  0  0
  148.1378  139.9840  154.4512 C   0  0  2  0  0  0  0  0  0  0  0  0
  147.0811  139.5863  153.4051 C   0  0  0  0  0  0  0  0  0  0  0  0
  147.6630  139.0350  152.2415 O   0  0  0  0  0  0  0  0  0  0  0  0
  148.7604  141.3742  154.3241 C   0  0  1  0  0  0  0  0  0  0  0  0
  147.8991  142.4102  154.7597 O   0  0  0  0  0  0  0  0  0  0  0  0
  150.0234  141.2295  155.1694 C   0  0  1  0  0  0  0  0  0  0  0  0
  149.8036  141.5927  156.5248 O   0  0  0  0  0  0  0  0  0  0  0  0
  149.7436  138.4598  157.0768 C   0  0  0  0  0  0  0  0  0  0  0  0
  150.0652  137.8410  158.2307 C   0  0  0  0  0  0  0  0  0  0  0  0
  148.5672  137.0746  159.2773 Br  0  0  0  0  0  0  0  0  0  0  0  0
  151.2179  139.5636  154.3110 H   0  0  0  0  0  0  0  0  0  0  0  0
  147.6969  139.8805  155.4444 H   0  0  0  0  0  0  0  0  0  0  0  0
  146.3702  138.8773  153.8300 H   0  0  0  0  0  0  0  0  0  0  0  0
  146.5128  140.4677  153.1069 H   0  0  0  0  0  0  0  0  0  0  0  0
  148.2337  139.6819  151.8557 H   0  0  0  0  0  0  0  0  0  0  0  0
  149.0541  141.5685  153.2922 H   0  0  0  0  0  0  0  0  0  0  0  0
  148.4002  143.2094  154.8145 H   0  0  0  0  0  0  0  0  0  0  0  0
  150.8372  141.8421  154.7802 H   0  0  0  0  0  0  0  0  0  0  0  0
  148.8705  141.6319  156.6727 H   0  0  0  0  0  0  0  0  0  0  0  0
  148.7048  138.5061  156.7886 H   0  0  0  0  0  0  0  0  0  0  0  0
  1  2  2  0  0  0  0
  2 17  1  0  0  0  0
  2  3  1  0  0  0  0
  3  4  1  0  0  0  0
  4  5  2  0  0  0  0
  4  6  1  0  0  0  0
  6  7  1  0  0  0  0
  6 16  1  0  0  0  0
  7 14  1  0  0  0  0
  7  8  1  0  0  0  0
  7 19  1  0  0  0  0
  8  9  1  0  0  0  0
  9 10  1  0  0  0  0
  9 12  1  0  0  0  0
  9 20  1  0  0  0  0
 10 11  1  0  0  0  0
 10 21  1  0  0  0  0
 10 22  1  0  0  0  0
 11 23  1  0  0  0  0
 12 13  1  0  0  0  0
 12 14  1  0  0  0  0
 12 24  1  0  0  0  0
 13 25  1  0  0  0  0
 14 15  1  0  0  0  0
 14 26  1  0  0  0  0
 15 27  1  0  0  0  0
 16 17  2  0  0  0  0
 16 28  1  0  0  0  0
 17 18  1  0  0  0  0
M  CHG  1   3  -1
M  END
> <s_m_source_file>
AV-unprocessed.smi

> <i_m_source_file_index>
35

> <i_lp_mmshare_version>
43012

> <i_f3d_flags>
0

> <s_epik_input>
Tz1jMVtuSF1jKD1PKW4oW2NIXWMxQnIpW0NAQEhdMk9bQ0BASF0oW0NIMl1bT0hdKVtDQEBIXShbT0hdKVtDQEhdMltPSF0=

> <s_epik_cmdline>
J2VwaWtfcHl0aG9uJywgJy1waCcsICc3LjAnLCAnLXRuJywgJzgnLCAnLW1hJywgJzIwMCcsICctbWV0YWxfYmluZGluZycsICctaW1hZScsICc8aW5maWxlLm1hZT4nLCAnLW9tYWUnLCAnPG91dGZpbGUubWFlPic=

> <r_epik_Ionization_Penalty>
1.06112

> <r_epik_Ionization_Penalty_Charging>
2.1796e-09

> <r_epik_Ionization_Penalty_Neutral>
1.06112

> <r_epik_State_Penalty>
1.11484

> <r_epik_Charging_Adjusted_Penalty>
1.11484

> <i_epik_Tot_Q>
-1

> <i_epik_Tot_abs_Q>
1

> <r_epik_Metal_State_Penalty>
0.0032876

> <b_epik_Metal_Only>
0

> <s_epik_Chemistry_Notes>
This compound contains an acetal/aminal-like group ( X-CH(R)-Y where X, Y are N, S, or O) that may be acid/base labile, releasing an aldehyde.

> <s_lp_Force_Field>
OPLS_2005

> <r_lp_Energy>
48.0259

> <b_lp_Chiralities_Consistent>
1

> <s_lp_Variant>
AV-unprocessed.smi:35-20

> <Gold.Version>
5.8.1

> <Gold.Id.Protein>
6NUR|6NUR_protein|mol2

> <Gold.PLP.Fitness>
35.7875

> <Gold.PLP.PLP>
-25.8357

> <Gold.PLP.part.hbond>
-4.6359

> <Gold.PLP.part.metal>
0.0000

> <Gold.PLP.part.buried>
-4.8017

> <Gold.PLP.part.nonpolar>
-16.2969

> <Gold.PLP.part.repulsive>
0.1609

> <Gold.PLP.ligand.clash>
0.0000

> <Gold.PLP.ligand.torsion>
1.0500

> <Gold.PLP.Chemscore.Hbond>
4.0000

> <Gold.PLP.Chemscore.CHOScore>
0.0000

> <Gold.PLP.Chemscore.Metal>
0.0000

> <Gold.Chemscore.Hbonds>
donor molecule, donor type, donor heavy atom, donor atom, acceptor molecule, acceptor atom, score
      L1  H    11    23       P1  7957  0.99
      L1  H    13    25       P1  8028  1.00
      P1  H  6896  6909       L1     1  0.93
      P1  H  7997  8010       L1     5  1.00

> <Gold.PLP.Chemscore.Internal.Correction>
0.0519

> <Gold.Rescore>
     Score         DG    S(hbond)    S(metal)    S(lipo)     H(rot)  DE(clash)    DE(int)     intcor
     12.55     -13.57       3.97        0.00      35.26       3.63       0.00       1.02       ----

> <Gold.Chemscore.Fitness>
12.5536

> <Gold.Chemscore.DG>
-13.5700

> <Gold.Chemscore.ZeroCoef>
-5.4800

> <Gold.Chemscore.Hbond>
3.9664

> <Gold.Chemscore.Metal>
0.0000

> <Gold.Chemscore.Lipo>
35.2563

> <Gold.Chemscore.Internal_Hbond>
0.0000

> <Gold.Chemscore.DEClash>
0.0000

> <Gold.Chemscore.DEInternal>
1.0165

> <Gold.Chemscore.Rot>
3.6261

> <Gold.Chemscore.Internal.Correction>
   9.000000E+99

> <Gold.Chemscore.Hbonds>
donor molecule, donor type, donor heavy atom, donor atom, acceptor molecule, acceptor atom, score
      L1  H    11    23       P1  7957  0.90
      L1  H    13    25       P1  8028  0.96
      P1  H  6896  6909       L1     1  0.88
      P1  H  7997  8010       L1     5  0.99

> <Gold.Chemscore.Hbond.Weighted>
-13.2478

> <Gold.Chemscore.Metal.Weighted>
-0.0000

> <Gold.Chemscore.Lipo.Weighted>
-4.1250

> <Gold.Chemscore.Internal_Hbond.Weighted>
0.0000

> <Gold.Chemscore.DEClash.Weighted>
0.0000

> <Gold.Chemscore.DEInternal.Weighted>
1.0165

> <Gold.Chemscore.Rot.Weighted>
9.2828

> <Gold.Chemscore.Internal.Correction.Weighted>
   9.000000E+99

> <Gold.Protein.RotatedTorsions>
[ 6907 6896 6895 6894 ] final  129.09 input  -60.11 | X-H torsion
[ 7974 7965 7964 7962 ] final  -98.55 input  175.53 | X-H torsion
[ 8008 7997 7996 7995 ] final   93.51 input   59.86 | X-H torsion
[ 10167 10162 10161 10158 ] final   -9.60 input  -65.29 | X-H torsion
[ 10718 10713 10712 10709 ] final  -29.66 input   66.30 | X-H torsion
[ 10763 10752 10751 10750 ] final -128.73 input  -60.55 | X-H torsion
[ 11005 11000 10999 10996 ] final -145.73 input  -57.11 | X-H torsion

> <Gold.Protein.ActiveResidues>
 VAL166  LYS551  ARG553  GLY616  TRP617  ASP618  TYR619  PRO620  LYS621  CYS622 
 ASP623  PHE694  ASN695  SER759  ASP760  ASP761  ALA762  ILE779  LEU786  VAL792 
 PHE793  MET794  SER795  GLU796  ALA797  LYS798  CYS799  TRP800  GLU811  SER814 

> <Gold.Protein.RotatedAtoms>
  152.3658  133.6354  159.6048 H   0  0  0  0  0  0  0  0  0  0  0  0  # atno 6907 bound_to 6896
  150.7633  133.9351  159.3447 H   0  0  0  0  0  0  0  0  0  0  0  0  # atno 6908 bound_to 6896
  151.7182  135.0900  160.0330 H   0  0  0  0  0  0  0  0  0  0  0  0  # atno 6909 bound_to 6896
  145.3191  140.9417  143.2726 H   0  0  0  0  0  0  0  0  0  0  0  0  # atno 7974 bound_to 7965
  156.0476  140.3312  155.7314 H   0  0  0  0  0  0  0  0  0  0  0  0  # atno 8008 bound_to 7997
  155.5651  140.0622  157.2837 H   0  0  0  0  0  0  0  0  0  0  0  0  # atno 8009 bound_to 7997
  154.4421  140.1870  156.0810 H   0  0  0  0  0  0  0  0  0  0  0  0  # atno 8010 bound_to 7997
  140.7092  143.5840  150.8962 H   0  0  0  0  0  0  0  0  0  0  0  0  # atno 10167 bound_to 10162
  156.4096  130.4405  149.7262 H   0  0  0  0  0  0  0  0  0  0  0  0  # atno 10718 bound_to 10713
  154.8757  135.3919  154.3804 H   0  0  0  0  0  0  0  0  0  0  0  0  # atno 10763 bound_to 10752
  153.4552  135.7028  153.6089 H   0  0  0  0  0  0  0  0  0  0  0  0  # atno 10764 bound_to 10752
  153.4611  135.3811  155.2307 H   0  0  0  0  0  0  0  0  0  0  0  0  # atno 10765 bound_to 10752
  140.7893  134.2987  157.5019 H   0  0  0  0  0  0  0  0  0  0  0  0  # atno 11005 bound_to 11000
  144.8954  139.4719  143.6658 LP  0  0  0  0  0  0  0  0  0  0  0  0  # atno 17320 bound_to 7965
  146.3089  139.7676  142.9035 LP  0  0  0  0  0  0  0  0  0  0  0  0  # atno 17321 bound_to 7965
  139.9566  143.6211  152.3014 LP  0  0  0  0  0  0  0  0  0  0  0  0  # atno 17342 bound_to 10162
  139.6749  144.7659  151.1714 LP  0  0  0  0  0  0  0  0  0  0  0  0  # atno 17343 bound_to 10162
  156.4246  130.7785  151.2803 LP  0  0  0  0  0  0  0  0  0  0  0  0  # atno 17370 bound_to 10713
  157.7506  131.0172  150.3577 LP  0  0  0  0  0  0  0  0  0  0  0  0  # atno 17371 bound_to 10713
  139.8733  134.9365  156.3661 LP  0  0  0  0  0  0  0  0  0  0  0  0  # atno 17394 bound_to 11000
  140.9406  133.7517  156.0141 LP  0  0  0  0  0  0  0  0  0  0  0  0  # atno 17395 bound_to 11000

$$$$
