AV-unprocessed.smi:232|AV-procd|sdf|1774|dock2
  -GOLD-   2262020313D 1   1.00000     0.00000
 Structure written by MMmdl.
 52 55  0  0  0  0  0  0  0  0  1 V2000
  152.0879  145.2652  158.9028 C   0  0  0  0  0  0  0  0  0  0  0  0
  151.7624  143.9818  158.1283 C   0  0  0  0  0  0  0  0  0  0  0  0
  152.5735  142.7600  158.6132 C   0  0  1  0  0  0  0  0  0  0  0  0
  152.9585  142.8417  160.1034 C   0  0  0  0  0  0  0  0  0  0  0  0
  152.5680  141.4882  160.7081 C   0  0  0  0  0  0  0  0  0  0  0  0
  152.3170  140.5793  159.5039 C   0  0  2  0  0  0  0  0  0  0  0  0
  153.5934  139.8182  159.0890 C   0  0  0  0  0  0  0  0  0  0  0  0
  151.8401  141.5011  158.4784 N   0  0  0  0  0  0  0  0  0  0  0  0
  151.5586  140.9749  157.2563 C   0  0  0  0  0  0  0  0  0  0  0  0
  152.4967  140.2415  156.5991 N   0  0  0  0  0  0  0  0  0  0  0  0
  152.2243  139.7057  155.4061 C   0  0  0  0  0  0  0  0  0  0  0  0
  151.0951  139.7742  154.6994 N   0  0  0  0  0  0  0  0  0  0  0  0
  150.1493  140.5090  155.3514 C   0  0  0  0  0  0  0  0  0  0  0  0
  150.2949  141.1376  156.6207 C   0  0  0  0  0  0  0  0  0  0  0  0
  149.1198  141.8015  156.9547 N   0  0  0  0  0  0  0  0  0  0  0  0
  148.3253  141.5752  155.9446 C   0  0  0  0  0  0  0  0  0  0  0  0
  148.8645  140.8106  154.9362 N   0  0  0  0  0  0  0  0  0  0  0  0
  148.2099  140.4192  153.7004 C   0  0  0  0  0  0  0  0  0  0  0  0
  146.8859  139.6691  153.9485 C   0  0  1  0  0  0  0  0  0  0  0  0
  146.2762  139.3577  152.7094 O   0  0  0  0  0  0  0  0  0  0  0  0
  147.0960  138.3818  154.7715 C   0  0  2  0  0  0  0  0  0  0  0  0
  145.8317  137.5791  155.1306 C   0  0  0  0  0  0  0  0  0  0  0  0
  145.8424  137.5532  156.6481 C   0  0  0  0  0  0  0  0  0  0  0  0
  147.3169  137.7508  156.9743 C   0  0  0  0  0  0  0  0  0  0  0  0
  147.7348  138.6977  156.0047 O   0  0  0  0  0  0  0  0  0  0  0  0
  151.5051  146.1041  158.5222 H   0  0  0  0  0  0  0  0  0  0  0  0
  153.1427  145.5233  158.8064 H   0  0  0  0  0  0  0  0  0  0  0  0
  151.8632  145.1624  159.9643 H   0  0  0  0  0  0  0  0  0  0  0  0
  150.6956  143.7688  158.2037 H   0  0  0  0  0  0  0  0  0  0  0  0
  151.9543  144.1695  157.0723 H   0  0  0  0  0  0  0  0  0  0  0  0
  153.4902  142.6848  158.0262 H   0  0  0  0  0  0  0  0  0  0  0  0
  154.0296  143.0203  160.2042 H   0  0  0  0  0  0  0  0  0  0  0  0
  152.4430  143.6486  160.6258 H   0  0  0  0  0  0  0  0  0  0  0  0
  153.3194  141.0967  161.3945 H   0  0  0  0  0  0  0  0  0  0  0  0
  151.6407  141.6020  161.2711 H   0  0  0  0  0  0  0  0  0  0  0  0
  151.5408  139.8596  159.7621 H   0  0  0  0  0  0  0  0  0  0  0  0
  153.9451  139.1820  159.9015 H   0  0  0  0  0  0  0  0  0  0  0  0
  154.4045  140.4980  158.8268 H   0  0  0  0  0  0  0  0  0  0  0  0
  153.4112  139.1711  158.2305 H   0  0  0  0  0  0  0  0  0  0  0  0
  153.0252  139.1403  154.9535 H   0  0  0  0  0  0  0  0  0  0  0  0
  147.3194  141.9673  155.9040 H   0  0  0  0  0  0  0  0  0  0  0  0
  148.0398  141.3116  153.0969 H   0  0  0  0  0  0  0  0  0  0  0  0
  148.8991  139.7901  153.1360 H   0  0  0  0  0  0  0  0  0  0  0  0
  146.2127  140.3298  154.4965 H   0  0  0  0  0  0  0  0  0  0  0  0
  145.3716  139.6288  152.7466 H   0  0  0  0  0  0  0  0  0  0  0  0
  147.7822  137.7262  154.2327 H   0  0  0  0  0  0  0  0  0  0  0  0
  144.9087  138.0071  154.7385 H   0  0  0  0  0  0  0  0  0  0  0  0
  145.9140  136.5659  154.7357 H   0  0  0  0  0  0  0  0  0  0  0  0
  145.2632  138.3915  157.0375 H   0  0  0  0  0  0  0  0  0  0  0  0
  145.4318  136.6328  157.0636 H   0  0  0  0  0  0  0  0  0  0  0  0
  147.4806  138.1132  157.9894 H   0  0  0  0  0  0  0  0  0  0  0  0
  147.8736  136.8215  156.8432 H   0  0  0  0  0  0  0  0  0  0  0  0
  1  2  1  0  0  0  0
  1 26  1  0  0  0  0
  1 27  1  0  0  0  0
  1 28  1  0  0  0  0
  2  3  1  0  0  0  0
  2 29  1  0  0  0  0
  2 30  1  0  0  0  0
  3  8  1  0  0  0  0
  3  4  1  0  0  0  0
  3 31  1  0  0  0  0
  4  5  1  0  0  0  0
  4 32  1  0  0  0  0
  4 33  1  0  0  0  0
  5  6  1  0  0  0  0
  5 34  1  0  0  0  0
  5 35  1  0  0  0  0
  6  7  1  0  0  0  0
  6  8  1  0  0  0  0
  6 36  1  0  0  0  0
  7 37  1  0  0  0  0
  7 38  1  0  0  0  0
  7 39  1  0  0  0  0
  8  9  1  0  0  0  0
  9 14  1  0  0  0  0
  9 10  2  0  0  0  0
 10 11  1  0  0  0  0
 11 12  2  0  0  0  0
 11 40  1  0  0  0  0
 12 13  1  0  0  0  0
 13 17  1  0  0  0  0
 13 14  2  0  0  0  0
 14 15  1  0  0  0  0
 15 16  2  0  0  0  0
 16 17  1  0  0  0  0
 16 41  1  0  0  0  0
 17 18  1  0  0  0  0
 18 19  1  0  0  0  0
 18 42  1  0  0  0  0
 18 43  1  0  0  0  0
 19 20  1  0  0  0  0
 19 21  1  0  0  0  0
 19 44  1  0  0  0  0
 20 45  1  0  0  0  0
 21 25  1  0  0  0  0
 21 22  1  0  0  0  0
 21 46  1  0  0  0  0
 22 23  1  0  0  0  0
 22 47  1  0  0  0  0
 22 48  1  0  0  0  0
 23 24  1  0  0  0  0
 23 49  1  0  0  0  0
 23 50  1  0  0  0  0
 24 25  1  0  0  0  0
 24 51  1  0  0  0  0
 24 52  1  0  0  0  0
M  END
> <s_m_source_file>
AV-unprocessed.smi

> <i_m_source_file_index>
232

> <i_lp_mmshare_version>
43012

> <i_f3d_flags>
0

> <s_epik_input>
W0NIM11bQ0gyXVtDQEBIXTFbQ0gyXVtDSDJdW0NAQEhdKFtDSDNdKU4xYyhuW2NIXW4yKWMoYzIzKW5bY0hdbjNbQ0gyXVtDQEhdKFtPSF0pW0NAQEhdNFtDSDJdW0NIMl1bQ0gyXU80

> <s_epik_cmdline>
J2VwaWtfcHl0aG9uJywgJy1waCcsICc3LjAnLCAnLXRuJywgJzgnLCAnLW1hJywgJzIwMCcsICctbWV0YWxfYmluZGluZycsICctaW1hZScsICc8aW5maWxlLm1hZT4nLCAnLW9tYWUnLCAnPG91dGZpbGUubWFlPic=

> <r_lp_tautomer_probability>
1

> <r_epik_Ionization_Penalty>
0.00258048

> <r_epik_Ionization_Penalty_Charging>
0

> <r_epik_Ionization_Penalty_Neutral>
0.00258048

> <r_epik_State_Penalty>
0.00168551

> <r_epik_Charging_Adjusted_Penalty>
0.00168551

> <i_epik_Tot_Q>
0

> <i_epik_Tot_abs_Q>
0

> <r_epik_Metal_State_Penalty>
-0

> <b_epik_Metal_Only>
0

> <s_lp_Force_Field>
OPLS_2005

> <r_lp_Energy>
56.0552

> <b_lp_Chiralities_Consistent>
1

> <s_lp_Variant>
AV-unprocessed.smi:232-8

> <Gold.Version>
5.8.1

> <Gold.Id.Protein>
6NUR|6NUR_protein|mol2

> <Gold.PLP.Fitness>
46.9079

> <Gold.PLP.PLP>
-39.1898

> <Gold.PLP.part.hbond>
-3.0000

> <Gold.PLP.part.metal>
0.0000

> <Gold.PLP.part.buried>
-0.4406

> <Gold.PLP.part.nonpolar>
-35.3362

> <Gold.PLP.part.repulsive>
0.2044

> <Gold.PLP.ligand.clash>
0.0000

> <Gold.PLP.ligand.torsion>
0.7661

> <Gold.PLP.Chemscore.Hbond>
2.9500

> <Gold.PLP.Chemscore.CHOScore>
0.0000

> <Gold.PLP.Chemscore.Metal>
0.0000

> <Gold.Chemscore.Hbonds>
donor molecule, donor type, donor heavy atom, donor atom, acceptor molecule, acceptor atom, score
      L1  H    20    45       P1 10175  1.00
      P1  H  7989  7998       L1    12  0.90
      P1  H  7997  8010       L1    10  0.99

> <Gold.PLP.Chemscore.Internal.Correction>
0.4003

> <Gold.Rescore>
     Score         DG    S(hbond)    S(metal)    S(lipo)     H(rot)  DE(clash)    DE(int)     intcor
     11.58     -15.34       1.63        0.00      90.96       2.43       0.08       3.68       ----

> <Gold.Chemscore.Fitness>
11.5757

> <Gold.Chemscore.DG>
-15.3420

> <Gold.Chemscore.ZeroCoef>
-5.4800

> <Gold.Chemscore.Hbond>
1.6258

> <Gold.Chemscore.Metal>
0.0000

> <Gold.Chemscore.Lipo>
90.9614

> <Gold.Chemscore.Internal_Hbond>
0.0000

> <Gold.Chemscore.DEClash>
0.0827

> <Gold.Chemscore.DEInternal>
3.6835

> <Gold.Chemscore.Rot>
2.4260

> <Gold.Chemscore.Internal.Correction>
   9.000000E+99

> <Gold.Chemscore.Hbonds>
donor molecule, donor type, donor heavy atom, donor atom, acceptor molecule, acceptor atom, score
      L1  H    20    45       P1 10175  1.00
      P1  H  7989  7998       L1    12  0.06
      P1  H  7997  8010       L1    10  0.24

> <Gold.Chemscore.Hbond.Weighted>
-5.4302

> <Gold.Chemscore.Metal.Weighted>
-0.0000

> <Gold.Chemscore.Lipo.Weighted>
-10.6425

> <Gold.Chemscore.Internal_Hbond.Weighted>
0.0000

> <Gold.Chemscore.DEClash.Weighted>
0.0827

> <Gold.Chemscore.DEInternal.Weighted>
3.6835

> <Gold.Chemscore.Rot.Weighted>
6.2107

> <Gold.Chemscore.Internal.Correction.Weighted>
   9.000000E+99

> <Gold.Protein.RotatedTorsions>
[ 6907 6896 6895 6894 ] final   75.74 input  -60.11 | X-H torsion
[ 7974 7965 7964 7962 ] final  172.50 input  175.53 | X-H torsion
[ 8008 7997 7996 7995 ] final   62.43 input   59.86 | X-H torsion
[ 10167 10162 10161 10158 ] final   19.96 input  -65.29 | X-H torsion
[ 10718 10713 10712 10709 ] final   43.73 input   66.30 | X-H torsion
[ 10763 10752 10751 10750 ] final -133.51 input  -60.55 | X-H torsion
[ 11005 11000 10999 10996 ] final   62.24 input  -57.11 | X-H torsion

> <Gold.Protein.ActiveResidues>
 VAL166  LYS551  ARG553  GLY616  TRP617  ASP618  TYR619  PRO620  LYS621  CYS622 
 ASP623  PHE694  ASN695  SER759  ASP760  ASP761  ALA762  ILE779  LEU786  VAL792 
 PHE793  MET794  SER795  GLU796  ALA797  LYS798  CYS799  TRP800  GLU811  SER814 

> <Gold.Protein.RotatedAtoms>
  152.5040  134.4074  159.9436 H   0  0  0  0  0  0  0  0  0  0  0  0  # atno 6907 bound_to 6896
  151.4040  133.3742  159.2743 H   0  0  0  0  0  0  0  0  0  0  0  0  # atno 6908 bound_to 6896
  150.9340  134.8775  159.7629 H   0  0  0  0  0  0  0  0  0  0  0  0  # atno 6909 bound_to 6896
  144.7266  139.9507  143.6432 H   0  0  0  0  0  0  0  0  0  0  0  0  # atno 7974 bound_to 7965
  155.6142  140.3495  155.4632 H   0  0  0  0  0  0  0  0  0  0  0  0  # atno 8008 bound_to 7997
  156.0130  140.1237  157.0459 H   0  0  0  0  0  0  0  0  0  0  0  0  # atno 8009 bound_to 7997
  154.4287  140.1078  156.5842 H   0  0  0  0  0  0  0  0  0  0  0  0  # atno 8010 bound_to 7997
  140.5540  143.9458  150.6597 H   0  0  0  0  0  0  0  0  0  0  0  0  # atno 10167 bound_to 10162
  157.4191  130.7958  149.7499 H   0  0  0  0  0  0  0  0  0  0  0  0  # atno 10718 bound_to 10713
  154.8731  135.3764  154.4584 H   0  0  0  0  0  0  0  0  0  0  0  0  # atno 10763 bound_to 10752
  153.5254  135.7028  153.5715 H   0  0  0  0  0  0  0  0  0  0  0  0  # atno 10764 bound_to 10752
  153.3943  135.3964  155.1910 H   0  0  0  0  0  0  0  0  0  0  0  0  # atno 10765 bound_to 10752
  140.0105  134.6303  155.9787 H   0  0  0  0  0  0  0  0  0  0  0  0  # atno 11005 bound_to 11000
  146.0713  139.3702  143.0521 LP  0  0  0  0  0  0  0  0  0  0  0  0  # atno 17320 bound_to 7965
  145.7964  140.9791  143.1022 LP  0  0  0  0  0  0  0  0  0  0  0  0  # atno 17321 bound_to 7965
  140.2891  143.3336  152.1079 LP  0  0  0  0  0  0  0  0  0  0  0  0  # atno 17342 bound_to 10162
  139.5040  144.6766  151.6113 LP  0  0  0  0  0  0  0  0  0  0  0  0  # atno 17343 bound_to 10162
  155.9875  130.3966  150.3164 LP  0  0  0  0  0  0  0  0  0  0  0  0  # atno 17370 bound_to 10713
  157.1310  131.0271  151.2969 LP  0  0  0  0  0  0  0  0  0  0  0  0  # atno 17371 bound_to 10713
  141.1708  133.6537  156.4644 LP  0  0  0  0  0  0  0  0  0  0  0  0  # atno 17394 bound_to 11000
  140.4562  134.6883  157.5064 LP  0  0  0  0  0  0  0  0  0  0  0  0  # atno 17395 bound_to 11000

$$$$
