AV-unprocessed.smi:160|AV-procd|sdf|1356|dock10
  -GOLD-   2262019 63D 1   1.00000     0.00000
 Structure written by MMmdl.
 29 30  0  0  0  0  0  0  0  0  1 V2000
  149.7103  132.5364  154.7018 N   0  0  0  0  0  0  0  0  0  0  0  0
  148.7775  131.5899  154.5543 C   0  0  0  0  0  0  0  0  0  0  0  0
  148.7272  130.5972  155.2789 O   0  0  0  0  0  0  0  0  0  0  0  0
  147.7838  131.8031  153.4455 C   0  0  0  0  0  0  0  0  0  0  0  0
  146.8428  130.8579  153.1505 N   0  0  0  0  0  0  0  0  0  0  0  0
  146.2349  131.4747  152.1453 C   0  0  0  0  0  0  0  0  0  0  0  0
  146.7378  132.6820  151.8595 N   0  0  0  0  0  0  0  0  0  0  0  0
  146.3748  133.6808  150.8053 C   0  0  1  0  0  0  0  0  0  0  0  0
  145.5262  133.0541  149.8909 O   0  0  0  0  0  0  0  0  0  0  0  0
  144.1729  133.3115  150.2495 C   0  0  2  0  0  0  0  0  0  0  0  0
  143.2148  132.9990  149.0864 C   0  0  0  0  0  0  0  0  0  0  0  0
  143.5231  133.8116  147.9739 O   0  0  0  0  0  0  0  0  0  0  0  0
  144.2427  134.7824  150.6780 C   0  0  2  0  0  0  0  0  0  0  0  0
  144.2144  135.6325  149.5422 O   0  0  0  0  0  0  0  0  0  0  0  0
  145.5750  134.8435  151.4271 C   0  0  2  0  0  0  0  0  0  0  0  0
  146.2191  136.0978  151.3021 O   0  0  0  0  0  0  0  0  0  0  0  0
  147.7746  132.9118  152.7026 N   0  0  0  0  0  0  0  0  0  0  0  0
  147.3232  133.9626  150.3461 H   0  0  0  0  0  0  0  0  0  0  0  0
  143.9094  132.7111  151.1227 H   0  0  0  0  0  0  0  0  0  0  0  0
  143.4078  135.0542  151.3247 H   0  0  0  0  0  0  0  0  0  0  0  0
  145.3995  134.6433  152.4854 H   0  0  0  0  0  0  0  0  0  0  0  0
  150.4065  132.4485  155.4273 H   0  0  0  0  0  0  0  0  0  0  0  0
  149.7125  133.3339  154.0824 H   0  0  0  0  0  0  0  0  0  0  0  0
  145.4061  131.0360  151.6089 H   0  0  0  0  0  0  0  0  0  0  0  0
  143.3298  131.9606  148.7741 H   0  0  0  0  0  0  0  0  0  0  0  0
  142.1734  133.1387  149.3784 H   0  0  0  0  0  0  0  0  0  0  0  0
  144.3315  134.2681  148.1509 H   0  0  0  0  0  0  0  0  0  0  0  0
  144.6032  135.1692  148.8155 H   0  0  0  0  0  0  0  0  0  0  0  0
  147.1515  135.9640  151.3794 H   0  0  0  0  0  0  0  0  0  0  0  0
  1  2  1  0  0  0  0
  1 22  1  0  0  0  0
  1 23  1  0  0  0  0
  2  3  2  0  0  0  0
  2  4  1  0  0  0  0
  4 17  2  0  0  0  0
  4  5  1  0  0  0  0
  5  6  2  0  0  0  0
  6  7  1  0  0  0  0
  6 24  1  0  0  0  0
  7  8  1  0  0  0  0
  7 17  1  0  0  0  0
  8 18  1  0  0  0  0
  8 15  1  0  0  0  0
  8  9  1  0  0  0  0
  9 10  1  0  0  0  0
 10 19  1  0  0  0  0
 10 11  1  0  0  0  0
 10 13  1  0  0  0  0
 11 12  1  0  0  0  0
 11 25  1  0  0  0  0
 11 26  1  0  0  0  0
 12 27  1  0  0  0  0
 13 20  1  0  0  0  0
 13 14  1  0  0  0  0
 13 15  1  0  0  0  0
 14 28  1  0  0  0  0
 15 21  1  0  0  0  0
 15 16  1  0  0  0  0
 16 29  1  0  0  0  0
M  END
> <s_m_source_file>
AV-unprocessed.smi

> <i_m_source_file_index>
160

> <i_lp_mmshare_version>
43012

> <i_f3d_flags>
0

> <s_epik_input>
W05IMl1DKD1PKWMxbltjSF1uKG4xKVtDQEBIXTJPW0NASF0oW0NIMl1bT0hdKVtDQEBIXShbT0hdKVtDQEhdMltPSF0=

> <s_epik_cmdline>
J2VwaWtfcHl0aG9uJywgJy1waCcsICc3LjAnLCAnLXRuJywgJzgnLCAnLW1hJywgJzIwMCcsICctbWV0YWxfYmluZGluZycsICctaW1hZScsICc8aW5maWxlLm1hZT4nLCAnLW9tYWUnLCAnPG91dGZpbGUubWFlPic=

> <r_lp_tautomer_probability>
1

> <r_epik_Ionization_Penalty>
1.06932e-05

> <r_epik_Ionization_Penalty_Charging>
0

> <r_epik_Ionization_Penalty_Neutral>
1.06932e-05

> <r_epik_State_Penalty>
-0

> <r_epik_Charging_Adjusted_Penalty>
0

> <i_epik_Tot_Q>
0

> <i_epik_Tot_abs_Q>
0

> <r_epik_Metal_State_Penalty>
0.0142097

> <b_epik_Metal_Only>
0

> <s_epik_Chemistry_Notes>
This compound contains an acetal/aminal-like group ( X-CH(R)-Y where X, Y are N, S, or O) that may be acid/base labile, releasing an aldehyde.

> <s_lp_Force_Field>
OPLS_2005

> <r_lp_Energy>
42.1222

> <b_lp_Chiralities_Consistent>
1

> <s_lp_Variant>
AV-unprocessed.smi:160-14

> <Gold.Version>
5.8.1

> <Gold.Id.Protein>
6NUR|6NUR_protein|mol2

> <Gold.PLP.Fitness>
36.9341

> <Gold.PLP.PLP>
-26.7620

> <Gold.PLP.part.hbond>
-6.4542

> <Gold.PLP.part.metal>
0.0000

> <Gold.PLP.part.buried>
-2.3564

> <Gold.PLP.part.nonpolar>
-20.4852

> <Gold.PLP.part.repulsive>
1.8290

> <Gold.PLP.ligand.clash>
0.0000

> <Gold.PLP.ligand.torsion>
0.4034

> <Gold.PLP.Chemscore.Hbond>
3.6500

> <Gold.PLP.Chemscore.CHOScore>
0.0000

> <Gold.PLP.Chemscore.Metal>
0.0000

> <Gold.Chemscore.Hbonds>
donor molecule, donor type, donor heavy atom, donor atom, acceptor molecule, acceptor atom, score
      L1  H    12    27       P1  7921  0.99
      L1  H    14    28       P1  7921  1.00
      L1  H    16    29       P1  7948  1.00
      P1  H 10192 10197       L1    12  0.62

> <Gold.PLP.Chemscore.Internal.Correction>
0.0290

> <Gold.Rescore>
     Score         DG    S(hbond)    S(metal)    S(lipo)     H(rot)  DE(clash)    DE(int)     intcor
      8.16      -8.75       2.89        0.00      34.30       4.06       0.06       0.54       ----

> <Gold.Chemscore.Fitness>
8.1570

> <Gold.Chemscore.DG>
-8.7531

> <Gold.Chemscore.ZeroCoef>
-5.4800

> <Gold.Chemscore.Hbond>
2.8903

> <Gold.Chemscore.Metal>
0.0000

> <Gold.Chemscore.Lipo>
34.3005

> <Gold.Chemscore.Internal_Hbond>
0.0000

> <Gold.Chemscore.DEClash>
0.0580

> <Gold.Chemscore.DEInternal>
0.5381

> <Gold.Chemscore.Rot>
4.0600

> <Gold.Chemscore.Internal.Correction>
   9.000000E+99

> <Gold.Chemscore.Hbonds>
donor molecule, donor type, donor heavy atom, donor atom, acceptor molecule, acceptor atom, score
      L1  H    12    27       P1  7921  0.94
      L1  H    14    28       P1  7921  0.94
      L1  H    16    29       P1  7948  1.00
      P1  H 10192 10197       L1    12  0.48

> <Gold.Chemscore.Hbond.Weighted>
-9.6536

> <Gold.Chemscore.Metal.Weighted>
-0.0000

> <Gold.Chemscore.Lipo.Weighted>
-4.0132

> <Gold.Chemscore.Internal_Hbond.Weighted>
0.0000

> <Gold.Chemscore.DEClash.Weighted>
0.0580

> <Gold.Chemscore.DEInternal.Weighted>
0.5381

> <Gold.Chemscore.Rot.Weighted>
10.3936

> <Gold.Chemscore.Internal.Correction.Weighted>
   9.000000E+99

> <Gold.Protein.RotatedTorsions>
[ 6907 6896 6895 6894 ] final  -51.81 input  -60.11 | X-H torsion
[ 7974 7965 7964 7962 ] final  -24.24 input  175.53 | X-H torsion
[ 8008 7997 7996 7995 ] final -162.49 input   59.86 | X-H torsion
[ 10167 10162 10161 10158 ] final  -33.57 input  -65.29 | X-H torsion
[ 10718 10713 10712 10709 ] final  -44.00 input   66.30 | X-H torsion
[ 10763 10752 10751 10750 ] final  -55.90 input  -60.55 | X-H torsion
[ 11005 11000 10999 10996 ] final   77.97 input  -57.11 | X-H torsion

> <Gold.Protein.ActiveResidues>
 VAL166  LYS551  ARG553  GLY616  TRP617  ASP618  TYR619  PRO620  LYS621  CYS622 
 ASP623  PHE694  ASN695  SER759  ASP760  ASP761  ALA762  ILE779  LEU786  VAL792 
 PHE793  MET794  SER795  GLU796  ALA797  LYS798  CYS799  TRP800  GLU811  SER814 

> <Gold.Protein.RotatedAtoms>
  150.8577  134.7920  159.7057 H   0  0  0  0  0  0  0  0  0  0  0  0  # atno 6907 bound_to 6896
  152.4623  134.5152  159.9776 H   0  0  0  0  0  0  0  0  0  0  0  0  # atno 6908 bound_to 6896
  151.5261  133.3419  159.2945 H   0  0  0  0  0  0  0  0  0  0  0  0  # atno 6909 bound_to 6896
  146.1567  140.4725  142.8588 H   0  0  0  0  0  0  0  0  0  0  0  0  # atno 7974 bound_to 7965
  155.8076  140.0901  157.1922 H   0  0  0  0  0  0  0  0  0  0  0  0  # atno 8008 bound_to 7997
  154.3980  140.1460  156.3407 H   0  0  0  0  0  0  0  0  0  0  0  0  # atno 8009 bound_to 7997
  155.8399  140.3439  155.5627 H   0  0  0  0  0  0  0  0  0  0  0  0  # atno 8010 bound_to 7997
  140.7202  143.3611  151.1961 H   0  0  0  0  0  0  0  0  0  0  0  0  # atno 10167 bound_to 10162
  156.2431  130.4181  149.8737 H   0  0  0  0  0  0  0  0  0  0  0  0  # atno 10718 bound_to 10713
  154.1981  135.6415  153.5079 H   0  0  0  0  0  0  0  0  0  0  0  0  # atno 10763 bound_to 10752
  153.0018  135.5445  154.6344 H   0  0  0  0  0  0  0  0  0  0  0  0  # atno 10764 bound_to 10752
  154.5750  135.2920  155.0763 H   0  0  0  0  0  0  0  0  0  0  0  0  # atno 10765 bound_to 10752
  139.9232  134.7726  156.1590 H   0  0  0  0  0  0  0  0  0  0  0  0  # atno 11005 bound_to 11000
  144.7972  140.6146  143.6502 LP  0  0  0  0  0  0  0  0  0  0  0  0  # atno 17320 bound_to 7965
  145.4691  139.1505  143.3824 LP  0  0  0  0  0  0  0  0  0  0  0  0  # atno 17321 bound_to 7965
  139.7163  143.9295  152.2968 LP  0  0  0  0  0  0  0  0  0  0  0  0  # atno 17342 bound_to 10162
  139.9037  144.6897  150.8637 LP  0  0  0  0  0  0  0  0  0  0  0  0  # atno 17343 bound_to 10162
  156.6312  130.8666  151.3495 LP  0  0  0  0  0  0  0  0  0  0  0  0  # atno 17370 bound_to 10713
  157.7183  130.9526  150.1341 LP  0  0  0  0  0  0  0  0  0  0  0  0  # atno 17371 bound_to 10713
  141.0769  133.6771  156.2256 LP  0  0  0  0  0  0  0  0  0  0  0  0  # atno 17394 bound_to 11000
  140.6413  134.5163  157.5569 LP  0  0  0  0  0  0  0  0  0  0  0  0  # atno 17395 bound_to 11000

$$$$
