#       Name:                AV-unprocessed.smi:883
#       Creating user name   scv26
#       Creation time:       Fri Mar 27 01:53:11 2020


#       File generated by GOLD software.
#

@<TRIPOS>MOLECULE
AV-unprocessed.smi:883
    33    35     1
SMALL
NO_CHARGES


@<TRIPOS>ATOM
      1 ****        -6.6378  -0.8603  -0.2647 N.1            1 S1                 0.0000
      2 ****        -5.4891  -0.9041  -0.1329 C.1            1 S1                 0.0000
      3 ****        -4.0468  -0.9596   0.0327 C.ar           1 S1                 0.0000
      4 ****        -3.3836  -2.1932   0.1854 C.ar           1 S1                 0.0000
      5 ****        -1.9835  -2.1956   0.3418 C.ar           1 S1                 0.0000
      6 ****        -1.2955  -0.9636   0.3395 C.ar           1 S1                 0.0000
      7 ****         0.0981  -0.9739   0.4958 N.pl3          1 S1                 0.0000
      8 ****         0.8885   0.2444   0.3528 C.3            1 S1                 0.0000
      9 ****         1.0303   0.7037  -1.1042 C.3            1 S1                 0.0000
     10 ****         2.5537   0.7712  -1.2688 C.3            1 S1                 0.0000
     11 ****         3.1790   1.9095  -0.4510 C.3            1 S1                 0.0000
     12 ****         3.0723   1.3659   0.9735 C.3            1 S1                 0.0000
     13 ****         2.3591   0.0258   0.7478 C.3            1 S1                 0.0000
     14 ****         2.9353  -0.3506  -0.4928 O.3            1 S1                 0.0000
     15 ****        -1.9329   0.2232   0.1957 N.ar           1 S1                 0.0000
     16 ****        -3.2750   0.2198   0.0454 C.ar           1 S1                 0.0000
     17 ****        -3.9325  -3.1240   0.1830 H              1 S1                 0.0000
     18 ****        -1.4513  -3.1284   0.4600 H              1 S1                 0.0000
     19 ****         0.5843  -1.8563   0.5643 H              1 S1                 0.0000
     20 ****         0.4536   1.0264   0.9769 H              1 S1                 0.0000
     21 ****         0.6104  -0.0253  -1.7991 H              1 S1                 0.0000
     22 ****         0.5474   1.6633  -1.2904 H              1 S1                 0.0000
     23 ****         2.8876   0.7349  -2.3060 H              1 S1                 0.0000
     24 ****         4.2238   2.0590  -0.7256 H              1 S1                 0.0000
     25 ****         2.6504   2.8539  -0.5856 H              1 S1                 0.0000
     26 ****         4.0649   1.2079   1.3968 H              1 S1                 0.0000
     27 ****         2.5189   2.0273   1.6408 H              1 S1                 0.0000
     28 ****         2.5112  -0.6895   1.5570 H              1 S1                 0.0000
     29 ****        -3.7407   1.1883  -0.0672 H              1 S1                 0.0000
     30 ****        -7.6306  -0.8224  -0.3786 LP             1 S1                 0.0000
     31 ****         3.9292  -0.4426  -0.4313 LP             1 S1                 0.0000
     32 ****         2.5431  -1.2003  -0.8452 LP             1 S1                 0.0000
     33 ****        -1.4212   1.0823   0.2007 LP             1 S1                 0.0000
@<TRIPOS>BOND
    1    1    2 3     
    2    2    3 1     
    3    3   16 ar    
    4    3    4 ar    
    5    4    5 ar    
    6    4   17 1     
    7    5    6 ar    
    8    5   18 1     
    9    6    7 1     
   10    6   15 ar    
   11    7    8 1     
   12    7   19 1     
   13    8   13 1     
   14    8    9 1     
   15    8   20 1     
   16    9   10 1     
   17    9   21 1     
   18    9   22 1     
   19   10   14 1     
   20   10   11 1     
   21   10   23 1     
   22   11   12 1     
   23   11   24 1     
   24   11   25 1     
   25   12   13 1     
   26   12   26 1     
   27   12   27 1     
   28   13   14 1     
   29   13   28 1     
   30   15   16 ar    
   31   16   29 1     
   32    1   30 1     
   33   14   31 1     
   34   14   32 1     
   35   15   33 1     
@<TRIPOS>SUBSTRUCTURE
      1 S1             1
@<TRIPOS>SET
LONE_PAIRS      STATIC     ATOMS    <user>   **** ""
4 30 31 32 33
DONOR_HYDROGENS      STATIC     ATOMS    <user>   **** ""
1 19
ATOM$BLUE        STATIC     ATOMS    COLORGROUP SYSTEM
4 30 31 32 33
ATOM$RED        STATIC     ATOMS    COLORGROUP SYSTEM
1 19
