#       Name:                AV-unprocessed.smi:641
#       Creating user name   scv26
#       Creation time:       Fri Mar 27 00:07:36 2020


#       File generated by GOLD software.
#

@<TRIPOS>MOLECULE
AV-unprocessed.smi:641
    44    45     1
SMALL
NO_CHARGES


@<TRIPOS>ATOM
      1 ****        -4.6040   4.4937  -1.4287 C.3            1 S1                 0.0000
      2 ****        -4.5747   3.0164  -1.6645 C.2            1 S1                 0.0000
      3 ****        -5.6473   2.1980  -1.9222 C.2            1 S1                 0.0000
      4 ****        -5.1650   0.5361  -2.1349 S.3            1 S1                 0.0000
      5 ****        -3.4998   1.0251  -1.8631 C.2            1 S1                 0.0000
      6 ****        -2.4289   0.0934  -1.8899 N.am           1 S1                 0.0000
      7 ****        -1.1167   0.3318  -1.7187 C.2            1 S1                 0.0000
      8 ****        -0.6174   1.4356  -1.4983 O.2            1 S1                 0.0000
      9 ****        -0.4012  -0.7986  -1.8151 N.am           1 S1                 0.0000
     10 ****         1.0514  -0.8928  -1.6977 C.3            1 S1                 0.0000
     11 ****         1.4990  -1.4134  -0.3162 C.3            1 S1                 0.0000
     12 ****         1.1008  -0.4852   0.8474 C.3            1 S1                 0.0000
     13 ****         1.6438  -1.0055   2.1902 C.3            1 S1                 0.0000
     14 ****         3.1030  -1.1256   2.1413 N.3            1 S1                 0.0000
     15 ****         3.6129  -1.5816   3.4300 C.3            1 S1                 0.0000
     16 ****         3.4346  -0.5810   4.4957 C.1            1 S1                 0.0000
     17 ****         3.2944   0.2047   5.3334 N.1            1 S1                 0.0000
     18 ****         3.4825  -2.0977   1.1161 C.3            1 S1                 0.0000
     19 ****         3.0223  -1.6184  -0.2713 C.3            1 S1                 0.0000
     20 ****        -3.3545   2.3353  -1.6343 N.2            1 S1                 0.0000
     21 ****        -5.6258   4.8643  -1.3430 H              1 S1                 0.0000
     22 ****        -4.1252   5.0312  -2.2474 H              1 S1                 0.0000
     23 ****        -4.0807   4.7566  -0.5090 H              1 S1                 0.0000
     24 ****        -6.6893   2.4713  -1.9995 H              1 S1                 0.0000
     25 ****        -2.6927  -0.8646  -2.0660 H              1 S1                 0.0000
     26 ****        -0.8970  -1.6597  -1.9932 H              1 S1                 0.0000
     27 ****         1.3940  -1.5781  -2.4734 H              1 S1                 0.0000
     28 ****         1.5257   0.0661  -1.9143 H              1 S1                 0.0000
     29 ****         1.0259  -2.3830  -0.1519 H              1 S1                 0.0000
     30 ****         1.4762   0.5231   0.6661 H              1 S1                 0.0000
     31 ****         0.0160  -0.4030   0.9137 H              1 S1                 0.0000
     32 ****         1.3556  -0.3139   2.9822 H              1 S1                 0.0000
     33 ****         1.1964  -1.9709   2.4314 H              1 S1                 0.0000
     34 ****         3.1303  -2.5106   3.7364 H              1 S1                 0.0000
     35 ****         4.6835  -1.7760   3.3575 H              1 S1                 0.0000
     36 ****         4.5664  -2.2182   1.1147 H              1 S1                 0.0000
     37 ****         3.0519  -3.0739   1.3446 H              1 S1                 0.0000
     38 ****         3.3227  -2.3460  -1.0258 H              1 S1                 0.0000
     39 ****         3.5316  -0.6864  -0.5217 H              1 S1                 0.0000
     40 ****        -1.2015   2.2448  -1.4342 LP             1 S1                 0.0000
     41 ****         0.3721   1.5229  -1.3834 LP             1 S1                 0.0000
     42 ****         3.4906  -0.2294   1.9252 LP             1 S1                 0.0000
     43 ****         3.1732   0.8838   6.0574 LP             1 S1                 0.0000
     44 ****        -2.4740   2.7767  -1.4615 LP             1 S1                 0.0000
@<TRIPOS>BOND
    1    1    2 1     
    2    1   21 1     
    3    1   22 1     
    4    1   23 1     
    5    2   20 1     
    6    2    3 2     
    7    3    4 1     
    8    3   24 1     
    9    4    5 1     
   10    5    6 1     
   11    5   20 2     
   12    6    7 am    
   13    6   25 1     
   14    7    8 2     
   15    7    9 am    
   16    9   10 1     
   17    9   26 1     
   18   10   11 1     
   19   10   27 1     
   20   10   28 1     
   21   11   19 1     
   22   11   12 1     
   23   11   29 1     
   24   12   13 1     
   25   12   30 1     
   26   12   31 1     
   27   13   14 1     
   28   13   32 1     
   29   13   33 1     
   30   14   15 1     
   31   14   18 1     
   32   15   16 1     
   33   15   34 1     
   34   15   35 1     
   35   16   17 3     
   36   18   19 1     
   37   18   36 1     
   38   18   37 1     
   39   19   38 1     
   40   19   39 1     
   41    8   40 1     
   42    8   41 1     
   43   14   42 1     
   44   17   43 1     
   45   20   44 1     
@<TRIPOS>SUBSTRUCTURE
      1 S1             1
@<TRIPOS>SET
LONE_PAIRS      STATIC     ATOMS    <user>   **** ""
5 40 41 42 43 44
DONOR_HYDROGENS      STATIC     ATOMS    <user>   **** ""
2 25 26
ATOM$BLUE        STATIC     ATOMS    COLORGROUP SYSTEM
5 40 41 42 43 44
ATOM$RED        STATIC     ATOMS    COLORGROUP SYSTEM
2 25 26
