#       Name:                AV-unprocessed.smi:2759
#       Creating user name   scv26
#       Creation time:       Fri Mar 27 15:07:27 2020


#       File generated by GOLD software.
#

@<TRIPOS>MOLECULE
AV-unprocessed.smi:2759
    51    52     1
SMALL
NO_CHARGES


@<TRIPOS>ATOM
      1 ****        -2.9906  -3.9729   4.0383 C.3            1 S1                 0.0000
      2 ****        -3.4632  -2.5100   4.1315 C.3            1 S1                 0.0000
      3 ****        -4.9969  -2.4901   4.2820 C.3            1 S1                 0.0000
      4 ****        -2.9912  -1.6472   2.9304 C.3            1 S1                 0.0000
      5 ****        -3.4669  -0.3254   3.1100 O.3            1 S1                 0.0000
      6 ****        -1.4566  -1.5648   2.7727 C.3            1 S1                 0.0000
      7 ****        -1.0323  -0.9444   1.4811 C.2            1 S1                 0.0000
      8 ****        -0.7233   0.3318   1.2651 N.2            1 S1                 0.0000
      9 ****        -0.4619   0.3159  -0.0718 C.2            1 S1                 0.0000
     10 ****        -0.0399   1.5355  -0.8308 C.3            1 S1                 0.0000
     11 ****         1.4764   1.5724  -1.0571 C.2            1 S1                 0.0000
     12 ****         2.2505   1.1092  -0.2181 O.2            1 S1                 0.0000
     13 ****         1.8891   2.1363  -2.2030 N.am           1 S1                 0.0000
     14 ****         3.2826   2.2671  -2.6215 C.3            1 S1                 0.0000
     15 ****         3.4482   3.4202  -3.6302 C.3            1 S1                 0.0000
     16 ****         4.2640   2.8523  -4.7929 C.3            1 S1                 0.0000
     17 ****         3.9055   1.3701  -4.8167 C.3            1 S1                 0.0000
     18 ****         3.7739   0.9949  -3.3404 C.3            1 S1                 0.0000
     19 ****        -0.6229  -0.8550  -0.6787 N.2            1 S1                 0.0000
     20 ****        -1.0129  -1.7091   0.3628 O.3            1 S1                 0.0000
     21 ****        -3.3020  -4.4310   3.0990 H              1 S1                 0.0000
     22 ****        -3.4067  -4.5706   4.8499 H              1 S1                 0.0000
     23 ****        -1.9078  -4.0611   4.1148 H              1 S1                 0.0000
     24 ****        -3.0393  -2.0867   5.0436 H              1 S1                 0.0000
     25 ****        -5.4870  -2.8730   3.3863 H              1 S1                 0.0000
     26 ****        -5.3749  -1.4840   4.4640 H              1 S1                 0.0000
     27 ****        -5.3177  -3.1056   5.1230 H              1 S1                 0.0000
     28 ****        -3.4276  -2.0511   2.0156 H              1 S1                 0.0000
     29 ****        -3.2060   0.1933   2.3640 H              1 S1                 0.0000
     30 ****        -1.0128  -1.0114   3.6015 H              1 S1                 0.0000
     31 ****        -1.0109  -2.5575   2.7971 H              1 S1                 0.0000
     32 ****        -0.5642   1.5616  -1.7874 H              1 S1                 0.0000
     33 ****        -0.3370   2.4292  -0.2813 H              1 S1                 0.0000
     34 ****         1.1884   2.4937  -2.8361 H              1 S1                 0.0000
     35 ****         3.9133   2.4581  -1.7510 H              1 S1                 0.0000
     36 ****         2.4773   3.7483  -4.0052 H              1 S1                 0.0000
     37 ****         3.9301   4.2906  -3.1836 H              1 S1                 0.0000
     38 ****         4.0530   3.3522  -5.7386 H              1 S1                 0.0000
     39 ****         5.3287   2.9673  -4.5854 H              1 S1                 0.0000
     40 ****         2.9471   1.2316  -5.3190 H              1 S1                 0.0000
     41 ****         4.6475   0.7657  -5.3393 H              1 S1                 0.0000
     42 ****         4.7551   0.7203  -2.9509 H              1 S1                 0.0000
     43 ****         3.1216   0.1326  -3.1955 H              1 S1                 0.0000
     44 ****        -3.0751   0.0632   3.9440 LP             1 S1                 0.0000
     45 ****        -4.4642  -0.3333   3.1826 LP             1 S1                 0.0000
     46 ****        -0.6916   1.0957   1.9097 LP             1 S1                 0.0000
     47 ****         1.8921   0.7030   0.6225 LP             1 S1                 0.0000
     48 ****         3.2372   1.1394  -0.3776 LP             1 S1                 0.0000
     49 ****        -0.4963  -1.0745  -1.6460 LP             1 S1                 0.0000
     50 ****        -1.9218  -2.0852   0.1826 LP             1 S1                 0.0000
     51 ****        -0.3567  -2.4569   0.4639 LP             1 S1                 0.0000
@<TRIPOS>BOND
    1    1    2 1     
    2    1   21 1     
    3    1   22 1     
    4    1   23 1     
    5    2    3 1     
    6    2    4 1     
    7    2   24 1     
    8    3   25 1     
    9    3   26 1     
   10    3   27 1     
   11    4    5 1     
   12    4    6 1     
   13    4   28 1     
   14    5   29 1     
   15    6    7 1     
   16    6   30 1     
   17    6   31 1     
   18    7   20 1     
   19    7    8 2     
   20    8    9 1     
   21    9   10 1     
   22    9   19 2     
   23   10   11 1     
   24   10   32 1     
   25   10   33 1     
   26   11   12 2     
   27   11   13 am    
   28   13   14 1     
   29   13   34 1     
   30   14   18 1     
   31   14   15 1     
   32   14   35 1     
   33   15   16 1     
   34   15   36 1     
   35   15   37 1     
   36   16   17 1     
   37   16   38 1     
   38   16   39 1     
   39   17   18 1     
   40   17   40 1     
   41   17   41 1     
   42   18   42 1     
   43   18   43 1     
   44   19   20 1     
   45    5   44 1     
   46    5   45 1     
   47    8   46 1     
   48   12   47 1     
   49   12   48 1     
   50   19   49 1     
   51   20   50 1     
   52   20   51 1     
@<TRIPOS>SUBSTRUCTURE
      1 S1             1
@<TRIPOS>SET
LONE_PAIRS      STATIC     ATOMS    <user>   **** ""
8 44 45 46 47 48 49 50 51
DONOR_HYDROGENS      STATIC     ATOMS    <user>   **** ""
2 29 34
ATOM$BLUE        STATIC     ATOMS    COLORGROUP SYSTEM
8 44 45 46 47 48 49 50 51
ATOM$RED        STATIC     ATOMS    COLORGROUP SYSTEM
2 29 34
