AV-unprocessed.smi:527|AV-procd|sdf|2815|dock4
  -GOLD-   2262023293D 1   1.00000     0.00000
 Structure written by MMmdl.
 42 43  0  0  0  0  0  0  0  0  1 V2000
  144.5445  134.2112  149.9683 C   0  0  0  0  0  0  0  0  0  0  0  0
  145.5557  134.2922  151.1259 C   0  0  2  0  0  0  0  0  0  0  0  0
  146.2928  132.9446  151.2683 C   0  0  0  0  0  0  0  0  0  0  0  0
  147.3273  132.9663  152.4013 C   0  0  0  0  0  0  0  0  0  0  0  0
  146.6737  133.3607  153.7330 C   0  0  0  0  0  0  0  0  0  0  0  0
  145.9371  134.7118  153.6313 C   0  0  1  0  0  0  0  0  0  0  0  0
  146.8874  135.8156  153.4839 N   0  0  0  0  0  0  0  0  0  0  0  0
  147.2213  136.6937  154.4406 C   0  0  0  0  0  0  0  0  0  0  0  0
  146.7403  136.6770  155.5757 O   0  0  0  0  0  0  0  0  0  0  0  0
  148.1393  137.5683  153.9882 N   0  0  0  0  0  0  0  0  0  0  0  0
  148.5808  138.6887  154.5970 C   0  0  0  0  0  0  0  0  0  0  0  0
  148.1872  139.1060  155.6876 O   0  0  0  0  0  0  0  0  0  0  0  0
  149.6485  139.4813  153.8379 C   0  0  0  0  0  0  0  0  0  0  0  0
  150.9716  139.2700  154.3978 N   0  0  0  0  0  0  0  0  0  0  0  0
  151.8615  138.2495  154.0860 C   0  0  0  0  0  0  0  0  0  0  0  0
  152.9783  138.4498  154.8655 C   0  0  0  0  0  0  0  0  0  0  0  0
  152.7996  139.5807  155.6587 N   0  0  0  0  0  0  0  0  0  0  0  0
  151.5905  140.0138  155.3260 C   0  0  0  0  0  0  0  0  0  0  0  0
  144.9031  134.7070  152.4748 C   0  0  1  0  0  0  0  0  0  0  0  0
  144.1503  136.0506  152.3930 C   0  0  0  0  0  0  0  0  0  0  0  0
  143.7323  133.5211  150.1983 H   0  0  0  0  0  0  0  0  0  0  0  0
  145.0251  133.8628  149.0536 H   0  0  0  0  0  0  0  0  0  0  0  0
  144.1066  135.1835  149.7434 H   0  0  0  0  0  0  0  0  0  0  0  0
  146.2951  135.0476  150.8564 H   0  0  0  0  0  0  0  0  0  0  0  0
  145.5703  132.1490  151.4556 H   0  0  0  0  0  0  0  0  0  0  0  0
  146.7910  132.6913  150.3318 H   0  0  0  0  0  0  0  0  0  0  0  0
  147.7943  131.9855  152.4949 H   0  0  0  0  0  0  0  0  0  0  0  0
  148.1277  133.6658  152.1569 H   0  0  0  0  0  0  0  0  0  0  0  0
  145.9623  132.5868  154.0242 H   0  0  0  0  0  0  0  0  0  0  0  0
  147.4250  133.3909  154.5231 H   0  0  0  0  0  0  0  0  0  0  0  0
  145.3890  134.8645  154.5629 H   0  0  0  0  0  0  0  0  0  0  0  0
  147.3271  135.9100  152.5802 H   0  0  0  0  0  0  0  0  0  0  0  0
  148.5576  137.3549  153.0949 H   0  0  0  0  0  0  0  0  0  0  0  0
  149.6509  139.1826  152.7889 H   0  0  0  0  0  0  0  0  0  0  0  0
  149.4211  140.5478  153.8700 H   0  0  0  0  0  0  0  0  0  0  0  0
  151.6329  137.4856  153.3574 H   0  0  0  0  0  0  0  0  0  0  0  0
  153.8891  137.8716  154.9161 H   0  0  0  0  0  0  0  0  0  0  0  0
  151.1417  140.8899  155.7710 H   0  0  0  0  0  0  0  0  0  0  0  0
  144.1598  133.9474  152.7223 H   0  0  0  0  0  0  0  0  0  0  0  0
  144.7903  136.8494  152.0173 H   0  0  0  0  0  0  0  0  0  0  0  0
  143.7829  136.3529  153.3739 H   0  0  0  0  0  0  0  0  0  0  0  0
  143.2821  135.9848  151.7380 H   0  0  0  0  0  0  0  0  0  0  0  0
  1  2  1  0  0  0  0
  1 21  1  0  0  0  0
  1 22  1  0  0  0  0
  1 23  1  0  0  0  0
  2 19  1  0  0  0  0
  2  3  1  0  0  0  0
  2 24  1  0  0  0  0
  3  4  1  0  0  0  0
  3 25  1  0  0  0  0
  3 26  1  0  0  0  0
  4  5  1  0  0  0  0
  4 27  1  0  0  0  0
  4 28  1  0  0  0  0
  5  6  1  0  0  0  0
  5 29  1  0  0  0  0
  5 30  1  0  0  0  0
  6  7  1  0  0  0  0
  6 19  1  0  0  0  0
  6 31  1  0  0  0  0
  7  8  1  0  0  0  0
  7 32  1  0  0  0  0
  8  9  2  0  0  0  0
  8 10  1  0  0  0  0
 10 11  1  0  0  0  0
 10 33  1  0  0  0  0
 11 12  2  0  0  0  0
 11 13  1  0  0  0  0
 13 14  1  0  0  0  0
 13 34  1  0  0  0  0
 13 35  1  0  0  0  0
 14 18  1  0  0  0  0
 14 15  1  0  0  0  0
 15 16  2  0  0  0  0
 15 36  1  0  0  0  0
 16 17  1  0  0  0  0
 16 37  1  0  0  0  0
 17 18  2  0  0  0  0
 18 38  1  0  0  0  0
 19 20  1  0  0  0  0
 19 39  1  0  0  0  0
 20 40  1  0  0  0  0
 20 41  1  0  0  0  0
 20 42  1  0  0  0  0
M  END
> <s_m_source_file>
AV-unprocessed.smi

> <i_m_source_file_index>
527

> <i_lp_mmshare_version>
43012

> <i_f3d_flags>
0

> <s_epik_input>
W0NIM11bQ0BASF0xW0NIMl1bQ0gyXVtDSDJdW0NASF0oW0NASF0xW0NIM10pW05IXUMoPU8pW05IXUMoPU8pW0NIMl1uMltjSF1bY0hdbltjSF0y

> <s_epik_cmdline>
J2VwaWtfcHl0aG9uJywgJy1waCcsICc3LjAnLCAnLXRuJywgJzgnLCAnLW1hJywgJzIwMCcsICctbWV0YWxfYmluZGluZycsICctaW1hZScsICc8aW5maWxlLm1hZT4nLCAnLW9tYWUnLCAnPG91dGZpbGUubWFlPic=

> <r_lp_tautomer_probability>
1

> <r_epik_Ionization_Penalty>
0.172132

> <r_epik_Ionization_Penalty_Charging>
0.172105

> <r_epik_Ionization_Penalty_Neutral>
2.71747e-05

> <r_epik_State_Penalty>
0.161503

> <r_epik_Charging_Adjusted_Penalty>
0.333607

> <i_epik_Tot_Q>
0

> <i_epik_Tot_abs_Q>
0

> <r_epik_Metal_State_Penalty>
0.124763

> <b_epik_Metal_Only>
0

> <s_lp_Force_Field>
OPLS_2005

> <r_lp_Energy>
14.2901

> <b_lp_Chiralities_Consistent>
1

> <s_lp_Variant>
AV-unprocessed.smi:527-1

> <Gold.Version>
5.8.1

> <Gold.Id.Protein>
6NUR|6NUR_protein|mol2

> <Gold.PLP.Fitness>
41.5354

> <Gold.PLP.PLP>
-31.5325

> <Gold.PLP.part.hbond>
-3.0000

> <Gold.PLP.part.metal>
0.0000

> <Gold.PLP.part.buried>
-1.0853

> <Gold.PLP.part.nonpolar>
-26.7458

> <Gold.PLP.part.repulsive>
0.0243

> <Gold.PLP.ligand.clash>
0.0000

> <Gold.PLP.ligand.torsion>
0.7511

> <Gold.PLP.Chemscore.Hbond>
2.8320

> <Gold.PLP.Chemscore.CHOScore>
0.9956

> <Gold.PLP.Chemscore.Metal>
0.0000

> <Gold.Chemscore.Hbonds>
donor molecule, donor type, donor heavy atom, donor atom, acceptor molecule, acceptor atom, score
      L1  H     7    32       P1  7948  0.82
      L1  H    10    33       P1  7948  1.00
      P1  H  7997  8009       L1    17  1.00
      L1  C    15    36       P1  7949  1.00

> <Gold.PLP.Chemscore.Internal.Correction>
0.0224

> <Gold.Rescore>
     Score         DG    S(hbond)    S(metal)    S(lipo)     H(rot)  DE(clash)    DE(int)     intcor
     15.23     -17.53       2.77        0.00      60.43       1.66       0.19       2.12       ----

> <Gold.Chemscore.Fitness>
15.2253

> <Gold.Chemscore.DG>
-17.5337

> <Gold.Chemscore.ZeroCoef>
-5.4800

> <Gold.Chemscore.Hbond>
2.7666

> <Gold.Chemscore.Metal>
0.0000

> <Gold.Chemscore.Lipo>
60.4284

> <Gold.Chemscore.Internal_Hbond>
0.0000

> <Gold.Chemscore.DEClash>
0.1895

> <Gold.Chemscore.DEInternal>
2.1190

> <Gold.Chemscore.Rot>
1.6629

> <Gold.Chemscore.Internal.Correction>
   9.000000E+99

> <Gold.Chemscore.Hbonds>
donor molecule, donor type, donor heavy atom, donor atom, acceptor molecule, acceptor atom, score
      L1  H     7    32       P1  7948  0.81
      L1  H    10    33       P1  7948  0.96
      P1  H  7997  8009       L1    17  0.60

> <Gold.Chemscore.Hbond.Weighted>
-9.2405

> <Gold.Chemscore.Metal.Weighted>
-0.0000

> <Gold.Chemscore.Lipo.Weighted>
-7.0701

> <Gold.Chemscore.Internal_Hbond.Weighted>
0.0000

> <Gold.Chemscore.DEClash.Weighted>
0.1895

> <Gold.Chemscore.DEInternal.Weighted>
2.1190

> <Gold.Chemscore.Rot.Weighted>
4.2569

> <Gold.Chemscore.Internal.Correction.Weighted>
   9.000000E+99

> <Gold.Protein.RotatedTorsions>
[ 6907 6896 6895 6894 ] final   91.30 input  -60.11 | X-H torsion
[ 7974 7965 7964 7962 ] final -108.16 input  175.53 | X-H torsion
[ 8008 7997 7996 7995 ] final -148.37 input   59.86 | X-H torsion
[ 10167 10162 10161 10158 ] final  -73.96 input  -65.29 | X-H torsion
[ 10718 10713 10712 10709 ] final   53.47 input   66.30 | X-H torsion
[ 10763 10752 10751 10750 ] final   95.44 input  -60.55 | X-H torsion
[ 11005 11000 10999 10996 ] final -167.51 input  -57.11 | X-H torsion

> <Gold.Protein.ActiveResidues>
 VAL166  LYS551  ARG553  GLY616  TRP617  ASP618  TYR619  PRO620  LYS621  CYS622 
 ASP623  PHE694  ASN695  SER759  ASP760  ASP761  ALA762  ILE779  LEU786  VAL792 
 PHE793  MET794  SER795  GLU796  ALA797  LYS798  CYS799  TRP800  GLU811  SER814 

> <Gold.Protein.RotatedAtoms>
  152.5449  134.1679  159.8584 H   0  0  0  0  0  0  0  0  0  0  0  0  # atno 6907 bound_to 6896
  151.1691  133.4788  159.2601 H   0  0  0  0  0  0  0  0  0  0  0  0  # atno 6908 bound_to 6896
  151.1293  135.0133  159.8630 H   0  0  0  0  0  0  0  0  0  0  0  0  # atno 6909 bound_to 6896
  145.1963  140.9037  143.3395 H   0  0  0  0  0  0  0  0  0  0  0  0  # atno 7974 bound_to 7965
  155.5905  140.0652  157.2760 H   0  0  0  0  0  0  0  0  0  0  0  0  # atno 8008 bound_to 7997
  154.4306  140.1836  156.1116 H   0  0  0  0  0  0  0  0  0  0  0  0  # atno 8009 bound_to 7997
  156.0236  140.3314  155.7069 H   0  0  0  0  0  0  0  0  0  0  0  0  # atno 8010 bound_to 7997
  140.5067  143.2351  151.7662 H   0  0  0  0  0  0  0  0  0  0  0  0  # atno 10167 bound_to 10162
  157.5170  130.8539  149.8508 H   0  0  0  0  0  0  0  0  0  0  0  0  # atno 10718 bound_to 10713
  153.2532  135.4254  155.0818 H   0  0  0  0  0  0  0  0  0  0  0  0  # atno 10763 bound_to 10752
  154.8390  135.3431  154.6483 H   0  0  0  0  0  0  0  0  0  0  0  0  # atno 10764 bound_to 10752
  153.6904  135.7034  153.5148 H   0  0  0  0  0  0  0  0  0  0  0  0  # atno 10765 bound_to 10752
  140.5524  134.5415  157.5125 H   0  0  0  0  0  0  0  0  0  0  0  0  # atno 11005 bound_to 11000
  144.9992  139.3615  143.6176 LP  0  0  0  0  0  0  0  0  0  0  0  0  # atno 17320 bound_to 7965
  146.3426  139.9207  142.8767 LP  0  0  0  0  0  0  0  0  0  0  0  0  # atno 17321 bound_to 7965
  139.4885  144.4447  151.9723 LP  0  0  0  0  0  0  0  0  0  0  0  0  # atno 17342 bound_to 10162
  140.3538  144.3056  150.5944 LP  0  0  0  0  0  0  0  0  0  0  0  0  # atno 17343 bound_to 10162
  156.0327  130.3760  150.1644 LP  0  0  0  0  0  0  0  0  0  0  0  0  # atno 17370 bound_to 10713
  156.9833  130.9871  151.3432 LP  0  0  0  0  0  0  0  0  0  0  0  0  # atno 17371 bound_to 10713
  139.9449  134.7721  156.0588 LP  0  0  0  0  0  0  0  0  0  0  0  0  # atno 17394 bound_to 11000
  141.1164  133.6626  156.3104 LP  0  0  0  0  0  0  0  0  0  0  0  0  # atno 17395 bound_to 11000

$$$$
