AV-unprocessed.smi:2973|AV-procd|sdf|11346|dock2
  -GOLD-   2272016263D 1   1.00000     0.00000
 Structure written by MMmdl.
 48 50  0  0  0  0  0  0  0  0  2 V2000
  154.6245  138.6169  160.0717 C   0  0  0  0  0  0  0  0  0  0  0  0
  153.3156  139.4220  159.9154 C   0  0  1  0  0  0  0  0  0  0  0  0
  153.6055  140.9386  159.9019 C   0  0  0  0  0  0  0  0  0  0  0  0
  152.3138  141.7680  159.8560 C   0  0  0  0  0  0  0  0  0  0  0  0
  151.4505  141.3826  158.6477 C   0  0  0  0  0  0  0  0  0  0  0  0
  151.1398  139.8761  158.6426 C   0  0  0  0  0  0  0  0  0  0  0  0
  152.4181  138.9997  158.7060 C   0  0  1  0  0  0  0  0  0  0  0  0
  153.1395  139.0712  157.4449 N   0  5  0  0  0  0  0  0  0  0  0  0
  153.1562  137.8438  156.8761 C   0  0  0  0  0  0  0  0  0  0  0  0
  153.6689  137.5387  155.8001 O   0  0  0  0  0  0  0  0  0  0  0  0
  152.5113  136.9459  157.6455 N   0  0  0  0  0  0  0  0  0  0  0  0
  152.3225  135.5252  157.3115 C   0  0  0  0  0  0  0  0  0  0  0  0
  151.0880  135.2189  156.4457 C   0  0  0  0  0  0  0  0  0  0  0  0
  150.4649  136.1542  155.9439 O   0  0  0  0  0  0  0  0  0  0  0  0
  150.7318  133.9346  156.2724 N   0  0  0  0  0  0  0  0  0  0  0  0
  149.5795  133.4740  155.5080 C   0  0  0  0  0  0  0  0  0  0  0  0
  150.0115  132.7342  154.2306 C   0  0  0  0  0  0  0  0  0  0  0  0
  148.8873  131.9106  153.6313 C   0  0  0  0  0  0  0  0  0  0  0  0
  148.1864  132.3675  152.4947 C   0  0  0  0  0  0  0  0  0  0  0  0
  147.1518  131.5648  151.9764 C   0  0  0  0  0  0  0  0  0  0  0  0
  146.8594  130.3422  152.6108 C   0  0  0  0  0  0  0  0  0  0  0  0
  147.6194  129.9741  153.7388 C   0  0  0  0  0  0  0  0  0  0  0  0
  148.6142  130.7357  154.2432 N   0  0  0  0  0  0  0  0  0  0  0  0
  152.0326  137.5282  158.7506 C   0  0  0  0  0  0  0  0  0  0  0  0
  151.3869  137.0005  159.6573 O   0  0  0  0  0  0  0  0  0  0  0  0
  155.2880  138.7608  159.2188 H   0  0  0  0  0  0  0  0  0  0  0  0
  154.4368  137.5480  160.1712 H   0  0  0  0  0  0  0  0  0  0  0  0
  155.1681  138.9303  160.9630 H   0  0  0  0  0  0  0  0  0  0  0  0
  152.7362  139.2305  160.8205 H   0  0  0  0  0  0  0  0  0  0  0  0
  154.1777  141.2156  160.7877 H   0  0  0  0  0  0  0  0  0  0  0  0
  154.2311  141.1895  159.0442 H   0  0  0  0  0  0  0  0  0  0  0  0
  151.7469  141.6155  160.7752 H   0  0  0  0  0  0  0  0  0  0  0  0
  152.5564  142.8300  159.8137 H   0  0  0  0  0  0  0  0  0  0  0  0
  150.5209  141.9517  158.6598 H   0  0  0  0  0  0  0  0  0  0  0  0
  151.9660  141.6564  157.7266 H   0  0  0  0  0  0  0  0  0  0  0  0
  150.5035  139.6548  159.5011 H   0  0  0  0  0  0  0  0  0  0  0  0
  150.5464  139.6301  157.7600 H   0  0  0  0  0  0  0  0  0  0  0  0
  153.2062  135.1507  156.7923 H   0  0  0  0  0  0  0  0  0  0  0  0
  152.2532  134.9345  158.2264 H   0  0  0  0  0  0  0  0  0  0  0  0
  151.2944  133.2263  156.7227 H   0  0  0  0  0  0  0  0  0  0  0  0
  148.9491  132.8342  156.1280 H   0  0  0  0  0  0  0  0  0  0  0  0
  148.9789  134.3465  155.2493 H   0  0  0  0  0  0  0  0  0  0  0  0
  150.3616  133.4508  153.4857 H   0  0  0  0  0  0  0  0  0  0  0  0
  150.8563  132.0776  154.4425 H   0  0  0  0  0  0  0  0  0  0  0  0
  148.4354  133.3099  152.0295 H   0  0  0  0  0  0  0  0  0  0  0  0
  146.5929  131.8808  151.1081 H   0  0  0  0  0  0  0  0  0  0  0  0
  146.0724  129.7015  152.2417 H   0  0  0  0  0  0  0  0  0  0  0  0
  147.4224  129.0434  154.2499 H   0  0  0  0  0  0  0  0  0  0  0  0
  1  2  1  0  0  0  0
  1 26  1  0  0  0  0
  1 27  1  0  0  0  0
  1 28  1  0  0  0  0
  2  7  1  0  0  0  0
  2  3  1  0  0  0  0
  2 29  1  0  0  0  0
  3  4  1  0  0  0  0
  3 30  1  0  0  0  0
  3 31  1  0  0  0  0
  4  5  1  0  0  0  0
  4 32  1  0  0  0  0
  4 33  1  0  0  0  0
  5  6  1  0  0  0  0
  5 34  1  0  0  0  0
  5 35  1  0  0  0  0
  6  7  1  0  0  0  0
  6 36  1  0  0  0  0
  6 37  1  0  0  0  0
  7 24  1  0  0  0  0
  7  8  1  0  0  0  0
  8  9  1  0  0  0  0
  9 10  2  0  0  0  0
  9 11  1  0  0  0  0
 11 12  1  0  0  0  0
 11 24  1  0  0  0  0
 12 13  1  0  0  0  0
 12 38  1  0  0  0  0
 12 39  1  0  0  0  0
 13 14  2  0  0  0  0
 13 15  1  0  0  0  0
 15 16  1  0  0  0  0
 15 40  1  0  0  0  0
 16 17  1  0  0  0  0
 16 41  1  0  0  0  0
 16 42  1  0  0  0  0
 17 18  1  0  0  0  0
 17 43  1  0  0  0  0
 17 44  1  0  0  0  0
 18 23  1  0  0  0  0
 18 19  2  0  0  0  0
 19 20  1  0  0  0  0
 19 45  1  0  0  0  0
 20 21  2  0  0  0  0
 20 46  1  0  0  0  0
 21 22  1  0  0  0  0
 21 47  1  0  0  0  0
 22 23  2  0  0  0  0
 22 48  1  0  0  0  0
 24 25  2  0  0  0  0
M  CHG  1   8  -1
M  END
> <s_m_source_file>
AV-unprocessed.smi

> <i_m_source_file_index>
2973

> <i_lp_mmshare_version>
43012

> <i_f3d_flags>
0

> <s_epik_input>
W0NIMl0xW0NIMl1bQ0gyXVtDSDJdW0NAQEhdKFtDSDNdKVtDQF0xMltOSF1DKD1PKU4oQzI9TylbQ0gyXUMoPU8pW05IXVtDSDJdW0NIMl1jM1tjSF1bY0hdW2NIXVtjSF1uMw==

> <s_epik_cmdline>
J2VwaWtfcHl0aG9uJywgJy1waCcsICc3LjAnLCAnLXRuJywgJzgnLCAnLW1hJywgJzIwMCcsICctbWV0YWxfYmluZGluZycsICctaW1hZScsICc8aW5maWxlLm1hZT4nLCAnLW9tYWUnLCAnPG91dGZpbGUubWFlPic=

> <r_lp_tautomer_probability>
1

> <r_epik_Ionization_Penalty>
6.04175

> <r_epik_Ionization_Penalty_Charging>
6.01728

> <r_epik_Ionization_Penalty_Neutral>
0.0244696

> <r_epik_State_Penalty>
6.03712

> <r_epik_Charging_Adjusted_Penalty>
12.0544

> <i_epik_Tot_Q>
-1

> <i_epik_Tot_abs_Q>
1

> <r_epik_Metal_State_Penalty>
2.01153

> <b_epik_Metal_Only>
1

> <s_lp_Force_Field>
OPLS_2005

> <r_lp_Energy>
16.8957

> <b_lp_Chiralities_Consistent>
1

> <s_lp_Variant>
AV-unprocessed.smi:2973-10

> <Gold.Version>
5.8.1

> <Gold.Id.Protein>
6NUR|6NUR_protein|mol2

> <Gold.PLP.Fitness>
46.1974

> <Gold.PLP.PLP>
-38.5569

> <Gold.PLP.part.hbond>
-3.0000

> <Gold.PLP.part.metal>
0.0000

> <Gold.PLP.part.buried>
-5.7659

> <Gold.PLP.part.nonpolar>
-30.7488

> <Gold.PLP.part.repulsive>
0.2467

> <Gold.PLP.ligand.clash>
0.0000

> <Gold.PLP.ligand.torsion>
0.7872

> <Gold.PLP.Chemscore.Hbond>
3.0546

> <Gold.PLP.Chemscore.CHOScore>
0.0000

> <Gold.PLP.Chemscore.Metal>
0.0000

> <Gold.Chemscore.Hbonds>
donor molecule, donor type, donor heavy atom, donor atom, acceptor molecule, acceptor atom, score
      P1  H  6896  6907       L1    25  1.00
      P1  H  7997  8009       L1     8  2.00
      P1  H 10752 10765       L1    10  0.14

> <Gold.PLP.Chemscore.Internal.Correction>
0.0512

> <Gold.Rescore>
     Score         DG    S(hbond)    S(metal)    S(lipo)     H(rot)  DE(clash)    DE(int)     intcor
     17.81     -18.83       2.18        0.00      91.47       1.81       0.00       1.02       ----

> <Gold.Chemscore.Fitness>
17.8078

> <Gold.Chemscore.DG>
-18.8258

> <Gold.Chemscore.ZeroCoef>
-5.4800

> <Gold.Chemscore.Hbond>
2.1782

> <Gold.Chemscore.Metal>
0.0000

> <Gold.Chemscore.Lipo>
91.4671

> <Gold.Chemscore.Internal_Hbond>
0.0000

> <Gold.Chemscore.DEClash>
0.0015

> <Gold.Chemscore.DEInternal>
1.0166

> <Gold.Chemscore.Rot>
1.8090

> <Gold.Chemscore.Internal.Correction>
   9.000000E+99

> <Gold.Chemscore.Hbonds>
donor molecule, donor type, donor heavy atom, donor atom, acceptor molecule, acceptor atom, score
      P1  H  6896  6907       L1    25  0.99
      P1  H  7997  8009       L1     8  0.74
      P1  H 10752 10765       L1    10  0.14

> <Gold.Chemscore.Hbond.Weighted>
-7.2752

> <Gold.Chemscore.Metal.Weighted>
-0.0000

> <Gold.Chemscore.Lipo.Weighted>
-10.7017

> <Gold.Chemscore.Internal_Hbond.Weighted>
0.0000

> <Gold.Chemscore.DEClash.Weighted>
0.0015

> <Gold.Chemscore.DEInternal.Weighted>
1.0166

> <Gold.Chemscore.Rot.Weighted>
4.6310

> <Gold.Chemscore.Internal.Correction.Weighted>
   9.000000E+99

> <Gold.Protein.RotatedTorsions>
[ 6907 6896 6895 6894 ] final  -11.32 input  -60.11 | X-H torsion
[ 7974 7965 7964 7962 ] final  113.34 input  175.53 | X-H torsion
[ 8008 7997 7996 7995 ] final  171.10 input   59.86 | X-H torsion
[ 10167 10162 10161 10158 ] final  123.20 input  -65.29 | X-H torsion
[ 10718 10713 10712 10709 ] final -170.78 input   66.30 | X-H torsion
[ 10763 10752 10751 10750 ] final -143.36 input  -60.55 | X-H torsion
[ 11005 11000 10999 10996 ] final  -54.65 input  -57.11 | X-H torsion

> <Gold.Protein.ActiveResidues>
 VAL166  LYS551  ARG553  GLY616  TRP617  ASP618  TYR619  PRO620  LYS621  CYS622 
 ASP623  PHE694  ASN695  SER759  ASP760  ASP761  ALA762  ILE779  LEU786  VAL792 
 PHE793  MET794  SER795  GLU796  ALA797  LYS798  CYS799  TRP800  GLU811  SER814 

> <Gold.Protein.RotatedAtoms>
  151.3880  135.0951  159.9516 H   0  0  0  0  0  0  0  0  0  0  0  0  # atno 6907 bound_to 6896
  152.5088  133.9007  159.7450 H   0  0  0  0  0  0  0  0  0  0  0  0  # atno 6908 bound_to 6896
  150.9455  133.6552  159.2811 H   0  0  0  0  0  0  0  0  0  0  0  0  # atno 6909 bound_to 6896
  145.2181  139.2874  143.4232 H   0  0  0  0  0  0  0  0  0  0  0  0  # atno 7974 bound_to 7965
  156.1303  140.1520  156.9075 H   0  0  0  0  0  0  0  0  0  0  0  0  # atno 8008 bound_to 7997
  154.4904  140.0853  156.7621 H   0  0  0  0  0  0  0  0  0  0  0  0  # atno 8009 bound_to 7997
  155.4268  140.3425  155.4278 H   0  0  0  0  0  0  0  0  0  0  0  0  # atno 8010 bound_to 7997
  139.5813  144.6987  151.3521 H   0  0  0  0  0  0  0  0  0  0  0  0  # atno 10167 bound_to 10162
  156.7312  130.9307  151.3104 H   0  0  0  0  0  0  0  0  0  0  0  0  # atno 10718 bound_to 10713
  154.8473  135.3470  154.6174 H   0  0  0  0  0  0  0  0  0  0  0  0  # atno 10763 bound_to 10752
  153.6783  135.6981  153.5130 H   0  0  0  0  0  0  0  0  0  0  0  0  # atno 10764 bound_to 10752
  153.2688  135.4299  155.0923 H   0  0  0  0  0  0  0  0  0  0  0  0  # atno 10765 bound_to 10752
  141.1036  133.6615  156.4352 H   0  0  0  0  0  0  0  0  0  0  0  0  # atno 11005 bound_to 11000
  146.3382  140.2479  142.8597 LP  0  0  0  0  0  0  0  0  0  0  0  0  # atno 17320 bound_to 7965
  144.9791  140.8442  143.5408 LP  0  0  0  0  0  0  0  0  0  0  0  0  # atno 17321 bound_to 7965
  140.7091  143.7437  150.7534 LP  0  0  0  0  0  0  0  0  0  0  0  0  # atno 17342 bound_to 10162
  140.0970  143.4823  152.2446 LP  0  0  0  0  0  0  0  0  0  0  0  0  # atno 17343 bound_to 10162
  157.6858  130.9184  150.0382 LP  0  0  0  0  0  0  0  0  0  0  0  0  # atno 17370 bound_to 10713
  156.1527  130.3642  149.9414 LP  0  0  0  0  0  0  0  0  0  0  0  0  # atno 17371 bound_to 10713
  140.4959  134.6531  157.5229 LP  0  0  0  0  0  0  0  0  0  0  0  0  # atno 17394 bound_to 11000
  139.9897  134.7005  155.9711 LP  0  0  0  0  0  0  0  0  0  0  0  0  # atno 17395 bound_to 11000

$$$$
