AV-unprocessed.smi:1590|AV-procd|sdf|6395|dock6
  -GOLD-   22720 7 33D 1   1.00000     0.00000
 Structure written by MMmdl.
 35 36  0  0  0  0  0  0  0  0  1 V2000
  153.5103  140.5524  160.9821 C   0  0  0  0  0  0  0  0  0  0  0  0
  153.5617  142.0794  160.8256 C   0  0  0  0  0  0  0  0  0  0  0  0
  153.0198  142.8133  162.0605 C   0  0  0  0  0  0  0  0  0  0  0  0
  152.8912  142.5368  159.5666 C   0  0  0  0  0  0  0  0  0  0  0  0
  153.1862  143.7027  158.9770 N   0  0  0  0  0  0  0  0  0  0  0  0
  152.4402  143.9180  157.8269 N   0  0  0  0  0  0  0  0  0  0  0  0
  151.5960  142.9069  157.5818 C   0  0  0  0  0  0  0  0  0  0  0  0
  150.7216  142.8627  156.4639 N   0  0  0  0  0  0  0  0  0  0  0  0
  150.0930  141.7959  155.9394 C   0  0  0  0  0  0  0  0  0  0  0  0
  150.2082  140.6356  156.3349 O   0  0  0  0  0  0  0  0  0  0  0  0
  149.3124  142.1511  154.9090 N   0  0  0  0  0  0  0  0  0  0  0  0
  148.4957  141.2335  154.1231 C   0  0  0  0  0  0  0  0  0  0  0  0
  147.0538  141.7222  154.0141 C   0  0  0  0  0  0  0  0  0  0  0  0
  146.7638  143.1540  153.5375 C   0  0  0  0  0  0  0  0  0  0  0  0
  145.5839  143.1923  154.5122 C   0  0  0  0  0  0  0  0  0  0  0  0
  146.2764  142.0711  155.2915 C   0  0  0  0  0  0  0  0  0  0  0  0
  151.6422  141.5984  158.7502 S   0  0  0  0  0  0  0  0  0  0  0  0
  153.9602  140.0553  160.1222 H   0  0  0  0  0  0  0  0  0  0  0  0
  152.4848  140.1943  161.0764 H   0  0  0  0  0  0  0  0  0  0  0  0
  154.0548  140.2311  161.8701 H   0  0  0  0  0  0  0  0  0  0  0  0
  154.6157  142.3481  160.7395 H   0  0  0  0  0  0  0  0  0  0  0  0
  153.1320  143.8928  161.9548 H   0  0  0  0  0  0  0  0  0  0  0  0
  153.5558  142.5134  162.9612 H   0  0  0  0  0  0  0  0  0  0  0  0
  151.9619  142.6011  162.2184 H   0  0  0  0  0  0  0  0  0  0  0  0
  150.5432  143.7509  156.0192 H   0  0  0  0  0  0  0  0  0  0  0  0
  149.2786  143.1259  154.6487 H   0  0  0  0  0  0  0  0  0  0  0  0
  148.9316  141.0970  153.1322 H   0  0  0  0  0  0  0  0  0  0  0  0
  148.5299  140.2566  154.6061 H   0  0  0  0  0  0  0  0  0  0  0  0
  146.4509  141.0280  153.4244 H   0  0  0  0  0  0  0  0  0  0  0  0
  147.5527  143.8589  153.8052 H   0  0  0  0  0  0  0  0  0  0  0  0
  146.4908  143.2367  152.4851 H   0  0  0  0  0  0  0  0  0  0  0  0
  145.4737  144.1286  155.0597 H   0  0  0  0  0  0  0  0  0  0  0  0
  144.6454  142.8744  154.0553 H   0  0  0  0  0  0  0  0  0  0  0  0
  145.6119  141.2841  155.6490 H   0  0  0  0  0  0  0  0  0  0  0  0
  146.9185  142.4483  156.0893 H   0  0  0  0  0  0  0  0  0  0  0  0
  1  2  1  0  0  0  0
  1 18  1  0  0  0  0
  1 19  1  0  0  0  0
  1 20  1  0  0  0  0
  2  3  1  0  0  0  0
  2  4  1  0  0  0  0
  2 21  1  0  0  0  0
  3 22  1  0  0  0  0
  3 23  1  0  0  0  0
  3 24  1  0  0  0  0
  4 17  1  0  0  0  0
  4  5  2  0  0  0  0
  5  6  1  0  0  0  0
  6  7  2  0  0  0  0
  7  8  1  0  0  0  0
  7 17  1  0  0  0  0
  8  9  1  0  0  0  0
  8 25  1  0  0  0  0
  9 10  2  0  0  0  0
  9 11  1  0  0  0  0
 11 12  1  0  0  0  0
 11 26  1  0  0  0  0
 12 13  1  0  0  0  0
 12 27  1  0  0  0  0
 12 28  1  0  0  0  0
 13 16  1  0  0  0  0
 13 14  1  0  0  0  0
 13 29  1  0  0  0  0
 14 15  1  0  0  0  0
 14 30  1  0  0  0  0
 14 31  1  0  0  0  0
 15 16  1  0  0  0  0
 15 32  1  0  0  0  0
 15 33  1  0  0  0  0
 16 34  1  0  0  0  0
 16 35  1  0  0  0  0
M  END
> <s_m_source_file>
AV-unprocessed.smi

> <i_m_source_file_index>
1590

> <i_lp_mmshare_version>
43012

> <i_f3d_flags>
0

> <s_epik_input>
W0NIM11bQ0hdKFtDSDNdKWMxbm5jKHMxKVtOSF1DKD1PKVtOSF1bQ0gyXVtDSF0yW0NIMl1bQ0gyXVtDSDJdMg==

> <s_epik_cmdline>
J2VwaWtfcHl0aG9uJywgJy1waCcsICc3LjAnLCAnLXRuJywgJzgnLCAnLW1hJywgJzIwMCcsICctbWV0YWxfYmluZGluZycsICctaW1hZScsICc8aW5maWxlLm1hZT4nLCAnLW9tYWUnLCAnPG91dGZpbGUubWFlPic=

> <r_lp_tautomer_probability>
1

> <r_epik_Ionization_Penalty>
0.000374979

> <r_epik_Ionization_Penalty_Charging>
0

> <r_epik_Ionization_Penalty_Neutral>
0.000374979

> <r_epik_State_Penalty>
-0

> <r_epik_Charging_Adjusted_Penalty>
0

> <i_epik_Tot_Q>
0

> <i_epik_Tot_abs_Q>
0

> <r_epik_Metal_State_Penalty>
0.186879

> <b_epik_Metal_Only>
0

> <s_lp_Force_Field>
OPLS_2005

> <r_lp_Energy>
5.08701

> <b_lp_Chiralities_Consistent>
1

> <s_lp_Variant>
AV-unprocessed.smi:1590-1

> <Gold.Version>
5.8.1

> <Gold.Id.Protein>
6NUR|6NUR_protein|mol2

> <Gold.PLP.Fitness>
44.4357

> <Gold.PLP.PLP>
-40.1432

> <Gold.PLP.part.hbond>
-2.0000

> <Gold.PLP.part.metal>
0.0000

> <Gold.PLP.part.buried>
-7.2540

> <Gold.PLP.part.nonpolar>
-30.7277

> <Gold.PLP.part.repulsive>
0.3727

> <Gold.PLP.ligand.clash>
0.0000

> <Gold.PLP.ligand.torsion>
0.6970

> <Gold.PLP.Chemscore.Hbond>
1.8560

> <Gold.PLP.Chemscore.CHOScore>
0.0000

> <Gold.PLP.Chemscore.Metal>
0.0000

> <Gold.Chemscore.Hbonds>
donor molecule, donor type, donor heavy atom, donor atom, acceptor molecule, acceptor atom, score
      L1  H     8    25       P1  8028  0.66
      L1  H    11    26       P1  8028  0.67

> <Gold.PLP.Chemscore.Internal.Correction>
0.1185

> <Gold.Rescore>
     Score         DG    S(hbond)    S(metal)    S(lipo)     H(rot)  DE(clash)    DE(int)     intcor
     15.90     -17.55       1.81        0.00      81.77       1.39       0.11       1.53       ----

> <Gold.Chemscore.Fitness>
15.9009

> <Gold.Chemscore.DG>
-17.5453

> <Gold.Chemscore.ZeroCoef>
-5.4800

> <Gold.Chemscore.Hbond>
1.8116

> <Gold.Chemscore.Metal>
0.0000

> <Gold.Chemscore.Lipo>
81.7744

> <Gold.Chemscore.Internal_Hbond>
0.0000

> <Gold.Chemscore.DEClash>
0.1139

> <Gold.Chemscore.DEInternal>
1.5305

> <Gold.Chemscore.Rot>
1.3879

> <Gold.Chemscore.Internal.Correction>
   9.000000E+99

> <Gold.Chemscore.Hbonds>
donor molecule, donor type, donor heavy atom, donor atom, acceptor molecule, acceptor atom, score
      L1  H     8    25       P1  8028  0.65
      L1  H    11    26       P1  8028  0.66

> <Gold.Chemscore.Hbond.Weighted>
-6.0506

> <Gold.Chemscore.Metal.Weighted>
-0.0000

> <Gold.Chemscore.Lipo.Weighted>
-9.5676

> <Gold.Chemscore.Internal_Hbond.Weighted>
0.0000

> <Gold.Chemscore.DEClash.Weighted>
0.1139

> <Gold.Chemscore.DEInternal.Weighted>
1.5305

> <Gold.Chemscore.Rot.Weighted>
3.5529

> <Gold.Chemscore.Internal.Correction.Weighted>
   9.000000E+99

> <Gold.Protein.RotatedTorsions>
[ 6907 6896 6895 6894 ] final  -99.21 input  -60.11 | X-H torsion
[ 7974 7965 7964 7962 ] final -114.82 input  175.53 | X-H torsion
[ 8008 7997 7996 7995 ] final -153.22 input   59.86 | X-H torsion
[ 10167 10162 10161 10158 ] final   10.27 input  -65.29 | X-H torsion
[ 10718 10713 10712 10709 ] final  117.04 input   66.30 | X-H torsion
[ 10763 10752 10751 10750 ] final -154.21 input  -60.55 | X-H torsion
[ 11005 11000 10999 10996 ] final  123.25 input  -57.11 | X-H torsion

> <Gold.Protein.ActiveResidues>
 VAL166  LYS551  ARG553  GLY616  TRP617  ASP618  TYR619  PRO620  LYS621  CYS622 
 ASP623  PHE694  ASN695  SER759  ASP760  ASP761  ALA762  ILE779  LEU786  VAL792 
 PHE793  MET794  SER795  GLU796  ALA797  LYS798  CYS799  TRP800  GLU811  SER814 

> <Gold.Protein.RotatedAtoms>
  150.7072  134.1075  159.3987 H   0  0  0  0  0  0  0  0  0  0  0  0  # atno 6907 bound_to 6896
  151.9062  135.0356  160.0520 H   0  0  0  0  0  0  0  0  0  0  0  0  # atno 6908 bound_to 6896
  152.2373  133.5071  159.5287 H   0  0  0  0  0  0  0  0  0  0  0  0  # atno 6909 bound_to 6896
  145.1157  140.8639  143.3843 H   0  0  0  0  0  0  0  0  0  0  0  0  # atno 7974 bound_to 7965
  155.6675  140.0729  157.2532 H   0  0  0  0  0  0  0  0  0  0  0  0  # atno 8008 bound_to 7997
  154.4130  140.1705  156.1894 H   0  0  0  0  0  0  0  0  0  0  0  0  # atno 8009 bound_to 7997
  155.9645  140.3367  155.6523 H   0  0  0  0  0  0  0  0  0  0  0  0  # atno 8010 bound_to 7997
  140.6204  143.8216  150.7168 H   0  0  0  0  0  0  0  0  0  0  0  0  # atno 10167 bound_to 10162
  157.6122  131.1032  150.7558 H   0  0  0  0  0  0  0  0  0  0  0  0  # atno 10718 bound_to 10713
  154.7874  135.3195  154.7855 H   0  0  0  0  0  0  0  0  0  0  0  0  # atno 10763 bound_to 10752
  153.8552  135.6858  153.4792 H   0  0  0  0  0  0  0  0  0  0  0  0  # atno 10764 bound_to 10752
  153.1531  135.4691  154.9604 H   0  0  0  0  0  0  0  0  0  0  0  0  # atno 10765 bound_to 10752
  139.9304  134.9641  156.8232 H   0  0  0  0  0  0  0  0  0  0  0  0  # atno 11005 bound_to 11000
  145.0797  139.2969  143.5790 LP  0  0  0  0  0  0  0  0  0  0  0  0  # atno 17320 bound_to 7965
  146.3524  140.0299  142.8651 LP  0  0  0  0  0  0  0  0  0  0  0  0  # atno 17321 bound_to 7965
  140.1805  143.4119  152.1936 LP  0  0  0  0  0  0  0  0  0  0  0  0  # atno 17342 bound_to 10162
  139.5434  144.7277  151.4661 LP  0  0  0  0  0  0  0  0  0  0  0  0  # atno 17343 bound_to 10162
  156.7933  130.4897  149.5381 LP  0  0  0  0  0  0  0  0  0  0  0  0  # atno 17370 bound_to 10713
  156.1229  130.6123  151.0221 LP  0  0  0  0  0  0  0  0  0  0  0  0  # atno 17371 bound_to 10713
  140.6217  133.9987  155.7621 LP  0  0  0  0  0  0  0  0  0  0  0  0  # atno 17394 bound_to 11000
  141.0889  133.9947  157.3268 LP  0  0  0  0  0  0  0  0  0  0  0  0  # atno 17395 bound_to 11000

$$$$
