AV-unprocessed.smi:199|AV-procd|sdf|1562|dock4
  -GOLD-   2262019433D 1   1.00000     0.00000
 Structure written by MMmdl.
 51 55  0  0  0  0  0  0  0  0  1 V2000
  148.9286  141.4048  153.7449 C   0  0  0  0  0  0  0  0  0  0  0  0
  149.5633  140.2485  154.5349 C   0  0  2  0  0  0  0  0  0  0  0  0
  150.9803  140.3215  154.4810 O   0  0  0  0  0  0  0  0  0  0  0  0
  151.4734  139.0585  154.8891 C   0  0  0  0  0  0  0  0  0  0  0  0
  150.5694  138.0854  154.1417 C   0  0  0  0  0  0  0  0  0  0  0  0
  149.2183  138.8053  154.0802 C   0  0  2  0  0  0  0  0  0  0  0  0
  148.7628  138.7741  152.7373 O   0  0  0  0  0  0  0  0  0  0  0  0
  148.1506  138.1203  154.9690 C   0  0  0  0  0  0  0  0  0  0  0  0
  147.5113  136.9793  154.3305 N   0  0  0  0  0  0  0  0  0  0  0  0
  146.3114  136.9765  153.6574 C   0  0  0  0  0  0  0  0  0  0  0  0
  145.9441  135.8186  153.1829 N   0  0  0  0  0  0  0  0  0  0  0  0
  146.9657  134.9515  153.5538 C   0  0  0  0  0  0  0  0  0  0  0  0
  147.2082  133.5570  153.3787 C   0  0  0  0  0  0  0  0  0  0  0  0
  146.3589  132.7065  152.7380 N   0  0  0  0  0  0  0  0  0  0  0  0
  145.1455  133.2109  152.1108 C   0  0  1  0  0  0  0  0  0  0  0  0
  145.6465  133.9179  150.8333 C   0  0  0  0  0  0  0  0  0  0  0  0
  146.8489  133.0384  150.4556 C   0  0  0  0  0  0  0  0  0  0  0  0
  146.7968  131.9663  151.5629 C   0  0  2  0  0  0  0  0  0  0  0  0
  145.6062  131.0198  151.2871 C   0  0  1  0  0  0  0  0  0  0  0  0
  145.6736  129.7007  152.0778 C   0  0  0  0  0  0  0  0  0  0  0  0
  145.8631  129.9604  153.4526 O   0  0  0  0  0  0  0  0  0  0  0  0
  144.4245  131.9127  151.7159 C   0  0  0  0  0  0  0  0  0  0  0  0
  148.3779  133.0652  153.8680 N   0  0  0  0  0  0  0  0  0  0  0  0
  149.2377  133.8630  154.5061 C   0  0  0  0  0  0  0  0  0  0  0  0
  149.1326  135.1676  154.7591 N   0  0  0  0  0  0  0  0  0  0  0  0
  147.9706  135.6755  154.2589 C   0  0  0  0  0  0  0  0  0  0  0  0
  147.8401  141.3500  153.7714 H   0  0  0  0  0  0  0  0  0  0  0  0
  149.2424  141.3981  152.7011 H   0  0  0  0  0  0  0  0  0  0  0  0
  149.2201  142.3658  154.1686 H   0  0  0  0  0  0  0  0  0  0  0  0
  149.3018  140.3668  155.5868 H   0  0  0  0  0  0  0  0  0  0  0  0
  152.5267  138.9346  154.6371 H   0  0  0  0  0  0  0  0  0  0  0  0
  151.3602  138.9495  155.9690 H   0  0  0  0  0  0  0  0  0  0  0  0
  150.9768  137.9277  153.1413 H   0  0  0  0  0  0  0  0  0  0  0  0
  150.5220  137.1112  154.6297 H   0  0  0  0  0  0  0  0  0  0  0  0
  149.4343  139.1428  152.1842 H   0  0  0  0  0  0  0  0  0  0  0  0
  148.5943  137.7833  155.9069 H   0  0  0  0  0  0  0  0  0  0  0  0
  147.3758  138.8381  155.2418 H   0  0  0  0  0  0  0  0  0  0  0  0
  145.7082  137.8643  153.5360 H   0  0  0  0  0  0  0  0  0  0  0  0
  144.5292  133.8482  152.7459 H   0  0  0  0  0  0  0  0  0  0  0  0
  144.8876  133.9567  150.0512 H   0  0  0  0  0  0  0  0  0  0  0  0
  145.9675  134.9388  151.0434 H   0  0  0  0  0  0  0  0  0  0  0  0
  146.7709  132.6176  149.4528 H   0  0  0  0  0  0  0  0  0  0  0  0
  147.7763  133.6104  150.5106 H   0  0  0  0  0  0  0  0  0  0  0  0
  147.7339  131.4231  151.6666 H   0  0  0  0  0  0  0  0  0  0  0  0
  145.5361  130.7871  150.2232 H   0  0  0  0  0  0  0  0  0  0  0  0
  144.7641  129.1142  151.9429 H   0  0  0  0  0  0  0  0  0  0  0  0
  146.5071  129.0921  151.7264 H   0  0  0  0  0  0  0  0  0  0  0  0
  145.0231  129.9224  153.8841 H   0  0  0  0  0  0  0  0  0  0  0  0
  143.9003  131.4938  152.5761 H   0  0  0  0  0  0  0  0  0  0  0  0
  143.6948  132.0614  150.9193 H   0  0  0  0  0  0  0  0  0  0  0  0
  150.1376  133.3872  154.8669 H   0  0  0  0  0  0  0  0  0  0  0  0
  1  2  1  0  0  0  0
  1 27  1  0  0  0  0
  1 28  1  0  0  0  0
  1 29  1  0  0  0  0
  2  6  1  0  0  0  0
  2  3  1  0  0  0  0
  2 30  1  0  0  0  0
  3  4  1  0  0  0  0
  4  5  1  0  0  0  0
  4 31  1  0  0  0  0
  4 32  1  0  0  0  0
  5  6  1  0  0  0  0
  5 33  1  0  0  0  0
  5 34  1  0  0  0  0
  6  7  1  0  0  0  0
  6  8  1  0  0  0  0
  7 35  1  0  0  0  0
  8  9  1  0  0  0  0
  8 36  1  0  0  0  0
  8 37  1  0  0  0  0
  9 26  1  0  0  0  0
  9 10  1  0  0  0  0
 10 11  2  0  0  0  0
 10 38  1  0  0  0  0
 11 12  1  0  0  0  0
 12 26  2  0  0  0  0
 12 13  1  0  0  0  0
 13 14  1  0  0  0  0
 13 23  2  0  0  0  0
 14 18  1  0  0  0  0
 14 15  1  0  0  0  0
 15 22  1  0  0  0  0
 15 16  1  0  0  0  0
 15 39  1  0  0  0  0
 16 17  1  0  0  0  0
 16 40  1  0  0  0  0
 16 41  1  0  0  0  0
 17 18  1  0  0  0  0
 17 42  1  0  0  0  0
 17 43  1  0  0  0  0
 18 19  1  0  0  0  0
 18 44  1  0  0  0  0
 19 20  1  0  0  0  0
 19 22  1  0  0  0  0
 19 45  1  0  0  0  0
 20 21  1  0  0  0  0
 20 46  1  0  0  0  0
 20 47  1  0  0  0  0
 21 48  1  0  0  0  0
 22 49  1  0  0  0  0
 22 50  1  0  0  0  0
 23 24  1  0  0  0  0
 24 25  2  0  0  0  0
 24 51  1  0  0  0  0
 25 26  1  0  0  0  0
M  END
> <s_m_source_file>
AV-unprocessed.smi

> <i_m_source_file_index>
199

> <i_lp_mmshare_version>
43012

> <i_f3d_flags>
0

> <s_epik_input>
W0NIMl0xW0NIMl1PW0NAQEhdKFtDSDNdKVtDQEBdMShbT0hdKVtDSDJdbihbY0hdbjIpYyhjMjMpbltjSF1uYzNOKFtDQEBIXTQ1KVtDQEhdKFtDSDJdW0NIMl00KVtDQEhdKFtDSDJdNSlbQ0gyXVtPSF0=

> <s_epik_cmdline>
J2VwaWtfcHl0aG9uJywgJy1waCcsICc3LjAnLCAnLXRuJywgJzgnLCAnLW1hJywgJzIwMCcsICctbWV0YWxfYmluZGluZycsICctaW1hZScsICc8aW5maWxlLm1hZT4nLCAnLW9tYWUnLCAnPG91dGZpbGUubWFlPic=

> <r_lp_tautomer_probability>
1

> <r_epik_Ionization_Penalty>
0.00583903

> <r_epik_Ionization_Penalty_Charging>
0

> <r_epik_Ionization_Penalty_Neutral>
0.00583903

> <r_epik_State_Penalty>
-0

> <r_epik_Charging_Adjusted_Penalty>
0

> <i_epik_Tot_Q>
0

> <i_epik_Tot_abs_Q>
0

> <r_epik_Metal_State_Penalty>
-0

> <b_epik_Metal_Only>
0

> <s_lp_Force_Field>
OPLS_2005

> <r_lp_Energy>
83.6045

> <b_lp_Chiralities_Consistent>
1

> <s_lp_Variant>
AV-unprocessed.smi:199-3

> <Gold.Version>
5.8.1

> <Gold.Id.Protein>
6NUR|6NUR_protein|mol2

> <Gold.PLP.Fitness>
42.3264

> <Gold.PLP.PLP>
-34.6419

> <Gold.PLP.part.hbond>
-3.7424

> <Gold.PLP.part.metal>
0.0000

> <Gold.PLP.part.buried>
1.6716

> <Gold.PLP.part.nonpolar>
-31.9731

> <Gold.PLP.part.repulsive>
0.5315

> <Gold.PLP.ligand.clash>
0.0000

> <Gold.PLP.ligand.torsion>
0.6864

> <Gold.PLP.Chemscore.Hbond>
2.9913

> <Gold.PLP.Chemscore.CHOScore>
0.0000

> <Gold.PLP.Chemscore.Metal>
0.0000

> <Gold.Chemscore.Hbonds>
donor molecule, donor type, donor heavy atom, donor atom, acceptor molecule, acceptor atom, score
      L1  H     7    35       P1  7957  0.47
      L1  H    21    48       P1 10956  1.00
      P1  H  7989  7998       L1     3  0.42

> <Gold.PLP.Chemscore.Internal.Correction>
0.0835

> <Gold.Rescore>
     Score         DG    S(hbond)    S(metal)    S(lipo)     H(rot)  DE(clash)    DE(int)     intcor
     11.70     -15.25       2.34        0.00      84.08       3.07       0.42       3.13       ----

> <Gold.Chemscore.Fitness>
11.7002

> <Gold.Chemscore.DG>
-15.2492

> <Gold.Chemscore.ZeroCoef>
-5.4800

> <Gold.Chemscore.Hbond>
2.3350

> <Gold.Chemscore.Metal>
0.0000

> <Gold.Chemscore.Lipo>
84.0768

> <Gold.Chemscore.Internal_Hbond>
0.0000

> <Gold.Chemscore.DEClash>
0.4217

> <Gold.Chemscore.DEInternal>
3.1274

> <Gold.Chemscore.Rot>
3.0729

> <Gold.Chemscore.Internal.Correction>
   9.000000E+99

> <Gold.Chemscore.Hbonds>
donor molecule, donor type, donor heavy atom, donor atom, acceptor molecule, acceptor atom, score
      L1  H     7    35       P1  7957  0.41
      L1  H    21    48       P1 10956  0.25
      P1  H  7989  7998       L1     3  0.37

> <Gold.Chemscore.Hbond.Weighted>
-7.7989

> <Gold.Chemscore.Metal.Weighted>
-0.0000

> <Gold.Chemscore.Lipo.Weighted>
-9.8370

> <Gold.Chemscore.Internal_Hbond.Weighted>
0.0000

> <Gold.Chemscore.DEClash.Weighted>
0.4217

> <Gold.Chemscore.DEInternal.Weighted>
3.1274

> <Gold.Chemscore.Rot.Weighted>
7.8667

> <Gold.Chemscore.Internal.Correction.Weighted>
   9.000000E+99

> <Gold.Protein.RotatedTorsions>
[ 6907 6896 6895 6894 ] final   55.97 input  -60.11 | X-H torsion
[ 7974 7965 7964 7962 ] final  175.68 input  175.53 | X-H torsion
[ 8008 7997 7996 7995 ] final -164.96 input   59.86 | X-H torsion
[ 10167 10162 10161 10158 ] final  -47.95 input  -65.29 | X-H torsion
[ 10718 10713 10712 10709 ] final  137.04 input   66.30 | X-H torsion
[ 10763 10752 10751 10750 ] final  -78.15 input  -60.55 | X-H torsion
[ 11005 11000 10999 10996 ] final  -87.64 input  -57.11 | X-H torsion

> <Gold.Protein.ActiveResidues>
 VAL166  LYS551  ARG553  GLY616  TRP617  ASP618  TYR619  PRO620  LYS621  CYS622 
 ASP623  PHE694  ASN695  SER759  ASP760  ASP761  ALA762  ILE779  LEU786  VAL792 
 PHE793  MET794  SER795  GLU796  ALA797  LYS798  CYS799  TRP800  GLU811  SER814 

> <Gold.Protein.RotatedAtoms>
  152.3591  134.6898  160.0212 H   0  0  0  0  0  0  0  0  0  0  0  0  # atno 6907 bound_to 6896
  151.7227  133.3309  159.3327 H   0  0  0  0  0  0  0  0  0  0  0  0  # atno 6908 bound_to 6896
  150.7592  134.6367  159.6260 H   0  0  0  0  0  0  0  0  0  0  0  0  # atno 6909 bound_to 6896
  144.7197  139.9983  143.6440 H   0  0  0  0  0  0  0  0  0  0  0  0  # atno 7974 bound_to 7965
  155.8430  140.0951  157.1723 H   0  0  0  0  0  0  0  0  0  0  0  0  # atno 8008 bound_to 7997
  154.3982  140.1397  156.3813 H   0  0  0  0  0  0  0  0  0  0  0  0  # atno 8009 bound_to 7997
  155.8044  140.3452  155.5423 H   0  0  0  0  0  0  0  0  0  0  0  0  # atno 8010 bound_to 7997
  140.6752  143.2761  151.4000 H   0  0  0  0  0  0  0  0  0  0  0  0  # atno 10167 bound_to 10162
  157.4403  131.1057  151.0151 H   0  0  0  0  0  0  0  0  0  0  0  0  # atno 10718 bound_to 10713
  154.5222  135.5739  153.6690 H   0  0  0  0  0  0  0  0  0  0  0  0  # atno 10763 bound_to 10752
  152.9920  135.6184  154.2739 H   0  0  0  0  0  0  0  0  0  0  0  0  # atno 10764 bound_to 10752
  154.2661  135.2854  155.2737 H   0  0  0  0  0  0  0  0  0  0  0  0  # atno 10765 bound_to 10752
  141.1614  133.7523  156.9336 H   0  0  0  0  0  0  0  0  0  0  0  0  # atno 11005 bound_to 11000
  146.0356  139.3374  143.0728 LP  0  0  0  0  0  0  0  0  0  0  0  0  # atno 17320 bound_to 7965
  145.8399  140.9586  143.0805 LP  0  0  0  0  0  0  0  0  0  0  0  0  # atno 17321 bound_to 7965
  139.6041  144.1233  152.2230 LP  0  0  0  0  0  0  0  0  0  0  0  0  # atno 17342 bound_to 10162
  140.0627  144.5844  150.7251 LP  0  0  0  0  0  0  0  0  0  0  0  0  # atno 17343 bound_to 10162
  157.1017  130.5984  149.5461 LP  0  0  0  0  0  0  0  0  0  0  0  0  # atno 17370 bound_to 10713
  155.9946  130.5010  150.7426 LP  0  0  0  0  0  0  0  0  0  0  0  0  # atno 17371 bound_to 10713
  140.1369  134.9319  157.2414 LP  0  0  0  0  0  0  0  0  0  0  0  0  # atno 17394 bound_to 11000
  140.2884  134.3269  155.7322 LP  0  0  0  0  0  0  0  0  0  0  0  0  # atno 17395 bound_to 11000

$$$$
