#       Name:                AV-unprocessed.smi:1557
#       Creating user name   scv26
#       Creation time:       Fri Mar 27 06:46:15 2020


#       File generated by GOLD software.
#

@<TRIPOS>MOLECULE
AV-unprocessed.smi:1557
    48    49     1
SMALL
NO_CHARGES


@<TRIPOS>ATOM
      1 ****        -3.2888   4.4577   0.2178 C.3            1 S1                 0.0000
      2 ****        -1.8094   4.8221   0.3624 C.3            1 S1                 0.0000
      3 ****        -1.0371   3.6292   0.2690 O.3            1 S1                 0.0000
      4 ****         0.3384   3.7165   0.3725 C.ar           1 S1                 0.0000
      5 ****         0.8934   4.9389   0.5679 N.ar           1 S1                 0.0000
      6 ****         2.2349   5.0264   0.6696 C.ar           1 S1                 0.0000
      7 ****         3.0871   3.9111   0.5833 C.ar           1 S1                 0.0000
      8 ****         2.5143   2.6419   0.3803 C.ar           1 S1                 0.0000
      9 ****         1.1056   2.5318   0.2709 C.ar           1 S1                 0.0000
     10 ****         0.4030   1.3099   0.0634 N.am           1 S1                 0.0000
     11 ****         0.8696   0.0558  -0.0646 C.2            1 S1                 0.0000
     12 ****         2.0519  -0.2811  -0.0161 O.2            1 S1                 0.0000
     13 ****        -0.1360  -0.8110  -0.2530 N.am           1 S1                 0.0000
     14 ****         0.0037  -2.2552  -0.4483 C.3            1 S1                 0.0000
     15 ****         0.1170  -2.9676   0.9182 C.3            1 S1                 0.0000
     16 ****         0.7947  -4.3456   0.8508 C.3            1 S1                 0.0000
     17 ****         0.0471  -5.3927   0.0119 C.3            1 S1                 0.0000
     18 ****        -0.0246  -5.0484  -1.4856 C.3            1 S1                 0.0000
     19 ****        -1.0570  -4.0642  -1.7858 N.am           1 S1                 0.0000
     20 ****        -1.1205  -2.7959  -1.3522 C.2            1 S1                 0.0000
     21 ****        -2.0683  -2.0760  -1.6661 O.2            1 S1                 0.0000
     22 ****        -3.9168   5.3467   0.2781 H              1 S1                 0.0000
     23 ****        -3.6018   3.7722   1.0057 H              1 S1                 0.0000
     24 ****        -3.4810   3.9767  -0.7414 H              1 S1                 0.0000
     25 ****        -1.5264   5.5219  -0.4255 H              1 S1                 0.0000
     26 ****        -1.6445   5.3096   1.3246 H              1 S1                 0.0000
     27 ****         2.6412   6.0149   0.8244 H              1 S1                 0.0000
     28 ****         4.1574   4.0265   0.6702 H              1 S1                 0.0000
     29 ****         3.1734   1.7920   0.3139 H              1 S1                 0.0000
     30 ****        -0.6003   1.4079   0.0026 H              1 S1                 0.0000
     31 ****        -1.0768  -0.4458  -0.2858 H              1 S1                 0.0000
     32 ****         0.9346  -2.4109  -0.9969 H              1 S1                 0.0000
     33 ****         0.7045  -2.3533   1.6021 H              1 S1                 0.0000
     34 ****        -0.8686  -3.0567   1.3776 H              1 S1                 0.0000
     35 ****         1.8107  -4.2324   0.4706 H              1 S1                 0.0000
     36 ****         0.9001  -4.7277   1.8665 H              1 S1                 0.0000
     37 ****         0.5705  -6.3432   0.1192 H              1 S1                 0.0000
     38 ****        -0.9541  -5.5572   0.4128 H              1 S1                 0.0000
     39 ****         0.9431  -4.7127  -1.8608 H              1 S1                 0.0000
     40 ****        -0.2731  -5.9496  -2.0463 H              1 S1                 0.0000
     41 ****        -1.8107  -4.3812  -2.3785 H              1 S1                 0.0000
     42 ****        -1.2394   3.2169  -0.6193 LP             1 S1                 0.0000
     43 ****        -1.3486   3.0196   0.9980 LP             1 S1                 0.0000
     44 ****         0.3208   5.7560   0.6349 LP             1 S1                 0.0000
     45 ****         2.7624   0.4073   0.1300 LP             1 S1                 0.0000
     46 ****         2.3024  -1.2434  -0.1227 LP             1 S1                 0.0000
     47 ****        -2.1120  -1.1338  -1.3340 LP             1 S1                 0.0000
     48 ****        -2.7947  -2.4334  -2.2532 LP             1 S1                 0.0000
@<TRIPOS>BOND
    1    1    2 1     
    2    1   22 1     
    3    1   23 1     
    4    1   24 1     
    5    2    3 1     
    6    2   25 1     
    7    2   26 1     
    8    3    4 1     
    9    4    9 ar    
   10    4    5 ar    
   11    5    6 ar    
   12    6    7 ar    
   13    6   27 1     
   14    7    8 ar    
   15    7   28 1     
   16    8    9 ar    
   17    8   29 1     
   18    9   10 1     
   19   10   11 am    
   20   10   30 1     
   21   11   12 2     
   22   11   13 am    
   23   13   14 1     
   24   13   31 1     
   25   14   20 1     
   26   14   15 1     
   27   14   32 1     
   28   15   16 1     
   29   15   33 1     
   30   15   34 1     
   31   16   17 1     
   32   16   35 1     
   33   16   36 1     
   34   17   18 1     
   35   17   37 1     
   36   17   38 1     
   37   18   19 1     
   38   18   39 1     
   39   18   40 1     
   40   19   20 am    
   41   19   41 1     
   42   20   21 2     
   43    3   42 1     
   44    3   43 1     
   45    5   44 1     
   46   12   45 1     
   47   12   46 1     
   48   21   47 1     
   49   21   48 1     
@<TRIPOS>SUBSTRUCTURE
      1 S1             1
@<TRIPOS>SET
LONE_PAIRS      STATIC     ATOMS    <user>   **** ""
7 42 43 44 45 46 47 48
DONOR_HYDROGENS      STATIC     ATOMS    <user>   **** ""
3 30 31 41
ATOM$BLUE        STATIC     ATOMS    COLORGROUP SYSTEM
7 42 43 44 45 46 47 48
ATOM$RED        STATIC     ATOMS    COLORGROUP SYSTEM
3 30 31 41
