AV-unprocessed.smi:1165|AV-procd|sdf|4928|dock2
  -GOLD-   22720 3513D 1   1.00000     0.00000
 Structure written by MMmdl.
 41 42  0  0  0  0  0  0  0  0  1 V2000
  153.0639  138.7703  154.3921 C   0  0  0  0  0  0  0  0  0  0  0  0
  151.6720  138.5358  154.9885 C   0  0  2  0  0  0  0  0  0  0  0  0
  151.2259  137.0705  154.8473 C   0  0  0  0  0  0  0  0  0  0  0  0
  149.8387  136.9049  155.3077 N   0  0  0  0  0  0  0  0  0  0  0  0
  149.2748  135.3006  155.6356 S   0  0  0  0  0  0  0  0  0  0  0  0
  150.4121  134.3726  155.5395 O   0  0  0  0  0  0  0  0  0  0  0  0
  148.4236  135.3469  156.8340 O   0  0  0  0  0  0  0  0  0  0  0  0
  148.2687  135.0638  154.2538 N   0  0  0  0  0  0  0  0  0  0  0  0
  147.6446  133.7602  154.0305 C   0  0  0  0  0  0  0  0  0  0  0  0
  147.8402  133.3183  152.5756 C   0  0  0  0  0  0  0  0  0  0  0  0
  146.5909  133.5361  151.7456 C   0  0  0  0  0  0  0  0  0  0  0  0
  145.8794  132.4448  151.2061 C   0  0  0  0  0  0  0  0  0  0  0  0
  144.7285  132.7002  150.4357 C   0  0  0  0  0  0  0  0  0  0  0  0
  144.3382  134.0396  150.2363 C   0  0  0  0  0  0  0  0  0  0  0  0
  145.0125  135.0924  150.7470 N   0  0  0  0  0  0  0  0  0  0  0  0
  146.1146  134.8388  151.4852 C   0  0  0  0  0  0  0  0  0  0  0  0
  148.9024  137.8392  154.6664 C   0  0  0  0  0  0  0  0  0  0  0  0
  149.4069  139.2919  154.7660 C   0  0  1  0  0  0  0  0  0  0  0  0
  149.2212  139.9042  156.1664 C   0  0  0  0  0  0  0  0  0  0  0  0
  150.7550  139.3881  154.3111 O   0  0  0  0  0  0  0  0  0  0  0  0
  153.8124  138.1487  154.8841 H   0  0  0  0  0  0  0  0  0  0  0  0
  153.3669  139.8109  154.5098 H   0  0  0  0  0  0  0  0  0  0  0  0
  153.0816  138.5369  153.3272 H   0  0  0  0  0  0  0  0  0  0  0  0
  151.7127  138.8025  156.0448 H   0  0  0  0  0  0  0  0  0  0  0  0
  151.2915  136.7490  153.8070 H   0  0  0  0  0  0  0  0  0  0  0  0
  151.8915  136.4261  155.4211 H   0  0  0  0  0  0  0  0  0  0  0  0
  148.6427  135.4976  153.4102 H   0  0  0  0  0  0  0  0  0  0  0  0
  148.0877  133.0283  154.7065 H   0  0  0  0  0  0  0  0  0  0  0  0
  146.5832  133.8248  154.2727 H   0  0  0  0  0  0  0  0  0  0  0  0
  148.6698  133.8654  152.1251 H   0  0  0  0  0  0  0  0  0  0  0  0
  148.1092  132.2618  152.5370 H   0  0  0  0  0  0  0  0  0  0  0  0
  146.2091  131.4303  151.3764 H   0  0  0  0  0  0  0  0  0  0  0  0
  144.1589  131.8891  150.0067 H   0  0  0  0  0  0  0  0  0  0  0  0
  143.4610  134.2715  149.6505 H   0  0  0  0  0  0  0  0  0  0  0  0
  146.6336  135.7014  151.8768 H   0  0  0  0  0  0  0  0  0  0  0  0
  148.7925  137.5538  153.6195 H   0  0  0  0  0  0  0  0  0  0  0  0
  147.9155  137.7540  155.1215 H   0  0  0  0  0  0  0  0  0  0  0  0
  148.8137  139.8955  154.0787 H   0  0  0  0  0  0  0  0  0  0  0  0
  148.1642  139.9551  156.4280 H   0  0  0  0  0  0  0  0  0  0  0  0
  149.6189  140.9186  156.2037 H   0  0  0  0  0  0  0  0  0  0  0  0
  149.7160  139.3203  156.9423 H   0  0  0  0  0  0  0  0  0  0  0  0
  1  2  1  0  0  0  0
  1 21  1  0  0  0  0
  1 22  1  0  0  0  0
  1 23  1  0  0  0  0
  2 20  1  0  0  0  0
  2  3  1  0  0  0  0
  2 24  1  0  0  0  0
  3  4  1  0  0  0  0
  3 25  1  0  0  0  0
  3 26  1  0  0  0  0
  4  5  1  0  0  0  0
  4 17  1  0  0  0  0
  5  6  2  0  0  0  0
  5  7  2  0  0  0  0
  5  8  1  0  0  0  0
  8  9  1  0  0  0  0
  8 27  1  0  0  0  0
  9 10  1  0  0  0  0
  9 28  1  0  0  0  0
  9 29  1  0  0  0  0
 10 11  1  0  0  0  0
 10 30  1  0  0  0  0
 10 31  1  0  0  0  0
 11 16  1  0  0  0  0
 11 12  2  0  0  0  0
 12 13  1  0  0  0  0
 12 32  1  0  0  0  0
 13 14  2  0  0  0  0
 13 33  1  0  0  0  0
 14 15  1  0  0  0  0
 14 34  1  0  0  0  0
 15 16  2  0  0  0  0
 16 35  1  0  0  0  0
 17 18  1  0  0  0  0
 17 36  1  0  0  0  0
 17 37  1  0  0  0  0
 18 19  1  0  0  0  0
 18 20  1  0  0  0  0
 18 38  1  0  0  0  0
 19 39  1  0  0  0  0
 19 40  1  0  0  0  0
 19 41  1  0  0  0  0
M  END
> <s_m_source_file>
AV-unprocessed.smi

> <i_m_source_file_index>
1165

> <i_lp_mmshare_version>
43012

> <i_f3d_flags>
0

> <s_epik_input>
W0NIM11bQ0BASF0xW0NIMl1OKFtDSDJdW0NASF0oTzEpW0NIM10pUyg9TykoPU8pW05IXVtDSDJdW0NIMl1jMltjSF1bY0hdW2NIXW5bY0hdMg==

> <s_epik_cmdline>
J2VwaWtfcHl0aG9uJywgJy1waCcsICc3LjAnLCAnLXRuJywgJzgnLCAnLW1hJywgJzIwMCcsICctbWV0YWxfYmluZGluZycsICctaW1hZScsICc8aW5maWxlLm1hZT4nLCAnLW9tYWUnLCAnPG91dGZpbGUubWFlPic=

> <r_epik_Ionization_Penalty>
0.0861056

> <r_epik_Ionization_Penalty_Charging>
0

> <r_epik_Ionization_Penalty_Neutral>
0.0861056

> <r_epik_State_Penalty>
0.0574425

> <r_epik_Charging_Adjusted_Penalty>
0.0574425

> <i_epik_Tot_Q>
0

> <i_epik_Tot_abs_Q>
0

> <r_epik_Metal_State_Penalty>
0.317425

> <b_epik_Metal_Only>
0

> <s_lp_Force_Field>
OPLS_2005

> <r_lp_Energy>
8.25328

> <b_lp_Chiralities_Consistent>
1

> <s_lp_Variant>
AV-unprocessed.smi:1165-1

> <Gold.Version>
5.8.1

> <Gold.Id.Protein>
6NUR|6NUR_protein|mol2

> <Gold.PLP.Fitness>
39.2246

> <Gold.PLP.PLP>
-29.3136

> <Gold.PLP.part.hbond>
-2.0000

> <Gold.PLP.part.metal>
0.0000

> <Gold.PLP.part.buried>
-3.3322

> <Gold.PLP.part.nonpolar>
-23.5534

> <Gold.PLP.part.repulsive>
0.5674

> <Gold.PLP.ligand.clash>
0.0000

> <Gold.PLP.ligand.torsion>
1.4812

> <Gold.PLP.Chemscore.Hbond>
2.0000

> <Gold.PLP.Chemscore.CHOScore>
2.0000

> <Gold.PLP.Chemscore.Metal>
0.0000

> <Gold.Chemscore.Hbonds>
donor molecule, donor type, donor heavy atom, donor atom, acceptor molecule, acceptor atom, score
      L1  H     8    27       P1  7948  1.00
      P1  H  7989  7998       L1    20  1.00
      L1  C    14    34       P1 10186  1.00
      L1  C    16    35       P1  7948  0.98

> <Gold.PLP.Chemscore.Internal.Correction>
0.8734

> <Gold.Rescore>
     Score         DG    S(hbond)    S(metal)    S(lipo)     H(rot)  DE(clash)    DE(int)     intcor
     15.27     -16.90       1.93        0.00      79.75       1.71       0.11       1.52       ----

> <Gold.Chemscore.Fitness>
15.2708

> <Gold.Chemscore.DG>
-16.9013

> <Gold.Chemscore.ZeroCoef>
-5.4800

> <Gold.Chemscore.Hbond>
1.9337

> <Gold.Chemscore.Metal>
0.0000

> <Gold.Chemscore.Lipo>
79.7453

> <Gold.Chemscore.Internal_Hbond>
0.0000

> <Gold.Chemscore.DEClash>
0.1079

> <Gold.Chemscore.DEInternal>
1.5226

> <Gold.Chemscore.Rot>
1.7060

> <Gold.Chemscore.Internal.Correction>
   9.000000E+99

> <Gold.Chemscore.Hbonds>
donor molecule, donor type, donor heavy atom, donor atom, acceptor molecule, acceptor atom, score
      L1  H     8    27       P1  7948  0.96
      P1  H  7989  7998       L1    20  0.82

> <Gold.Chemscore.Hbond.Weighted>
-6.4585

> <Gold.Chemscore.Metal.Weighted>
-0.0000

> <Gold.Chemscore.Lipo.Weighted>
-9.3302

> <Gold.Chemscore.Internal_Hbond.Weighted>
0.0000

> <Gold.Chemscore.DEClash.Weighted>
0.1079

> <Gold.Chemscore.DEInternal.Weighted>
1.5226

> <Gold.Chemscore.Rot.Weighted>
4.3674

> <Gold.Chemscore.Internal.Correction.Weighted>
   9.000000E+99

> <Gold.Protein.RotatedTorsions>
[ 6907 6896 6895 6894 ] final    5.56 input  -60.11 | X-H torsion
[ 7974 7965 7964 7962 ] final -176.29 input  175.53 | X-H torsion
[ 8008 7997 7996 7995 ] final   23.53 input   59.86 | X-H torsion
[ 10167 10162 10161 10158 ] final    7.37 input  -65.29 | X-H torsion
[ 10718 10713 10712 10709 ] final -166.85 input   66.30 | X-H torsion
[ 10763 10752 10751 10750 ] final  -55.83 input  -60.55 | X-H torsion
[ 11005 11000 10999 10996 ] final   95.94 input  -57.11 | X-H torsion

> <Gold.Protein.ActiveResidues>
 VAL166  LYS551  ARG553  GLY616  TRP617  ASP618  TYR619  PRO620  LYS621  CYS622 
 ASP623  PHE694  ASN695  SER759  ASP760  ASP761  ALA762  ILE779  LEU786  VAL792 
 PHE793  MET794  SER795  GLU796  ALA797  LYS798  CYS799  TRP800  GLU811  SER814 

> <Gold.Protein.RotatedAtoms>
  151.6594  135.0991  160.0176 H   0  0  0  0  0  0  0  0  0  0  0  0  # atno 6907 bound_to 6896
  152.3955  133.6736  159.6281 H   0  0  0  0  0  0  0  0  0  0  0  0  # atno 6908 bound_to 6896
  150.7863  133.8798  159.3323 H   0  0  0  0  0  0  0  0  0  0  0  0  # atno 6909 bound_to 6896
  144.7127  140.1193  143.6406 H   0  0  0  0  0  0  0  0  0  0  0  0  # atno 7974 bound_to 7965
  154.9824  140.3103  155.4941 H   0  0  0  0  0  0  0  0  0  0  0  0  # atno 8008 bound_to 7997
  156.2951  140.2264  156.4863 H   0  0  0  0  0  0  0  0  0  0  0  0  # atno 8009 bound_to 7997
  154.7777  140.0448  157.1091 H   0  0  0  0  0  0  0  0  0  0  0  0  # atno 8010 bound_to 7997
  140.6376  143.7850  150.7381 H   0  0  0  0  0  0  0  0  0  0  0  0  # atno 10167 bound_to 10162
  156.6739  130.9095  151.3047 H   0  0  0  0  0  0  0  0  0  0  0  0  # atno 10718 bound_to 10713
  154.1970  135.6417  153.5076 H   0  0  0  0  0  0  0  0  0  0  0  0  # atno 10763 bound_to 10752
  153.0021  135.5442  154.6355 H   0  0  0  0  0  0  0  0  0  0  0  0  # atno 10764 bound_to 10752
  154.5758  135.2921  155.0755 H   0  0  0  0  0  0  0  0  0  0  0  0  # atno 10765 bound_to 10752
  139.8785  134.8925  156.4086 H   0  0  0  0  0  0  0  0  0  0  0  0  # atno 11005 bound_to 11000
  145.9385  139.2653  143.1282 LP  0  0  0  0  0  0  0  0  0  0  0  0  # atno 17320 bound_to 7965
  145.9448  140.8953  143.0289 LP  0  0  0  0  0  0  0  0  0  0  0  0  # atno 17321 bound_to 7965
  140.1475  143.4387  152.2153 LP  0  0  0  0  0  0  0  0  0  0  0  0  # atno 17342 bound_to 10162
  139.5585  144.7390  151.4222 LP  0  0  0  0  0  0  0  0  0  0  0  0  # atno 17343 bound_to 10162
  157.7067  130.9394  150.0956 LP  0  0  0  0  0  0  0  0  0  0  0  0  # atno 17370 bound_to 10713
  156.1918  130.3655  149.8900 LP  0  0  0  0  0  0  0  0  0  0  0  0  # atno 17371 bound_to 10713
  140.9217  133.7641  155.9914 LP  0  0  0  0  0  0  0  0  0  0  0  0  # atno 17394 bound_to 11000
  140.8432  134.3041  157.5305 LP  0  0  0  0  0  0  0  0  0  0  0  0  # atno 17395 bound_to 11000

$$$$
