AV-unprocessed.smi:433|AV-procd|sdf|2551|dock10
  -GOLD-   2262022513D 1   1.00000     0.00000
 Structure written by MMmdl.
 36 37  0  0  0  0  0  0  0  0  1 V2000
  146.2784  141.9150  156.8099 C   0  0  0  0  0  0  0  0  0  0  0  0
  147.4477  141.3907  156.1652 N   0  0  0  0  0  0  0  0  0  0  0  0
  147.7755  141.6986  154.8594 C   0  0  0  0  0  0  0  0  0  0  0  0
  148.8663  141.1968  154.2405 C   0  0  0  0  0  0  0  0  0  0  0  0
  149.7725  140.2893  154.9360 C   0  0  0  0  0  0  0  0  0  0  0  0
  150.7625  139.7884  154.4014 O   0  0  0  0  0  0  0  0  0  0  0  0
  149.4173  140.0108  156.2788 N   0  0  0  0  0  0  0  0  0  0  0  0
  150.2612  139.0963  157.0276 C   0  0  0  0  0  0  0  0  0  0  0  0
  151.6552  139.6851  157.3431 C   0  0  1  0  0  0  0  0  0  0  0  0
  152.4998  139.4803  156.2288 O   0  0  0  0  0  0  0  0  0  0  0  0
  151.6026  141.1973  157.6058 C   0  0  0  0  0  0  0  0  0  0  0  0
  152.3537  141.4740  158.7802 O   0  0  0  0  0  0  0  0  0  0  0  0
  152.2522  142.7265  159.3443 C   0  0  0  0  0  0  0  0  0  0  0  0
  151.9833  143.7995  158.4698 C   0  0  0  0  0  0  0  0  0  0  0  0
  151.8608  145.1144  158.9585 C   0  0  0  0  0  0  0  0  0  0  0  0
  152.0061  145.3694  160.3345 C   0  0  0  0  0  0  0  0  0  0  0  0
  152.2749  144.3079  161.2186 C   0  0  0  0  0  0  0  0  0  0  0  0
  152.3981  142.9925  160.7294 C   0  0  0  0  0  0  0  0  0  0  0  0
  148.2634  140.5209  156.9207 C   0  0  0  0  0  0  0  0  0  0  0  0
  147.9716  140.2169  158.0811 O   0  0  0  0  0  0  0  0  0  0  0  0
  145.7790  142.5849  156.1091 H   0  0  0  0  0  0  0  0  0  0  0  0
  146.6060  142.4610  157.6964 H   0  0  0  0  0  0  0  0  0  0  0  0
  145.6357  141.0692  157.0605 H   0  0  0  0  0  0  0  0  0  0  0  0
  147.1324  142.3653  154.3034 H   0  0  0  0  0  0  0  0  0  0  0  0
  149.0700  141.4674  153.2150 H   0  0  0  0  0  0  0  0  0  0  0  0
  149.7225  138.7768  157.9218 H   0  0  0  0  0  0  0  0  0  0  0  0
  150.3357  138.1850  156.4315 H   0  0  0  0  0  0  0  0  0  0  0  0
  152.1028  139.1929  158.2078 H   0  0  0  0  0  0  0  0  0  0  0  0
  152.0212  138.9928  155.5754 H   0  0  0  0  0  0  0  0  0  0  0  0
  152.0401  141.7342  156.7621 H   0  0  0  0  0  0  0  0  0  0  0  0
  150.5678  141.5253  157.7189 H   0  0  0  0  0  0  0  0  0  0  0  0
  151.8703  143.6112  157.4120 H   0  0  0  0  0  0  0  0  0  0  0  0
  151.6547  145.9266  158.2770 H   0  0  0  0  0  0  0  0  0  0  0  0
  151.9116  146.3773  160.7112 H   0  0  0  0  0  0  0  0  0  0  0  0
  152.3866  144.5022  162.2750 H   0  0  0  0  0  0  0  0  0  0  0  0
  152.6032  142.2043  161.4376 H   0  0  0  0  0  0  0  0  0  0  0  0
  1  2  1  0  0  0  0
  1 21  1  0  0  0  0
  1 22  1  0  0  0  0
  1 23  1  0  0  0  0
  2 19  1  0  0  0  0
  2  3  1  0  0  0  0
  3  4  2  0  0  0  0
  3 24  1  0  0  0  0
  4  5  1  0  0  0  0
  4 25  1  0  0  0  0
  5  6  2  0  0  0  0
  5  7  1  0  0  0  0
  7  8  1  0  0  0  0
  7 19  1  0  0  0  0
  8  9  1  0  0  0  0
  8 26  1  0  0  0  0
  8 27  1  0  0  0  0
  9 10  1  0  0  0  0
  9 11  1  0  0  0  0
  9 28  1  0  0  0  0
 10 29  1  0  0  0  0
 11 12  1  0  0  0  0
 11 30  1  0  0  0  0
 11 31  1  0  0  0  0
 12 13  1  0  0  0  0
 13 18  1  0  0  0  0
 13 14  2  0  0  0  0
 14 15  1  0  0  0  0
 14 32  1  0  0  0  0
 15 16  2  0  0  0  0
 15 33  1  0  0  0  0
 16 17  1  0  0  0  0
 16 34  1  0  0  0  0
 17 18  2  0  0  0  0
 17 35  1  0  0  0  0
 18 36  1  0  0  0  0
 19 20  2  0  0  0  0
M  END
> <s_m_source_file>
AV-unprocessed.smi

> <i_m_source_file_index>
433

> <i_lp_mmshare_version>
43012

> <i_f3d_flags>
0

> <s_epik_input>
W0NIM11uMVtjSF1bY0hdYyg9TyluKGMxPU8pW0NIMl1bQ0BIXShbT0hdKVtDSDJdT2MyW2NIXVtjSF1bY0hdW2NIXVtjSF0y

> <s_epik_cmdline>
J2VwaWtfcHl0aG9uJywgJy1waCcsICc3LjAnLCAnLXRuJywgJzgnLCAnLW1hJywgJzIwMCcsICctbWV0YWxfYmluZGluZycsICctaW1hZScsICc8aW5maWxlLm1hZT4nLCAnLW9tYWUnLCAnPG91dGZpbGUubWFlPic=

> <r_lp_tautomer_probability>
1

> <r_epik_Ionization_Penalty>
2.21742e-07

> <r_epik_Ionization_Penalty_Charging>
1.04568e-07

> <r_epik_Ionization_Penalty_Neutral>
1.17174e-07

> <r_epik_State_Penalty>
-0

> <r_epik_Charging_Adjusted_Penalty>
1.04568e-07

> <i_epik_Tot_Q>
0

> <i_epik_Tot_abs_Q>
0

> <r_epik_Metal_State_Penalty>
-0

> <b_epik_Metal_Only>
0

> <s_lp_Force_Field>
OPLS_2005

> <r_lp_Energy>
22.7461

> <b_lp_Chiralities_Consistent>
1

> <s_lp_Variant>
AV-unprocessed.smi:433-2

> <Gold.Version>
5.8.1

> <Gold.Id.Protein>
6NUR|6NUR_protein|mol2

> <Gold.PLP.Fitness>
45.7656

> <Gold.PLP.PLP>
-42.5508

> <Gold.PLP.part.hbond>
-3.0000

> <Gold.PLP.part.metal>
0.0000

> <Gold.PLP.part.buried>
-5.6958

> <Gold.PLP.part.nonpolar>
-34.4651

> <Gold.PLP.part.repulsive>
0.1171

> <Gold.PLP.ligand.clash>
0.0000

> <Gold.PLP.ligand.torsion>
1.4052

> <Gold.PLP.Chemscore.Hbond>
2.0000

> <Gold.PLP.Chemscore.CHOScore>
0.0000

> <Gold.PLP.Chemscore.Metal>
0.0000

> <Gold.Chemscore.Hbonds>
donor molecule, donor type, donor heavy atom, donor atom, acceptor molecule, acceptor atom, score
      P1  H  7989  7998       L1     6  1.00
      P1  H  7997  8008       L1    10  1.00

> <Gold.PLP.Chemscore.Internal.Correction>
0.0252

> <Gold.Rescore>
     Score         DG    S(hbond)    S(metal)    S(lipo)     H(rot)  DE(clash)    DE(int)     intcor
     16.16     -17.77       1.96        0.00     102.93       2.46       0.08       1.53       ----

> <Gold.Chemscore.Fitness>
16.1617

> <Gold.Chemscore.DG>
-17.7730

> <Gold.Chemscore.ZeroCoef>
-5.4800

> <Gold.Chemscore.Hbond>
1.9611

> <Gold.Chemscore.Metal>
0.0000

> <Gold.Chemscore.Lipo>
102.9276

> <Gold.Chemscore.Internal_Hbond>
0.0000

> <Gold.Chemscore.DEClash>
0.0813

> <Gold.Chemscore.DEInternal>
1.5299

> <Gold.Chemscore.Rot>
2.4608

> <Gold.Chemscore.Internal.Correction>
   9.000000E+99

> <Gold.Chemscore.Hbonds>
donor molecule, donor type, donor heavy atom, donor atom, acceptor molecule, acceptor atom, score
      P1  H  7989  7998       L1     6  0.85
      P1  H  7997  8008       L1    10  0.79

> <Gold.Chemscore.Hbond.Weighted>
-6.5501

> <Gold.Chemscore.Metal.Weighted>
-0.0000

> <Gold.Chemscore.Lipo.Weighted>
-12.0425

> <Gold.Chemscore.Internal_Hbond.Weighted>
0.0000

> <Gold.Chemscore.DEClash.Weighted>
0.0813

> <Gold.Chemscore.DEInternal.Weighted>
1.5299

> <Gold.Chemscore.Rot.Weighted>
6.2997

> <Gold.Chemscore.Internal.Correction.Weighted>
   9.000000E+99

> <Gold.Protein.RotatedTorsions>
[ 6907 6896 6895 6894 ] final   64.92 input  -60.11 | X-H torsion
[ 7974 7965 7964 7962 ] final  -79.54 input  175.53 | X-H torsion
[ 8008 7997 7996 7995 ] final  -57.94 input   59.86 | X-H torsion
[ 10167 10162 10161 10158 ] final  137.07 input  -65.29 | X-H torsion
[ 10718 10713 10712 10709 ] final  154.14 input   66.30 | X-H torsion
[ 10763 10752 10751 10750 ] final   38.46 input  -60.55 | X-H torsion
[ 11005 11000 10999 10996 ] final  -43.35 input  -57.11 | X-H torsion

> <Gold.Protein.ActiveResidues>
 VAL166  LYS551  ARG553  GLY616  TRP617  ASP618  TYR619  PRO620  LYS621  CYS622 
 ASP623  PHE694  ASN695  SER759  ASP760  ASP761  ALA762  ILE779  LEU786  VAL792 
 PHE793  MET794  SER795  GLU796  ALA797  LYS798  CYS799  TRP800  GLU811  SER814 

> <Gold.Protein.RotatedAtoms>
  152.4369  134.5669  159.9909 H   0  0  0  0  0  0  0  0  0  0  0  0  # atno 6907 bound_to 6896
  151.5777  133.3376  159.3010 H   0  0  0  0  0  0  0  0  0  0  0  0  # atno 6908 bound_to 6896
  150.8268  134.7538  159.6884 H   0  0  0  0  0  0  0  0  0  0  0  0  # atno 6909 bound_to 6896
  145.5719  140.9464  143.1391 H   0  0  0  0  0  0  0  0  0  0  0  0  # atno 7974 bound_to 7965
  154.4288  140.1095  156.5878 H   0  0  0  0  0  0  0  0  0  0  0  0  # atno 8008 bound_to 7997
  155.6044  140.3493  155.4584 H   0  0  0  0  0  0  0  0  0  0  0  0  # atno 8009 bound_to 7997
  156.0148  140.1227  157.0407 H   0  0  0  0  0  0  0  0  0  0  0  0  # atno 8010 bound_to 7997
  139.5157  144.6430  151.5517 H   0  0  0  0  0  0  0  0  0  0  0  0  # atno 10167 bound_to 10162
  157.2356  131.0748  151.1825 H   0  0  0  0  0  0  0  0  0  0  0  0  # atno 10718 bound_to 10713
  153.0000  135.6248  154.2309 H   0  0  0  0  0  0  0  0  0  0  0  0  # atno 10763 bound_to 10752
  154.2051  135.2802  155.2979 H   0  0  0  0  0  0  0  0  0  0  0  0  # atno 10764 bound_to 10752
  154.5652  135.5693  153.7103 H   0  0  0  0  0  0  0  0  0  0  0  0  # atno 10765 bound_to 10752
  141.0378  133.6792  156.2721 H   0  0  0  0  0  0  0  0  0  0  0  0  # atno 11005 bound_to 11000
  144.7434  139.7386  143.7302 LP  0  0  0  0  0  0  0  0  0  0  0  0  # atno 17320 bound_to 7965
  146.1778  139.4957  142.9886 LP  0  0  0  0  0  0  0  0  0  0  0  0  # atno 17321 bound_to 7965
  140.6204  143.9269  150.6522 LP  0  0  0  0  0  0  0  0  0  0  0  0  # atno 17342 bound_to 10162
  140.2540  143.3572  152.1380 LP  0  0  0  0  0  0  0  0  0  0  0  0  # atno 17343 bound_to 10162
  157.3433  130.7044  149.6395 LP  0  0  0  0  0  0  0  0  0  0  0  0  # atno 17370 bound_to 10713
  155.9673  130.4273  150.4740 LP  0  0  0  0  0  0  0  0  0  0  0  0  # atno 17371 bound_to 10713
  140.6290  134.5283  157.5557 LP  0  0  0  0  0  0  0  0  0  0  0  0  # atno 17394 bound_to 11000
  139.9253  134.8068  156.1087 LP  0  0  0  0  0  0  0  0  0  0  0  0  # atno 17395 bound_to 11000

$$$$
