#       Name:                AV-unprocessed.smi:1952
#       Creating user name   scv26
#       Creation time:       Fri Mar 27 10:04:32 2020


#       File generated by GOLD software.
#

@<TRIPOS>MOLECULE
AV-unprocessed.smi:1952
    47    48     1
SMALL
NO_CHARGES


@<TRIPOS>ATOM
      1 ****        -5.1365   3.5324   0.1451 C.3            1 S1                 0.0000
      2 ****        -4.1753   2.4060   0.3125 C.2            1 S1                 0.0000
      3 ****        -3.2875   2.0795   1.2980 C.2            1 S1                 0.0000
      4 ****        -2.6898   0.8847   0.8132 C.2            1 S1                 0.0000
      5 ****        -1.7460   0.1645   1.4388 N.pl3          1 S1                -1.0000
      6 ****        -0.4381   0.4244   1.2190 C.2            1 S1                 0.0000
      7 ****         0.0174   1.3139   0.4971 O.2            1 S1                 0.0000
      8 ****         0.3919  -0.4215   1.8484 N.am           1 S1                 0.0000
      9 ****         1.8503  -0.4699   1.7277 C.3            1 S1                 0.0000
     10 ****         2.4599  -0.8243   3.0907 C.3            1 S1                 0.0000
     11 ****         2.2752  -1.4804   0.6378 C.3            1 S1                 0.0000
     12 ****         1.6398  -1.2055  -0.6754 N.4            1 S1                 1.0000
     13 ****         2.3060  -0.1284  -1.4448 C.3            1 S1                 0.0000
     14 ****         1.5131   0.1646  -2.7287 C.3            1 S1                 0.0000
     15 ****         1.4030  -1.0262  -3.5000 O.3            1 S1                 0.0000
     16 ****         0.7057  -2.0517  -2.8022 C.3            1 S1                 0.0000
     17 ****         1.4666  -2.4126  -1.5148 C.3            1 S1                 0.0000
     18 ****        -3.1810   0.5112  -0.3568 N.2            1 S1                 0.0000
     19 ****        -4.1298   1.4857  -0.6879 O.3            1 S1                 0.0000
     20 ****        -6.1246   3.1613  -0.1271 H              1 S1                 0.0000
     21 ****        -4.8012   4.2119  -0.6384 H              1 S1                 0.0000
     22 ****        -5.2328   4.1022   1.0694 H              1 S1                 0.0000
     23 ****        -3.0938   2.6114   2.2173 H              1 S1                 0.0000
     24 ****        -0.0348  -1.1238   2.4354 H              1 S1                 0.0000
     25 ****         2.2260   0.5191   1.4616 H              1 S1                 0.0000
     26 ****         3.5490  -0.8425   3.0401 H              1 S1                 0.0000
     27 ****         2.1261  -1.8042   3.4339 H              1 S1                 0.0000
     28 ****         2.1783  -0.0924   3.8486 H              1 S1                 0.0000
     29 ****         3.3605  -1.5049   0.5291 H              1 S1                 0.0000
     30 ****         1.9812  -2.4770   0.9708 H              1 S1                 0.0000
     31 ****         2.3774   0.7785  -0.8449 H              1 S1                 0.0000
     32 ****         3.3251  -0.4283  -1.6930 H              1 S1                 0.0000
     33 ****         0.5217   0.5559  -2.4935 H              1 S1                 0.0000
     34 ****         2.0238   0.9241  -3.3207 H              1 S1                 0.0000
     35 ****        -0.3108  -1.7262  -2.5748 H              1 S1                 0.0000
     36 ****         0.6233  -2.9259  -3.4481 H              1 S1                 0.0000
     37 ****         2.4422  -2.8370  -1.7565 H              1 S1                 0.0000
     38 ****         0.9103  -3.1715  -0.9636 H              1 S1                 0.0000
     39 ****         0.7065  -0.8783  -0.4649 H              1 S1                 0.0000
     40 ****        -2.0108  -0.5656   2.0687 LP             1 S1                 0.0000
     41 ****        -0.6025   1.9266   0.0070 LP             1 S1                 0.0000
     42 ****         1.0069   1.4228   0.4017 LP             1 S1                 0.0000
     43 ****         2.3217  -1.3535  -3.7211 LP             1 S1                 0.0000
     44 ****         0.9107  -0.8188  -4.3453 LP             1 S1                 0.0000
     45 ****        -2.9283  -0.2955  -0.8910 LP             1 S1                 0.0000
     46 ****        -3.8695   1.9318  -1.5442 LP             1 S1                 0.0000
     47 ****        -5.0279   1.0590  -0.7939 LP             1 S1                 0.0000
@<TRIPOS>BOND
    1    1    2 1     
    2    1   20 1     
    3    1   21 1     
    4    1   22 1     
    5    2   19 1     
    6    2    3 2     
    7    3    4 1     
    8    3   23 1     
    9    4    5 1     
   10    4   18 2     
   11    5    6 1     
   12    6    7 2     
   13    6    8 am    
   14    8    9 1     
   15    8   24 1     
   16    9   10 1     
   17    9   11 1     
   18    9   25 1     
   19   10   26 1     
   20   10   27 1     
   21   10   28 1     
   22   11   12 1     
   23   11   29 1     
   24   11   30 1     
   25   12   17 1     
   26   12   13 1     
   27   12   39 1     
   28   13   14 1     
   29   13   31 1     
   30   13   32 1     
   31   14   15 1     
   32   14   33 1     
   33   14   34 1     
   34   15   16 1     
   35   16   17 1     
   36   16   35 1     
   37   16   36 1     
   38   17   37 1     
   39   17   38 1     
   40   18   19 1     
   41    5   40 1     
   42    7   41 1     
   43    7   42 1     
   44   15   43 1     
   45   15   44 1     
   46   18   45 1     
   47   19   46 1     
   48   19   47 1     
@<TRIPOS>SUBSTRUCTURE
      1 S1             1
@<TRIPOS>SET
LONE_PAIRS      STATIC     ATOMS    <user>   **** ""
8 40 41 42 43 44 45 46 47
DONOR_HYDROGENS      STATIC     ATOMS    <user>   **** ""
2 24 39
ATOM$BLUE        STATIC     ATOMS    COLORGROUP SYSTEM
8 40 41 42 43 44 45 46 47
ATOM$RED        STATIC     ATOMS    COLORGROUP SYSTEM
2 24 39
