AV-unprocessed.smi:236|AV-procd|sdf|1815|dock2
  -GOLD-   2262020403D 1   1.00000     0.00000
 Structure written by MMmdl.
 58 62  0  0  0  0  0  0  0  0  1 V2000
  147.9307  137.2968  163.9304 C   0  0  0  0  0  0  0  0  0  0  0  0
  147.1961  137.2297  162.5816 C   0  0  2  0  0  0  0  0  0  0  0  0
  145.9611  137.9274  162.6473 O   0  0  0  0  0  0  0  0  0  0  0  0
  145.1921  137.5112  161.5334 C   0  0  0  0  0  0  0  0  0  0  0  0
  145.4026  136.0021  161.5223 C   0  0  0  0  0  0  0  0  0  0  0  0
  146.8329  135.8212  162.0417 C   0  0  2  0  0  0  0  0  0  0  0  0
  146.8052  134.8529  163.0782 O   0  0  0  0  0  0  0  0  0  0  0  0
  147.7959  135.3241  160.9352 C   0  0  0  0  0  0  0  0  0  0  0  0
  148.1493  136.3504  159.9656 N   0  0  0  0  0  0  0  0  0  0  0  0
  149.3933  136.9097  159.7756 C   0  0  0  0  0  0  0  0  0  0  0  0
  149.4608  137.8146  158.8381 N   0  0  0  0  0  0  0  0  0  0  0  0
  148.1657  137.8829  158.3396 C   0  0  0  0  0  0  0  0  0  0  0  0
  147.5308  138.6451  157.3185 C   0  0  0  0  0  0  0  0  0  0  0  0
  148.1482  139.5587  156.5404 N   0  0  0  0  0  0  0  0  0  0  0  0
  148.0896  139.2391  155.1205 C   0  0  0  0  0  0  0  0  0  0  0  0
  148.6836  140.3955  154.3003 C   0  0  0  0  0  0  0  0  0  0  0  0
  150.0059  140.6676  154.7548 O   0  0  0  0  0  0  0  0  0  0  0  0
  150.0394  141.0736  156.1222 C   0  0  2  0  0  0  0  0  0  0  0  0
  151.4902  141.4132  156.4869 C   0  0  0  0  0  0  0  0  0  0  0  0
  151.5140  142.0119  157.7716 O   0  0  0  0  0  0  0  0  0  0  0  0
  151.3095  143.4158  157.7299 C   0  0  0  0  0  0  0  0  0  0  0  0
  152.2940  144.1454  158.6263 C   0  0  0  0  0  0  0  0  0  0  0  0
  152.1671  144.0908  160.1350 C   0  0  0  0  0  0  0  0  0  0  0  0
  151.8730  145.3741  159.4064 C   0  0  0  0  0  0  0  0  0  0  0  0
  149.4883  139.9217  156.9851 C   0  0  0  0  0  0  0  0  0  0  0  0
  146.2114  138.4337  157.0931 N   0  0  0  0  0  0  0  0  0  0  0  0
  145.5456  137.5333  157.8230 C   0  0  0  0  0  0  0  0  0  0  0  0
  146.0013  136.7514  158.8046 N   0  0  0  0  0  0  0  0  0  0  0  0
  147.3296  136.9629  159.0328 C   0  0  0  0  0  0  0  0  0  0  0  0
  148.8712  136.7467  163.8945 H   0  0  0  0  0  0  0  0  0  0  0  0
  147.3265  136.8832  164.7381 H   0  0  0  0  0  0  0  0  0  0  0  0
  148.1625  138.3297  164.1903 H   0  0  0  0  0  0  0  0  0  0  0  0
  147.7947  137.7559  161.8375 H   0  0  0  0  0  0  0  0  0  0  0  0
  144.1435  137.7905  161.6387 H   0  0  0  0  0  0  0  0  0  0  0  0
  145.5830  137.9687  160.6230 H   0  0  0  0  0  0  0  0  0  0  0  0
  144.6780  135.5421  162.1965 H   0  0  0  0  0  0  0  0  0  0  0  0
  145.2411  135.5729  160.5329 H   0  0  0  0  0  0  0  0  0  0  0  0
  147.5345  134.2641  162.9587 H   0  0  0  0  0  0  0  0  0  0  0  0
  148.7176  134.9437  161.3775 H   0  0  0  0  0  0  0  0  0  0  0  0
  147.3491  134.4858  160.3991 H   0  0  0  0  0  0  0  0  0  0  0  0
  150.2555  136.6261  160.3614 H   0  0  0  0  0  0  0  0  0  0  0  0
  148.6473  138.3226  154.9243 H   0  0  0  0  0  0  0  0  0  0  0  0
  147.0559  139.0597  154.8209 H   0  0  0  0  0  0  0  0  0  0  0  0
  148.7176  140.1291  153.2439 H   0  0  0  0  0  0  0  0  0  0  0  0
  148.0660  141.2911  154.3848 H   0  0  0  0  0  0  0  0  0  0  0  0
  149.4189  141.9610  156.2605 H   0  0  0  0  0  0  0  0  0  0  0  0
  152.0901  140.5020  156.5079 H   0  0  0  0  0  0  0  0  0  0  0  0
  151.9266  142.0773  155.7391 H   0  0  0  0  0  0  0  0  0  0  0  0
  151.4268  143.7824  156.7092 H   0  0  0  0  0  0  0  0  0  0  0  0
  150.2969  143.6581  158.0554 H   0  0  0  0  0  0  0  0  0  0  0  0
  153.3101  144.1571  158.2366 H   0  0  0  0  0  0  0  0  0  0  0  0
  151.3238  143.5498  160.5597 H   0  0  0  0  0  0  0  0  0  0  0  0
  153.0876  144.0418  160.7131 H   0  0  0  0  0  0  0  0  0  0  0  0
  152.5967  146.1811  159.4996 H   0  0  0  0  0  0  0  0  0  0  0  0
  150.8330  145.6889  159.3446 H   0  0  0  0  0  0  0  0  0  0  0  0
  149.4583  140.2192  158.0341 H   0  0  0  0  0  0  0  0  0  0  0  0
  150.1525  139.0600  156.9125 H   0  0  0  0  0  0  0  0  0  0  0  0
  144.4978  137.4224  157.5858 H   0  0  0  0  0  0  0  0  0  0  0  0
  1  2  1  0  0  0  0
  1 30  1  0  0  0  0
  1 31  1  0  0  0  0
  1 32  1  0  0  0  0
  2  6  1  0  0  0  0
  2  3  1  0  0  0  0
  2 33  1  0  0  0  0
  3  4  1  0  0  0  0
  4  5  1  0  0  0  0
  4 34  1  0  0  0  0
  4 35  1  0  0  0  0
  5  6  1  0  0  0  0
  5 36  1  0  0  0  0
  5 37  1  0  0  0  0
  6  7  1  0  0  0  0
  6  8  1  0  0  0  0
  7 38  1  0  0  0  0
  8  9  1  0  0  0  0
  8 39  1  0  0  0  0
  8 40  1  0  0  0  0
  9 29  1  0  0  0  0
  9 10  1  0  0  0  0
 10 11  2  0  0  0  0
 10 41  1  0  0  0  0
 11 12  1  0  0  0  0
 12 29  2  0  0  0  0
 12 13  1  0  0  0  0
 13 14  1  0  0  0  0
 13 26  2  0  0  0  0
 14 25  1  0  0  0  0
 14 15  1  0  0  0  0
 15 16  1  0  0  0  0
 15 42  1  0  0  0  0
 15 43  1  0  0  0  0
 16 17  1  0  0  0  0
 16 44  1  0  0  0  0
 16 45  1  0  0  0  0
 17 18  1  0  0  0  0
 18 19  1  0  0  0  0
 18 25  1  0  0  0  0
 18 46  1  0  0  0  0
 19 20  1  0  0  0  0
 19 47  1  0  0  0  0
 19 48  1  0  0  0  0
 20 21  1  0  0  0  0
 21 22  1  0  0  0  0
 21 49  1  0  0  0  0
 21 50  1  0  0  0  0
 22 24  1  0  0  0  0
 22 23  1  0  0  0  0
 22 51  1  0  0  0  0
 23 24  1  0  0  0  0
 23 52  1  0  0  0  0
 23 53  1  0  0  0  0
 24 54  1  0  0  0  0
 24 55  1  0  0  0  0
 25 56  1  0  0  0  0
 25 57  1  0  0  0  0
 26 27  1  0  0  0  0
 27 28  2  0  0  0  0
 27 58  1  0  0  0  0
 28 29  1  0  0  0  0
M  END
> <s_m_source_file>
AV-unprocessed.smi

> <i_m_source_file_index>
236

> <i_lp_mmshare_version>
43012

> <i_f3d_flags>
0

> <s_epik_input>
W0NIMl0xW0NIMl1PW0NAQEhdKFtDSDNdKVtDQEBdMShbT0hdKVtDSDJdbihbY0hdbjIpYyhjMjMpbltjSF1uYzNONFtDSDJdW0NIMl1PW0NASF0oW0NIMl00KVtDSDJdT1tDSDJdW0NIXTVbQ0gyXVtDSDJdNQ==

> <s_epik_cmdline>
J2VwaWtfcHl0aG9uJywgJy1waCcsICc3LjAnLCAnLXRuJywgJzgnLCAnLW1hJywgJzIwMCcsICctbWV0YWxfYmluZGluZycsICctaW1hZScsICc8aW5maWxlLm1hZT4nLCAnLW9tYWUnLCAnPG91dGZpbGUubWFlPic=

> <r_lp_tautomer_probability>
1

> <r_epik_Ionization_Penalty>
7.21838e-05

> <r_epik_Ionization_Penalty_Charging>
0

> <r_epik_Ionization_Penalty_Neutral>
7.21838e-05

> <r_epik_State_Penalty>
-0

> <r_epik_Charging_Adjusted_Penalty>
0

> <i_epik_Tot_Q>
0

> <i_epik_Tot_abs_Q>
0

> <r_epik_Metal_State_Penalty>
-0

> <b_epik_Metal_Only>
0

> <s_lp_Force_Field>
OPLS_2005

> <r_lp_Energy>
47.5689

> <b_lp_Chiralities_Consistent>
1

> <s_lp_Variant>
AV-unprocessed.smi:236-7

> <Gold.Version>
5.8.1

> <Gold.Id.Protein>
6NUR|6NUR_protein|mol2

> <Gold.PLP.Fitness>
45.1176

> <Gold.PLP.PLP>
-43.9401

> <Gold.PLP.part.hbond>
-2.1942

> <Gold.PLP.part.metal>
0.0000

> <Gold.PLP.part.buried>
-3.7204

> <Gold.PLP.part.nonpolar>
-37.6912

> <Gold.PLP.part.repulsive>
0.1440

> <Gold.PLP.ligand.clash>
0.0000

> <Gold.PLP.ligand.torsion>
1.1418

> <Gold.PLP.Chemscore.Hbond>
0.8160

> <Gold.PLP.Chemscore.CHOScore>
0.0000

> <Gold.PLP.Chemscore.Metal>
0.0000

> <Gold.Chemscore.Hbonds>
donor molecule, donor type, donor heavy atom, donor atom, acceptor molecule, acceptor atom, score
      P1  H  7989  7998       L1    17  0.78

> <Gold.PLP.Chemscore.Internal.Correction>
1.0131

> <Gold.Rescore>
     Score         DG    S(hbond)    S(metal)    S(lipo)     H(rot)  DE(clash)    DE(int)     intcor
     10.74     -14.92       0.74        0.00     122.35       2.87       0.42       3.75       ----

> <Gold.Chemscore.Fitness>
10.7424

> <Gold.Chemscore.DG>
-14.9176

> <Gold.Chemscore.ZeroCoef>
-5.4800

> <Gold.Chemscore.Hbond>
0.7362

> <Gold.Chemscore.Metal>
0.0000

> <Gold.Chemscore.Lipo>
122.3461

> <Gold.Chemscore.Internal_Hbond>
0.0000

> <Gold.Chemscore.DEClash>
0.4210

> <Gold.Chemscore.DEInternal>
3.7542

> <Gold.Chemscore.Rot>
2.8655

> <Gold.Chemscore.Internal.Correction>
   9.000000E+99

> <Gold.Chemscore.Hbonds>
donor molecule, donor type, donor heavy atom, donor atom, acceptor molecule, acceptor atom, score
      P1  H  7989  7998       L1    17  0.72

> <Gold.Chemscore.Hbond.Weighted>
-2.4588

> <Gold.Chemscore.Metal.Weighted>
-0.0000

> <Gold.Chemscore.Lipo.Weighted>
-14.3145

> <Gold.Chemscore.Internal_Hbond.Weighted>
0.0000

> <Gold.Chemscore.DEClash.Weighted>
0.4210

> <Gold.Chemscore.DEInternal.Weighted>
3.7542

> <Gold.Chemscore.Rot.Weighted>
7.3358

> <Gold.Chemscore.Internal.Correction.Weighted>
   9.000000E+99

> <Gold.Protein.RotatedTorsions>
[ 6907 6896 6895 6894 ] final   96.82 input  -60.11 | X-H torsion
[ 7974 7965 7964 7962 ] final  125.17 input  175.53 | X-H torsion
[ 8008 7997 7996 7995 ] final   97.94 input   59.86 | X-H torsion
[ 10167 10162 10161 10158 ] final   94.42 input  -65.29 | X-H torsion
[ 10718 10713 10712 10709 ] final -106.68 input   66.30 | X-H torsion
[ 10763 10752 10751 10750 ] final  -10.82 input  -60.55 | X-H torsion
[ 11005 11000 10999 10996 ] final  -49.12 input  -57.11 | X-H torsion

> <Gold.Protein.ActiveResidues>
 VAL166  LYS551  ARG553  GLY616  TRP617  ASP618  TYR619  PRO620  LYS621  CYS622 
 ASP623  PHE694  ASN695  SER759  ASP760  ASP761  ALA762  ILE779  LEU786  VAL792 
 PHE793  MET794  SER795  GLU796  ALA797  LYS798  CYS799  TRP800  GLU811  SER814 

> <Gold.Protein.RotatedAtoms>
  152.5431  134.0827  159.8242 H   0  0  0  0  0  0  0  0  0  0  0  0  # atno 6907 bound_to 6896
  151.0927  133.5296  159.2621 H   0  0  0  0  0  0  0  0  0  0  0  0  # atno 6908 bound_to 6896
  151.2081  135.0479  159.8954 H   0  0  0  0  0  0  0  0  0  0  0  0  # atno 6909 bound_to 6896
  145.0760  139.3693  143.4933 H   0  0  0  0  0  0  0  0  0  0  0  0  # atno 7974 bound_to 7965
  156.0953  140.3251  155.7870 H   0  0  0  0  0  0  0  0  0  0  0  0  # atno 8008 bound_to 7997
  155.4928  140.0563  157.2968 H   0  0  0  0  0  0  0  0  0  0  0  0  # atno 8009 bound_to 7997
  154.4663  140.1990  156.0126 H   0  0  0  0  0  0  0  0  0  0  0  0  # atno 8010 bound_to 7997
  139.8085  144.6783  150.9671 H   0  0  0  0  0  0  0  0  0  0  0  0  # atno 10167 bound_to 10162
  156.0401  130.5625  150.7714 H   0  0  0  0  0  0  0  0  0  0  0  0  # atno 10718 bound_to 10713
  153.4747  135.7017  153.5973 H   0  0  0  0  0  0  0  0  0  0  0  0  # atno 10763 bound_to 10752
  153.4211  135.3825  155.2112 H   0  0  0  0  0  0  0  0  0  0  0  0  # atno 10764 bound_to 10752
  154.8724  135.3928  154.4189 H   0  0  0  0  0  0  0  0  0  0  0  0  # atno 10765 bound_to 10752
  141.0741  133.6671  156.3540 H   0  0  0  0  0  0  0  0  0  0  0  0  # atno 11005 bound_to 11000
  146.3530  140.0527  142.8635 LP  0  0  0  0  0  0  0  0  0  0  0  0  # atno 17320 bound_to 7965
  145.1235  140.9476  143.4586 LP  0  0  0  0  0  0  0  0  0  0  0  0  # atno 17321 bound_to 7965
  140.7818  143.4209  151.0843 LP  0  0  0  0  0  0  0  0  0  0  0  0  # atno 17342 bound_to 10162
  139.7877  143.8264  152.3147 LP  0  0  0  0  0  0  0  0  0  0  0  0  # atno 17343 bound_to 10162
  157.5207  131.0931  151.0082 LP  0  0  0  0  0  0  0  0  0  0  0  0  # atno 17370 bound_to 10713
  157.0413  130.5750  149.5356 LP  0  0  0  0  0  0  0  0  0  0  0  0  # atno 17371 bound_to 10713
  140.5611  134.5933  157.5434 LP  0  0  0  0  0  0  0  0  0  0  0  0  # atno 17394 bound_to 11000
  139.9553  134.7545  156.0355 LP  0  0  0  0  0  0  0  0  0  0  0  0  # atno 17395 bound_to 11000

$$$$
