#       Name:                AV-unprocessed.smi:3303
#       Creating user name   scv26
#       Creation time:       Fri Mar 27 19:00:45 2020


#       File generated by GOLD software.
#

@<TRIPOS>MOLECULE
AV-unprocessed.smi:3303
    46    47     1
SMALL
NO_CHARGES


@<TRIPOS>ATOM
      1 ****        -0.6731  -0.5606   2.5165 C.3            1 S1                 0.0000
      2 ****        -1.0757  -1.2979   1.2268 C.3            1 S1                 0.0000
      3 ****        -2.6078  -1.4670   1.1694 C.3            1 S1                 0.0000
      4 ****        -3.0513  -2.1869  -0.0529 N.4            1 S1                 1.0000
      5 ****        -4.5082  -2.4614  -0.0054 C.3            1 S1                 0.0000
      6 ****        -2.6022  -1.4972  -1.2992 C.3            1 S1                 0.0000
      7 ****        -3.0283  -2.2438  -2.5785 C.3            1 S1                 0.0000
      8 ****        -1.0692  -1.3253  -1.2875 C.3            1 S1                 0.0000
      9 ****        -0.5734  -0.5754  -0.0412 C.3            1 S1                 0.0000
     10 ****         0.9059  -0.5053  -0.0623 N.4            1 S1                 1.0000
     11 ****         1.4611   0.8628  -0.0590 C.3            1 S1                 0.0000
     12 ****         2.9949   0.8334  -0.0229 C.3            1 S1                 0.0000
     13 ****         3.5943   2.2262  -0.0227 C.ar           1 S1                 0.0000
     14 ****         4.0334   2.8223   1.1785 C.ar           1 S1                 0.0000
     15 ****         4.5732   4.1220   1.1231 C.ar           1 S1                 0.0000
     16 ****         4.6523   4.7708  -0.1241 C.ar           1 S1                 0.0000
     17 ****         4.1851   4.0894  -1.2656 C.ar           1 S1                 0.0000
     18 ****         3.6628   2.8441  -1.2231 N.ar           1 S1                 0.0000
     19 ****        -1.0682   0.4557   2.5337 H              1 S1                 0.0000
     20 ****         0.4100  -0.4975   2.6238 H              1 S1                 0.0000
     21 ****        -1.0528  -1.0778   3.3983 H              1 S1                 0.0000
     22 ****        -0.6294  -2.2935   1.2589 H              1 S1                 0.0000
     23 ****        -2.9392  -2.0198   2.0498 H              1 S1                 0.0000
     24 ****        -3.0970  -0.4921   1.2101 H              1 S1                 0.0000
     25 ****        -5.0845  -1.5440  -0.1312 H              1 S1                 0.0000
     26 ****        -4.7876  -2.9077   0.9497 H              1 S1                 0.0000
     27 ****        -4.8084  -3.1690  -0.7776 H              1 S1                 0.0000
     28 ****        -3.0598  -0.5063  -1.3202 H              1 S1                 0.0000
     29 ****        -2.6031  -1.7714  -3.4645 H              1 S1                 0.0000
     30 ****        -4.1096  -2.2385  -2.7153 H              1 S1                 0.0000
     31 ****        -2.6928  -3.2813  -2.5665 H              1 S1                 0.0000
     32 ****        -0.5944  -2.3069  -1.3383 H              1 S1                 0.0000
     33 ****        -0.7539  -0.7866  -2.1824 H              1 S1                 0.0000
     34 ****        -0.9903   0.4336  -0.0602 H              1 S1                 0.0000
     35 ****         1.2588  -0.9922   0.7495 H              1 S1                 0.0000
     36 ****         1.1145   1.3903  -0.9488 H              1 S1                 0.0000
     37 ****         1.0814   1.4045   0.8084 H              1 S1                 0.0000
     38 ****         3.3378   0.2969   0.8629 H              1 S1                 0.0000
     39 ****         3.3805   0.2837  -0.8831 H              1 S1                 0.0000
     40 ****         3.9591   2.3002   2.1212 H              1 S1                 0.0000
     41 ****         4.9189   4.6128   2.0210 H              1 S1                 0.0000
     42 ****         5.0606   5.7673  -0.2042 H              1 S1                 0.0000
     43 ****         4.2301   4.5571  -2.2379 H              1 S1                 0.0000
     44 ****         1.2393  -0.9805  -0.8892 H              1 S1                 0.0000
     45 ****        -2.5941  -3.0877  -0.0371 H              1 S1                 0.0000
     46 ****         3.3369   2.3933  -2.0541 LP             1 S1                 0.0000
@<TRIPOS>BOND
    1    1    2 1     
    2    1   19 1     
    3    1   20 1     
    4    1   21 1     
    5    2    9 1     
    6    2    3 1     
    7    2   22 1     
    8    3    4 1     
    9    3   23 1     
   10    3   24 1     
   11    4    5 1     
   12    4    6 1     
   13    4   45 1     
   14    5   25 1     
   15    5   26 1     
   16    5   27 1     
   17    6    7 1     
   18    6    8 1     
   19    6   28 1     
   20    7   29 1     
   21    7   30 1     
   22    7   31 1     
   23    8    9 1     
   24    8   32 1     
   25    8   33 1     
   26    9   10 1     
   27    9   34 1     
   28   10   11 1     
   29   10   35 1     
   30   10   44 1     
   31   11   12 1     
   32   11   36 1     
   33   11   37 1     
   34   12   13 1     
   35   12   38 1     
   36   12   39 1     
   37   13   18 ar    
   38   13   14 ar    
   39   14   15 ar    
   40   14   40 1     
   41   15   16 ar    
   42   15   41 1     
   43   16   17 ar    
   44   16   42 1     
   45   17   18 ar    
   46   17   43 1     
   47   18   46 1     
@<TRIPOS>SUBSTRUCTURE
      1 S1             1
@<TRIPOS>SET
LONE_PAIRS      STATIC     ATOMS    <user>   **** ""
1 46
DONOR_HYDROGENS      STATIC     ATOMS    <user>   **** ""
3 45 35 44
ATOM$BLUE        STATIC     ATOMS    COLORGROUP SYSTEM
1 46
ATOM$RED        STATIC     ATOMS    COLORGROUP SYSTEM
3 45 35 44
