AV-unprocessed.smi:2725|AV-procd|sdf|10515|dock9
  -GOLD-   2272014553D 1   1.00000     0.00000
 Structure written by MMmdl.
 44 45  0  0  0  0  0  0  0  0  1 V2000
  151.0584  139.9367  154.6841 O   0  0  0  0  0  0  0  0  0  0  0  0
  150.2236  139.9499  155.5894 C   0  0  0  0  0  0  0  0  0  0  0  0
  150.4307  140.8149  156.8363 C   0  0  0  0  0  0  0  0  0  0  0  0
  150.9922  142.2156  156.5239 C   0  0  0  0  0  0  0  0  0  0  0  0
  151.1968  143.0769  157.7827 C   0  0  0  0  0  0  0  0  0  0  0  0
  151.8429  144.4413  157.5208 C   0  0  0  0  0  0  0  0  0  0  0  0
  152.4225  144.8799  158.8707 C   0  0  0  0  0  0  0  0  0  0  0  0
  152.5749  143.6027  159.7112 C   0  0  0  0  0  0  0  0  0  0  0  0
  152.1376  142.4436  158.8100 C   0  0  0  0  0  0  0  0  0  0  0  0
  149.0953  139.2247  155.5590 N   0  0  0  0  0  0  0  0  0  0  0  0
  148.6929  138.3278  154.4757 C   0  0  2  0  0  0  0  0  0  0  0  0
  147.8172  139.1060  153.4730 C   0  0  0  0  0  0  0  0  0  0  0  0
  147.7540  138.4221  152.2390 O   0  0  0  0  0  0  0  0  0  0  0  0
  147.9650  137.0790  155.0333 C   0  0  0  0  0  0  0  0  0  0  0  0
  148.7886  135.7992  155.0113 C   0  0  0  0  0  0  0  0  0  0  0  0
  150.0558  135.7469  155.6318 C   0  0  0  0  0  0  0  0  0  0  0  0
  150.7748  134.5369  155.5918 C   0  0  0  0  0  0  0  0  0  0  0  0
  150.2042  133.4308  154.9328 C   0  0  0  0  0  0  0  0  0  0  0  0
  148.9350  133.5853  154.3406 C   0  0  0  0  0  0  0  0  0  0  0  0
  148.2366  134.7408  154.3752 N   0  0  0  0  0  0  0  0  0  0  0  0
  149.4744  140.8995  157.3532 H   0  0  0  0  0  0  0  0  0  0  0  0
  151.1096  140.2958  157.5147 H   0  0  0  0  0  0  0  0  0  0  0  0
  151.9498  142.1109  156.0117 H   0  0  0  0  0  0  0  0  0  0  0  0
  150.3304  142.7368  155.8301 H   0  0  0  0  0  0  0  0  0  0  0  0
  150.2315  143.2381  158.2656 H   0  0  0  0  0  0  0  0  0  0  0  0
  152.6529  144.3354  156.7974 H   0  0  0  0  0  0  0  0  0  0  0  0
  151.1369  145.1686  157.1191 H   0  0  0  0  0  0  0  0  0  0  0  0
  153.3739  145.3968  158.7414 H   0  0  0  0  0  0  0  0  0  0  0  0
  151.7413  145.5711  159.3682 H   0  0  0  0  0  0  0  0  0  0  0  0
  153.5952  143.4677  160.0717 H   0  0  0  0  0  0  0  0  0  0  0  0
  151.9253  143.6598  160.5854 H   0  0  0  0  0  0  0  0  0  0  0  0
  151.6638  141.6372  159.3706 H   0  0  0  0  0  0  0  0  0  0  0  0
  153.0113  142.0267  158.3069 H   0  0  0  0  0  0  0  0  0  0  0  0
  148.4643  139.2997  156.3438 H   0  0  0  0  0  0  0  0  0  0  0  0
  149.5789  137.9735  153.9447 H   0  0  0  0  0  0  0  0  0  0  0  0
  146.7951  139.1852  153.8441 H   0  0  0  0  0  0  0  0  0  0  0  0
  148.1793  140.1238  153.3217 H   0  0  0  0  0  0  0  0  0  0  0  0
  148.3656  137.7020  152.2629 H   0  0  0  0  0  0  0  0  0  0  0  0
  147.6244  137.2675  156.0524 H   0  0  0  0  0  0  0  0  0  0  0  0
  147.0563  136.9068  154.4549 H   0  0  0  0  0  0  0  0  0  0  0  0
  150.4656  136.6120  156.1324 H   0  0  0  0  0  0  0  0  0  0  0  0
  151.7457  134.4589  156.0581 H   0  0  0  0  0  0  0  0  0  0  0  0
  150.7267  132.4871  154.8815 H   0  0  0  0  0  0  0  0  0  0  0  0
  148.4674  132.7589  153.8260 H   0  0  0  0  0  0  0  0  0  0  0  0
  1  2  2  0  0  0  0
  2  3  1  0  0  0  0
  2 10  1  0  0  0  0
  3  4  1  0  0  0  0
  3 21  1  0  0  0  0
  3 22  1  0  0  0  0
  4  5  1  0  0  0  0
  4 23  1  0  0  0  0
  4 24  1  0  0  0  0
  5  9  1  0  0  0  0
  5  6  1  0  0  0  0
  5 25  1  0  0  0  0
  6  7  1  0  0  0  0
  6 26  1  0  0  0  0
  6 27  1  0  0  0  0
  7  8  1  0  0  0  0
  7 28  1  0  0  0  0
  7 29  1  0  0  0  0
  8  9  1  0  0  0  0
  8 30  1  0  0  0  0
  8 31  1  0  0  0  0
  9 32  1  0  0  0  0
  9 33  1  0  0  0  0
 10 11  1  0  0  0  0
 10 34  1  0  0  0  0
 11 12  1  0  0  0  0
 11 14  1  0  0  0  0
 11 35  1  0  0  0  0
 12 13  1  0  0  0  0
 12 36  1  0  0  0  0
 12 37  1  0  0  0  0
 13 38  1  0  0  0  0
 14 15  1  0  0  0  0
 14 39  1  0  0  0  0
 14 40  1  0  0  0  0
 15 20  1  0  0  0  0
 15 16  2  0  0  0  0
 16 17  1  0  0  0  0
 16 41  1  0  0  0  0
 17 18  2  0  0  0  0
 17 42  1  0  0  0  0
 18 19  1  0  0  0  0
 18 43  1  0  0  0  0
 19 20  2  0  0  0  0
 19 44  1  0  0  0  0
M  END
> <s_m_source_file>
AV-unprocessed.smi

> <i_m_source_file_index>
2725

> <i_lp_mmshare_version>
43012

> <i_f3d_flags>
0

> <s_epik_input>
W0NIMl0xW0NIMl1bQ0gyXVtDSDJdW0NIXTFbQ0gyXVtDSDJdQyg9TylbTkhdW0NASF0oW0NIMl1bT0hdKVtDSDJdYzJbY0hdW2NIXVtjSF1bY0hdbjI=

> <s_epik_cmdline>
J2VwaWtfcHl0aG9uJywgJy1waCcsICc3LjAnLCAnLXRuJywgJzgnLCAnLW1hJywgJzIwMCcsICctbWV0YWxfYmluZGluZycsICctaW1hZScsICc8aW5maWxlLm1hZT4nLCAnLW9tYWUnLCAnPG91dGZpbGUubWFlPic=

> <r_epik_Ionization_Penalty>
0.0257016

> <r_epik_Ionization_Penalty_Charging>
0

> <r_epik_Ionization_Penalty_Neutral>
0.0257016

> <r_epik_State_Penalty>
0.0209381

> <r_epik_Charging_Adjusted_Penalty>
0.0209381

> <i_epik_Tot_Q>
0

> <i_epik_Tot_abs_Q>
0

> <r_epik_Metal_State_Penalty>
0.0200649

> <b_epik_Metal_Only>
0

> <s_lp_Force_Field>
OPLS_2005

> <r_lp_Energy>
24.7076

> <b_lp_Chiralities_Consistent>
1

> <s_lp_Variant>
AV-unprocessed.smi:2725-1

> <Gold.Version>
5.8.1

> <Gold.Id.Protein>
6NUR|6NUR_protein|mol2

> <Gold.PLP.Fitness>
43.6752

> <Gold.PLP.PLP>
-40.4119

> <Gold.PLP.part.hbond>
-3.0000

> <Gold.PLP.part.metal>
0.0000

> <Gold.PLP.part.buried>
-4.9720

> <Gold.PLP.part.nonpolar>
-31.5217

> <Gold.PLP.part.repulsive>
0.7284

> <Gold.PLP.ligand.clash>
0.0000

> <Gold.PLP.ligand.torsion>
1.4357

> <Gold.PLP.Chemscore.Hbond>
2.0000

> <Gold.PLP.Chemscore.CHOScore>
0.0000

> <Gold.PLP.Chemscore.Metal>
0.0000

> <Gold.Chemscore.Hbonds>
donor molecule, donor type, donor heavy atom, donor atom, acceptor molecule, acceptor atom, score
      L1  H    13    38       P1  7948  1.00
      P1  H  7989  7998       L1     1  1.00

> <Gold.PLP.Chemscore.Internal.Correction>
0.1347

> <Gold.Rescore>
     Score         DG    S(hbond)    S(metal)    S(lipo)     H(rot)  DE(clash)    DE(int)     intcor
     17.19     -18.68       1.98        0.00     109.77       2.44       0.14       1.35       ----

> <Gold.Chemscore.Fitness>
17.1870

> <Gold.Chemscore.DG>
-18.6797

> <Gold.Chemscore.ZeroCoef>
-5.4800

> <Gold.Chemscore.Hbond>
1.9782

> <Gold.Chemscore.Metal>
0.0000

> <Gold.Chemscore.Lipo>
109.7688

> <Gold.Chemscore.Internal_Hbond>
0.0000

> <Gold.Chemscore.DEClash>
0.1425

> <Gold.Chemscore.DEInternal>
1.3501

> <Gold.Chemscore.Rot>
2.4416

> <Gold.Chemscore.Internal.Correction>
   9.000000E+99

> <Gold.Chemscore.Hbonds>
donor molecule, donor type, donor heavy atom, donor atom, acceptor molecule, acceptor atom, score
      L1  H    13    38       P1  7948  0.97
      P1  H  7989  7998       L1     1  0.99

> <Gold.Chemscore.Hbond.Weighted>
-6.6072

> <Gold.Chemscore.Metal.Weighted>
-0.0000

> <Gold.Chemscore.Lipo.Weighted>
-12.8430

> <Gold.Chemscore.Internal_Hbond.Weighted>
0.0000

> <Gold.Chemscore.DEClash.Weighted>
0.1425

> <Gold.Chemscore.DEInternal.Weighted>
1.3501

> <Gold.Chemscore.Rot.Weighted>
6.2505

> <Gold.Chemscore.Internal.Correction.Weighted>
   9.000000E+99

> <Gold.Protein.RotatedTorsions>
[ 6907 6896 6895 6894 ] final -178.80 input  -60.11 | X-H torsion
[ 7974 7965 7964 7962 ] final -140.31 input  175.53 | X-H torsion
[ 8008 7997 7996 7995 ] final  114.66 input   59.86 | X-H torsion
[ 10167 10162 10161 10158 ] final -151.56 input  -65.29 | X-H torsion
[ 10718 10713 10712 10709 ] final   91.56 input   66.30 | X-H torsion
[ 10763 10752 10751 10750 ] final  162.32 input  -60.55 | X-H torsion
[ 11005 11000 10999 10996 ] final   80.81 input  -57.11 | X-H torsion

> <Gold.Protein.ActiveResidues>
 VAL166  LYS551  ARG553  GLY616  TRP617  ASP618  TYR619  PRO620  LYS621  CYS622 
 ASP623  PHE694  ASN695  SER759  ASP760  ASP761  ALA762  ILE779  LEU786  VAL792 
 PHE793  MET794  SER795  GLU796  ALA797  LYS798  CYS799  TRP800  GLU811  SER814 

> <Gold.Protein.RotatedAtoms>
  151.6431  133.3325  159.3134 H   0  0  0  0  0  0  0  0  0  0  0  0  # atno 6907 bound_to 6896
  150.7998  134.7087  159.6601 H   0  0  0  0  0  0  0  0  0  0  0  0  # atno 6908 bound_to 6896
  152.4089  134.6163  160.0090 H   0  0  0  0  0  0  0  0  0  0  0  0  # atno 6909 bound_to 6896
  144.8607  140.6215  143.5330 H   0  0  0  0  0  0  0  0  0  0  0  0  # atno 7974 bound_to 7965
  156.2335  140.2954  156.0250 H   0  0  0  0  0  0  0  0  0  0  0  0  # atno 8008 bound_to 7997
  155.2159  140.0414  157.2958 H   0  0  0  0  0  0  0  0  0  0  0  0  # atno 8009 bound_to 7997
  154.6037  140.2433  155.7766 H   0  0  0  0  0  0  0  0  0  0  0  0  # atno 8010 bound_to 7997
  139.7257  143.8887  152.2518 H   0  0  0  0  0  0  0  0  0  0  0  0  # atno 10167 bound_to 10162
  157.6960  131.0412  150.3748 H   0  0  0  0  0  0  0  0  0  0  0  0  # atno 10718 bound_to 10713
  154.2766  135.2764  155.2715 H   0  0  0  0  0  0  0  0  0  0  0  0  # atno 10763 bound_to 10752
  154.5255  135.5744  153.6719 H   0  0  0  0  0  0  0  0  0  0  0  0  # atno 10764 bound_to 10752
  152.9936  135.6215  154.2923 H   0  0  0  0  0  0  0  0  0  0  0  0  # atno 10765 bound_to 10752
  139.9120  134.7949  156.1959 H   0  0  0  0  0  0  0  0  0  0  0  0  # atno 11005 bound_to 11000
  145.4317  139.1548  143.4018 LP  0  0  0  0  0  0  0  0  0  0  0  0  # atno 17320 bound_to 7965
  146.2858  140.4433  142.8758 LP  0  0  0  0  0  0  0  0  0  0  0  0  # atno 17321 bound_to 7965
  139.8796  144.7025  150.8893 LP  0  0  0  0  0  0  0  0  0  0  0  0  # atno 17342 bound_to 10162
  140.7762  143.3672  151.1717 LP  0  0  0  0  0  0  0  0  0  0  0  0  # atno 17343 bound_to 10162
  156.4168  130.3945  149.6852 LP  0  0  0  0  0  0  0  0  0  0  0  0  # atno 17370 bound_to 10713
  156.4117  130.7725  151.2738 LP  0  0  0  0  0  0  0  0  0  0  0  0  # atno 17371 bound_to 10713
  141.0555  133.6867  156.1852 LP  0  0  0  0  0  0  0  0  0  0  0  0  # atno 17394 bound_to 11000
  140.6744  134.4834  157.5588 LP  0  0  0  0  0  0  0  0  0  0  0  0  # atno 17395 bound_to 11000

$$$$
