AV-unprocessed.smi:527|AV-procd|sdf|2828|dock2
  -GOLD-   2262023313D 1   1.00000     0.00000
 Structure written by MMmdl.
 43 44  0  0  0  0  0  0  0  0  2 V2000
  143.9627  132.6037  149.1228 C   0  0  0  0  0  0  0  0  0  0  0  0
  144.5515  132.6142  150.5458 C   0  0  1  0  0  0  0  0  0  0  0  0
  145.5054  131.4146  150.7152 C   0  0  0  0  0  0  0  0  0  0  0  0
  146.1009  131.3529  152.1258 C   0  0  0  0  0  0  0  0  0  0  0  0
  146.8360  132.6546  152.4574 C   0  0  0  0  0  0  0  0  0  0  0  0
  145.9055  133.8749  152.3169 C   0  0  1  0  0  0  0  0  0  0  0  0
  146.6604  135.0940  152.6060 N   0  0  0  0  0  0  0  0  0  0  0  0
  146.4419  135.9167  153.6426 C   0  0  0  0  0  0  0  0  0  0  0  0
  145.5418  135.7439  154.4671 O   0  0  0  0  0  0  0  0  0  0  0  0
  147.3267  136.9327  153.6480 N   0  0  0  0  0  0  0  0  0  0  0  0
  147.3058  138.0362  154.4232 C   0  0  0  0  0  0  0  0  0  0  0  0
  146.4461  138.2873  155.2718 O   0  0  0  0  0  0  0  0  0  0  0  0
  148.4613  139.0160  154.1800 C   0  0  0  0  0  0  0  0  0  0  0  0
  148.0220  140.4151  154.0972 N   0  0  0  0  0  0  0  0  0  0  0  0
  146.8005  140.8802  153.6807 C   0  0  0  0  0  0  0  0  0  0  0  0
  146.8540  142.2478  153.7640 C   0  0  0  0  0  0  0  0  0  0  0  0
  148.1044  142.5600  154.2265 N   0  3  0  0  0  0  0  0  0  0  0  0
  148.8132  141.4446  154.4288 C   0  0  0  0  0  0  0  0  0  0  0  0
  145.2612  133.9511  150.9055 C   0  0  2  0  0  0  0  0  0  0  0  0
  144.3050  135.1596  150.7976 C   0  0  0  0  0  0  0  0  0  0  0  0
  144.7253  132.8251  148.3755 H   0  0  0  0  0  0  0  0  0  0  0  0
  143.1576  133.3288  149.0083 H   0  0  0  0  0  0  0  0  0  0  0  0
  143.5396  131.6278  148.8829 H   0  0  0  0  0  0  0  0  0  0  0  0
  143.7232  132.4751  151.2423 H   0  0  0  0  0  0  0  0  0  0  0  0
  144.9752  130.4840  150.5094 H   0  0  0  0  0  0  0  0  0  0  0  0
  146.3116  131.4774  149.9829 H   0  0  0  0  0  0  0  0  0  0  0  0
  145.3084  131.1792  152.8549 H   0  0  0  0  0  0  0  0  0  0  0  0
  146.7864  130.5087  152.2046 H   0  0  0  0  0  0  0  0  0  0  0  0
  147.2328  132.5967  153.4717 H   0  0  0  0  0  0  0  0  0  0  0  0
  147.6961  132.7649  151.7951 H   0  0  0  0  0  0  0  0  0  0  0  0
  145.0977  133.7773  153.0453 H   0  0  0  0  0  0  0  0  0  0  0  0
  147.3968  135.3307  151.9573 H   0  0  0  0  0  0  0  0  0  0  0  0
  148.0927  136.8599  152.9947 H   0  0  0  0  0  0  0  0  0  0  0  0
  149.1885  138.9394  154.9897 H   0  0  0  0  0  0  0  0  0  0  0  0
  148.9753  138.7599  153.2523 H   0  0  0  0  0  0  0  0  0  0  0  0
  146.0057  140.2215  153.3615 H   0  0  0  0  0  0  0  0  0  0  0  0
  146.1161  143.0023  153.5334 H   0  0  0  0  0  0  0  0  0  0  0  0
  149.8269  141.3875  154.7837 H   0  0  0  0  0  0  0  0  0  0  0  0
  146.0641  134.1040  150.1822 H   0  0  0  0  0  0  0  0  0  0  0  0
  143.4487  135.0453  151.4629 H   0  0  0  0  0  0  0  0  0  0  0  0
  143.9263  135.2886  149.7846 H   0  0  0  0  0  0  0  0  0  0  0  0
  144.7997  136.0955  151.0565 H   0  0  0  0  0  0  0  0  0  0  0  0
  148.4470  143.4986  154.3892 H   0  0  0  0  0  0  0  0  0  0  0  0
  1  2  1  0  0  0  0
  1 21  1  0  0  0  0
  1 22  1  0  0  0  0
  1 23  1  0  0  0  0
  2 19  1  0  0  0  0
  2  3  1  0  0  0  0
  2 24  1  0  0  0  0
  3  4  1  0  0  0  0
  3 25  1  0  0  0  0
  3 26  1  0  0  0  0
  4  5  1  0  0  0  0
  4 27  1  0  0  0  0
  4 28  1  0  0  0  0
  5  6  1  0  0  0  0
  5 29  1  0  0  0  0
  5 30  1  0  0  0  0
  6  7  1  0  0  0  0
  6 19  1  0  0  0  0
  6 31  1  0  0  0  0
  7  8  1  0  0  0  0
  7 32  1  0  0  0  0
  8  9  2  0  0  0  0
  8 10  1  0  0  0  0
 10 11  1  0  0  0  0
 10 33  1  0  0  0  0
 11 12  2  0  0  0  0
 11 13  1  0  0  0  0
 13 14  1  0  0  0  0
 13 34  1  0  0  0  0
 13 35  1  0  0  0  0
 14 18  1  0  0  0  0
 14 15  1  0  0  0  0
 15 16  2  0  0  0  0
 15 36  1  0  0  0  0
 16 17  1  0  0  0  0
 16 37  1  0  0  0  0
 17 18  2  0  0  0  0
 17 43  1  0  0  0  0
 18 38  1  0  0  0  0
 19 20  1  0  0  0  0
 19 39  1  0  0  0  0
 20 40  1  0  0  0  0
 20 41  1  0  0  0  0
 20 42  1  0  0  0  0
M  CHG  1  17   1
M  END
> <s_m_source_file>
AV-unprocessed.smi

> <i_m_source_file_index>
527

> <i_lp_mmshare_version>
43012

> <i_f3d_flags>
0

> <s_epik_input>
W0NIM11bQ0BASF0xW0NIMl1bQ0gyXVtDSDJdW0NASF0oW0NASF0xW0NIM10pW05IXUMoPU8pW05IXUMoPU8pW0NIMl1uMltjSF1bY0hdbltjSF0y

> <s_epik_cmdline>
J2VwaWtfcHl0aG9uJywgJy1waCcsICc3LjAnLCAnLXRuJywgJzgnLCAnLW1hJywgJzIwMCcsICctbWV0YWxfYmluZGluZycsICctaW1hZScsICc8aW5maWxlLm1hZT4nLCAnLW9tYWUnLCAnPG91dGZpbGUubWFlPic=

> <r_lp_tautomer_probability>
1

> <r_epik_Ionization_Penalty>
0.816441

> <r_epik_Ionization_Penalty_Charging>
0

> <r_epik_Ionization_Penalty_Neutral>
0.816441

> <r_epik_State_Penalty>
0.849034

> <r_epik_Charging_Adjusted_Penalty>
0.849034

> <i_epik_Tot_Q>
1

> <i_epik_Tot_abs_Q>
1

> <r_epik_Metal_State_Penalty>
0.984327

> <b_epik_Metal_Only>
0

> <s_lp_Force_Field>
OPLS_2005

> <r_lp_Energy>
16.7467

> <b_lp_Chiralities_Consistent>
1

> <s_lp_Variant>
AV-unprocessed.smi:527-14

> <Gold.Version>
5.8.1

> <Gold.Id.Protein>
6NUR|6NUR_protein|mol2

> <Gold.PLP.Fitness>
49.8696

> <Gold.PLP.PLP>
-36.2499

> <Gold.PLP.part.hbond>
-3.0000

> <Gold.PLP.part.metal>
0.0000

> <Gold.PLP.part.buried>
-7.0010

> <Gold.PLP.part.nonpolar>
-28.0119

> <Gold.PLP.part.repulsive>
0.5849

> <Gold.PLP.ligand.clash>
0.0000

> <Gold.PLP.ligand.torsion>
0.5914

> <Gold.PLP.Chemscore.Hbond>
3.9280

> <Gold.PLP.Chemscore.CHOScore>
1.0000

> <Gold.PLP.Chemscore.Metal>
0.0000

> <Gold.Chemscore.Hbonds>
donor molecule, donor type, donor heavy atom, donor atom, acceptor molecule, acceptor atom, score
      L1  H     7    32       P1  7948  0.86
      L1  H    10    33       P1  7948  1.00
      L1  H    17    43       P1  8028  1.86
      L1  C    15    36       P1 10175  1.00

> <Gold.PLP.Chemscore.Internal.Correction>
0.0185

> <Gold.Rescore>
     Score         DG    S(hbond)    S(metal)    S(lipo)     H(rot)  DE(clash)    DE(int)     intcor
     17.89     -19.81       2.92        0.00      76.51       1.71       0.00       1.91       ----

> <Gold.Chemscore.Fitness>
17.8932

> <Gold.Chemscore.DG>
-19.8075

> <Gold.Chemscore.ZeroCoef>
-5.4800

> <Gold.Chemscore.Hbond>
2.9164

> <Gold.Chemscore.Metal>
0.0000

> <Gold.Chemscore.Lipo>
76.5142

> <Gold.Chemscore.Internal_Hbond>
0.0000

> <Gold.Chemscore.DEClash>
0.0004

> <Gold.Chemscore.DEInternal>
1.9140

> <Gold.Chemscore.Rot>
1.7052

> <Gold.Chemscore.Internal.Correction>
   9.000000E+99

> <Gold.Chemscore.Hbonds>
donor molecule, donor type, donor heavy atom, donor atom, acceptor molecule, acceptor atom, score
      L1  H     7    32       P1  7948  0.84
      L1  H    10    33       P1  7948  0.94
      L1  H    17    43       P1  8028  0.89

> <Gold.Chemscore.Hbond.Weighted>
-9.7407

> <Gold.Chemscore.Metal.Weighted>
-0.0000

> <Gold.Chemscore.Lipo.Weighted>
-8.9522

> <Gold.Chemscore.Internal_Hbond.Weighted>
0.0000

> <Gold.Chemscore.DEClash.Weighted>
0.0004

> <Gold.Chemscore.DEInternal.Weighted>
1.9140

> <Gold.Chemscore.Rot.Weighted>
4.3653

> <Gold.Chemscore.Internal.Correction.Weighted>
   9.000000E+99

> <Gold.Protein.RotatedTorsions>
[ 6907 6896 6895 6894 ] final  -40.13 input  -60.11 | X-H torsion
[ 7974 7965 7964 7962 ] final -136.15 input  175.53 | X-H torsion
[ 8008 7997 7996 7995 ] final -116.24 input   59.86 | X-H torsion
[ 10167 10162 10161 10158 ] final  159.67 input  -65.29 | X-H torsion
[ 10718 10713 10712 10709 ] final -164.85 input   66.30 | X-H torsion
[ 10763 10752 10751 10750 ] final  162.22 input  -60.55 | X-H torsion
[ 11005 11000 10999 10996 ] final -161.98 input  -57.11 | X-H torsion

> <Gold.Protein.ActiveResidues>
 VAL166  LYS551  ARG553  GLY616  TRP617  ASP618  TYR619  PRO620  LYS621  CYS622 
 ASP623  PHE694  ASN695  SER759  ASP760  ASP761  ALA762  ILE779  LEU786  VAL792 
 PHE793  MET794  SER795  GLU796  ALA797  LYS798  CYS799  TRP800  GLU811  SER814 

> <Gold.Protein.RotatedAtoms>
  150.9820  134.9173  159.7849 H   0  0  0  0  0  0  0  0  0  0  0  0  # atno 6907 bound_to 6896
  152.5225  134.3397  159.9222 H   0  0  0  0  0  0  0  0  0  0  0  0  # atno 6908 bound_to 6896
  151.3404  133.3923  159.2705 H   0  0  0  0  0  0  0  0  0  0  0  0  # atno 6909 bound_to 6896
  144.8951  140.6696  143.5120 H   0  0  0  0  0  0  0  0  0  0  0  0  # atno 7974 bound_to 7965
  155.0648  140.0393  157.2589 H   0  0  0  0  0  0  0  0  0  0  0  0  # atno 8008 bound_to 7997
  154.7030  140.2677  155.6676 H   0  0  0  0  0  0  0  0  0  0  0  0  # atno 8009 bound_to 7997
  156.2766  140.2736  156.1647 H   0  0  0  0  0  0  0  0  0  0  0  0  # atno 8010 bound_to 7997
  139.4834  144.4707  151.8579 H   0  0  0  0  0  0  0  0  0  0  0  0  # atno 10167 bound_to 10162
  156.6450  130.8984  151.3003 H   0  0  0  0  0  0  0  0  0  0  0  0  # atno 10718 bound_to 10713
  154.2750  135.2764  155.2722 H   0  0  0  0  0  0  0  0  0  0  0  0  # atno 10763 bound_to 10752
  154.5268  135.5741  153.6729 H   0  0  0  0  0  0  0  0  0  0  0  0  # atno 10764 bound_to 10752
  152.9938  135.6218  154.2906 H   0  0  0  0  0  0  0  0  0  0  0  0  # atno 10765 bound_to 10752
  140.6143  134.4817  157.5218 H   0  0  0  0  0  0  0  0  0  0  0  0  # atno 11005 bound_to 11000
  145.3714  139.1658  143.4330 LP  0  0  0  0  0  0  0  0  0  0  0  0  # atno 17320 bound_to 7965
  146.3077  140.3786  142.8681 LP  0  0  0  0  0  0  0  0  0  0  0  0  # atno 17321 bound_to 7965
  140.4176  144.2286  150.5887 LP  0  0  0  0  0  0  0  0  0  0  0  0  # atno 17342 bound_to 10162
  140.4905  143.2349  151.8825 LP  0  0  0  0  0  0  0  0  0  0  0  0  # atno 17343 bound_to 10162
  157.7159  130.9497  150.1254 LP  0  0  0  0  0  0  0  0  0  0  0  0  # atno 17370 bound_to 10713
  156.2129  130.3668  149.8648 LP  0  0  0  0  0  0  0  0  0  0  0  0  # atno 17371 bound_to 10713
  139.9179  134.8208  156.1305 LP  0  0  0  0  0  0  0  0  0  0  0  0  # atno 17394 bound_to 11000
  141.0786  133.6764  156.2289 LP  0  0  0  0  0  0  0  0  0  0  0  0  # atno 17395 bound_to 11000

$$$$
