AV-unprocessed.smi:1563|AV-procd|sdf|6292|dock2
  -GOLD-   22720 6493D 1   1.00000     0.00000
 Structure written by MMmdl.
 44 45  0  0  0  0  0  0  0  0  2 V2000
  156.3961  138.8735  163.3927 C   0  0  0  0  0  0  0  0  0  0  0  0
  155.1314  139.2836  162.6467 C   0  0  0  0  0  0  0  0  0  0  0  0
  154.2573  138.4499  162.4084 O   0  0  0  0  0  0  0  0  0  0  0  0
  155.0493  140.5718  162.2801 N   0  0  0  0  0  0  0  0  0  0  0  0
  153.9298  141.1651  161.5579 C   0  0  1  0  0  0  0  0  0  0  0  0
  153.3635  142.3859  162.3201 C   0  0  0  0  0  0  0  0  0  0  0  0
  152.2970  143.1387  161.4978 C   0  0  0  0  0  0  0  0  0  0  0  0
  152.7877  143.4099  160.0631 C   0  0  0  0  0  0  0  0  0  0  0  0
  153.1873  142.1291  159.4587 N   0  0  0  0  0  0  0  0  0  0  0  0
  152.4485  141.3813  158.6019 C   0  0  0  0  0  0  0  0  0  0  0  0
  152.7640  140.2403  158.2611 O   0  0  0  0  0  0  0  0  0  0  0  0
  151.2888  141.9462  158.2201 N   0  0  0  0  0  0  0  0  0  0  0  0
  150.2161  141.2686  157.4940 C   0  0  0  0  0  0  0  0  0  0  0  0
  150.5317  141.1162  155.9904 C   0  0  0  0  0  0  0  0  0  0  0  0
  149.3009  140.9760  155.1087 C   0  0  0  0  0  0  0  0  0  0  0  0
  148.9697  139.7621  154.4668 C   0  0  0  0  0  0  0  0  0  0  0  0
  147.8361  139.7108  153.6291 C   0  0  0  0  0  0  0  0  0  0  0  0
  147.0575  140.8725  153.4508 C   0  0  0  0  0  0  0  0  0  0  0  0
  147.4274  142.0552  154.1231 C   0  0  0  0  0  0  0  0  0  0  0  0
  148.5188  142.0635  154.9198 N   0  3  0  0  0  0  0  0  0  0  0  0
  154.3638  141.5736  160.1361 C   0  0  0  0  0  0  0  0  0  0  0  0
  156.6363  139.5969  164.1722 H   0  0  0  0  0  0  0  0  0  0  0  0
  157.2390  138.8152  162.7038 H   0  0  0  0  0  0  0  0  0  0  0  0
  156.2692  137.8976  163.8623 H   0  0  0  0  0  0  0  0  0  0  0  0
  155.8166  141.1837  162.5181 H   0  0  0  0  0  0  0  0  0  0  0  0
  153.1402  140.4191  161.4573 H   0  0  0  0  0  0  0  0  0  0  0  0
  152.9438  142.0760  163.2777 H   0  0  0  0  0  0  0  0  0  0  0  0
  154.1779  143.0746  162.5498 H   0  0  0  0  0  0  0  0  0  0  0  0
  151.3821  142.5472  161.4612 H   0  0  0  0  0  0  0  0  0  0  0  0
  152.0384  144.0759  161.9910 H   0  0  0  0  0  0  0  0  0  0  0  0
  152.0264  143.9406  159.4905 H   0  0  0  0  0  0  0  0  0  0  0  0
  153.6477  144.0809  160.0868 H   0  0  0  0  0  0  0  0  0  0  0  0
  151.1001  142.8869  158.5349 H   0  0  0  0  0  0  0  0  0  0  0  0
  150.0663  140.2845  157.9383 H   0  0  0  0  0  0  0  0  0  0  0  0
  149.2733  141.8024  157.6234 H   0  0  0  0  0  0  0  0  0  0  0  0
  151.1032  141.9822  155.6540 H   0  0  0  0  0  0  0  0  0  0  0  0
  151.1779  140.2514  155.8361 H   0  0  0  0  0  0  0  0  0  0  0  0
  149.5822  138.8828  154.6021 H   0  0  0  0  0  0  0  0  0  0  0  0
  147.5731  138.7952  153.1200 H   0  0  0  0  0  0  0  0  0  0  0  0
  146.1917  140.8561  152.8048 H   0  0  0  0  0  0  0  0  0  0  0  0
  146.8917  142.9895  154.0429 H   0  0  0  0  0  0  0  0  0  0  0  0
  155.1582  142.3209  160.1746 H   0  0  0  0  0  0  0  0  0  0  0  0
  154.7874  140.7188  159.6063 H   0  0  0  0  0  0  0  0  0  0  0  0
  148.7743  142.9347  155.3853 H   0  0  0  0  0  0  0  0  0  0  0  0
  1  2  1  0  0  0  0
  1 22  1  0  0  0  0
  1 23  1  0  0  0  0
  1 24  1  0  0  0  0
  2  3  2  0  0  0  0
  2  4  1  0  0  0  0
  4  5  1  0  0  0  0
  4 25  1  0  0  0  0
  5 21  1  0  0  0  0
  5  6  1  0  0  0  0
  5 26  1  0  0  0  0
  6  7  1  0  0  0  0
  6 27  1  0  0  0  0
  6 28  1  0  0  0  0
  7  8  1  0  0  0  0
  7 29  1  0  0  0  0
  7 30  1  0  0  0  0
  8  9  1  0  0  0  0
  8 31  1  0  0  0  0
  8 32  1  0  0  0  0
  9 10  1  0  0  0  0
  9 21  1  0  0  0  0
 10 11  2  0  0  0  0
 10 12  1  0  0  0  0
 12 13  1  0  0  0  0
 12 33  1  0  0  0  0
 13 14  1  0  0  0  0
 13 34  1  0  0  0  0
 13 35  1  0  0  0  0
 14 15  1  0  0  0  0
 14 36  1  0  0  0  0
 14 37  1  0  0  0  0
 15 20  1  0  0  0  0
 15 16  2  0  0  0  0
 16 17  1  0  0  0  0
 16 38  1  0  0  0  0
 17 18  2  0  0  0  0
 17 39  1  0  0  0  0
 18 19  1  0  0  0  0
 18 40  1  0  0  0  0
 19 20  2  0  0  0  0
 19 41  1  0  0  0  0
 20 44  1  0  0  0  0
 21 42  1  0  0  0  0
 21 43  1  0  0  0  0
M  CHG  1  20   1
M  END
> <s_m_source_file>
AV-unprocessed.smi

> <i_m_source_file_index>
1563

> <i_lp_mmshare_version>
43012

> <i_f3d_flags>
0

> <s_epik_input>
W0NIM11DKD1PKVtOSF1bQ0BASF0xW0NIMl1bQ0gyXVtDSDJdTihbQ0gyXTEpQyg9TylbTkhdW0NIMl1bQ0gyXWMyW2NIXVtjSF1bY0hdW2NIXW4y

> <s_epik_cmdline>
J2VwaWtfcHl0aG9uJywgJy1waCcsICc3LjAnLCAnLXRuJywgJzgnLCAnLW1hJywgJzIwMCcsICctbWV0YWxfYmluZGluZycsICctaW1hZScsICc8aW5maWxlLm1hZT4nLCAnLW9tYWUnLCAnPG91dGZpbGUubWFlPic=

> <r_epik_Ionization_Penalty>
1.56048

> <r_epik_Ionization_Penalty_Charging>
1.56043

> <r_epik_Ionization_Penalty_Neutral>
4.90601e-05

> <r_epik_State_Penalty>
1.65539

> <r_epik_Charging_Adjusted_Penalty>
3.21583

> <i_epik_Tot_Q>
1

> <i_epik_Tot_abs_Q>
1

> <r_epik_Metal_State_Penalty>
1.6969

> <b_epik_Metal_Only>
0

> <s_lp_Force_Field>
OPLS_2005

> <r_lp_Energy>
29.938

> <b_lp_Chiralities_Consistent>
1

> <s_lp_Variant>
AV-unprocessed.smi:1563-4

> <Gold.Version>
5.8.1

> <Gold.Id.Protein>
6NUR|6NUR_protein|mol2

> <Gold.PLP.Fitness>
54.2717

> <Gold.PLP.PLP>
-46.5443

> <Gold.PLP.part.hbond>
-3.0000

> <Gold.PLP.part.metal>
0.0000

> <Gold.PLP.part.buried>
-4.1696

> <Gold.PLP.part.nonpolar>
-39.0003

> <Gold.PLP.part.repulsive>
0.2445

> <Gold.PLP.ligand.clash>
0.0000

> <Gold.PLP.ligand.torsion>
0.4308

> <Gold.PLP.Chemscore.Hbond>
2.8299

> <Gold.PLP.Chemscore.CHOScore>
0.0000

> <Gold.PLP.Chemscore.Metal>
0.0000

> <Gold.Chemscore.Hbonds>
donor molecule, donor type, donor heavy atom, donor atom, acceptor molecule, acceptor atom, score
      L1  H    20    44       P1  8028  2.00
      P1  H  7997  8009       L1    11  0.55

> <Gold.PLP.Chemscore.Internal.Correction>
0.0991

> <Gold.Rescore>
     Score         DG    S(hbond)    S(metal)    S(lipo)     H(rot)  DE(clash)    DE(int)     intcor
     18.82     -19.39       1.92        0.00     102.77       1.77       0.07       0.49       ----

> <Gold.Chemscore.Fitness>
18.8222

> <Gold.Chemscore.DG>
-19.3883

> <Gold.Chemscore.ZeroCoef>
-5.4800

> <Gold.Chemscore.Hbond>
1.9176

> <Gold.Chemscore.Metal>
0.0000

> <Gold.Chemscore.Lipo>
102.7736

> <Gold.Chemscore.Internal_Hbond>
0.0000

> <Gold.Chemscore.DEClash>
0.0747

> <Gold.Chemscore.DEInternal>
0.4913

> <Gold.Chemscore.Rot>
1.7661

> <Gold.Chemscore.Internal.Correction>
   9.000000E+99

> <Gold.Chemscore.Hbonds>
donor molecule, donor type, donor heavy atom, donor atom, acceptor molecule, acceptor atom, score
      L1  H    20    44       P1  8028  0.99
      P1  H  7997  8009       L1    11  0.50

> <Gold.Chemscore.Hbond.Weighted>
-6.4049

> <Gold.Chemscore.Metal.Weighted>
-0.0000

> <Gold.Chemscore.Lipo.Weighted>
-12.0245

> <Gold.Chemscore.Internal_Hbond.Weighted>
0.0000

> <Gold.Chemscore.DEClash.Weighted>
0.0747

> <Gold.Chemscore.DEInternal.Weighted>
0.4913

> <Gold.Chemscore.Rot.Weighted>
4.5211

> <Gold.Chemscore.Internal.Correction.Weighted>
   9.000000E+99

> <Gold.Protein.RotatedTorsions>
[ 6907 6896 6895 6894 ] final   98.93 input  -60.11 | X-H torsion
[ 7974 7965 7964 7962 ] final -156.45 input  175.53 | X-H torsion
[ 8008 7997 7996 7995 ] final  162.99 input   59.86 | X-H torsion
[ 10167 10162 10161 10158 ] final   86.59 input  -65.29 | X-H torsion
[ 10718 10713 10712 10709 ] final  -96.43 input   66.30 | X-H torsion
[ 10763 10752 10751 10750 ] final  -61.36 input  -60.55 | X-H torsion
[ 11005 11000 10999 10996 ] final   95.45 input  -57.11 | X-H torsion

> <Gold.Protein.ActiveResidues>
 VAL166  LYS551  ARG553  GLY616  TRP617  ASP618  TYR619  PRO620  LYS621  CYS622 
 ASP623  PHE694  ASN695  SER759  ASP760  ASP761  ALA762  ILE779  LEU786  VAL792 
 PHE793  MET794  SER795  GLU796  ALA797  LYS798  CYS799  TRP800  GLU811  SER814 

> <Gold.Protein.RotatedAtoms>
  152.5401  134.0506  159.8108 H   0  0  0  0  0  0  0  0  0  0  0  0  # atno 6907 bound_to 6896
  151.0648  133.5506  159.2638 H   0  0  0  0  0  0  0  0  0  0  0  0  # atno 6908 bound_to 6896
  151.2391  135.0590  159.9072 H   0  0  0  0  0  0  0  0  0  0  0  0  # atno 6909 bound_to 6896
  144.7592  140.4108  143.5989 H   0  0  0  0  0  0  0  0  0  0  0  0  # atno 7974 bound_to 7965
  156.1991  140.1735  156.7937 H   0  0  0  0  0  0  0  0  0  0  0  0  # atno 8008 bound_to 7997
  154.5568  140.0707  156.8786 H   0  0  0  0  0  0  0  0  0  0  0  0  # atno 8009 bound_to 7997
  155.2924  140.3356  155.4254 H   0  0  0  0  0  0  0  0  0  0  0  0  # atno 8010 bound_to 7997
  139.8860  144.6413  150.8791 H   0  0  0  0  0  0  0  0  0  0  0  0  # atno 10167 bound_to 10162
  156.0062  130.5151  150.6224 H   0  0  0  0  0  0  0  0  0  0  0  0  # atno 10718 bound_to 10713
  154.2834  135.6267  153.5356 H   0  0  0  0  0  0  0  0  0  0  0  0  # atno 10763 bound_to 10752
  152.9862  135.5638  154.5470 H   0  0  0  0  0  0  0  0  0  0  0  0  # atno 10764 bound_to 10752
  154.5065  135.2874  155.1353 H   0  0  0  0  0  0  0  0  0  0  0  0  # atno 10765 bound_to 10752
  139.8789  134.8899  156.4013 H   0  0  0  0  0  0  0  0  0  0  0  0  # atno 11005 bound_to 11000
  145.6674  139.1593  143.2774 LP  0  0  0  0  0  0  0  0  0  0  0  0  # atno 17320 bound_to 7965
  146.1638  140.6749  142.9265 LP  0  0  0  0  0  0  0  0  0  0  0  0  # atno 17321 bound_to 7965
  140.7736  143.3548  151.1943 LP  0  0  0  0  0  0  0  0  0  0  0  0  # atno 17342 bound_to 10162
  139.7153  143.9311  152.2964 LP  0  0  0  0  0  0  0  0  0  0  0  0  # atno 17343 bound_to 10162
  157.4037  131.0813  151.1285 LP  0  0  0  0  0  0  0  0  0  0  0  0  # atno 17370 bound_to 10713
  157.1938  130.6364  149.5714 LP  0  0  0  0  0  0  0  0  0  0  0  0  # atno 17371 bound_to 10713
  140.9265  133.7609  155.9971 LP  0  0  0  0  0  0  0  0  0  0  0  0  # atno 17394 bound_to 11000
  140.8380  134.3100  157.5324 LP  0  0  0  0  0  0  0  0  0  0  0  0  # atno 17395 bound_to 11000

$$$$
