AV-unprocessed.smi:1762|AV-procd|sdf|7099|dock8
  -GOLD-   22720 8313D 1   1.00000     0.00000
 Structure written by MMmdl.
 52 53  0  0  0  0  0  0  0  0  1 V2000
  150.5639  141.6233  155.8358 C   0  0  0  0  0  0  0  0  0  0  0  0
  149.1453  141.2516  155.3898 C   0  0  2  0  0  0  0  0  0  0  0  0
  148.9335  139.7275  155.3356 C   0  0  0  0  0  0  0  0  0  0  0  0
  147.6065  139.3578  154.8319 N   0  0  0  0  0  0  0  0  0  0  0  0
  147.3656  137.8874  154.8514 C   0  0  2  0  0  0  0  0  0  0  0  0
  146.0661  137.4728  154.1213 C   0  0  0  0  0  0  0  0  0  0  0  0
  144.9692  137.8415  154.5429 O   0  0  0  0  0  0  0  0  0  0  0  0
  146.2098  136.7327  153.0102 N   0  0  0  0  0  0  0  0  0  0  0  0
  145.1155  136.2803  152.1601 C   0  0  0  0  0  0  0  0  0  0  0  0
  145.6393  135.6552  150.8562 C   0  0  0  0  0  0  0  0  0  0  0  0
  145.2258  134.2036  150.7073 C   0  0  0  0  0  0  0  0  0  0  0  0
  143.8827  133.8153  150.9002 C   0  0  0  0  0  0  0  0  0  0  0  0
  143.5504  132.4546  150.7555 C   0  0  0  0  0  0  0  0  0  0  0  0
  144.5688  131.5391  150.4267 C   0  0  0  0  0  0  0  0  0  0  0  0
  145.8798  132.0273  150.2572 C   0  0  0  0  0  0  0  0  0  0  0  0
  146.2093  133.3301  150.3937 N   0  0  0  0  0  0  0  0  0  0  0  0
  147.4431  137.2245  156.2682 C   0  0  0  0  0  0  0  0  0  0  0  0
  147.2627  135.6929  156.2438 C   0  0  0  0  0  0  0  0  0  0  0  0
  146.4969  137.8592  157.3064 C   0  0  0  0  0  0  0  0  0  0  0  0
  147.4157  139.9908  153.5144 C   0  0  0  0  0  0  0  0  0  0  0  0
  147.6589  141.5132  153.5240 C   0  0  1  0  0  0  0  0  0  0  0  0
  146.5243  142.3071  154.1949 C   0  0  0  0  0  0  0  0  0  0  0  0
  148.9292  141.8103  154.0985 O   0  0  0  0  0  0  0  0  0  0  0  0
  150.7767  141.2340  156.8316 H   0  0  0  0  0  0  0  0  0  0  0  0
  150.6906  142.7057  155.8686 H   0  0  0  0  0  0  0  0  0  0  0  0
  151.3115  141.2208  155.1517 H   0  0  0  0  0  0  0  0  0  0  0  0
  148.4421  141.6906  156.0980 H   0  0  0  0  0  0  0  0  0  0  0  0
  149.7066  139.2693  154.7161 H   0  0  0  0  0  0  0  0  0  0  0  0
  149.0819  139.3557  156.3472 H   0  0  0  0  0  0  0  0  0  0  0  0
  148.1762  137.4350  154.2755 H   0  0  0  0  0  0  0  0  0  0  0  0
  147.1448  136.4764  152.7278 H   0  0  0  0  0  0  0  0  0  0  0  0
  144.5333  135.5471  152.7190 H   0  0  0  0  0  0  0  0  0  0  0  0
  144.4420  137.1113  151.9434 H   0  0  0  0  0  0  0  0  0  0  0  0
  145.2742  136.2170  149.9952 H   0  0  0  0  0  0  0  0  0  0  0  0
  146.7279  135.7188  150.8217 H   0  0  0  0  0  0  0  0  0  0  0  0
  143.1243  134.5414  151.1543 H   0  0  0  0  0  0  0  0  0  0  0  0
  142.5332  132.1191  150.8949 H   0  0  0  0  0  0  0  0  0  0  0  0
  144.3507  130.4881  150.3079 H   0  0  0  0  0  0  0  0  0  0  0  0
  146.6854  131.3531  150.0064 H   0  0  0  0  0  0  0  0  0  0  0  0
  148.4569  137.3608  156.6408 H   0  0  0  0  0  0  0  0  0  0  0  0
  146.2402  135.4032  155.9991 H   0  0  0  0  0  0  0  0  0  0  0  0
  147.4948  135.2592  157.2169 H   0  0  0  0  0  0  0  0  0  0  0  0
  147.9271  135.2292  155.5142 H   0  0  0  0  0  0  0  0  0  0  0  0
  145.4490  137.6976  157.0561 H   0  0  0  0  0  0  0  0  0  0  0  0
  146.6568  138.9340  157.3918 H   0  0  0  0  0  0  0  0  0  0  0  0
  146.6640  137.4301  158.2947 H   0  0  0  0  0  0  0  0  0  0  0  0
  148.0929  139.5303  152.7928 H   0  0  0  0  0  0  0  0  0  0  0  0
  146.4086  139.8333  153.1300 H   0  0  0  0  0  0  0  0  0  0  0  0
  147.7085  141.8498  152.4881 H   0  0  0  0  0  0  0  0  0  0  0  0
  145.5840  142.1644  153.6619 H   0  0  0  0  0  0  0  0  0  0  0  0
  146.7443  143.3749  154.1961 H   0  0  0  0  0  0  0  0  0  0  0  0
  146.3608  141.9976  155.2270 H   0  0  0  0  0  0  0  0  0  0  0  0
  1  2  1  0  0  0  0
  1 24  1  0  0  0  0
  1 25  1  0  0  0  0
  1 26  1  0  0  0  0
  2 23  1  0  0  0  0
  2  3  1  0  0  0  0
  2 27  1  0  0  0  0
  3  4  1  0  0  0  0
  3 28  1  0  0  0  0
  3 29  1  0  0  0  0
  4  5  1  0  0  0  0
  4 20  1  0  0  0  0
  5  6  1  0  0  0  0
  5 17  1  0  0  0  0
  5 30  1  0  0  0  0
  6  7  2  0  0  0  0
  6  8  1  0  0  0  0
  8  9  1  0  0  0  0
  8 31  1  0  0  0  0
  9 10  1  0  0  0  0
  9 32  1  0  0  0  0
  9 33  1  0  0  0  0
 10 11  1  0  0  0  0
 10 34  1  0  0  0  0
 10 35  1  0  0  0  0
 11 16  1  0  0  0  0
 11 12  2  0  0  0  0
 12 13  1  0  0  0  0
 12 36  1  0  0  0  0
 13 14  2  0  0  0  0
 13 37  1  0  0  0  0
 14 15  1  0  0  0  0
 14 38  1  0  0  0  0
 15 16  2  0  0  0  0
 15 39  1  0  0  0  0
 17 18  1  0  0  0  0
 17 19  1  0  0  0  0
 17 40  1  0  0  0  0
 18 41  1  0  0  0  0
 18 42  1  0  0  0  0
 18 43  1  0  0  0  0
 19 44  1  0  0  0  0
 19 45  1  0  0  0  0
 19 46  1  0  0  0  0
 20 21  1  0  0  0  0
 20 47  1  0  0  0  0
 20 48  1  0  0  0  0
 21 22  1  0  0  0  0
 21 23  1  0  0  0  0
 21 49  1  0  0  0  0
 22 50  1  0  0  0  0
 22 51  1  0  0  0  0
 22 52  1  0  0  0  0
M  END
> <s_m_source_file>
AV-unprocessed.smi

> <i_m_source_file_index>
1762

> <i_lp_mmshare_version>
43012

> <i_f3d_flags>
0

> <s_epik_input>
W0NIM11bQ0BASF0xW0NIMl1OKFtDSDJdW0NASF0oTzEpW0NIM10pW0NAQEhdKFtDSF0oW0NIM10pW0NIM10pQyg9TylbTkhdW0NIMl1bQ0gyXWMyW2NIXVtjSF1bY0hdW2NIXW4y

> <s_epik_cmdline>
J2VwaWtfcHl0aG9uJywgJy1waCcsICc3LjAnLCAnLXRuJywgJzgnLCAnLW1hJywgJzIwMCcsICctbWV0YWxfYmluZGluZycsICctaW1hZScsICc8aW5maWxlLm1hZT4nLCAnLW9tYWUnLCAnPG91dGZpbGUubWFlPic=

> <r_epik_Ionization_Penalty>
0.0399736

> <r_epik_Ionization_Penalty_Charging>
0

> <r_epik_Ionization_Penalty_Neutral>
0.0399736

> <r_epik_State_Penalty>
0.0317634

> <r_epik_Charging_Adjusted_Penalty>
0.0317634

> <i_epik_Tot_Q>
0

> <i_epik_Tot_abs_Q>
0

> <r_epik_Metal_State_Penalty>
0.0307795

> <b_epik_Metal_Only>
0

> <s_lp_Force_Field>
OPLS_2005

> <r_lp_Energy>
28.4472

> <b_lp_Chiralities_Consistent>
1

> <s_lp_Variant>
AV-unprocessed.smi:1762-1

> <Gold.Version>
5.8.1

> <Gold.Id.Protein>
6NUR|6NUR_protein|mol2

> <Gold.PLP.Fitness>
41.6117

> <Gold.PLP.PLP>
-35.4035

> <Gold.PLP.part.hbond>
-2.0000

> <Gold.PLP.part.metal>
0.0000

> <Gold.PLP.part.buried>
-6.4260

> <Gold.PLP.part.nonpolar>
-27.6918

> <Gold.PLP.part.repulsive>
0.5549

> <Gold.PLP.ligand.clash>
0.0000

> <Gold.PLP.ligand.torsion>
0.7266

> <Gold.PLP.Chemscore.Hbond>
1.4352

> <Gold.PLP.Chemscore.CHOScore>
1.0000

> <Gold.PLP.Chemscore.Metal>
0.0000

> <Gold.Chemscore.Hbonds>
donor molecule, donor type, donor heavy atom, donor atom, acceptor molecule, acceptor atom, score
      L1  H     8    31       P1  7948  1.00
      P1  H  8011  8017       L1    23  0.36
      L1  C    15    39       P1 10747  1.00

> <Gold.PLP.Chemscore.Internal.Correction>
0.3557

> <Gold.Rescore>
     Score         DG    S(hbond)    S(metal)    S(lipo)     H(rot)  DE(clash)    DE(int)     intcor
     15.25     -15.98       1.02        0.00      95.62       1.60       0.09       0.64       ----

> <Gold.Chemscore.Fitness>
15.2525

> <Gold.Chemscore.DG>
-15.9822

> <Gold.Chemscore.ZeroCoef>
-5.4800

> <Gold.Chemscore.Hbond>
1.0208

> <Gold.Chemscore.Metal>
0.0000

> <Gold.Chemscore.Lipo>
95.6150

> <Gold.Chemscore.Internal_Hbond>
0.0000

> <Gold.Chemscore.DEClash>
0.0923

> <Gold.Chemscore.DEInternal>
0.6374

> <Gold.Chemscore.Rot>
1.5993

> <Gold.Chemscore.Internal.Correction>
   9.000000E+99

> <Gold.Chemscore.Hbonds>
donor molecule, donor type, donor heavy atom, donor atom, acceptor molecule, acceptor atom, score
      L1  H     8    31       P1  7948  0.95
      P1  H  8011  8017       L1    23  0.04

> <Gold.Chemscore.Hbond.Weighted>
-3.4093

> <Gold.Chemscore.Metal.Weighted>
-0.0000

> <Gold.Chemscore.Lipo.Weighted>
-11.1870

> <Gold.Chemscore.Internal_Hbond.Weighted>
0.0000

> <Gold.Chemscore.DEClash.Weighted>
0.0923

> <Gold.Chemscore.DEInternal.Weighted>
0.6374

> <Gold.Chemscore.Rot.Weighted>
4.0941

> <Gold.Chemscore.Internal.Correction.Weighted>
   9.000000E+99

> <Gold.Protein.RotatedTorsions>
[ 6907 6896 6895 6894 ] final  116.80 input  -60.11 | X-H torsion
[ 7974 7965 7964 7962 ] final  -42.39 input  175.53 | X-H torsion
[ 8008 7997 7996 7995 ] final  140.97 input   59.86 | X-H torsion
[ 10167 10162 10161 10158 ] final   85.65 input  -65.29 | X-H torsion
[ 10718 10713 10712 10709 ] final -169.51 input   66.30 | X-H torsion
[ 10763 10752 10751 10750 ] final   81.82 input  -60.55 | X-H torsion
[ 11005 11000 10999 10996 ] final -171.23 input  -57.11 | X-H torsion

> <Gold.Protein.ActiveResidues>
 VAL166  LYS551  ARG553  GLY616  TRP617  ASP618  TYR619  PRO620  LYS621  CYS622 
 ASP623  PHE694  ASN695  SER759  ASP760  ASP761  ALA762  ILE779  LEU786  VAL792 
 PHE793  MET794  SER795  GLU796  ALA797  LYS798  CYS799  TRP800  GLU811  SER814 

> <Gold.Protein.RotatedAtoms>
  152.4654  133.7911  159.6902 H   0  0  0  0  0  0  0  0  0  0  0  0  # atno 6907 bound_to 6896
  150.8616  133.7625  159.2997 H   0  0  0  0  0  0  0  0  0  0  0  0  # atno 6908 bound_to 6896
  151.5189  135.1070  159.9925 H   0  0  0  0  0  0  0  0  0  0  0  0  # atno 6909 bound_to 6896
  146.0120  140.6952  142.9219 H   0  0  0  0  0  0  0  0  0  0  0  0  # atno 7974 bound_to 7965
  156.2972  140.2327  156.4489 H   0  0  0  0  0  0  0  0  0  0  0  0  # atno 8008 bound_to 7997
  154.8119  140.0442  157.1369 H   0  0  0  0  0  0  0  0  0  0  0  0  # atno 8009 bound_to 7997
  154.9413  140.3030  155.5123 H   0  0  0  0  0  0  0  0  0  0  0  0  # atno 8010 bound_to 7997
  139.8956  144.6360  150.8692 H   0  0  0  0  0  0  0  0  0  0  0  0  # atno 10167 bound_to 10162
  156.7126  130.9239  151.3090 H   0  0  0  0  0  0  0  0  0  0  0  0  # atno 10718 bound_to 10713
  153.1150  135.4751  154.9099 H   0  0  0  0  0  0  0  0  0  0  0  0  # atno 10763 bound_to 10752
  154.7519  135.3108  154.8545 H   0  0  0  0  0  0  0  0  0  0  0  0  # atno 10764 bound_to 10752
  153.9124  135.6864  153.4804 H   0  0  0  0  0  0  0  0  0  0  0  0  # atno 10765 bound_to 10752
  140.5105  134.5806  157.5017 H   0  0  0  0  0  0  0  0  0  0  0  0  # atno 11005 bound_to 11000
  144.6957  140.3416  143.7198 LP  0  0  0  0  0  0  0  0  0  0  0  0  # atno 17320 bound_to 7965
  145.7327  139.1741  143.2421 LP  0  0  0  0  0  0  0  0  0  0  0  0  # atno 17321 bound_to 7965
  140.7717  143.3476  151.2079 LP  0  0  0  0  0  0  0  0  0  0  0  0  # atno 17342 bound_to 10162
  139.7071  143.9438  152.2931 LP  0  0  0  0  0  0  0  0  0  0  0  0  # atno 17343 bound_to 10162
  157.6930  130.9253  150.0565 LP  0  0  0  0  0  0  0  0  0  0  0  0  # atno 17370 bound_to 10713
  156.1650  130.3645  149.9245 LP  0  0  0  0  0  0  0  0  0  0  0  0  # atno 17371 bound_to 10713
  139.9661  134.7370  156.0135 LP  0  0  0  0  0  0  0  0  0  0  0  0  # atno 17394 bound_to 11000
  141.1388  133.6569  156.3669 LP  0  0  0  0  0  0  0  0  0  0  0  0  # atno 17395 bound_to 11000

$$$$
