AV-unprocessed.smi:2172|AV-procd|sdf|8834|dock2
  -GOLD-   2272012 23D 1   1.00000     0.00000
 Structure written by MMmdl.
 36 38  0  0  0  0  0  0  0  0  1 V2000
  151.5616  136.3766  155.3200 O   0  0  0  0  0  0  0  0  0  0  0  0
  151.7800  137.7503  155.5580 C   0  0  0  0  0  0  0  0  0  0  0  0
  150.6547  138.6151  155.0757 C   0  0  0  0  0  0  0  0  0  0  0  0
  149.6219  138.1056  154.4028 N   0  0  0  0  0  0  0  0  0  0  0  0
  148.8289  139.2127  154.1764 C   0  0  0  0  0  0  0  0  0  0  0  0
  147.5871  139.3321  153.5120 C   0  0  0  0  0  0  0  0  0  0  0  0
  146.9498  140.5861  153.4098 C   0  0  0  0  0  0  0  0  0  0  0  0
  147.5426  141.7356  153.9711 C   0  0  0  0  0  0  0  0  0  0  0  0
  148.7800  141.6386  154.6361 C   0  0  0  0  0  0  0  0  0  0  0  0
  149.4147  140.3853  154.7314 C   0  0  0  0  0  0  0  0  0  0  0  0
  150.6112  139.9548  155.2972 N   0  0  0  0  0  0  0  0  0  0  0  0
  151.5796  140.7978  155.9895 C   0  0  0  0  0  0  0  0  0  0  0  0
  150.9164  141.9067  156.8322 C   0  0  2  0  0  0  0  0  0  0  0  0
  150.9198  143.1287  156.1205 O   0  0  0  0  0  0  0  0  0  0  0  0
  151.5768  142.0294  158.1967 C   0  0  0  0  0  0  0  0  0  0  0  0
  151.9320  140.8664  158.9130 C   0  0  0  0  0  0  0  0  0  0  0  0
  152.5510  140.9699  160.1740 C   0  0  0  0  0  0  0  0  0  0  0  0
  152.8207  142.2375  160.7252 C   0  0  0  0  0  0  0  0  0  0  0  0
  153.5781  142.3637  162.2704 Cl  0  0  0  0  0  0  0  0  0  0  0  0
  152.4732  143.4016  160.0129 C   0  0  0  0  0  0  0  0  0  0  0  0
  151.8550  143.2982  158.7516 C   0  0  0  0  0  0  0  0  0  0  0  0
  150.9276  136.2902  154.6250 H   0  0  0  0  0  0  0  0  0  0  0  0
  151.9114  137.8961  156.6307 H   0  0  0  0  0  0  0  0  0  0  0  0
  152.7125  138.0622  155.0882 H   0  0  0  0  0  0  0  0  0  0  0  0
  147.1237  138.4567  153.0816 H   0  0  0  0  0  0  0  0  0  0  0  0
  146.0009  140.6655  152.9001 H   0  0  0  0  0  0  0  0  0  0  0  0
  147.0468  142.6919  153.8905 H   0  0  0  0  0  0  0  0  0  0  0  0
  149.2352  142.5176  155.0676 H   0  0  0  0  0  0  0  0  0  0  0  0
  152.1811  140.1543  156.6328 H   0  0  0  0  0  0  0  0  0  0  0  0
  152.2705  141.2373  155.2716 H   0  0  0  0  0  0  0  0  0  0  0  0
  149.8679  141.6527  156.9907 H   0  0  0  0  0  0  0  0  0  0  0  0
  150.0423  143.4791  156.1214 H   0  0  0  0  0  0  0  0  0  0  0  0
  151.7321  139.8897  158.4974 H   0  0  0  0  0  0  0  0  0  0  0  0
  152.8192  140.0756  160.7173 H   0  0  0  0  0  0  0  0  0  0  0  0
  152.6809  144.3751  160.4321 H   0  0  0  0  0  0  0  0  0  0  0  0
  151.5968  144.1973  158.2113 H   0  0  0  0  0  0  0  0  0  0  0  0
  1  2  1  0  0  0  0
  1 22  1  0  0  0  0
  2  3  1  0  0  0  0
  2 23  1  0  0  0  0
  2 24  1  0  0  0  0
  3 11  1  0  0  0  0
  3  4  2  0  0  0  0
  4  5  1  0  0  0  0
  5 10  2  0  0  0  0
  5  6  1  0  0  0  0
  6  7  2  0  0  0  0
  6 25  1  0  0  0  0
  7  8  1  0  0  0  0
  7 26  1  0  0  0  0
  8  9  2  0  0  0  0
  8 27  1  0  0  0  0
  9 10  1  0  0  0  0
  9 28  1  0  0  0  0
 10 11  1  0  0  0  0
 11 12  1  0  0  0  0
 12 13  1  0  0  0  0
 12 29  1  0  0  0  0
 12 30  1  0  0  0  0
 13 14  1  0  0  0  0
 13 15  1  0  0  0  0
 13 31  1  0  0  0  0
 14 32  1  0  0  0  0
 15 21  1  0  0  0  0
 15 16  2  0  0  0  0
 16 17  1  0  0  0  0
 16 33  1  0  0  0  0
 17 18  2  0  0  0  0
 17 34  1  0  0  0  0
 18 19  1  0  0  0  0
 18 20  1  0  0  0  0
 20 21  2  0  0  0  0
 20 35  1  0  0  0  0
 21 36  1  0  0  0  0
M  END
> <s_m_source_file>
AV-unprocessed.smi

> <i_m_source_file_index>
2172

> <i_lp_mmshare_version>
43012

> <i_f3d_flags>
0

> <s_epik_input>
W2NIXTFbY0hdW2NIXVtjSF1jKGMxMiluKGMobjIpW0NIMl1bT0hdKVtDSDJdW0NASF0oW09IXSljM1tjSF1bY0hdYyhDbClbY0hdW2NIXTM=

> <s_epik_cmdline>
J2VwaWtfcHl0aG9uJywgJy1waCcsICc3LjAnLCAnLXRuJywgJzgnLCAnLW1hJywgJzIwMCcsICctbWV0YWxfYmluZGluZycsICctaW1hZScsICc8aW5maWxlLm1hZT4nLCAnLW9tYWUnLCAnPG91dGZpbGUubWFlPic=

> <r_epik_Ionization_Penalty>
0.0634726

> <r_epik_Ionization_Penalty_Charging>
0

> <r_epik_Ionization_Penalty_Neutral>
0.0634726

> <r_epik_State_Penalty>
0.0551572

> <r_epik_Charging_Adjusted_Penalty>
0.0551572

> <i_epik_Tot_Q>
0

> <i_epik_Tot_abs_Q>
0

> <r_epik_Metal_State_Penalty>
5.78034e-05

> <b_epik_Metal_Only>
0

> <s_lp_Force_Field>
OPLS_2005

> <r_lp_Energy>
12.889

> <b_lp_Chiralities_Consistent>
1

> <s_lp_Variant>
AV-unprocessed.smi:2172-1

> <Gold.Version>
5.8.1

> <Gold.Id.Protein>
6NUR|6NUR_protein|mol2

> <Gold.PLP.Fitness>
50.4568

> <Gold.PLP.PLP>
-47.2523

> <Gold.PLP.part.hbond>
-2.0000

> <Gold.PLP.part.metal>
0.0000

> <Gold.PLP.part.buried>
-1.9785

> <Gold.PLP.part.nonpolar>
-42.9383

> <Gold.PLP.part.repulsive>
0.2256

> <Gold.PLP.ligand.clash>
0.0000

> <Gold.PLP.ligand.torsion>
1.3350

> <Gold.PLP.Chemscore.Hbond>
1.9440

> <Gold.PLP.Chemscore.CHOScore>
0.0000

> <Gold.PLP.Chemscore.Metal>
0.0000

> <Gold.Chemscore.Hbonds>
donor molecule, donor type, donor heavy atom, donor atom, acceptor molecule, acceptor atom, score
      L1  H    14    32       P1  8028  1.00
      P1  H 10752 10765       L1     1  1.00

> <Gold.PLP.Chemscore.Internal.Correction>
0.0423

> <Gold.Rescore>
     Score         DG    S(hbond)    S(metal)    S(lipo)     H(rot)  DE(clash)    DE(int)     intcor
     16.69     -20.01       1.89        0.00     127.74       2.62       0.64       2.67       ----

> <Gold.Chemscore.Fitness>
16.6948

> <Gold.Chemscore.DG>
-20.0094

> <Gold.Chemscore.ZeroCoef>
-5.4800

> <Gold.Chemscore.Hbond>
1.8861

> <Gold.Chemscore.Metal>
0.0000

> <Gold.Chemscore.Lipo>
127.7375

> <Gold.Chemscore.Internal_Hbond>
0.0000

> <Gold.Chemscore.DEClash>
0.6438

> <Gold.Chemscore.DEInternal>
2.6708

> <Gold.Chemscore.Rot>
2.6232

> <Gold.Chemscore.Internal.Correction>
   9.000000E+99

> <Gold.Chemscore.Hbonds>
donor molecule, donor type, donor heavy atom, donor atom, acceptor molecule, acceptor atom, score
      L1  H    14    32       P1  8028  0.94
      P1  H 10752 10765       L1     1  0.26

> <Gold.Chemscore.Hbond.Weighted>
-6.2996

> <Gold.Chemscore.Metal.Weighted>
-0.0000

> <Gold.Chemscore.Lipo.Weighted>
-14.9453

> <Gold.Chemscore.Internal_Hbond.Weighted>
0.0000

> <Gold.Chemscore.DEClash.Weighted>
0.6438

> <Gold.Chemscore.DEInternal.Weighted>
2.6708

> <Gold.Chemscore.Rot.Weighted>
6.7154

> <Gold.Chemscore.Internal.Correction.Weighted>
   9.000000E+99

> <Gold.Protein.RotatedTorsions>
[ 6907 6896 6895 6894 ] final   72.01 input  -60.11 | X-H torsion
[ 7974 7965 7964 7962 ] final   78.02 input  175.53 | X-H torsion
[ 8008 7997 7996 7995 ] final  153.22 input   59.86 | X-H torsion
[ 10167 10162 10161 10158 ] final   75.44 input  -65.29 | X-H torsion
[ 10718 10713 10712 10709 ] final  -56.80 input   66.30 | X-H torsion
[ 10763 10752 10751 10750 ] final  179.10 input  -60.55 | X-H torsion
[ 11005 11000 10999 10996 ] final  160.83 input  -57.11 | X-H torsion

> <Gold.Protein.ActiveResidues>
 VAL166  LYS551  ARG553  GLY616  TRP617  ASP618  TYR619  PRO620  LYS621  CYS622 
 ASP623  PHE694  ASN695  SER759  ASP760  ASP761  ALA762  ILE779  LEU786  VAL792 
 PHE793  MET794  SER795  GLU796  ALA797  LYS798  CYS799  TRP800  GLU811  SER814 

> <Gold.Protein.RotatedAtoms>
  152.4843  134.4635  159.9612 H   0  0  0  0  0  0  0  0  0  0  0  0  # atno 6907 bound_to 6896
  151.4634  133.3581  159.2820 H   0  0  0  0  0  0  0  0  0  0  0  0  # atno 6908 bound_to 6896
  150.8941  134.8373  159.7374 H   0  0  0  0  0  0  0  0  0  0  0  0  # atno 6909 bound_to 6896
  145.6826  139.2528  143.1805 H   0  0  0  0  0  0  0  0  0  0  0  0  # atno 7974 bound_to 7965
  156.2592  140.1999  156.6456 H   0  0  0  0  0  0  0  0  0  0  0  0  # atno 8008 bound_to 7997
  154.6575  140.0564  157.0050 H   0  0  0  0  0  0  0  0  0  0  0  0  # atno 8009 bound_to 7997
  155.1325  140.3235  155.4473 H   0  0  0  0  0  0  0  0  0  0  0  0  # atno 8010 bound_to 7997
  140.0030  144.5672  150.7721 H   0  0  0  0  0  0  0  0  0  0  0  0  # atno 10167 bound_to 10162
  156.1260  130.4162  150.0354 H   0  0  0  0  0  0  0  0  0  0  0  0  # atno 10718 bound_to 10713
  154.5163  135.2791  155.1300 H   0  0  0  0  0  0  0  0  0  0  0  0  # atno 10763 bound_to 10752
  154.2875  135.6273  153.5375 H   0  0  0  0  0  0  0  0  0  0  0  0  # atno 10764 bound_to 10752
  152.9928  135.5666  154.5641 H   0  0  0  0  0  0  0  0  0  0  0  0  # atno 10765 bound_to 10752
  140.2098  134.8276  157.3108 H   0  0  0  0  0  0  0  0  0  0  0  0  # atno 11005 bound_to 11000
  146.0951  140.7610  142.9576 LP  0  0  0  0  0  0  0  0  0  0  0  0  # atno 17320 bound_to 7965
  144.7021  140.3699  143.7147 LP  0  0  0  0  0  0  0  0  0  0  0  0  # atno 17321 bound_to 7965
  140.7411  143.2814  151.3588 LP  0  0  0  0  0  0  0  0  0  0  0  0  # atno 17342 bound_to 10162
  139.6258  144.0816  152.2433 LP  0  0  0  0  0  0  0  0  0  0  0  0  # atno 17343 bound_to 10162
  156.8280  130.9382  151.3638 LP  0  0  0  0  0  0  0  0  0  0  0  0  # atno 17370 bound_to 10713
  157.6441  130.8830  149.9505 LP  0  0  0  0  0  0  0  0  0  0  0  0  # atno 17371 bound_to 10713
  140.1963  134.4309  155.7687 LP  0  0  0  0  0  0  0  0  0  0  0  0  # atno 17394 bound_to 11000
  141.2226  133.7051  156.8111 LP  0  0  0  0  0  0  0  0  0  0  0  0  # atno 17395 bound_to 11000

$$$$
