AV-unprocessed.smi:490|AV-procd|sdf|2706|dock5
  -GOLD-   2262023143D 1   1.00000     0.00000
 Structure written by MMmdl.
 50 52  0  0  0  0  0  0  0  0  2 V2000
  151.2320  145.1598  159.5755 C   0  0  0  0  0  0  0  0  0  0  0  0
  151.9667  143.8499  159.8045 C   0  0  0  0  0  0  0  0  0  0  0  0
  152.5552  143.6081  161.0625 C   0  0  0  0  0  0  0  0  0  0  0  0
  153.2473  142.4091  161.3061 C   0  0  0  0  0  0  0  0  0  0  0  0
  153.3524  141.4337  160.2958 C   0  0  0  0  0  0  0  0  0  0  0  0
  154.1112  140.1495  160.5763 C   0  0  0  0  0  0  0  0  0  0  0  0
  152.7515  141.6598  159.0353 C   0  0  0  0  0  0  0  0  0  0  0  0
  152.8521  140.7060  158.0553 O   0  0  0  0  0  0  0  0  0  0  0  0
  152.1685  139.4995  158.3618 C   0  0  0  0  0  0  0  0  0  0  0  0
  150.9101  139.4092  157.4862 C   0  0  1  0  0  0  0  0  0  0  0  0
  149.8774  140.1479  158.1078 O   0  0  0  0  0  0  0  0  0  0  0  0
  151.1532  139.9696  156.0711 C   0  0  0  0  0  0  0  0  0  0  0  0
  150.1920  139.4560  155.0807 N   0  0  0  0  0  0  0  0  0  0  0  0
  150.1279  138.2364  154.4713 C   0  0  0  0  0  0  0  0  0  0  0  0
  151.0484  137.0779  154.6754 C   0  0  0  0  0  0  0  0  0  0  0  0
  152.2071  137.1664  153.8761 O   0  0  0  0  0  0  0  0  0  0  0  0
  149.0494  138.2573  153.6384 N   0  3  0  0  0  0  0  0  0  0  0  0
  148.4156  139.4977  153.7160 C   0  0  0  0  0  0  0  0  0  0  0  0
  147.2875  139.9851  153.0629 C   0  0  0  0  0  0  0  0  0  0  0  0
  146.8966  141.3040  153.3738 C   0  0  0  0  0  0  0  0  0  0  0  0
  147.6170  142.0830  154.3023 C   0  0  0  0  0  0  0  0  0  0  0  0
  148.7598  141.5780  154.9573 C   0  0  0  0  0  0  0  0  0  0  0  0
  149.1422  140.2736  154.6426 C   0  0  0  0  0  0  0  0  0  0  0  0
  152.0706  142.8766  158.7795 C   0  0  0  0  0  0  0  0  0  0  0  0
  151.4506  143.1353  157.4125 C   0  0  0  0  0  0  0  0  0  0  0  0
  151.1271  145.7232  160.5034 H   0  0  0  0  0  0  0  0  0  0  0  0
  150.2312  144.9787  159.1826 H   0  0  0  0  0  0  0  0  0  0  0  0
  151.7770  145.7820  158.8652 H   0  0  0  0  0  0  0  0  0  0  0  0
  152.4827  144.3460  161.8482 H   0  0  0  0  0  0  0  0  0  0  0  0
  153.6979  142.2416  162.2734 H   0  0  0  0  0  0  0  0  0  0  0  0
  154.6668  139.8224  159.6969 H   0  0  0  0  0  0  0  0  0  0  0  0
  153.4193  139.3570  160.8616 H   0  0  0  0  0  0  0  0  0  0  0  0
  154.8256  140.2870  161.3884 H   0  0  0  0  0  0  0  0  0  0  0  0
  152.8097  138.6269  158.2262 H   0  0  0  0  0  0  0  0  0  0  0  0
  151.8796  139.5213  159.4141 H   0  0  0  0  0  0  0  0  0  0  0  0
  150.5995  138.3668  157.4067 H   0  0  0  0  0  0  0  0  0  0  0  0
  149.8913  141.0272  157.7610 H   0  0  0  0  0  0  0  0  0  0  0  0
  151.1339  141.0596  156.0676 H   0  0  0  0  0  0  0  0  0  0  0  0
  152.1491  139.6896  155.7271 H   0  0  0  0  0  0  0  0  0  0  0  0
  151.3438  137.0307  155.7238 H   0  0  0  0  0  0  0  0  0  0  0  0
  150.5279  136.1474  154.4495 H   0  0  0  0  0  0  0  0  0  0  0  0
  151.9601  137.0435  152.9722 H   0  0  0  0  0  0  0  0  0  0  0  0
  146.7322  139.3888  152.3539 H   0  0  0  0  0  0  0  0  0  0  0  0
  146.0255  141.7254  152.8932 H   0  0  0  0  0  0  0  0  0  0  0  0
  147.2855  143.0883  154.5190 H   0  0  0  0  0  0  0  0  0  0  0  0
  149.2979  142.1823  155.6722 H   0  0  0  0  0  0  0  0  0  0  0  0
  151.7953  142.4275  156.6592 H   0  0  0  0  0  0  0  0  0  0  0  0
  151.7072  144.1321  157.0535 H   0  0  0  0  0  0  0  0  0  0  0  0
  150.3646  143.0602  157.4728 H   0  0  0  0  0  0  0  0  0  0  0  0
  148.7663  137.4740  153.0640 H   0  0  0  0  0  0  0  0  0  0  0  0
  1  2  1  0  0  0  0
  1 26  1  0  0  0  0
  1 27  1  0  0  0  0
  1 28  1  0  0  0  0
  2 24  1  0  0  0  0
  2  3  2  0  0  0  0
  3  4  1  0  0  0  0
  3 29  1  0  0  0  0
  4  5  2  0  0  0  0
  4 30  1  0  0  0  0
  5  6  1  0  0  0  0
  5  7  1  0  0  0  0
  6 31  1  0  0  0  0
  6 32  1  0  0  0  0
  6 33  1  0  0  0  0
  7  8  1  0  0  0  0
  7 24  2  0  0  0  0
  8  9  1  0  0  0  0
  9 10  1  0  0  0  0
  9 34  1  0  0  0  0
  9 35  1  0  0  0  0
 10 11  1  0  0  0  0
 10 12  1  0  0  0  0
 10 36  1  0  0  0  0
 11 37  1  0  0  0  0
 12 13  1  0  0  0  0
 12 38  1  0  0  0  0
 12 39  1  0  0  0  0
 13 23  1  0  0  0  0
 13 14  1  0  0  0  0
 14 15  1  0  0  0  0
 14 17  2  0  0  0  0
 15 16  1  0  0  0  0
 15 40  1  0  0  0  0
 15 41  1  0  0  0  0
 16 42  1  0  0  0  0
 17 18  1  0  0  0  0
 17 50  1  0  0  0  0
 18 23  2  0  0  0  0
 18 19  1  0  0  0  0
 19 20  2  0  0  0  0
 19 43  1  0  0  0  0
 20 21  1  0  0  0  0
 20 44  1  0  0  0  0
 21 22  2  0  0  0  0
 21 45  1  0  0  0  0
 22 23  1  0  0  0  0
 22 46  1  0  0  0  0
 24 25  1  0  0  0  0
 25 47  1  0  0  0  0
 25 48  1  0  0  0  0
 25 49  1  0  0  0  0
M  CHG  1  17   1
M  END
> <s_m_source_file>
AV-unprocessed.smi

> <i_m_source_file_index>
490

> <i_lp_mmshare_version>
43012

> <i_f3d_flags>
0

> <s_epik_input>
W0NIM11jMVtjSF1bY0hdYyhbQ0gzXSljKGMxW0NIM10pT1tDSDJdW0NASF0oW09IXSlbQ0gyXW4oYyhuMilbQ0gyXVtPSF0pYyhjMjMpW2NIXVtjSF1bY0hdW2NIXTM=

> <s_epik_cmdline>
J2VwaWtfcHl0aG9uJywgJy1waCcsICc3LjAnLCAnLXRuJywgJzgnLCAnLW1hJywgJzIwMCcsICctbWV0YWxfYmluZGluZycsICctaW1hZScsICc8aW5maWxlLm1hZT4nLCAnLW9tYWUnLCAnPG91dGZpbGUubWFlPic=

> <r_lp_tautomer_probability>
1

> <r_epik_Ionization_Penalty>
1.43125

> <r_epik_Ionization_Penalty_Charging>
1.43039

> <r_epik_Ionization_Penalty_Neutral>
0.000858184

> <r_epik_State_Penalty>
1.51493

> <r_epik_Charging_Adjusted_Penalty>
2.94531

> <i_epik_Tot_Q>
1

> <i_epik_Tot_abs_Q>
1

> <r_epik_Metal_State_Penalty>
5.5599

> <b_epik_Metal_Only>
0

> <s_lp_Force_Field>
OPLS_2005

> <r_lp_Energy>
24.5509

> <b_lp_Chiralities_Consistent>
1

> <s_lp_Variant>
AV-unprocessed.smi:490-4

> <Gold.Version>
5.8.1

> <Gold.Id.Protein>
6NUR|6NUR_protein|mol2

> <Gold.PLP.Fitness>
68.4734

> <Gold.PLP.PLP>
-57.4041

> <Gold.PLP.part.hbond>
-4.9506

> <Gold.PLP.part.metal>
0.0000

> <Gold.PLP.part.buried>
-0.9864

> <Gold.PLP.part.nonpolar>
-51.8023

> <Gold.PLP.part.repulsive>
0.0478

> <Gold.PLP.ligand.clash>
0.0000

> <Gold.PLP.ligand.torsion>
1.3850

> <Gold.PLP.Chemscore.Hbond>
4.5616

> <Gold.PLP.Chemscore.CHOScore>
0.0000

> <Gold.PLP.Chemscore.Metal>
0.0000

> <Gold.Chemscore.Hbonds>
donor molecule, donor type, donor heavy atom, donor atom, acceptor molecule, acceptor atom, score
      L1  H    16    42       P1  7949  1.00
      L1  H    17    50       P1  7948  2.00
      P1  H  7997  8008       L1     8  0.60
      P1  H 10752 10765       L1    16  0.84

> <Gold.PLP.Chemscore.Internal.Correction>
0.1545

> <Gold.Rescore>
     Score         DG    S(hbond)    S(metal)    S(lipo)     H(rot)  DE(clash)    DE(int)     intcor
     24.40     -26.42       3.09        0.00     156.77       3.02       0.47       1.55       ----

> <Gold.Chemscore.Fitness>
24.4010

> <Gold.Chemscore.DG>
-26.4213

> <Gold.Chemscore.ZeroCoef>
-5.4800

> <Gold.Chemscore.Hbond>
3.0912

> <Gold.Chemscore.Metal>
0.0000

> <Gold.Chemscore.Lipo>
156.7741

> <Gold.Chemscore.Internal_Hbond>
0.0000

> <Gold.Chemscore.DEClash>
0.4735

> <Gold.Chemscore.DEInternal>
1.5469

> <Gold.Chemscore.Rot>
3.0180

> <Gold.Chemscore.Internal.Correction>
   9.000000E+99

> <Gold.Chemscore.Hbonds>
donor molecule, donor type, donor heavy atom, donor atom, acceptor molecule, acceptor atom, score
      L1  H    16    42       P1  7949  0.95
      L1  H    17    50       P1  7948  0.98
      P1  H  7997  8008       L1     8  0.26
      P1  H 10752 10765       L1    16  0.08

> <Gold.Chemscore.Hbond.Weighted>
-10.3247

> <Gold.Chemscore.Metal.Weighted>
-0.0000

> <Gold.Chemscore.Lipo.Weighted>
-18.3426

> <Gold.Chemscore.Internal_Hbond.Weighted>
0.0000

> <Gold.Chemscore.DEClash.Weighted>
0.4735

> <Gold.Chemscore.DEInternal.Weighted>
1.5469

> <Gold.Chemscore.Rot.Weighted>
7.7260

> <Gold.Chemscore.Internal.Correction.Weighted>
   9.000000E+99

> <Gold.Protein.RotatedTorsions>
[ 6907 6896 6895 6894 ] final    9.95 input  -60.11 | X-H torsion
[ 7974 7965 7964 7962 ] final  -80.79 input  175.53 | X-H torsion
[ 8008 7997 7996 7995 ] final  -76.55 input   59.86 | X-H torsion
[ 10167 10162 10161 10158 ] final -158.89 input  -65.29 | X-H torsion
[ 10718 10713 10712 10709 ] final -167.45 input   66.30 | X-H torsion
[ 10763 10752 10751 10750 ] final  148.30 input  -60.55 | X-H torsion
[ 11005 11000 10999 10996 ] final   33.55 input  -57.11 | X-H torsion

> <Gold.Protein.ActiveResidues>
 VAL166  LYS551  ARG553  GLY616  TRP617  ASP618  TYR619  PRO620  LYS621  CYS622 
 ASP623  PHE694  ASN695  SER759  ASP760  ASP761  ALA762  ILE779  LEU786  VAL792 
 PHE793  MET794  SER795  GLU796  ALA797  LYS798  CYS799  TRP800  GLU811  SER814 

> <Gold.Protein.RotatedAtoms>
  151.7304  135.0876  160.0298 H   0  0  0  0  0  0  0  0  0  0  0  0  # atno 6907 bound_to 6896
  152.3545  133.6215  159.5977 H   0  0  0  0  0  0  0  0  0  0  0  0  # atno 6908 bound_to 6896
  150.7562  133.9438  159.3506 H   0  0  0  0  0  0  0  0  0  0  0  0  # atno 6909 bound_to 6896
  145.5553  140.9490  143.1477 H   0  0  0  0  0  0  0  0  0  0  0  0  # atno 7974 bound_to 7965
  154.5515  140.0725  156.8675 H   0  0  0  0  0  0  0  0  0  0  0  0  # atno 8008 bound_to 7997
  155.2984  140.3382  155.4230 H   0  0  0  0  0  0  0  0  0  0  0  0  # atno 8009 bound_to 7997
  156.1965  140.1705  156.7973 H   0  0  0  0  0  0  0  0  0  0  0  0  # atno 8010 bound_to 7997
  139.6657  143.9833  152.2253 H   0  0  0  0  0  0  0  0  0  0  0  0  # atno 10167 bound_to 10162
  156.6825  130.9127  151.3059 H   0  0  0  0  0  0  0  0  0  0  0  0  # atno 10718 bound_to 10713
  154.0525  135.2880  155.3338 H   0  0  0  0  0  0  0  0  0  0  0  0  # atno 10763 bound_to 10752
  154.6860  135.5245  153.8330 H   0  0  0  0  0  0  0  0  0  0  0  0  # atno 10764 bound_to 10752
  153.0555  135.6593  154.0720 H   0  0  0  0  0  0  0  0  0  0  0  0  # atno 10765 bound_to 10752
  140.2620  134.3181  155.7855 H   0  0  0  0  0  0  0  0  0  0  0  0  # atno 11005 bound_to 11000
  144.7509  139.7196  143.7273 LP  0  0  0  0  0  0  0  0  0  0  0  0  # atno 17320 bound_to 7965
  146.1889  139.5118  142.9818 LP  0  0  0  0  0  0  0  0  0  0  0  0  # atno 17321 bound_to 7965
  139.9584  144.6574  150.8103 LP  0  0  0  0  0  0  0  0  0  0  0  0  # atno 17342 bound_to 10162
  140.7598  143.3138  151.2782 LP  0  0  0  0  0  0  0  0  0  0  0  0  # atno 17343 bound_to 10162
  157.7038  130.9362  150.0867 LP  0  0  0  0  0  0  0  0  0  0  0  0  # atno 17370 bound_to 10713
  156.1857  130.3652  149.8976 LP  0  0  0  0  0  0  0  0  0  0  0  0  # atno 17371 bound_to 10713
  141.2189  133.7415  156.9201 LP  0  0  0  0  0  0  0  0  0  0  0  0  # atno 17394 bound_to 11000
  140.1455  134.9265  157.2524 LP  0  0  0  0  0  0  0  0  0  0  0  0  # atno 17395 bound_to 11000

$$$$
