AV-unprocessed.smi:1255|AV-procd|sdf|5281|dock8
  -GOLD-   22720 4403D 1   1.00000     0.00000
 Structure written by MMmdl.
 40 41  0  0  0  0  0  0  0  0  1 V2000
  146.2240  132.7172  150.3977 C   0  0  0  0  0  0  0  0  0  0  0  0
  146.0965  133.5291  151.6977 C   0  0  2  0  0  0  0  0  0  0  0  0
  146.4536  134.9161  151.4019 N   0  0  0  0  0  0  0  0  0  0  0  0
  145.5890  135.8694  151.0249 C   0  0  0  0  0  0  0  0  0  0  0  0
  146.1810  137.0514  150.8512 N   0  0  0  0  0  0  0  0  0  0  0  0
  144.3842  135.6911  150.8565 O   0  0  0  0  0  0  0  0  0  0  0  0
  147.0646  132.9292  152.7314 C   0  0  0  0  0  0  0  0  0  0  0  0
  146.9131  131.7687  153.1154 O   0  0  0  0  0  0  0  0  0  0  0  0
  148.0426  133.7515  153.1537 N   0  0  0  0  0  0  0  0  0  0  0  0
  149.0752  133.4927  154.0950 C   0  0  0  0  0  0  0  0  0  0  0  0
  149.8839  134.4901  154.6871 C   0  0  0  0  0  0  0  0  0  0  0  0
  150.8898  134.1040  155.5934 C   0  0  0  0  0  0  0  0  0  0  0  0
  151.0737  132.7311  155.8818 C   0  0  0  0  0  0  0  0  0  0  0  0
  152.0761  132.3232  156.7888 N   0  0  0  0  0  0  0  0  0  0  0  0
  153.4259  132.8046  156.5048 C   0  0  0  0  0  0  0  0  0  0  0  0
  154.3454  132.5644  157.7148 C   0  0  0  0  0  0  0  0  0  0  0  0
  154.3126  131.1891  158.0823 O   0  0  0  0  0  0  0  0  0  0  0  0
  153.0052  130.7737  158.4625 C   0  0  0  0  0  0  0  0  0  0  0  0
  152.0424  130.9452  157.2759 C   0  0  0  0  0  0  0  0  0  0  0  0
  150.3015  131.7772  155.3058 N   0  0  0  0  0  0  0  0  0  0  0  0
  149.3394  132.1514  154.4366 C   0  0  0  0  0  0  0  0  0  0  0  0
  145.9642  131.6699  150.5576 H   0  0  0  0  0  0  0  0  0  0  0  0
  147.2371  132.7509  149.9937 H   0  0  0  0  0  0  0  0  0  0  0  0
  145.5517  133.1033  149.6307 H   0  0  0  0  0  0  0  0  0  0  0  0
  145.0684  133.4779  152.0623 H   0  0  0  0  0  0  0  0  0  0  0  0
  147.4238  135.1694  151.5181 H   0  0  0  0  0  0  0  0  0  0  0  0
  145.6410  137.8533  150.5610 H   0  0  0  0  0  0  0  0  0  0  0  0
  147.1751  137.1367  151.0067 H   0  0  0  0  0  0  0  0  0  0  0  0
  148.0915  134.6490  152.6935 H   0  0  0  0  0  0  0  0  0  0  0  0
  149.7633  135.5376  154.4592 H   0  0  0  0  0  0  0  0  0  0  0  0
  151.4972  134.8638  156.0618 H   0  0  0  0  0  0  0  0  0  0  0  0
  153.8114  132.2741  155.6330 H   0  0  0  0  0  0  0  0  0  0  0  0
  153.4346  133.8654  156.2587 H   0  0  0  0  0  0  0  0  0  0  0  0
  155.3703  132.8405  157.4669 H   0  0  0  0  0  0  0  0  0  0  0  0
  154.0445  133.1852  158.5603 H   0  0  0  0  0  0  0  0  0  0  0  0
  153.0390  129.7283  158.7699 H   0  0  0  0  0  0  0  0  0  0  0  0
  152.6651  131.3487  159.3255 H   0  0  0  0  0  0  0  0  0  0  0  0
  151.0321  130.6795  157.5900 H   0  0  0  0  0  0  0  0  0  0  0  0
  152.3225  130.2687  156.4670 H   0  0  0  0  0  0  0  0  0  0  0  0
  148.7582  131.3503  154.0035 H   0  0  0  0  0  0  0  0  0  0  0  0
  1  2  1  0  0  0  0
  1 22  1  0  0  0  0
  1 23  1  0  0  0  0
  1 24  1  0  0  0  0
  2  3  1  0  0  0  0
  2  7  1  0  0  0  0
  2 25  1  0  0  0  0
  3  4  1  0  0  0  0
  3 26  1  0  0  0  0
  4  5  1  0  0  0  0
  4  6  2  0  0  0  0
  5 27  1  0  0  0  0
  5 28  1  0  0  0  0
  7  8  2  0  0  0  0
  7  9  1  0  0  0  0
  9 10  1  0  0  0  0
  9 29  1  0  0  0  0
 10 21  1  0  0  0  0
 10 11  2  0  0  0  0
 11 12  1  0  0  0  0
 11 30  1  0  0  0  0
 12 13  2  0  0  0  0
 12 31  1  0  0  0  0
 13 14  1  0  0  0  0
 13 20  1  0  0  0  0
 14 19  1  0  0  0  0
 14 15  1  0  0  0  0
 15 16  1  0  0  0  0
 15 32  1  0  0  0  0
 15 33  1  0  0  0  0
 16 17  1  0  0  0  0
 16 34  1  0  0  0  0
 16 35  1  0  0  0  0
 17 18  1  0  0  0  0
 18 19  1  0  0  0  0
 18 36  1  0  0  0  0
 18 37  1  0  0  0  0
 19 38  1  0  0  0  0
 19 39  1  0  0  0  0
 20 21  2  0  0  0  0
 21 40  1  0  0  0  0
M  END
> <s_m_source_file>
AV-unprocessed.smi

> <i_m_source_file_index>
1255

> <i_lp_mmshare_version>
43012

> <i_f3d_flags>
0

> <s_epik_input>
W05IMl1DKD1PKVtOSF1bQ0BASF0oW0NIM10pQyg9TylbTkhdYzFbY0hdW2NIXWMobltjSF0xKU4yW0NIMl1bQ0gyXU9bQ0gyXVtDSDJdMg==

> <s_epik_cmdline>
J2VwaWtfcHl0aG9uJywgJy1waCcsICc3LjAnLCAnLXRuJywgJzgnLCAnLW1hJywgJzIwMCcsICctbWV0YWxfYmluZGluZycsICctaW1hZScsICc8aW5maWxlLm1hZT4nLCAnLW9tYWUnLCAnPG91dGZpbGUubWFlPic=

> <r_lp_tautomer_probability>
1

> <r_epik_Ionization_Penalty>
0.00069351

> <r_epik_Ionization_Penalty_Charging>
0

> <r_epik_Ionization_Penalty_Neutral>
0.00069351

> <r_epik_State_Penalty>
0.000408291

> <r_epik_Charging_Adjusted_Penalty>
0.000408291

> <i_epik_Tot_Q>
0

> <i_epik_Tot_abs_Q>
0

> <r_epik_Metal_State_Penalty>
-0

> <b_epik_Metal_Only>
0

> <s_lp_Force_Field>
OPLS_2005

> <r_lp_Energy>
17.9712

> <b_lp_Chiralities_Consistent>
1

> <s_lp_Variant>
AV-unprocessed.smi:1255-1

> <Gold.Version>
5.8.1

> <Gold.Id.Protein>
6NUR|6NUR_protein|mol2

> <Gold.PLP.Fitness>
39.3247

> <Gold.PLP.PLP>
-28.7561

> <Gold.PLP.part.hbond>
-4.1708

> <Gold.PLP.part.metal>
0.0000

> <Gold.PLP.part.buried>
-6.1148

> <Gold.PLP.part.nonpolar>
-19.4153

> <Gold.PLP.part.repulsive>
0.7638

> <Gold.PLP.ligand.clash>
0.0000

> <Gold.PLP.ligand.torsion>
0.6185

> <Gold.PLP.Chemscore.Hbond>
3.8120

> <Gold.PLP.Chemscore.CHOScore>
0.0000

> <Gold.PLP.Chemscore.Metal>
0.0000

> <Gold.Chemscore.Hbonds>
donor molecule, donor type, donor heavy atom, donor atom, acceptor molecule, acceptor atom, score
      L1  H     3    26       P1  7948  1.00
      L1  H     5    27       P1 10171  0.94
      L1  H     5    28       P1  7948  0.72
      L1  H     9    29       P1  7948  1.00

> <Gold.PLP.Chemscore.Internal.Correction>
0.3694

> <Gold.Rescore>
     Score         DG    S(hbond)    S(metal)    S(lipo)     H(rot)  DE(clash)    DE(int)     intcor
     14.78     -17.12       3.23        0.00      49.02       1.91       0.31       2.03       ----

> <Gold.Chemscore.Fitness>
14.7775

> <Gold.Chemscore.DG>
-17.1216

> <Gold.Chemscore.ZeroCoef>
-5.4800

> <Gold.Chemscore.Hbond>
3.2299

> <Gold.Chemscore.Metal>
0.0000

> <Gold.Chemscore.Lipo>
49.0153

> <Gold.Chemscore.Internal_Hbond>
0.0000

> <Gold.Chemscore.DEClash>
0.3120

> <Gold.Chemscore.DEInternal>
2.0322

> <Gold.Chemscore.Rot>
1.9067

> <Gold.Chemscore.Internal.Correction>
   9.000000E+99

> <Gold.Chemscore.Hbonds>
donor molecule, donor type, donor heavy atom, donor atom, acceptor molecule, acceptor atom, score
      L1  H     3    26       P1  7948  0.78
      L1  H     5    27       P1 10171  0.85
      L1  H     5    28       P1  7948  0.70
      L1  H     9    29       P1  7948  0.59

> <Gold.Chemscore.Hbond.Weighted>
-10.7880

> <Gold.Chemscore.Metal.Weighted>
-0.0000

> <Gold.Chemscore.Lipo.Weighted>
-5.7348

> <Gold.Chemscore.Internal_Hbond.Weighted>
0.0000

> <Gold.Chemscore.DEClash.Weighted>
0.3120

> <Gold.Chemscore.DEInternal.Weighted>
2.0322

> <Gold.Chemscore.Rot.Weighted>
4.8811

> <Gold.Chemscore.Internal.Correction.Weighted>
   9.000000E+99

> <Gold.Protein.RotatedTorsions>
[ 6907 6896 6895 6894 ] final -175.21 input  -60.11 | X-H torsion
[ 7974 7965 7964 7962 ] final   96.19 input  175.53 | X-H torsion
[ 8008 7997 7996 7995 ] final  -96.55 input   59.86 | X-H torsion
[ 10167 10162 10161 10158 ] final  -73.06 input  -65.29 | X-H torsion
[ 10718 10713 10712 10709 ] final   54.13 input   66.30 | X-H torsion
[ 10763 10752 10751 10750 ] final   73.61 input  -60.55 | X-H torsion
[ 11005 11000 10999 10996 ] final  171.93 input  -57.11 | X-H torsion

> <Gold.Protein.ActiveResidues>
 VAL166  LYS551  ARG553  GLY616  TRP617  ASP618  TYR619  PRO620  LYS621  CYS622 
 ASP623  PHE694  ASN695  SER759  ASP760  ASP761  ALA762  ILE779  LEU786  VAL792 
 PHE793  MET794  SER795  GLU796  ALA797  LYS798  CYS799  TRP800  GLU811  SER814 

> <Gold.Protein.RotatedAtoms>
  151.5848  133.3373  159.3015 H   0  0  0  0  0  0  0  0  0  0  0  0  # atno 6907 bound_to 6896
  150.8293  134.7542  159.6851 H   0  0  0  0  0  0  0  0  0  0  0  0  # atno 6908 bound_to 6896
  152.4378  134.5657  159.9958 H   0  0  0  0  0  0  0  0  0  0  0  0  # atno 6909 bound_to 6896
  145.4421  139.2300  143.3086 H   0  0  0  0  0  0  0  0  0  0  0  0  # atno 7974 bound_to 7965
  154.7759  140.0470  157.1088 H   0  0  0  0  0  0  0  0  0  0  0  0  # atno 8008 bound_to 7997
  154.9763  140.3096  155.4946 H   0  0  0  0  0  0  0  0  0  0  0  0  # atno 8009 bound_to 7997
  156.2929  140.2244  156.4860 H   0  0  0  0  0  0  0  0  0  0  0  0  # atno 8010 bound_to 7997
  140.5141  143.2340  151.7543 H   0  0  0  0  0  0  0  0  0  0  0  0  # atno 10167 bound_to 10162
  157.5230  130.8577  149.8583 H   0  0  0  0  0  0  0  0  0  0  0  0  # atno 10718 bound_to 10713
  153.0532  135.5056  154.7919 H   0  0  0  0  0  0  0  0  0  0  0  0  # atno 10763 bound_to 10752
  154.6764  135.2961  154.9674 H   0  0  0  0  0  0  0  0  0  0  0  0  # atno 10764 bound_to 10752
  154.0475  135.6708  153.4849 H   0  0  0  0  0  0  0  0  0  0  0  0  # atno 10765 bound_to 10752
  140.3243  134.7411  157.4087 H   0  0  0  0  0  0  0  0  0  0  0  0  # atno 11005 bound_to 11000
  146.2551  140.5170  142.8877 LP  0  0  0  0  0  0  0  0  0  0  0  0  # atno 17320 bound_to 7965
  144.8115  140.6394  143.6412 LP  0  0  0  0  0  0  0  0  0  0  0  0  # atno 17321 bound_to 7965
  139.4904  144.4349  151.9831 LP  0  0  0  0  0  0  0  0  0  0  0  0  # atno 17342 bound_to 10162
  140.3442  144.3167  150.5961 LP  0  0  0  0  0  0  0  0  0  0  0  0  # atno 17343 bound_to 10162
  156.0366  130.3749  150.1543 LP  0  0  0  0  0  0  0  0  0  0  0  0  # atno 17370 bound_to 10713
  156.9730  130.9840  151.3454 LP  0  0  0  0  0  0  0  0  0  0  0  0  # atno 17371 bound_to 10713
  140.0915  134.5595  155.8440 LP  0  0  0  0  0  0  0  0  0  0  0  0  # atno 17394 bound_to 11000
  141.2079  133.6668  156.6336 LP  0  0  0  0  0  0  0  0  0  0  0  0  # atno 17395 bound_to 11000

$$$$
