#       Name:                AV-unprocessed.smi:3251
#       Creating user name   scv26
#       Creation time:       Fri Mar 27 18:32:34 2020


#       File generated by GOLD software.
#

@<TRIPOS>MOLECULE
AV-unprocessed.smi:3251
    44    45     1
SMALL
NO_CHARGES


@<TRIPOS>ATOM
      1 ****        -3.7245   2.5778  -2.7907 C.3            1 S1                 0.0000
      2 ****        -2.7098   2.7777  -1.7020 C.2            1 S1                 0.0000
      3 ****        -1.4336   3.4019  -1.7992 C.2            1 S1                 0.0000
      4 ****        -0.7769   3.4107  -0.6505 N.2            1 S1                 0.0000
      5 ****        -1.6084   2.7966   0.2178 N.pl3          1 S1                 0.0000
      6 ****        -1.1984   2.6032   1.5970 C.3            1 S1                 0.0000
      7 ****        -0.4074   1.2985   1.7754 C.3            1 S1                 0.0000
      8 ****         0.8988   1.3635   1.0834 N.4            1 S1                 1.0000
      9 ****         1.6119   0.0729   0.9554 C.3            1 S1                 0.0000
     10 ****         3.0975   0.3409   0.6662 C.3            1 S1                 0.0000
     11 ****         1.0043  -0.7922  -0.1679 C.2            1 S1                 0.0000
     12 ****         0.5099  -0.2319  -1.1479 O.2            1 S1                 0.0000
     13 ****         1.0373  -2.1379  -0.0584 N.am           1 S1                 0.0000
     14 ****         1.6036  -2.9053   1.0511 C.3            1 S1                 0.0000
     15 ****         1.6287  -4.3590   0.5789 C.3            1 S1                 0.0000
     16 ****         0.5165  -4.4333  -0.4570 C.3            1 S1                 0.0000
     17 ****         0.4889  -3.0352  -1.0744 C.3            1 S1                 0.0000
     18 ****        -2.7823   2.4049  -0.3897 C.2            1 S1                 0.0000
     19 ****        -3.5530   3.2488  -3.6328 H              1 S1                 0.0000
     20 ****        -4.7387   2.7618  -2.4359 H              1 S1                 0.0000
     21 ****        -3.6992   1.5599  -3.1800 H              1 S1                 0.0000
     22 ****        -0.9672   3.8447  -2.6671 H              1 S1                 0.0000
     23 ****        -0.6122   3.4640   1.9232 H              1 S1                 0.0000
     24 ****        -2.0948   2.5815   2.2178 H              1 S1                 0.0000
     25 ****        -0.2328   1.1076   2.8346 H              1 S1                 0.0000
     26 ****        -0.9983   0.4634   1.3967 H              1 S1                 0.0000
     27 ****         0.7513   1.7293   0.1525 H              1 S1                 0.0000
     28 ****         1.5327  -0.4358   1.9164 H              1 S1                 0.0000
     29 ****         3.6657  -0.5857   0.5817 H              1 S1                 0.0000
     30 ****         3.5511   0.9271   1.4660 H              1 S1                 0.0000
     31 ****         3.2306   0.8946  -0.2644 H              1 S1                 0.0000
     32 ****         2.6036  -2.5704   1.3276 H              1 S1                 0.0000
     33 ****         0.9552  -2.8020   1.9224 H              1 S1                 0.0000
     34 ****         2.5859  -4.5714   0.1005 H              1 S1                 0.0000
     35 ****         1.4974  -5.0718   1.3937 H              1 S1                 0.0000
     36 ****         0.6776  -5.2189  -1.1961 H              1 S1                 0.0000
     37 ****        -0.4335  -4.6328   0.0407 H              1 S1                 0.0000
     38 ****        -0.5235  -2.7535  -1.3686 H              1 S1                 0.0000
     39 ****         1.1228  -2.9967  -1.9618 H              1 S1                 0.0000
     40 ****        -3.5628   1.8935   0.1547 H              1 S1                 0.0000
     41 ****         1.4862   2.0089   1.5912 H              1 S1                 0.0000
     42 ****         0.1310   3.7875  -0.4669 LP             1 S1                 0.0000
     43 ****         0.5075   0.7665  -1.2047 LP             1 S1                 0.0000
     44 ****         0.1111  -0.7756  -1.8864 LP             1 S1                 0.0000
@<TRIPOS>BOND
    1    1    2 1     
    2    1   19 1     
    3    1   20 1     
    4    1   21 1     
    5    2   18 2     
    6    2    3 1     
    7    3    4 2     
    8    3   22 1     
    9    4    5 1     
   10    5    6 1     
   11    5   18 1     
   12    6    7 1     
   13    6   23 1     
   14    6   24 1     
   15    7    8 1     
   16    7   25 1     
   17    7   26 1     
   18    8    9 1     
   19    8   27 1     
   20    8   41 1     
   21    9   10 1     
   22    9   11 1     
   23    9   28 1     
   24   10   29 1     
   25   10   30 1     
   26   10   31 1     
   27   11   12 2     
   28   11   13 am    
   29   13   17 1     
   30   13   14 1     
   31   14   15 1     
   32   14   32 1     
   33   14   33 1     
   34   15   16 1     
   35   15   34 1     
   36   15   35 1     
   37   16   17 1     
   38   16   36 1     
   39   16   37 1     
   40   17   38 1     
   41   17   39 1     
   42   18   40 1     
   43    4   42 1     
   44   12   43 1     
   45   12   44 1     
@<TRIPOS>SUBSTRUCTURE
      1 S1             1
@<TRIPOS>SET
LONE_PAIRS      STATIC     ATOMS    <user>   **** ""
3 42 43 44
DONOR_HYDROGENS      STATIC     ATOMS    <user>   **** ""
2 27 41
ATOM$BLUE        STATIC     ATOMS    COLORGROUP SYSTEM
3 42 43 44
ATOM$RED        STATIC     ATOMS    COLORGROUP SYSTEM
2 27 41
