AV-unprocessed.smi:93|AV-procd|sdf|850|dock8
  -GOLD-   2262017293D 1   1.00000     0.00000
 Structure written by MMmdl.
 50 52  0  0  0  0  0  0  0  0  1 V2000
  150.6788  138.2194  154.0773 C   0  0  0  0  0  0  0  0  0  0  0  0
  149.6231  138.1435  155.0813 N   0  0  0  0  0  0  0  0  0  0  0  0
  148.2685  138.5994  154.7440 C   0  0  0  0  0  0  0  0  0  0  0  0
  147.9473  140.0743  155.1352 C   0  0  0  0  0  0  0  0  0  0  0  0
  147.6526  140.1963  156.6484 C   0  0  0  0  0  0  0  0  0  0  0  0
  149.1794  140.9476  154.7756 C   0  0  0  0  0  0  0  0  0  0  0  0
  149.4247  140.9986  153.3835 O   0  0  0  0  0  0  0  0  0  0  0  0
  146.7228  140.5780  154.3251 C   0  0  0  0  0  0  0  0  0  0  0  0
  145.5462  139.8412  154.5948 O   0  0  0  0  0  0  0  0  0  0  0  0
  149.9218  137.6808  156.3266 C   0  0  0  0  0  0  0  0  0  0  0  0
  151.2248  137.6394  156.7120 N   0  0  0  0  0  0  0  0  0  0  0  0
  151.5643  137.2047  157.9279 C   0  0  0  0  0  0  0  0  0  0  0  0
  150.7721  136.7744  158.9098 N   0  0  0  0  0  0  0  0  0  0  0  0
  149.4608  136.8176  158.5403 C   0  0  0  0  0  0  0  0  0  0  0  0
  148.9515  137.2434  157.2788 C   0  0  0  0  0  0  0  0  0  0  0  0
  147.5638  137.1448  157.2836 N   0  0  0  0  0  0  0  0  0  0  0  0
  147.2732  136.6871  158.4695 C   0  0  0  0  0  0  0  0  0  0  0  0
  148.3520  136.4777  159.2968 N   0  0  0  0  0  0  0  0  0  0  0  0
  148.3181  135.9951  160.6694 C   0  0  0  0  0  0  0  0  0  0  0  0
  146.8978  135.9787  161.2843 C   0  0  2  0  0  0  0  0  0  0  0  0
  146.3742  137.2954  161.2750 O   0  0  0  0  0  0  0  0  0  0  0  0
  146.8769  135.4657  162.7183 C   0  0  0  0  0  0  0  0  0  0  0  0
  145.4755  134.8839  162.8444 C   0  0  0  0  0  0  0  0  0  0  0  0
  145.2754  134.2606  161.5871 O   0  0  0  0  0  0  0  0  0  0  0  0
  145.8912  135.0503  160.5732 C   0  0  0  0  0  0  0  0  0  0  0  0
  151.6042  138.5942  154.5159 H   0  0  0  0  0  0  0  0  0  0  0  0
  150.4029  138.8939  153.2663 H   0  0  0  0  0  0  0  0  0  0  0  0
  150.8725  137.2388  153.6435 H   0  0  0  0  0  0  0  0  0  0  0  0
  148.0710  138.4372  153.6844 H   0  0  0  0  0  0  0  0  0  0  0  0
  147.5622  137.9434  155.2537 H   0  0  0  0  0  0  0  0  0  0  0  0
  147.5537  141.2382  156.9536 H   0  0  0  0  0  0  0  0  0  0  0  0
  148.4495  139.7581  157.2498 H   0  0  0  0  0  0  0  0  0  0  0  0
  146.7238  139.6949  156.9196 H   0  0  0  0  0  0  0  0  0  0  0  0
  149.0417  141.9677  155.1361 H   0  0  0  0  0  0  0  0  0  0  0  0
  150.0823  140.5669  155.2538 H   0  0  0  0  0  0  0  0  0  0  0  0
  149.1816  140.1674  153.0054 H   0  0  0  0  0  0  0  0  0  0  0  0
  146.5275  141.6294  154.5394 H   0  0  0  0  0  0  0  0  0  0  0  0
  146.9092  140.5012  153.2542 H   0  0  0  0  0  0  0  0  0  0  0  0
  144.9382  139.9761  153.8841 H   0  0  0  0  0  0  0  0  0  0  0  0
  152.6219  137.2065  158.1463 H   0  0  0  0  0  0  0  0  0  0  0  0
  146.2548  136.4978  158.7765 H   0  0  0  0  0  0  0  0  0  0  0  0
  148.7449  134.9914  160.6845 H   0  0  0  0  0  0  0  0  0  0  0  0
  148.9821  136.6178  161.2704 H   0  0  0  0  0  0  0  0  0  0  0  0
  145.4826  137.2664  161.5871 H   0  0  0  0  0  0  0  0  0  0  0  0
  147.6065  134.6645  162.8448 H   0  0  0  0  0  0  0  0  0  0  0  0
  147.0932  136.2326  163.4633 H   0  0  0  0  0  0  0  0  0  0  0  0
  145.3842  134.1723  163.6652 H   0  0  0  0  0  0  0  0  0  0  0  0
  144.7341  135.6720  162.9851 H   0  0  0  0  0  0  0  0  0  0  0  0
  145.1369  135.6060  160.0139 H   0  0  0  0  0  0  0  0  0  0  0  0
  146.3791  134.3701  159.8759 H   0  0  0  0  0  0  0  0  0  0  0  0
  1  2  1  0  0  0  0
  1 26  1  0  0  0  0
  1 27  1  0  0  0  0
  1 28  1  0  0  0  0
  2  3  1  0  0  0  0
  2 10  1  0  0  0  0
  3  4  1  0  0  0  0
  3 29  1  0  0  0  0
  3 30  1  0  0  0  0
  4  5  1  0  0  0  0
  4  6  1  0  0  0  0
  4  8  1  0  0  0  0
  5 31  1  0  0  0  0
  5 32  1  0  0  0  0
  5 33  1  0  0  0  0
  6  7  1  0  0  0  0
  6 34  1  0  0  0  0
  6 35  1  0  0  0  0
  7 36  1  0  0  0  0
  8  9  1  0  0  0  0
  8 37  1  0  0  0  0
  8 38  1  0  0  0  0
  9 39  1  0  0  0  0
 10 15  1  0  0  0  0
 10 11  2  0  0  0  0
 11 12  1  0  0  0  0
 12 13  2  0  0  0  0
 12 40  1  0  0  0  0
 13 14  1  0  0  0  0
 14 18  1  0  0  0  0
 14 15  2  0  0  0  0
 15 16  1  0  0  0  0
 16 17  2  0  0  0  0
 17 18  1  0  0  0  0
 17 41  1  0  0  0  0
 18 19  1  0  0  0  0
 19 20  1  0  0  0  0
 19 42  1  0  0  0  0
 19 43  1  0  0  0  0
 20 25  1  0  0  0  0
 20 21  1  0  0  0  0
 20 22  1  0  0  0  0
 21 44  1  0  0  0  0
 22 23  1  0  0  0  0
 22 45  1  0  0  0  0
 22 46  1  0  0  0  0
 23 24  1  0  0  0  0
 23 47  1  0  0  0  0
 23 48  1  0  0  0  0
 24 25  1  0  0  0  0
 25 49  1  0  0  0  0
 25 50  1  0  0  0  0
M  END
> <s_m_source_file>
AV-unprocessed.smi

> <i_m_source_file_index>
93

> <i_lp_mmshare_version>
43012

> <i_f3d_flags>
0

> <s_epik_input>
W09IXVtDSDJdQyhbQ0gzXSkoW0NIMl1bT0hdKVtDSDJdTihbQ0gzXSljKG5bY0hdbjEpYyhjMTIpbltjSF1uMltDSDJdW0NAQF0zKFtPSF0pW0NIMl1bQ0gyXU9bQ0gyXTM=

> <s_epik_cmdline>
J2VwaWtfcHl0aG9uJywgJy1waCcsICc3LjAnLCAnLXRuJywgJzgnLCAnLW1hJywgJzIwMCcsICctbWV0YWxfYmluZGluZycsICctaW1hZScsICc8aW5maWxlLm1hZT4nLCAnLW9tYWUnLCAnPG91dGZpbGUubWFlPic=

> <r_lp_tautomer_probability>
1

> <r_epik_Ionization_Penalty>
0.00325397

> <r_epik_Ionization_Penalty_Charging>
0

> <r_epik_Ionization_Penalty_Neutral>
0.00325397

> <r_epik_State_Penalty>
0.00225047

> <r_epik_Charging_Adjusted_Penalty>
0.00225047

> <i_epik_Tot_Q>
0

> <i_epik_Tot_abs_Q>
0

> <r_epik_Metal_State_Penalty>
-0

> <b_epik_Metal_Only>
0

> <s_lp_Force_Field>
OPLS_2005

> <r_lp_Energy>
41.2901

> <b_lp_Chiralities_Consistent>
1

> <s_lp_Variant>
AV-unprocessed.smi:93-2

> <Gold.Version>
5.8.1

> <Gold.Id.Protein>
6NUR|6NUR_protein|mol2

> <Gold.PLP.Fitness>
44.9526

> <Gold.PLP.PLP>
-32.9200

> <Gold.PLP.part.hbond>
-6.0000

> <Gold.PLP.part.metal>
0.0000

> <Gold.PLP.part.buried>
-6.1623

> <Gold.PLP.part.nonpolar>
-21.3958

> <Gold.PLP.part.repulsive>
0.0086

> <Gold.PLP.ligand.clash>
0.0000

> <Gold.PLP.ligand.torsion>
0.8711

> <Gold.PLP.Chemscore.Hbond>
4.5231

> <Gold.PLP.Chemscore.CHOScore>
0.0000

> <Gold.PLP.Chemscore.Metal>
0.0000

> <Gold.Chemscore.Hbonds>
donor molecule, donor type, donor heavy atom, donor atom, acceptor molecule, acceptor atom, score
      L1  H     7    36       P1  7957  0.26
      L1  H     9    39       P1 10175  1.00
      P1  H  6896  6909       L1    13  1.00
      P1  H  6934  6947       L1    21  1.00
      P1  H  7989  7998       L1     7  0.13
      P1  H  8011  8017       L1     7  1.00

> <Gold.PLP.Chemscore.Internal.Correction>
0.2054

> <Gold.Rescore>
     Score         DG    S(hbond)    S(metal)    S(lipo)     H(rot)  DE(clash)    DE(int)     intcor
     11.60     -14.81       4.09        0.00      63.65       4.60       0.01       3.21       ----

> <Gold.Chemscore.Fitness>
11.5991

> <Gold.Chemscore.DG>
-14.8144

> <Gold.Chemscore.ZeroCoef>
-5.4800

> <Gold.Chemscore.Hbond>
4.0917

> <Gold.Chemscore.Metal>
0.0000

> <Gold.Chemscore.Lipo>
63.6468

> <Gold.Chemscore.Internal_Hbond>
0.0000

> <Gold.Chemscore.DEClash>
0.0073

> <Gold.Chemscore.DEInternal>
3.2080

> <Gold.Chemscore.Rot>
4.6010

> <Gold.Chemscore.Internal.Correction>
   9.000000E+99

> <Gold.Chemscore.Hbonds>
donor molecule, donor type, donor heavy atom, donor atom, acceptor molecule, acceptor atom, score
      L1  H     7    36       P1  7957  0.26
      L1  H     9    39       P1 10175  0.99
      P1  H  6896  6909       L1    13  0.71
      P1  H  6934  6947       L1    21  0.95
      P1  H  7989  7998       L1     7  0.01
      P1  H  8011  8017       L1     7  0.97

> <Gold.Chemscore.Hbond.Weighted>
-13.6664

> <Gold.Chemscore.Metal.Weighted>
-0.0000

> <Gold.Chemscore.Lipo.Weighted>
-7.4467

> <Gold.Chemscore.Internal_Hbond.Weighted>
0.0000

> <Gold.Chemscore.DEClash.Weighted>
0.0073

> <Gold.Chemscore.DEInternal.Weighted>
3.2080

> <Gold.Chemscore.Rot.Weighted>
11.7787

> <Gold.Chemscore.Internal.Correction.Weighted>
   9.000000E+99

> <Gold.Protein.RotatedTorsions>
[ 6907 6896 6895 6894 ] final   93.30 input  -60.11 | X-H torsion
[ 7974 7965 7964 7962 ] final   34.74 input  175.53 | X-H torsion
[ 8008 7997 7996 7995 ] final  -24.78 input   59.86 | X-H torsion
[ 10167 10162 10161 10158 ] final  -65.15 input  -65.29 | X-H torsion
[ 10718 10713 10712 10709 ] final  -24.45 input   66.30 | X-H torsion
[ 10763 10752 10751 10750 ] final    2.07 input  -60.55 | X-H torsion
[ 11005 11000 10999 10996 ] final -109.98 input  -57.11 | X-H torsion

> <Gold.Protein.ActiveResidues>
 VAL166  LYS551  ARG553  GLY616  TRP617  ASP618  TYR619  PRO620  LYS621  CYS622 
 ASP623  PHE694  ASN695  SER759  ASP760  ASP761  ALA762  ILE779  LEU786  VAL792 
 PHE793  MET794  SER795  GLU796  ALA797  LYS798  CYS799  TRP800  GLU811  SER814 

> <Gold.Protein.RotatedAtoms>
  152.5452  134.1369  159.8462 H   0  0  0  0  0  0  0  0  0  0  0  0  # atno 6907 bound_to 6896
  151.1409  133.4965  159.2604 H   0  0  0  0  0  0  0  0  0  0  0  0  # atno 6908 bound_to 6896
  151.1574  135.0267  159.8750 H   0  0  0  0  0  0  0  0  0  0  0  0  # atno 6909 bound_to 6896
  146.1332  139.6230  142.9213 H   0  0  0  0  0  0  0  0  0  0  0  0  # atno 7974 bound_to 7965
  154.4511  140.1944  156.0517 H   0  0  0  0  0  0  0  0  0  0  0  0  # atno 8008 bound_to 7997
  156.0649  140.3292  155.7478 H   0  0  0  0  0  0  0  0  0  0  0  0  # atno 8009 bound_to 7997
  155.5354  140.0581  157.2871 H   0  0  0  0  0  0  0  0  0  0  0  0  # atno 8010 bound_to 7997
  140.5750  143.2321  151.6461 H   0  0  0  0  0  0  0  0  0  0  0  0  # atno 10167 bound_to 10162
  156.4775  130.4538  149.6831 H   0  0  0  0  0  0  0  0  0  0  0  0  # atno 10718 bound_to 10713
  153.3002  135.6955  153.7210 H   0  0  0  0  0  0  0  0  0  0  0  0  # atno 10763 bound_to 10752
  153.6127  135.3441  155.2985 H   0  0  0  0  0  0  0  0  0  0  0  0  # atno 10764 bound_to 10752
  154.8548  135.4367  154.2111 H   0  0  0  0  0  0  0  0  0  0  0  0  # atno 10765 bound_to 10752
  141.0817  133.9208  157.2274 H   0  0  0  0  0  0  0  0  0  0  0  0  # atno 11005 bound_to 11000
  145.5215  141.0431  143.2433 LP  0  0  0  0  0  0  0  0  0  0  0  0  # atno 17320 bound_to 7965
  144.7712  139.6731  143.7194 LP  0  0  0  0  0  0  0  0  0  0  0  0  # atno 17321 bound_to 7965
  139.5138  144.3432  152.0721 LP  0  0  0  0  0  0  0  0  0  0  0  0  # atno 17342 bound_to 10162
  140.2575  144.4103  150.6198 LP  0  0  0  0  0  0  0  0  0  0  0  0  # atno 17343 bound_to 10162
  156.3555  130.7454  151.2419 LP  0  0  0  0  0  0  0  0  0  0  0  0  # atno 17370 bound_to 10713
  157.7486  131.0365  150.4412 LP  0  0  0  0  0  0  0  0  0  0  0  0  # atno 17371 bound_to 10713
  139.9632  135.0149  156.9316 LP  0  0  0  0  0  0  0  0  0  0  0  0  # atno 17394 bound_to 11000
  140.5453  134.0680  155.7353 LP  0  0  0  0  0  0  0  0  0  0  0  0  # atno 17395 bound_to 11000

$$$$
