AV-unprocessed.smi:99|AV-procd|sdf|874|dock1
  -GOLD-   2262017343D 1   1.00000     0.00000
 Structure written by MMmdl.
 53 56  0  0  0  0  0  0  0  0  1 V2000
  153.8097  141.8310  161.8482 O   0  0  0  0  0  0  0  0  0  0  0  0
  153.4607  141.9000  160.6677 C   0  0  0  0  0  0  0  0  0  0  0  0
  153.7011  140.9319  159.7618 O   0  0  0  0  0  0  0  0  0  0  0  0
  154.2724  139.7018  160.1753 C   0  0  0  0  0  0  0  0  0  0  0  0
  153.5925  138.5500  159.4286 C   0  0  1  0  0  0  0  0  0  0  0  0
  152.3090  138.9544  158.9774 O   0  0  0  0  0  0  0  0  0  0  0  0
  151.9514  138.2100  157.8553 C   0  0  1  0  0  0  0  0  0  0  0  0
  151.2953  139.1544  156.8700 N   0  0  0  0  0  0  0  0  0  0  0  0
  151.3787  140.5287  157.0494 C   0  0  0  0  0  0  0  0  0  0  0  0
  150.8017  141.4203  156.2099 C   0  0  0  0  0  0  0  0  0  0  0  0
  150.0459  140.9608  155.0490 C   0  0  0  0  0  0  0  0  0  0  0  0
  149.4865  141.6905  154.2335 O   0  0  0  0  0  0  0  0  0  0  0  0
  149.9904  139.5712  154.9057 N   0  0  0  0  0  0  0  0  0  0  0  0
  150.5833  138.6420  155.7626 C   0  0  0  0  0  0  0  0  0  0  0  0
  150.4786  137.4387  155.5292 O   0  0  0  0  0  0  0  0  0  0  0  0
  153.2248  137.5372  157.2952 C   0  0  1  0  0  0  0  0  0  0  0  0
  153.4629  137.7711  155.9189 O   0  0  0  0  0  0  0  0  0  0  0  0
  154.3261  138.1542  158.1475 C   0  0  2  0  0  0  0  0  0  0  0  0
  155.3258  137.1901  158.4538 O   0  0  0  0  0  0  0  0  0  0  0  0
  156.0416  136.6025  157.4712 C   0  0  0  0  0  0  0  0  0  0  0  0
  155.6079  136.4021  156.3349 O   0  0  0  0  0  0  0  0  0  0  0  0
  157.4159  136.2197  157.9051 C   0  0  0  0  0  0  0  0  0  0  0  0
  157.8201  136.4817  159.2350 C   0  0  0  0  0  0  0  0  0  0  0  0
  159.1131  136.1360  159.6736 C   0  0  0  0  0  0  0  0  0  0  0  0
  160.0183  135.5246  158.7868 C   0  0  0  0  0  0  0  0  0  0  0  0
  159.6286  135.2587  157.4612 C   0  0  0  0  0  0  0  0  0  0  0  0
  158.3353  135.6028  157.0209 C   0  0  0  0  0  0  0  0  0  0  0  0
  152.7268  143.0643  160.0932 C   0  0  0  0  0  0  0  0  0  0  0  0
  152.6873  143.2340  158.6894 C   0  0  0  0  0  0  0  0  0  0  0  0
  152.0031  144.3239  158.1174 C   0  0  0  0  0  0  0  0  0  0  0  0
  151.3491  145.2576  158.9422 C   0  0  0  0  0  0  0  0  0  0  0  0
  151.3790  145.0990  160.3399 C   0  0  0  0  0  0  0  0  0  0  0  0
  152.0633  144.0098  160.9139 C   0  0  0  0  0  0  0  0  0  0  0  0
  149.4799  139.2086  154.1135 H   0  0  0  0  0  0  0  0  0  0  0  0
  155.3476  139.6922  159.9908 H   0  0  0  0  0  0  0  0  0  0  0  0
  154.1211  139.5872  161.2495 H   0  0  0  0  0  0  0  0  0  0  0  0
  153.4755  137.6780  160.0751 H   0  0  0  0  0  0  0  0  0  0  0  0
  151.2015  137.4818  158.1673 H   0  0  0  0  0  0  0  0  0  0  0  0
  151.9323  140.9145  157.8936 H   0  0  0  0  0  0  0  0  0  0  0  0
  150.8998  142.4798  156.3976 H   0  0  0  0  0  0  0  0  0  0  0  0
  153.1461  136.4647  157.4798 H   0  0  0  0  0  0  0  0  0  0  0  0
  154.3939  137.7224  155.7637 H   0  0  0  0  0  0  0  0  0  0  0  0
  154.7264  139.0519  157.6728 H   0  0  0  0  0  0  0  0  0  0  0  0
  157.1433  136.9515  159.9342 H   0  0  0  0  0  0  0  0  0  0  0  0
  159.4105  136.3414  160.6914 H   0  0  0  0  0  0  0  0  0  0  0  0
  161.0102  135.2605  159.1231 H   0  0  0  0  0  0  0  0  0  0  0  0
  160.3234  134.7904  156.7796 H   0  0  0  0  0  0  0  0  0  0  0  0
  158.0693  135.3864  155.9966 H   0  0  0  0  0  0  0  0  0  0  0  0
  153.1823  142.5303  158.0354 H   0  0  0  0  0  0  0  0  0  0  0  0
  151.9804  144.4433  157.0442 H   0  0  0  0  0  0  0  0  0  0  0  0
  150.8251  146.0937  158.5033 H   0  0  0  0  0  0  0  0  0  0  0  0
  150.8761  145.8146  160.9736 H   0  0  0  0  0  0  0  0  0  0  0  0
  152.0660  143.9179  161.9902 H   0  0  0  0  0  0  0  0  0  0  0  0
  1  2  2  0  0  0  0
  2  3  1  0  0  0  0
  2 28  1  0  0  0  0
  3  4  1  0  0  0  0
  4  5  1  0  0  0  0
  4 35  1  0  0  0  0
  4 36  1  0  0  0  0
  5 18  1  0  0  0  0
  5  6  1  0  0  0  0
  5 37  1  0  0  0  0
  6  7  1  0  0  0  0
  7  8  1  0  0  0  0
  7 16  1  0  0  0  0
  7 38  1  0  0  0  0
  8 14  1  0  0  0  0
  8  9  1  0  0  0  0
  9 10  2  0  0  0  0
  9 39  1  0  0  0  0
 10 11  1  0  0  0  0
 10 40  1  0  0  0  0
 11 12  2  0  0  0  0
 11 13  1  0  0  0  0
 13 34  1  0  0  0  0
 13 14  1  0  0  0  0
 14 15  2  0  0  0  0
 16 17  1  0  0  0  0
 16 18  1  0  0  0  0
 16 41  1  0  0  0  0
 17 42  1  0  0  0  0
 18 19  1  0  0  0  0
 18 43  1  0  0  0  0
 19 20  1  0  0  0  0
 20 21  2  0  0  0  0
 20 22  1  0  0  0  0
 22 27  1  0  0  0  0
 22 23  2  0  0  0  0
 23 24  1  0  0  0  0
 23 44  1  0  0  0  0
 24 25  2  0  0  0  0
 24 45  1  0  0  0  0
 25 26  1  0  0  0  0
 25 46  1  0  0  0  0
 26 27  2  0  0  0  0
 26 47  1  0  0  0  0
 27 48  1  0  0  0  0
 28 33  1  0  0  0  0
 28 29  2  0  0  0  0
 29 30  1  0  0  0  0
 29 49  1  0  0  0  0
 30 31  2  0  0  0  0
 30 50  1  0  0  0  0
 31 32  1  0  0  0  0
 31 51  1  0  0  0  0
 32 33  2  0  0  0  0
 32 52  1  0  0  0  0
 33 53  1  0  0  0  0
M  END
> <s_m_source_file>
AV-unprocessed.smi

> <i_m_source_file_index>
99

> <i_lp_mmshare_version>
43012

> <i_f3d_flags>
0

> <s_epik_input>
W2NIXTFbY0hdW2NIXVtjSF1bY0hdYzFDKD1PKU9bQ0gyXVtDQEBIXTJPW0NAQEhdKG4zW2NIXVtjSF1jKD1PKVtuSF1jMz1PKVtDQEBIXShbT0hdKVtDQEhdMk9DKD1PKWM0W2NIXVtjSF1bY0hdW2NIXVtjSF00

> <s_epik_cmdline>
J2VwaWtfcHl0aG9uJywgJy1waCcsICc3LjAnLCAnLXRuJywgJzgnLCAnLW1hJywgJzIwMCcsICctbWV0YWxfYmluZGluZycsICctaW1hZScsICc8aW5maWxlLm1hZT4nLCAnLW9tYWUnLCAnPG91dGZpbGUubWFlPic=

> <r_lp_tautomer_probability>
1

> <r_epik_Ionization_Penalty>
0.00454555

> <r_epik_Ionization_Penalty_Charging>
0.0045191

> <r_epik_Ionization_Penalty_Neutral>
2.64449e-05

> <r_epik_State_Penalty>
-0

> <r_epik_Charging_Adjusted_Penalty>
0.0045191

> <i_epik_Tot_Q>
0

> <i_epik_Tot_abs_Q>
0

> <r_epik_Metal_State_Penalty>
1.27877

> <b_epik_Metal_Only>
0

> <s_epik_Chemistry_Notes>
This compound has an ester and may undergo hydrolysis at high or low pH. This compound contains an acetal/aminal-like group ( X-CH(R)-Y where X, Y are N, S, or O) that may be acid/base labile, releasing an aldehyde.

> <s_lp_Force_Field>
OPLS_2005

> <r_lp_Energy>
37.9182

> <b_lp_Chiralities_Consistent>
1

> <s_lp_Variant>
AV-unprocessed.smi:99-10

> <Gold.Version>
5.8.1

> <Gold.Id.Protein>
6NUR|6NUR_protein|mol2

> <Gold.PLP.Fitness>
54.8494

> <Gold.PLP.PLP>
-52.5224

> <Gold.PLP.part.hbond>
-4.9578

> <Gold.PLP.part.metal>
0.0000

> <Gold.PLP.part.buried>
-3.4645

> <Gold.PLP.part.nonpolar>
-42.5216

> <Gold.PLP.part.repulsive>
0.3609

> <Gold.PLP.ligand.clash>
0.0000

> <Gold.PLP.ligand.torsion>
1.6114

> <Gold.PLP.Chemscore.Hbond>
1.4719

> <Gold.PLP.Chemscore.CHOScore>
0.0000

> <Gold.PLP.Chemscore.Metal>
0.0000

> <Gold.Chemscore.Hbonds>
donor molecule, donor type, donor heavy atom, donor atom, acceptor molecule, acceptor atom, score
      P1  H  8011  8017       L1    12  0.50
      P1  H 10752 10763       L1    21  1.00

> <Gold.PLP.Chemscore.Internal.Correction>
1.1342

> <Gold.Rescore>
     Score         DG    S(hbond)    S(metal)    S(lipo)     H(rot)  DE(clash)    DE(int)     intcor
     10.59     -15.50       1.34        0.00     117.08       3.19       0.08       4.82       ----

> <Gold.Chemscore.Fitness>
10.5941

> <Gold.Chemscore.DG>
-15.4984

> <Gold.Chemscore.ZeroCoef>
-5.4800

> <Gold.Chemscore.Hbond>
1.3435

> <Gold.Chemscore.Metal>
0.0000

> <Gold.Chemscore.Lipo>
117.0784

> <Gold.Chemscore.Internal_Hbond>
0.0000

> <Gold.Chemscore.DEClash>
0.0801

> <Gold.Chemscore.DEInternal>
4.8242

> <Gold.Chemscore.Rot>
3.1903

> <Gold.Chemscore.Internal.Correction>
   9.000000E+99

> <Gold.Chemscore.Hbonds>
donor molecule, donor type, donor heavy atom, donor atom, acceptor molecule, acceptor atom, score
      P1  H  8011  8017       L1    12  0.47
      P1  H 10752 10763       L1    21  0.95

> <Gold.Chemscore.Hbond.Weighted>
-4.4873

> <Gold.Chemscore.Metal.Weighted>
-0.0000

> <Gold.Chemscore.Lipo.Weighted>
-13.6982

> <Gold.Chemscore.Internal_Hbond.Weighted>
0.0000

> <Gold.Chemscore.DEClash.Weighted>
0.0801

> <Gold.Chemscore.DEInternal.Weighted>
4.8242

> <Gold.Chemscore.Rot.Weighted>
8.1671

> <Gold.Chemscore.Internal.Correction.Weighted>
   9.000000E+99

> <Gold.Protein.RotatedTorsions>
[ 6907 6896 6895 6894 ] final    6.47 input  -60.11 | X-H torsion
[ 7974 7965 7964 7962 ] final -131.49 input  175.53 | X-H torsion
[ 8008 7997 7996 7995 ] final -122.19 input   59.86 | X-H torsion
[ 10167 10162 10161 10158 ] final -121.31 input  -65.29 | X-H torsion
[ 10718 10713 10712 10709 ] final  -91.60 input   66.30 | X-H torsion
[ 10763 10752 10751 10750 ] final -170.53 input  -60.55 | X-H torsion
[ 11005 11000 10999 10996 ] final  102.13 input  -57.11 | X-H torsion

> <Gold.Protein.ActiveResidues>
 VAL166  LYS551  ARG553  GLY616  TRP617  ASP618  TYR619  PRO620  LYS621  CYS622 
 ASP623  PHE694  ASN695  SER759  ASP760  ASP761  ALA762  ILE779  LEU786  VAL792 
 PHE793  MET794  SER795  GLU796  ALA797  LYS798  CYS799  TRP800  GLU811  SER814 

> <Gold.Protein.RotatedAtoms>
  151.6742  135.0971  160.0203 H   0  0  0  0  0  0  0  0  0  0  0  0  # atno 6907 bound_to 6896
  152.3873  133.6625  159.6218 H   0  0  0  0  0  0  0  0  0  0  0  0  # atno 6908 bound_to 6896
  150.7796  133.8930  159.3360 H   0  0  0  0  0  0  0  0  0  0  0  0  # atno 6909 bound_to 6896
  144.9375  140.7200  143.4867 H   0  0  0  0  0  0  0  0  0  0  0  0  # atno 7974 bound_to 7965
  155.1602  140.0405  157.2841 H   0  0  0  0  0  0  0  0  0  0  0  0  # atno 8008 bound_to 7997
  154.6341  140.2531  155.7371 H   0  0  0  0  0  0  0  0  0  0  0  0  # atno 8009 bound_to 7997
  156.2500  140.2869  156.0706 H   0  0  0  0  0  0  0  0  0  0  0  0  # atno 8010 bound_to 7997
  140.0264  143.5292  152.2197 H   0  0  0  0  0  0  0  0  0  0  0  0  # atno 10167 bound_to 10162
  155.9995  130.4954  150.5498 H   0  0  0  0  0  0  0  0  0  0  0  0  # atno 10718 bound_to 10713
  154.6405  135.2898  155.0109 H   0  0  0  0  0  0  0  0  0  0  0  0  # atno 10763 bound_to 10752
  154.1238  135.6544  153.4912 H   0  0  0  0  0  0  0  0  0  0  0  0  # atno 10764 bound_to 10752
  153.0324  135.5294  154.7269 H   0  0  0  0  0  0  0  0  0  0  0  0  # atno 10765 bound_to 10752
  139.8776  134.9211  156.5011 H   0  0  0  0  0  0  0  0  0  0  0  0  # atno 11005 bound_to 11000
  145.3044  139.1839  143.4672 LP  0  0  0  0  0  0  0  0  0  0  0  0  # atno 17320 bound_to 7965
  146.3272  140.3040  142.8622 LP  0  0  0  0  0  0  0  0  0  0  0  0  # atno 17321 bound_to 7965
  139.6105  144.7607  151.2963 LP  0  0  0  0  0  0  0  0  0  0  0  0  # atno 17342 bound_to 10162
  140.7321  143.6834  150.7982 LP  0  0  0  0  0  0  0  0  0  0  0  0  # atno 17343 bound_to 10162
  157.3423  131.0719  151.1778 LP  0  0  0  0  0  0  0  0  0  0  0  0  # atno 17370 bound_to 10713
  157.2623  130.6664  149.5980 LP  0  0  0  0  0  0  0  0  0  0  0  0  # atno 17371 bound_to 10713
  140.8589  133.8075  155.9244 LP  0  0  0  0  0  0  0  0  0  0  0  0  # atno 17394 bound_to 11000
  140.9070  134.2308  157.5008 LP  0  0  0  0  0  0  0  0  0  0  0  0  # atno 17395 bound_to 11000

$$$$
