AV-unprocessed.smi:1362|AV-procd|sdf|5558|dock7
  -GOLD-   22720 5153D 1   1.00000     0.00000
 Structure written by MMmdl.
 39 39  0  0  0  0  0  0  0  0  1 V2000
  147.1271  140.0733  152.8820 C   0  0  0  0  0  0  0  0  0  0  0  0
  147.9219  139.7907  154.1392 C   0  0  0  0  0  0  0  0  0  0  0  0
  147.3874  139.5132  155.2828 N   0  0  0  0  0  0  0  0  0  0  0  0
  148.2280  139.2716  156.3783 C   0  0  0  0  0  0  0  0  0  0  0  0
  147.5255  138.9562  157.6879 C   0  0  0  0  0  0  0  0  0  0  0  0
  149.5876  139.3212  156.2620 C   0  0  0  0  0  0  0  0  0  0  0  0
  150.5283  139.0665  157.4390 C   0  0  0  0  0  0  0  0  0  0  0  0
  151.6736  140.0679  157.6072 C   0  0  0  0  0  0  0  0  0  0  0  0
  152.7206  139.9310  156.9740 O   0  0  0  0  0  0  0  0  0  0  0  0
  151.4518  141.0795  158.4603 N   0  0  0  0  0  0  0  0  0  0  0  0
  152.3706  142.1841  158.7315 C   0  0  2  0  0  0  0  0  0  0  0  0
  152.7928  142.1298  160.2119 C   0  0  0  0  0  0  0  0  0  0  0  0
  151.7153  143.5313  158.3270 C   0  0  0  0  0  0  0  0  0  0  0  0
  152.7297  144.6922  158.3121 C   0  0  0  0  0  0  0  0  0  0  0  0
  150.5259  143.9020  159.2314 C   0  0  0  0  0  0  0  0  0  0  0  0
  150.1870  139.6383  154.9513 C   0  0  0  0  0  0  0  0  0  0  0  0
  151.3958  139.7127  154.7356 O   0  0  0  0  0  0  0  0  0  0  0  0
  149.3018  139.8562  153.9532 N   0  0  0  0  0  0  0  0  0  0  0  0
  149.6628  140.0781  153.0367 H   0  0  0  0  0  0  0  0  0  0  0  0
  146.4908  140.9463  153.0295 H   0  0  0  0  0  0  0  0  0  0  0  0
  146.4909  139.2214  152.6408 H   0  0  0  0  0  0  0  0  0  0  0  0
  147.7784  140.2660  152.0282 H   0  0  0  0  0  0  0  0  0  0  0  0
  147.7700  137.9471  158.0192 H   0  0  0  0  0  0  0  0  0  0  0  0
  146.4419  139.0193  157.5815 H   0  0  0  0  0  0  0  0  0  0  0  0
  147.8229  139.6598  158.4656 H   0  0  0  0  0  0  0  0  0  0  0  0
  149.9351  139.0588  158.3541 H   0  0  0  0  0  0  0  0  0  0  0  0
  150.9584  138.0662  157.3797 H   0  0  0  0  0  0  0  0  0  0  0  0
  150.5629  141.1042  158.9387 H   0  0  0  0  0  0  0  0  0  0  0  0
  153.2647  142.0530  158.1187 H   0  0  0  0  0  0  0  0  0  0  0  0
  153.5749  142.8545  160.4358 H   0  0  0  0  0  0  0  0  0  0  0  0
  153.1918  141.1489  160.4721 H   0  0  0  0  0  0  0  0  0  0  0  0
  151.9492  142.3297  160.8734 H   0  0  0  0  0  0  0  0  0  0  0  0
  151.3302  143.4279  157.3113 H   0  0  0  0  0  0  0  0  0  0  0  0
  153.1916  144.8257  159.2909 H   0  0  0  0  0  0  0  0  0  0  0  0
  152.2461  145.6320  158.0435 H   0  0  0  0  0  0  0  0  0  0  0  0
  153.5276  144.5294  157.5874 H   0  0  0  0  0  0  0  0  0  0  0  0
  150.8255  143.9571  160.2783 H   0  0  0  0  0  0  0  0  0  0  0  0
  149.7141  143.1796  159.1513 H   0  0  0  0  0  0  0  0  0  0  0  0
  150.1107  144.8716  158.9551 H   0  0  0  0  0  0  0  0  0  0  0  0
  1  2  1  0  0  0  0
  1 20  1  0  0  0  0
  1 21  1  0  0  0  0
  1 22  1  0  0  0  0
  2 18  1  0  0  0  0
  2  3  2  0  0  0  0
  3  4  1  0  0  0  0
  4  5  1  0  0  0  0
  4  6  2  0  0  0  0
  5 23  1  0  0  0  0
  5 24  1  0  0  0  0
  5 25  1  0  0  0  0
  6  7  1  0  0  0  0
  6 16  1  0  0  0  0
  7  8  1  0  0  0  0
  7 26  1  0  0  0  0
  7 27  1  0  0  0  0
  8  9  2  0  0  0  0
  8 10  1  0  0  0  0
 10 11  1  0  0  0  0
 10 28  1  0  0  0  0
 11 12  1  0  0  0  0
 11 13  1  0  0  0  0
 11 29  1  0  0  0  0
 12 30  1  0  0  0  0
 12 31  1  0  0  0  0
 12 32  1  0  0  0  0
 13 14  1  0  0  0  0
 13 15  1  0  0  0  0
 13 33  1  0  0  0  0
 14 34  1  0  0  0  0
 14 35  1  0  0  0  0
 14 36  1  0  0  0  0
 15 37  1  0  0  0  0
 15 38  1  0  0  0  0
 15 39  1  0  0  0  0
 16 17  2  0  0  0  0
 16 18  1  0  0  0  0
 18 19  1  0  0  0  0
M  END
> <s_m_source_file>
AV-unprocessed.smi

> <i_m_source_file_index>
1362

> <i_lp_mmshare_version>
43012

> <i_f3d_flags>
0

> <s_epik_input>
W0NIM11jMW5jKFtDSDNdKWMoYyg9TylbbkhdMSlbQ0gyXUMoPU8pW05IXVtDQEhdKFtDSDNdKVtDSF0oW0NIM10pW0NIM10=

> <s_epik_cmdline>
J2VwaWtfcHl0aG9uJywgJy1waCcsICc3LjAnLCAnLXRuJywgJzgnLCAnLW1hJywgJzIwMCcsICctbWV0YWxfYmluZGluZycsICctaW1hZScsICc8aW5maWxlLm1hZT4nLCAnLW9tYWUnLCAnPG91dGZpbGUubWFlPic=

> <r_lp_tautomer_probability>
0.839158

> <r_epik_Ionization_Penalty>
0.000388977

> <r_epik_Ionization_Penalty_Charging>
0.000356458

> <r_epik_Ionization_Penalty_Neutral>
3.25191e-05

> <r_epik_State_Penalty>
0.0469868

> <r_epik_Charging_Adjusted_Penalty>
0.0473433

> <i_epik_Tot_Q>
0

> <i_epik_Tot_abs_Q>
0

> <r_epik_Metal_State_Penalty>
0.223288

> <b_epik_Metal_Only>
0

> <s_lp_Force_Field>
OPLS_2005

> <r_lp_Energy>
7.29912

> <b_lp_Chiralities_Consistent>
1

> <s_lp_Variant>
AV-unprocessed.smi:1362-1

> <Gold.Version>
5.8.1

> <Gold.Id.Protein>
6NUR|6NUR_protein|mol2

> <Gold.PLP.Fitness>
38.0135

> <Gold.PLP.PLP>
-30.1773

> <Gold.PLP.part.hbond>
-3.0000

> <Gold.PLP.part.metal>
0.0000

> <Gold.PLP.part.buried>
-3.5161

> <Gold.PLP.part.nonpolar>
-23.8089

> <Gold.PLP.part.repulsive>
0.3392

> <Gold.PLP.ligand.clash>
0.0000

> <Gold.PLP.ligand.torsion>
0.6003

> <Gold.PLP.Chemscore.Hbond>
3.0000

> <Gold.PLP.Chemscore.CHOScore>
0.0000

> <Gold.PLP.Chemscore.Metal>
0.0000

> <Gold.Chemscore.Hbonds>
donor molecule, donor type, donor heavy atom, donor atom, acceptor molecule, acceptor atom, score
      L1  H    18    19       P1  7957  1.00
      P1  H  7989  7998       L1    17  1.00
      P1  H  7997  8010       L1     9  1.00

> <Gold.PLP.Chemscore.Internal.Correction>
0.0369

> <Gold.Rescore>
     Score         DG    S(hbond)    S(metal)    S(lipo)     H(rot)  DE(clash)    DE(int)     intcor
     15.97     -19.70       2.91        0.00      75.59       1.69       0.06       3.67       ----

> <Gold.Chemscore.Fitness>
15.9736

> <Gold.Chemscore.DG>
-19.7015

> <Gold.Chemscore.ZeroCoef>
-5.4800

> <Gold.Chemscore.Hbond>
2.9067

> <Gold.Chemscore.Metal>
0.0000

> <Gold.Chemscore.Lipo>
75.5855

> <Gold.Chemscore.Internal_Hbond>
0.0000

> <Gold.Chemscore.DEClash>
0.0555

> <Gold.Chemscore.DEInternal>
3.6724

> <Gold.Chemscore.Rot>
1.6916

> <Gold.Chemscore.Internal.Correction>
   9.000000E+99

> <Gold.Chemscore.Hbonds>
donor molecule, donor type, donor heavy atom, donor atom, acceptor molecule, acceptor atom, score
      L1  H    18    19       P1  7957  0.98
      P1  H  7989  7998       L1    17  0.65
      P1  H  7997  8010       L1     9  0.98

> <Gold.Chemscore.Hbond.Weighted>
-9.7085

> <Gold.Chemscore.Metal.Weighted>
-0.0000

> <Gold.Chemscore.Lipo.Weighted>
-8.8435

> <Gold.Chemscore.Internal_Hbond.Weighted>
0.0000

> <Gold.Chemscore.DEClash.Weighted>
0.0555

> <Gold.Chemscore.DEInternal.Weighted>
3.6724

> <Gold.Chemscore.Rot.Weighted>
4.3305

> <Gold.Chemscore.Internal.Correction.Weighted>
   9.000000E+99

> <Gold.Protein.RotatedTorsions>
[ 6907 6896 6895 6894 ] final   26.19 input  -60.11 | X-H torsion
[ 7974 7965 7964 7962 ] final  -93.68 input  175.53 | X-H torsion
[ 8008 7997 7996 7995 ] final   52.73 input   59.86 | X-H torsion
[ 10167 10162 10161 10158 ] final   46.29 input  -65.29 | X-H torsion
[ 10718 10713 10712 10709 ] final  -44.70 input   66.30 | X-H torsion
[ 10763 10752 10751 10750 ] final  123.96 input  -60.55 | X-H torsion
[ 11005 11000 10999 10996 ] final   26.71 input  -57.11 | X-H torsion

> <Gold.Protein.ActiveResidues>
 VAL166  LYS551  ARG553  GLY616  TRP617  ASP618  TYR619  PRO620  LYS621  CYS622 
 ASP623  PHE694  ASN695  SER759  ASP760  ASP761  ALA762  ILE779  LEU786  VAL792 
 PHE793  MET794  SER795  GLU796  ALA797  LYS798  CYS799  TRP800  GLU811  SER814 

> <Gold.Protein.RotatedAtoms>
  151.9838  135.0015  160.0558 H   0  0  0  0  0  0  0  0  0  0  0  0  # atno 6907 bound_to 6896
  152.1671  133.4615  159.4899 H   0  0  0  0  0  0  0  0  0  0  0  0  # atno 6908 bound_to 6896
  150.6896  134.1916  159.4330 H   0  0  0  0  0  0  0  0  0  0  0  0  # atno 6909 bound_to 6896
  145.3833  140.9520  143.2382 H   0  0  0  0  0  0  0  0  0  0  0  0  # atno 7974 bound_to 7965
  155.4566  140.3460  155.4307 H   0  0  0  0  0  0  0  0  0  0  0  0  # atno 8008 bound_to 7997
  156.1187  140.1481  156.9265 H   0  0  0  0  0  0  0  0  0  0  0  0  # atno 8009 bound_to 7997
  154.4808  140.0870  156.7351 H   0  0  0  0  0  0  0  0  0  0  0  0  # atno 8010 bound_to 7997
  140.3154  144.2770  150.6192 H   0  0  0  0  0  0  0  0  0  0  0  0  # atno 10167 bound_to 10162
  156.2359  130.4176  149.8818 H   0  0  0  0  0  0  0  0  0  0  0  0  # atno 10718 bound_to 10713
  153.6537  135.3358  155.3107 H   0  0  0  0  0  0  0  0  0  0  0  0  # atno 10763 bound_to 10752
  154.8531  135.4347  154.1877 H   0  0  0  0  0  0  0  0  0  0  0  0  # atno 10764 bound_to 10752
  153.2826  135.7010  153.7446 H   0  0  0  0  0  0  0  0  0  0  0  0  # atno 10765 bound_to 10752
  140.3340  134.2406  155.7698 H   0  0  0  0  0  0  0  0  0  0  0  0  # atno 11005 bound_to 11000
  144.8492  139.5348  143.6864 LP  0  0  0  0  0  0  0  0  0  0  0  0  # atno 17320 bound_to 7965
  146.2832  139.6933  142.9214 LP  0  0  0  0  0  0  0  0  0  0  0  0  # atno 17321 bound_to 7965
  140.5531  143.2203  151.7893 LP  0  0  0  0  0  0  0  0  0  0  0  0  # atno 17342 bound_to 10162
  139.4885  144.4449  151.9721 LP  0  0  0  0  0  0  0  0  0  0  0  0  # atno 17343 bound_to 10162
  156.6416  130.8707  151.3515 LP  0  0  0  0  0  0  0  0  0  0  0  0  # atno 17370 bound_to 10713
  157.7154  130.9491  150.1237 LP  0  0  0  0  0  0  0  0  0  0  0  0  # atno 17371 bound_to 10713
  141.2056  133.7856  157.0224 LP  0  0  0  0  0  0  0  0  0  0  0  0  # atno 17394 bound_to 11000
  140.0836  134.9634  157.1664 LP  0  0  0  0  0  0  0  0  0  0  0  0  # atno 17395 bound_to 11000

$$$$
