AV-unprocessed.smi:69|AV-procd|sdf|654|dock2
  -GOLD-   2262016553D 1   1.00000     0.00000
 Structure written by MMmdl.
 32 34  0  0  0  0  0  0  0  0  1 V2000
  141.6693  138.9494  153.2140 N   0  0  0  0  0  0  0  0  0  0  0  0
  141.8248  137.6182  153.2162 C   0  0  0  0  0  0  0  0  0  0  0  0
  140.8277  136.8559  153.7221 N   0  0  0  0  0  0  0  0  0  0  0  0
  140.9601  135.5261  153.7370 C   0  0  0  0  0  0  0  0  0  0  0  0
  141.9833  134.7844  153.3055 N   0  0  0  0  0  0  0  0  0  0  0  0
  142.9906  135.5517  152.7952 C   0  0  0  0  0  0  0  0  0  0  0  0
  142.9840  136.9729  152.7155 C   0  0  0  0  0  0  0  0  0  0  0  0
  144.1645  137.4220  152.1411 N   0  0  0  0  0  0  0  0  0  0  0  0
  144.8294  136.3253  151.8978 C   0  0  0  0  0  0  0  0  0  0  0  0
  144.2028  135.1535  152.2623 N   0  0  0  0  0  0  0  0  0  0  0  0
  144.7427  133.7673  152.0922 C   0  0  1  0  0  0  0  0  0  0  0  0
  143.8289  132.9940  151.3782 O   0  0  0  0  0  0  0  0  0  0  0  0
  144.4837  132.1813  150.4006 C   0  0  1  0  0  0  0  0  0  0  0  0
  143.9734  132.6061  149.0071 C   0  0  0  0  0  0  0  0  0  0  0  0
  142.6945  132.0550  148.7752 O   0  0  0  0  0  0  0  0  0  0  0  0
  145.9886  132.4121  150.6459 C   0  0  1  0  0  0  0  0  0  0  0  0
  146.7752  132.3631  149.4706 O   0  0  0  0  0  0  0  0  0  0  0  0
  146.0436  133.7868  151.2927 C   0  0  2  0  0  0  0  0  0  0  0  0
  147.1795  133.8640  152.1324 O   0  0  0  0  0  0  0  0  0  0  0  0
  144.8477  133.3672  153.1024 H   0  0  0  0  0  0  0  0  0  0  0  0
  144.2456  131.1303  150.5712 H   0  0  0  0  0  0  0  0  0  0  0  0
  146.3467  131.6551  151.3462 H   0  0  0  0  0  0  0  0  0  0  0  0
  146.0180  134.5869  150.5506 H   0  0  0  0  0  0  0  0  0  0  0  0
  142.3996  139.5401  152.8430 H   0  0  0  0  0  0  0  0  0  0  0  0
  140.8245  139.3587  153.5851 H   0  0  0  0  0  0  0  0  0  0  0  0
  140.1287  134.9777  154.1543 H   0  0  0  0  0  0  0  0  0  0  0  0
  145.8070  136.3396  151.4379 H   0  0  0  0  0  0  0  0  0  0  0  0
  143.9556  133.6892  148.8936 H   0  0  0  0  0  0  0  0  0  0  0  0
  144.6185  132.2155  148.2204 H   0  0  0  0  0  0  0  0  0  0  0  0
  142.0718  132.7621  148.7014 H   0  0  0  0  0  0  0  0  0  0  0  0
  147.4062  131.6651  149.5591 H   0  0  0  0  0  0  0  0  0  0  0  0
  147.6145  134.6879  151.9754 H   0  0  0  0  0  0  0  0  0  0  0  0
  1  2  1  0  0  0  0
  1 24  1  0  0  0  0
  1 25  1  0  0  0  0
  2  7  1  0  0  0  0
  2  3  2  0  0  0  0
  3  4  1  0  0  0  0
  4  5  2  0  0  0  0
  4 26  1  0  0  0  0
  5  6  1  0  0  0  0
  6 10  1  0  0  0  0
  6  7  2  0  0  0  0
  7  8  1  0  0  0  0
  8  9  2  0  0  0  0
  9 10  1  0  0  0  0
  9 27  1  0  0  0  0
 10 11  1  0  0  0  0
 11 20  1  0  0  0  0
 11 18  1  0  0  0  0
 11 12  1  0  0  0  0
 12 13  1  0  0  0  0
 13 21  1  0  0  0  0
 13 14  1  0  0  0  0
 13 16  1  0  0  0  0
 14 15  1  0  0  0  0
 14 28  1  0  0  0  0
 14 29  1  0  0  0  0
 15 30  1  0  0  0  0
 16 22  1  0  0  0  0
 16 17  1  0  0  0  0
 16 18  1  0  0  0  0
 17 31  1  0  0  0  0
 18 23  1  0  0  0  0
 18 19  1  0  0  0  0
 19 32  1  0  0  0  0
M  END
> <s_m_source_file>
AV-unprocessed.smi

> <i_m_source_file_index>
69

> <i_lp_mmshare_version>
43012

> <i_f3d_flags>
0

> <s_epik_input>
bjFbY0hdbmMoW05IMl0pYyhjMTIpbltjSF1uMltDQEBIXTNPW0NASF0oW0NIMl1bT0hdKVtDQEBIXShbT0hdKVtDQEhdM1tPSF0=

> <s_epik_cmdline>
J2VwaWtfcHl0aG9uJywgJy1waCcsICc3LjAnLCAnLXRuJywgJzgnLCAnLW1hJywgJzIwMCcsICctbWV0YWxfYmluZGluZycsICctaW1hZScsICc8aW5maWxlLm1hZT4nLCAnLW9tYWUnLCAnPG91dGZpbGUubWFlPic=

> <r_lp_tautomer_probability>
1

> <r_epik_Ionization_Penalty>
0.000428445

> <r_epik_Ionization_Penalty_Charging>
0

> <r_epik_Ionization_Penalty_Neutral>
0.000428445

> <r_epik_State_Penalty>
-0

> <r_epik_Charging_Adjusted_Penalty>
0

> <i_epik_Tot_Q>
0

> <i_epik_Tot_abs_Q>
0

> <r_epik_Metal_State_Penalty>
-0

> <b_epik_Metal_Only>
0

> <s_epik_Chemistry_Notes>
This compound contains an acetal/aminal-like group ( X-CH(R)-Y where X, Y are N, S, or O) that may be acid/base labile, releasing an aldehyde.

> <s_lp_Force_Field>
OPLS_2005

> <r_lp_Energy>
41.5942

> <b_lp_Chiralities_Consistent>
1

> <s_lp_Variant>
AV-unprocessed.smi:69-12

> <Gold.Version>
5.8.1

> <Gold.Id.Protein>
6NUR|6NUR_protein|mol2

> <Gold.PLP.Fitness>
49.4099

> <Gold.PLP.PLP>
-32.6774

> <Gold.PLP.part.hbond>
-8.1453

> <Gold.PLP.part.metal>
0.0000

> <Gold.PLP.part.buried>
-7.4347

> <Gold.PLP.part.nonpolar>
-22.2524

> <Gold.PLP.part.repulsive>
3.5391

> <Gold.PLP.ligand.clash>
0.0000

> <Gold.PLP.ligand.torsion>
0.2063

> <Gold.PLP.Chemscore.Hbond>
4.9337

> <Gold.PLP.Chemscore.CHOScore>
0.7789

> <Gold.PLP.Chemscore.Metal>
0.0000

> <Gold.Chemscore.Hbonds>
donor molecule, donor type, donor heavy atom, donor atom, acceptor molecule, acceptor atom, score
      L1  H     1    24       P1 10175  1.00
      L1  H    15    30       P1 10186  0.76
      L1  H    17    31       P1 10747  1.00
      L1  H    19    32       P1  7948  1.00
      P1  H 10785 10796       L1    15  0.95
      L1  C     4    26       P1 11000  0.57

> <Gold.PLP.Chemscore.Internal.Correction>
0.0070

> <Gold.Rescore>
     Score         DG    S(hbond)    S(metal)    S(lipo)     H(rot)  DE(clash)    DE(int)     intcor
     11.65     -13.55       4.24        0.00      36.03       4.03       1.67       0.23       ----

> <Gold.Chemscore.Fitness>
11.6453

> <Gold.Chemscore.DG>
-13.5456

> <Gold.Chemscore.ZeroCoef>
-5.4800

> <Gold.Chemscore.Hbond>
4.2399

> <Gold.Chemscore.Metal>
0.0000

> <Gold.Chemscore.Lipo>
36.0289

> <Gold.Chemscore.Internal_Hbond>
0.0000

> <Gold.Chemscore.DEClash>
1.6688

> <Gold.Chemscore.DEInternal>
0.2315

> <Gold.Chemscore.Rot>
4.0277

> <Gold.Chemscore.Internal.Correction>
   9.000000E+99

> <Gold.Chemscore.Hbonds>
donor molecule, donor type, donor heavy atom, donor atom, acceptor molecule, acceptor atom, score
      L1  H     1    24       P1 10175  0.86
      L1  H    15    30       P1 10186  0.72
      L1  H    17    31       P1 10747  0.98
      L1  H    19    32       P1  7948  0.58
      P1  H 10785 10796       L1    15  0.21

> <Gold.Chemscore.Hbond.Weighted>
-14.1612

> <Gold.Chemscore.Metal.Weighted>
-0.0000

> <Gold.Chemscore.Lipo.Weighted>
-4.2154

> <Gold.Chemscore.Internal_Hbond.Weighted>
0.0000

> <Gold.Chemscore.DEClash.Weighted>
1.6688

> <Gold.Chemscore.DEInternal.Weighted>
0.2315

> <Gold.Chemscore.Rot.Weighted>
10.3110

> <Gold.Chemscore.Internal.Correction.Weighted>
   9.000000E+99

> <Gold.Protein.RotatedTorsions>
[ 6907 6896 6895 6894 ] final  107.50 input  -60.11 | X-H torsion
[ 7974 7965 7964 7962 ] final  -77.04 input  175.53 | X-H torsion
[ 8008 7997 7996 7995 ] final  120.59 input   59.86 | X-H torsion
[ 10167 10162 10161 10158 ] final   31.39 input  -65.29 | X-H torsion
[ 10718 10713 10712 10709 ] final   71.58 input   66.30 | X-H torsion
[ 10763 10752 10751 10750 ] final   23.23 input  -60.55 | X-H torsion
[ 11005 11000 10999 10996 ] final -171.81 input  -57.11 | X-H torsion

> <Gold.Protein.ActiveResidues>
 VAL166  LYS551  ARG553  GLY616  TRP617  ASP618  TYR619  PRO620  LYS621  CYS622 
 ASP623  PHE694  ASN695  SER759  ASP760  ASP761  ALA762  ILE779  LEU786  VAL792 
 PHE793  MET794  SER795  GLU796  ALA797  LYS798  CYS799  TRP800  GLU811  SER814 

> <Gold.Protein.RotatedAtoms>
  152.5152  133.9226  159.7541 H   0  0  0  0  0  0  0  0  0  0  0  0  # atno 6907 bound_to 6896
  150.9594  133.6453  159.2764 H   0  0  0  0  0  0  0  0  0  0  0  0  # atno 6908 bound_to 6896
  151.3703  135.0926  159.9516 H   0  0  0  0  0  0  0  0  0  0  0  0  # atno 6909 bound_to 6896
  145.6049  140.9400  143.1220 H   0  0  0  0  0  0  0  0  0  0  0  0  # atno 7974 bound_to 7965
  156.2649  140.2827  156.1174 H   0  0  0  0  0  0  0  0  0  0  0  0  # atno 8008 bound_to 7997
  155.1192  140.0392  157.2763 H   0  0  0  0  0  0  0  0  0  0  0  0  # atno 8009 bound_to 7997
  154.6683  140.2582  155.7040 H   0  0  0  0  0  0  0  0  0  0  0  0  # atno 8010 bound_to 7997
  140.4593  144.0931  150.6209 H   0  0  0  0  0  0  0  0  0  0  0  0  # atno 10167 bound_to 10162
  157.6458  130.9535  150.0809 H   0  0  0  0  0  0  0  0  0  0  0  0  # atno 10718 bound_to 10713
  153.0854  135.6631  153.9960 H   0  0  0  0  0  0  0  0  0  0  0  0  # atno 10763 bound_to 10752
  153.9571  135.2978  155.3437 H   0  0  0  0  0  0  0  0  0  0  0  0  # atno 10764 bound_to 10752
  154.7261  135.5143  153.8961 H   0  0  0  0  0  0  0  0  0  0  0  0  # atno 10765 bound_to 10752
  140.5040  134.5866  157.4997 H   0  0  0  0  0  0  0  0  0  0  0  0  # atno 11005 bound_to 11000
  144.7294  139.7773  143.7353 LP  0  0  0  0  0  0  0  0  0  0  0  0  # atno 17320 bound_to 7965
  146.1548  139.4642  143.0026 LP  0  0  0  0  0  0  0  0  0  0  0  0  # atno 17321 bound_to 7965
  140.4113  143.2655  151.9829 LP  0  0  0  0  0  0  0  0  0  0  0  0  # atno 17342 bound_to 10162
  139.4804  144.5913  151.7767 LP  0  0  0  0  0  0  0  0  0  0  0  0  # atno 17343 bound_to 10162
  156.1785  130.3649  149.9067 LP  0  0  0  0  0  0  0  0  0  0  0  0  # atno 17370 bound_to 10713
  156.7025  130.8938  151.3601 LP  0  0  0  0  0  0  0  0  0  0  0  0  # atno 17371 bound_to 10713
  139.9697  134.7314  156.0067 LP  0  0  0  0  0  0  0  0  0  0  0  0  # atno 17394 bound_to 11000
  141.1420  133.6563  156.3758 LP  0  0  0  0  0  0  0  0  0  0  0  0  # atno 17395 bound_to 11000

$$$$
