AV-unprocessed.smi:65|AV-procd|sdf|616|dock10
  -GOLD-   2262016513D 1   1.00000     0.00000
 Structure written by MMmdl.
 26 27  0  0  0  0  0  0  0  0  2 V2000
  146.2195  136.8785  150.8669 N   0  0  0  0  0  0  0  0  0  0  0  0
  145.7590  135.6007  151.0712 C   0  0  0  0  0  0  0  0  0  0  0  0
  144.4855  135.3290  150.7723 N   0  0  0  0  0  0  0  0  0  0  0  0
  144.0277  134.0777  150.9682 C   0  0  0  0  0  0  0  0  0  0  0  0
  144.8552  133.0637  151.4782 C   0  0  0  0  0  0  0  0  0  0  0  0
  146.1914  133.4107  151.7806 C   0  0  0  0  0  0  0  0  0  0  0  0
  147.1171  132.4808  152.2904 N   0  0  0  0  0  0  0  0  0  0  0  0
  146.7120  131.1280  152.6504 C   0  0  0  0  0  0  0  0  0  0  0  0
  147.6772  130.6889  153.7589 C   0  0  0  0  0  0  0  0  0  0  0  0
  148.8903  131.6002  153.5650 C   0  0  2  0  0  0  0  0  0  0  0  0
  149.6331  131.7763  154.7521 O   0  0  0  0  0  0  0  0  0  0  0  0
  148.2611  132.9058  153.0815 C   0  0  0  0  0  0  0  0  0  0  0  0
  146.6087  134.6866  151.5601 N   0  3  0  0  0  0  0  0  0  0  0  0
  147.1771  137.1167  151.0822 H   0  0  0  0  0  0  0  0  0  0  0  0
  145.6126  137.5915  150.4887 H   0  0  0  0  0  0  0  0  0  0  0  0
  142.9959  133.8847  150.7144 H   0  0  0  0  0  0  0  0  0  0  0  0
  144.4704  132.0645  151.6201 H   0  0  0  0  0  0  0  0  0  0  0  0
  145.6783  131.0815  152.9947 H   0  0  0  0  0  0  0  0  0  0  0  0
  146.8112  130.4864  151.7744 H   0  0  0  0  0  0  0  0  0  0  0  0
  147.2179  130.8803  154.7303 H   0  0  0  0  0  0  0  0  0  0  0  0
  147.9266  129.6284  153.7100 H   0  0  0  0  0  0  0  0  0  0  0  0
  149.5365  131.1915  152.7868 H   0  0  0  0  0  0  0  0  0  0  0  0
  149.0623  131.6295  155.4913 H   0  0  0  0  0  0  0  0  0  0  0  0
  148.9632  133.5008  152.4964 H   0  0  0  0  0  0  0  0  0  0  0  0
  147.9126  133.5073  153.9227 H   0  0  0  0  0  0  0  0  0  0  0  0
  147.5729  134.9417  151.7727 H   0  0  0  0  0  0  0  0  0  0  0  0
  1  2  1  0  0  0  0
  1 14  1  0  0  0  0
  1 15  1  0  0  0  0
  2 13  1  0  0  0  0
  2  3  2  0  0  0  0
  3  4  1  0  0  0  0
  4  5  2  0  0  0  0
  4 16  1  0  0  0  0
  5  6  1  0  0  0  0
  5 17  1  0  0  0  0
  6  7  1  0  0  0  0
  6 13  2  0  0  0  0
  7 12  1  0  0  0  0
  7  8  1  0  0  0  0
  8  9  1  0  0  0  0
  8 18  1  0  0  0  0
  8 19  1  0  0  0  0
  9 10  1  0  0  0  0
  9 20  1  0  0  0  0
  9 21  1  0  0  0  0
 10 11  1  0  0  0  0
 10 12  1  0  0  0  0
 10 22  1  0  0  0  0
 11 23  1  0  0  0  0
 12 24  1  0  0  0  0
 12 25  1  0  0  0  0
 13 26  1  0  0  0  0
M  CHG  1  13   1
M  END
> <s_m_source_file>
AV-unprocessed.smi

> <i_m_source_file_index>
65

> <i_lp_mmshare_version>
43012

> <i_f3d_flags>
0

> <s_epik_input>
W05IMl1jMW5bY0hdW2NIXWMobjEpTjJbQ0gyXVtDSDJdW0NAQEhdKFtPSF0pW0NIMl0y

> <s_epik_cmdline>
J2VwaWtfcHl0aG9uJywgJy1waCcsICc3LjAnLCAnLXRuJywgJzgnLCAnLW1hJywgJzIwMCcsICctbWV0YWxfYmluZGluZycsICctaW1hZScsICc8aW5maWxlLm1hZT4nLCAnLW9tYWUnLCAnPG91dGZpbGUubWFlPic=

> <r_lp_tautomer_probability>
0.424989

> <r_epik_Ionization_Penalty>
0.57487

> <r_epik_Ionization_Penalty_Charging>
0.574865

> <r_epik_Ionization_Penalty_Neutral>
4.40886e-06

> <r_epik_State_Penalty>
0.845539

> <r_epik_Charging_Adjusted_Penalty>
1.4204

> <i_epik_Tot_Q>
1

> <i_epik_Tot_abs_Q>
1

> <r_epik_Metal_State_Penalty>
1.14248

> <b_epik_Metal_Only>
0

> <s_lp_Force_Field>
OPLS_2005

> <r_lp_Energy>
20.8145

> <b_lp_Chiralities_Consistent>
1

> <s_lp_Variant>
AV-unprocessed.smi:65-6

> <Gold.Version>
5.8.1

> <Gold.Id.Protein>
6NUR|6NUR_protein|mol2

> <Gold.PLP.Fitness>
39.2841

> <Gold.PLP.PLP>
-23.7090

> <Gold.PLP.part.hbond>
-2.8245

> <Gold.PLP.part.metal>
0.0000

> <Gold.PLP.part.buried>
-3.7887

> <Gold.PLP.part.nonpolar>
-17.9989

> <Gold.PLP.part.repulsive>
0.4241

> <Gold.PLP.ligand.clash>
0.0000

> <Gold.PLP.ligand.torsion>
0.1450

> <Gold.PLP.Chemscore.Hbond>
4.2181

> <Gold.PLP.Chemscore.CHOScore>
1.0000

> <Gold.PLP.Chemscore.Metal>
0.0000

> <Gold.Chemscore.Hbonds>
donor molecule, donor type, donor heavy atom, donor atom, acceptor molecule, acceptor atom, score
      L1  H     1    14       P1  7948  1.41
      L1  H     1    15       P1 10171  0.81
      L1  H    13    26       P1  7948  2.00
      L1  C     4    16       P1 10186  1.00

> <Gold.PLP.Chemscore.Internal.Correction>
0.2110

> <Gold.Rescore>
     Score         DG    S(hbond)    S(metal)    S(lipo)     H(rot)  DE(clash)    DE(int)     intcor
     14.40     -14.54       2.27        0.00      34.65       1.00       0.01       0.14       ----

> <Gold.Chemscore.Fitness>
14.4010

> <Gold.Chemscore.DG>
-14.5439

> <Gold.Chemscore.ZeroCoef>
-5.4800

> <Gold.Chemscore.Hbond>
2.2662

> <Gold.Chemscore.Metal>
0.0000

> <Gold.Chemscore.Lipo>
34.6550

> <Gold.Chemscore.Internal_Hbond>
0.0000

> <Gold.Chemscore.DEClash>
0.0060

> <Gold.Chemscore.DEInternal>
0.1369

> <Gold.Chemscore.Rot>
1.0000

> <Gold.Chemscore.Internal.Correction>
   9.000000E+99

> <Gold.Chemscore.Hbonds>
donor molecule, donor type, donor heavy atom, donor atom, acceptor molecule, acceptor atom, score
      L1  H     1    14       P1  7948  0.68
      L1  H     1    15       P1 10171  0.78
      L1  H    13    26       P1  7948  0.67

> <Gold.Chemscore.Hbond.Weighted>
-7.5693

> <Gold.Chemscore.Metal.Weighted>
-0.0000

> <Gold.Chemscore.Lipo.Weighted>
-4.0546

> <Gold.Chemscore.Internal_Hbond.Weighted>
0.0000

> <Gold.Chemscore.DEClash.Weighted>
0.0060

> <Gold.Chemscore.DEInternal.Weighted>
0.1369

> <Gold.Chemscore.Rot.Weighted>
2.5600

> <Gold.Chemscore.Internal.Correction.Weighted>
   9.000000E+99

> <Gold.Protein.RotatedTorsions>
[ 6907 6896 6895 6894 ] final -155.53 input  -60.11 | X-H torsion
[ 7974 7965 7964 7962 ] final  118.76 input  175.53 | X-H torsion
[ 8008 7997 7996 7995 ] final  -93.12 input   59.86 | X-H torsion
[ 10167 10162 10161 10158 ] final -172.13 input  -65.29 | X-H torsion
[ 10718 10713 10712 10709 ] final  -37.37 input   66.30 | X-H torsion
[ 10763 10752 10751 10750 ] final  -94.61 input  -60.55 | X-H torsion
[ 11005 11000 10999 10996 ] final   92.01 input  -57.11 | X-H torsion

> <Gold.Protein.ActiveResidues>
 VAL166  LYS551  ARG553  GLY616  TRP617  ASP618  TYR619  PRO620  LYS621  CYS622 
 ASP623  PHE694  ASN695  SER759  ASP760  ASP761  ALA762  ILE779  LEU786  VAL792 
 PHE793  MET794  SER795  GLU796  ALA797  LYS798  CYS799  TRP800  GLU811  SER814 

> <Gold.Protein.RotatedAtoms>
  151.2739  133.4242  159.2622 H   0  0  0  0  0  0  0  0  0  0  0  0  # atno 6907 bound_to 6896
  151.0420  134.9614  159.8177 H   0  0  0  0  0  0  0  0  0  0  0  0  # atno 6908 bound_to 6896
  152.5367  134.2697  159.9019 H   0  0  0  0  0  0  0  0  0  0  0  0  # atno 6909 bound_to 6896
  145.1514  139.3208  143.4565 H   0  0  0  0  0  0  0  0  0  0  0  0  # atno 7974 bound_to 7965
  154.7316  140.0502  157.0731 H   0  0  0  0  0  0  0  0  0  0  0  0  # atno 8008 bound_to 7997
  155.0294  140.3156  155.4745 H   0  0  0  0  0  0  0  0  0  0  0  0  # atno 8009 bound_to 7997
  156.2843  140.2152  156.5415 H   0  0  0  0  0  0  0  0  0  0  0  0  # atno 8010 bound_to 7997
  139.5762  144.1527  152.1453 H   0  0  0  0  0  0  0  0  0  0  0  0  # atno 10167 bound_to 10162
  156.3160  130.4259  149.8005 H   0  0  0  0  0  0  0  0  0  0  0  0  # atno 10718 bound_to 10713
  154.7071  135.5151  153.8611 H   0  0  0  0  0  0  0  0  0  0  0  0  # atno 10763 bound_to 10752
  153.0750  135.6613  154.0174 H   0  0  0  0  0  0  0  0  0  0  0  0  # atno 10764 bound_to 10752
  154.0023  135.3009  155.3381 H   0  0  0  0  0  0  0  0  0  0  0  0  # atno 10765 bound_to 10752
  139.8830  134.8707  156.3510 H   0  0  0  0  0  0  0  0  0  0  0  0  # atno 11005 bound_to 11000
  146.3494  140.1589  142.8591 LP  0  0  0  0  0  0  0  0  0  0  0  0  # atno 17320 bound_to 7965
  145.0427  140.8958  143.5042 LP  0  0  0  0  0  0  0  0  0  0  0  0  # atno 17321 bound_to 7965
  140.1070  144.5490  150.6950 LP  0  0  0  0  0  0  0  0  0  0  0  0  # atno 17342 bound_to 10162
  140.7044  143.2457  151.4769 LP  0  0  0  0  0  0  0  0  0  0  0  0  # atno 17343 bound_to 10162
  156.5331  130.8266  151.3244 LP  0  0  0  0  0  0  0  0  0  0  0  0  # atno 17370 bound_to 10713
  157.7401  130.9845  150.2359 LP  0  0  0  0  0  0  0  0  0  0  0  0  # atno 17371 bound_to 10713
  140.9594  133.7398  156.0380 LP  0  0  0  0  0  0  0  0  0  0  0  0  # atno 17394 bound_to 11000
  140.8008  134.3511  157.5440 LP  0  0  0  0  0  0  0  0  0  0  0  0  # atno 17395 bound_to 11000

$$$$
