AV-unprocessed.smi:1686|AV-procd|sdf|6758|dock3
  -GOLD-   22720 7513D 1   1.00000     0.00000
 Structure written by MMmdl.
 41 43  0  0  0  0  0  0  0  0  1 V2000
  147.8578  134.9583  158.2233 C   0  0  0  0  0  0  0  0  0  0  0  0
  148.9838  135.6323  157.4935 C   0  0  0  0  0  0  0  0  0  0  0  0
  150.1290  135.8449  158.1285 N   0  0  0  0  0  0  0  0  0  0  0  0
  150.9803  136.4681  157.2087 O   0  0  0  0  0  0  0  0  0  0  0  0
  150.2879  136.5996  156.0542 C   0  0  0  0  0  0  0  0  0  0  0  0
  150.9708  137.3145  154.6478 Cl  0  0  0  0  0  0  0  0  0  0  0  0
  149.0194  136.1038  156.1479 C   0  0  0  0  0  0  0  0  0  0  0  0
  147.9312  136.0546  155.1023 C   0  0  0  0  0  0  0  0  0  0  0  0
  147.4384  134.6231  154.8583 C   0  0  0  0  0  0  0  0  0  0  0  0
  147.0421  133.9167  155.7867 O   0  0  0  0  0  0  0  0  0  0  0  0
  147.4638  134.2154  153.5797 N   0  0  0  0  0  0  0  0  0  0  0  0
  147.0337  132.9102  153.0789 C   0  0  2  0  0  0  0  0  0  0  0  0
  148.1096  131.8715  153.4306 C   0  0  0  0  0  0  0  0  0  0  0  0
  146.7691  132.9980  151.5560 C   0  0  2  0  0  0  0  0  0  0  0  0
  145.7853  134.1112  151.1252 C   0  0  0  0  0  0  0  0  0  0  0  0
  144.8063  133.3699  150.1963 C   0  0  2  0  0  0  0  0  0  0  0  0
  143.8751  132.4902  151.0503 C   0  0  0  0  0  0  0  0  0  0  0  0
  144.8068  131.3499  151.4993 C   0  0  0  0  0  0  0  0  0  0  0  0
  146.1603  131.7469  150.8745 C   0  0  1  0  0  0  0  0  0  0  0  0
  145.7074  132.3306  149.5397 C   0  0  0  0  0  0  0  0  0  0  0  0
  147.0406  134.7031  157.5487 H   0  0  0  0  0  0  0  0  0  0  0  0
  147.4554  135.6046  159.0035 H   0  0  0  0  0  0  0  0  0  0  0  0
  148.1925  134.0341  158.6949 H   0  0  0  0  0  0  0  0  0  0  0  0
  147.0787  136.6664  155.3989 H   0  0  0  0  0  0  0  0  0  0  0  0
  148.2798  136.4652  154.1542 H   0  0  0  0  0  0  0  0  0  0  0  0
  147.8057  134.8686  152.8898 H   0  0  0  0  0  0  0  0  0  0  0  0
  146.1148  132.6148  153.5854 H   0  0  0  0  0  0  0  0  0  0  0  0
  147.8032  130.8676  153.1366 H   0  0  0  0  0  0  0  0  0  0  0  0
  148.2966  131.8501  154.5048 H   0  0  0  0  0  0  0  0  0  0  0  0
  149.0540  132.0918  152.9318 H   0  0  0  0  0  0  0  0  0  0  0  0
  147.7267  133.1940  151.0692 H   0  0  0  0  0  0  0  0  0  0  0  0
  145.2641  134.5728  151.9647 H   0  0  0  0  0  0  0  0  0  0  0  0
  146.3133  134.9018  150.5909 H   0  0  0  0  0  0  0  0  0  0  0  0
  144.2756  134.0262  149.5058 H   0  0  0  0  0  0  0  0  0  0  0  0
  143.4482  133.0349  151.8931 H   0  0  0  0  0  0  0  0  0  0  0  0
  143.0506  132.0994  150.4527 H   0  0  0  0  0  0  0  0  0  0  0  0
  144.8443  131.2339  152.5815 H   0  0  0  0  0  0  0  0  0  0  0  0
  144.4636  130.4003  151.0865 H   0  0  0  0  0  0  0  0  0  0  0  0
  146.8594  130.9150  150.7842 H   0  0  0  0  0  0  0  0  0  0  0  0
  145.1636  131.6189  148.9159 H   0  0  0  0  0  0  0  0  0  0  0  0
  146.5199  132.7683  148.9568 H   0  0  0  0  0  0  0  0  0  0  0  0
  1  2  1  0  0  0  0
  1 21  1  0  0  0  0
  1 22  1  0  0  0  0
  1 23  1  0  0  0  0
  2  7  1  0  0  0  0
  2  3  2  0  0  0  0
  3  4  1  0  0  0  0
  4  5  1  0  0  0  0
  5  6  1  0  0  0  0
  5  7  2  0  0  0  0
  7  8  1  0  0  0  0
  8  9  1  0  0  0  0
  8 24  1  0  0  0  0
  8 25  1  0  0  0  0
  9 10  2  0  0  0  0
  9 11  1  0  0  0  0
 11 12  1  0  0  0  0
 11 26  1  0  0  0  0
 12 13  1  0  0  0  0
 12 14  1  0  0  0  0
 12 27  1  0  0  0  0
 13 28  1  0  0  0  0
 13 29  1  0  0  0  0
 13 30  1  0  0  0  0
 14 19  1  0  0  0  0
 14 15  1  0  0  0  0
 14 31  1  0  0  0  0
 15 16  1  0  0  0  0
 15 32  1  0  0  0  0
 15 33  1  0  0  0  0
 16 20  1  0  0  0  0
 16 17  1  0  0  0  0
 16 34  1  0  0  0  0
 17 18  1  0  0  0  0
 17 35  1  0  0  0  0
 17 36  1  0  0  0  0
 18 19  1  0  0  0  0
 18 37  1  0  0  0  0
 18 38  1  0  0  0  0
 19 20  1  0  0  0  0
 19 39  1  0  0  0  0
 20 40  1  0  0  0  0
 20 41  1  0  0  0  0
M  END
> <s_m_source_file>
AV-unprocessed.smi

> <i_m_source_file_index>
1686

> <i_lp_mmshare_version>
43012

> <i_f3d_flags>
0

> <s_epik_input>
W0NIM11jMW5vYyhDbCljMVtDSDJdQyg9TylbTkhdW0NASF0oW0NIM10pW0NASF0oW0NIMl1bQ0BIXTIzKVtDQEhdKFtDSDJdMylbQ0gyXVtDSDJdMg==

> <s_epik_cmdline>
J2VwaWtfcHl0aG9uJywgJy1waCcsICc3LjAnLCAnLXRuJywgJzgnLCAnLW1hJywgJzIwMCcsICctbWV0YWxfYmluZGluZycsICctaW1hZScsICc8aW5maWxlLm1hZT4nLCAnLW9tYWUnLCAnPG91dGZpbGUubWFlPic=

> <r_lp_tautomer_probability>
1

> <r_epik_Ionization_Penalty>
2.01576e-08

> <r_epik_Ionization_Penalty_Charging>
0

> <r_epik_Ionization_Penalty_Neutral>
2.01576e-08

> <r_epik_State_Penalty>
-0

> <r_epik_Charging_Adjusted_Penalty>
0

> <i_epik_Tot_Q>
0

> <i_epik_Tot_abs_Q>
0

> <r_epik_Metal_State_Penalty>
-0

> <b_epik_Metal_Only>
0

> <s_lp_Force_Field>
OPLS_2005

> <r_lp_Energy>
47.064

> <b_lp_Chiralities_Consistent>
1

> <s_lp_Variant>
AV-unprocessed.smi:1686-1

> <Gold.Version>
5.8.1

> <Gold.Id.Protein>
6NUR|6NUR_protein|mol2

> <Gold.PLP.Fitness>
33.8744

> <Gold.PLP.PLP>
-28.6498

> <Gold.PLP.part.hbond>
-2.0000

> <Gold.PLP.part.metal>
0.0000

> <Gold.PLP.part.buried>
-2.3107

> <Gold.PLP.part.nonpolar>
-23.9213

> <Gold.PLP.part.repulsive>
0.0005

> <Gold.PLP.ligand.clash>
0.0000

> <Gold.PLP.ligand.torsion>
0.3121

> <Gold.PLP.Chemscore.Hbond>
1.9440

> <Gold.PLP.Chemscore.CHOScore>
0.0000

> <Gold.PLP.Chemscore.Metal>
0.0000

> <Gold.Chemscore.Hbonds>
donor molecule, donor type, donor heavy atom, donor atom, acceptor molecule, acceptor atom, score
      L1  H    11    26       P1  7948  1.00
      P1  H  6896  6908       L1     3  0.90

> <Gold.PLP.Chemscore.Internal.Correction>
0.0169

> <Gold.Rescore>
     Score         DG    S(hbond)    S(metal)    S(lipo)     H(rot)  DE(clash)    DE(int)     intcor
     16.66     -17.37       1.74        0.00      83.95       1.46       0.39       0.32       ----

> <Gold.Chemscore.Fitness>
16.6567

> <Gold.Chemscore.DG>
-17.3690

> <Gold.Chemscore.ZeroCoef>
-5.4800

> <Gold.Chemscore.Hbond>
1.7416

> <Gold.Chemscore.Metal>
0.0000

> <Gold.Chemscore.Lipo>
83.9482

> <Gold.Chemscore.Internal_Hbond>
0.0000

> <Gold.Chemscore.DEClash>
0.3934

> <Gold.Chemscore.DEInternal>
0.3189

> <Gold.Chemscore.Rot>
1.4648

> <Gold.Chemscore.Internal.Correction>
   9.000000E+99

> <Gold.Chemscore.Hbonds>
donor molecule, donor type, donor heavy atom, donor atom, acceptor molecule, acceptor atom, score
      L1  H    11    26       P1  7948  0.89
      P1  H  6896  6908       L1     3  0.86

> <Gold.Chemscore.Hbond.Weighted>
-5.8170

> <Gold.Chemscore.Metal.Weighted>
-0.0000

> <Gold.Chemscore.Lipo.Weighted>
-9.8219

> <Gold.Chemscore.Internal_Hbond.Weighted>
0.0000

> <Gold.Chemscore.DEClash.Weighted>
0.3934

> <Gold.Chemscore.DEInternal.Weighted>
0.3189

> <Gold.Chemscore.Rot.Weighted>
3.7500

> <Gold.Chemscore.Internal.Correction.Weighted>
   9.000000E+99

> <Gold.Protein.RotatedTorsions>
[ 6907 6896 6895 6894 ] final  177.89 input  -60.11 | X-H torsion
[ 7974 7965 7964 7962 ] final   22.23 input  175.53 | X-H torsion
[ 8008 7997 7996 7995 ] final  -11.87 input   59.86 | X-H torsion
[ 10167 10162 10161 10158 ] final  133.26 input  -65.29 | X-H torsion
[ 10718 10713 10712 10709 ] final -103.98 input   66.30 | X-H torsion
[ 10763 10752 10751 10750 ] final -116.80 input  -60.55 | X-H torsion
[ 11005 11000 10999 10996 ] final  -84.53 input  -57.11 | X-H torsion

> <Gold.Protein.ActiveResidues>
 VAL166  LYS551  ARG553  GLY616  TRP617  ASP618  TYR619  PRO620  LYS621  CYS622 
 ASP623  PHE694  ASN695  SER759  ASP760  ASP761  ALA762  ILE779  LEU786  VAL792 
 PHE793  MET794  SER795  GLU796  ALA797  LYS798  CYS799  TRP800  GLU811  SER814 

> <Gold.Protein.RotatedAtoms>
  151.6967  133.3311  159.3256 H   0  0  0  0  0  0  0  0  0  0  0  0  # atno 6907 bound_to 6896
  150.7754  134.6651  159.6370 H   0  0  0  0  0  0  0  0  0  0  0  0  # atno 6908 bound_to 6896
  152.3794  134.6616  160.0200 H   0  0  0  0  0  0  0  0  0  0  0  0  # atno 6909 bound_to 6896
  146.2038  139.7915  142.8742 H   0  0  0  0  0  0  0  0  0  0  0  0  # atno 7974 bound_to 7965
  154.5427  140.2291  155.8615 H   0  0  0  0  0  0  0  0  0  0  0  0  # atno 8008 bound_to 7997
  156.1873  140.3085  155.9226 H   0  0  0  0  0  0  0  0  0  0  0  0  # atno 8009 bound_to 7997
  155.3226  140.0441  157.3030 H   0  0  0  0  0  0  0  0  0  0  0  0  # atno 8010 bound_to 7997
  139.5304  144.6624  151.4971 H   0  0  0  0  0  0  0  0  0  0  0  0  # atno 10167 bound_to 10162
  156.0286  130.5493  150.7331 H   0  0  0  0  0  0  0  0  0  0  0  0  # atno 10718 bound_to 10713
  154.8532  135.4332  154.1879 H   0  0  0  0  0  0  0  0  0  0  0  0  # atno 10763 bound_to 10752
  153.2954  135.6965  153.7259 H   0  0  0  0  0  0  0  0  0  0  0  0  # atno 10764 bound_to 10752
  153.6410  135.3468  155.3046 H   0  0  0  0  0  0  0  0  0  0  0  0  # atno 10765 bound_to 10752
  141.1649  133.7351  156.8881 H   0  0  0  0  0  0  0  0  0  0  0  0  # atno 11005 bound_to 11000
  145.3393  141.0284  143.3402 LP  0  0  0  0  0  0  0  0  0  0  0  0  # atno 17320 bound_to 7965
  144.8743  139.4993  143.6753 LP  0  0  0  0  0  0  0  0  0  0  0  0  # atno 17321 bound_to 7965
  140.6478  143.8758  150.6755 LP  0  0  0  0  0  0  0  0  0  0  0  0  # atno 17342 bound_to 10162
  140.2113  143.3881  152.1716 LP  0  0  0  0  0  0  0  0  0  0  0  0  # atno 17343 bound_to 10162
  157.4919  131.0911  151.0417 LP  0  0  0  0  0  0  0  0  0  0  0  0  # atno 17370 bound_to 10713
  157.0822  130.5907  149.5422 LP  0  0  0  0  0  0  0  0  0  0  0  0  # atno 17371 bound_to 10713
  140.1668  134.9128  157.2783 LP  0  0  0  0  0  0  0  0  0  0  0  0  # atno 17394 bound_to 11000
  140.2548  134.3640  155.7428 LP  0  0  0  0  0  0  0  0  0  0  0  0  # atno 17395 bound_to 11000

$$$$
