AV-unprocessed.smi:895|AV-procd|sdf|4075|dock2
  -GOLD-   22720 1563D 1   1.00000     0.00000
 Structure written by MMmdl.
 44 45  0  0  0  0  0  0  0  0  1 V2000
  144.1552  132.8431  150.6750 C   0  0  0  0  0  0  0  0  0  0  0  0
  145.2812  133.8534  150.9671 C   0  0  0  0  0  0  0  0  0  0  0  0
  146.6398  133.2748  150.5372 C   0  0  0  0  0  0  0  0  0  0  0  0
  145.0683  134.9982  150.1646 O   0  0  0  0  0  0  0  0  0  0  0  0
  145.3458  134.3115  152.4444 C   0  0  0  0  0  0  0  0  0  0  0  0
  146.2349  135.4521  152.6583 N   0  0  0  0  0  0  0  0  0  0  0  0
  145.9003  136.5983  153.2668 C   0  0  0  0  0  0  0  0  0  0  0  0
  144.7808  136.8424  153.7172 O   0  0  0  0  0  0  0  0  0  0  0  0
  146.9357  137.4465  153.3291 N   0  0  0  0  0  0  0  0  0  0  0  0
  146.9078  138.7683  153.9531 C   0  0  2  0  0  0  0  0  0  0  0  0
  147.1554  139.8562  152.8888 C   0  0  0  0  0  0  0  0  0  0  0  0
  147.1316  141.2607  153.5110 C   0  0  0  0  0  0  0  0  0  0  0  0
  148.1505  141.3886  154.6532 C   0  0  0  0  0  0  0  0  0  0  0  0
  147.9338  140.3048  155.7257 C   0  0  0  0  0  0  0  0  0  0  0  0
  147.8854  138.8659  155.1598 C   0  0  2  0  0  0  0  0  0  0  0  0
  149.2164  138.3161  154.8938 N   0  0  0  0  0  0  0  0  0  0  0  0
  150.1827  138.8369  154.0558 C   0  0  0  0  0  0  0  0  0  0  0  0
  151.2722  138.0167  154.1174 C   0  0  0  0  0  0  0  0  0  0  0  0
  150.8779  137.0037  155.0337 C   0  0  0  0  0  0  0  0  0  0  0  0
  149.6528  137.1864  155.4959 N   0  0  0  0  0  0  0  0  0  0  0  0
  144.2527  131.9565  151.3021 H   0  0  0  0  0  0  0  0  0  0  0  0
  144.1789  132.5145  149.6354 H   0  0  0  0  0  0  0  0  0  0  0  0
  143.1672  133.2684  150.8534 H   0  0  0  0  0  0  0  0  0  0  0  0
  146.8839  132.3783  151.1080 H   0  0  0  0  0  0  0  0  0  0  0  0
  147.4461  133.9930  150.6925 H   0  0  0  0  0  0  0  0  0  0  0  0
  146.6418  133.0018  149.4810 H   0  0  0  0  0  0  0  0  0  0  0  0
  145.6434  134.9496  149.4164 H   0  0  0  0  0  0  0  0  0  0  0  0
  144.3415  134.5546  152.7963 H   0  0  0  0  0  0  0  0  0  0  0  0
  145.6865  133.4919  153.0784 H   0  0  0  0  0  0  0  0  0  0  0  0
  147.1834  135.3523  152.3275 H   0  0  0  0  0  0  0  0  0  0  0  0
  147.8166  137.1520  152.9334 H   0  0  0  0  0  0  0  0  0  0  0  0
  145.8981  138.9327  154.3349 H   0  0  0  0  0  0  0  0  0  0  0  0
  148.1071  139.6938  152.3833 H   0  0  0  0  0  0  0  0  0  0  0  0
  146.3907  139.7932  152.1138 H   0  0  0  0  0  0  0  0  0  0  0  0
  147.3368  142.0092  152.7451 H   0  0  0  0  0  0  0  0  0  0  0  0
  146.1314  141.4736  153.8900 H   0  0  0  0  0  0  0  0  0  0  0  0
  149.1621  141.3333  154.2526 H   0  0  0  0  0  0  0  0  0  0  0  0
  148.0655  142.3751  155.1100 H   0  0  0  0  0  0  0  0  0  0  0  0
  148.7025  140.3811  156.4957 H   0  0  0  0  0  0  0  0  0  0  0  0
  146.9878  140.5084  156.2288 H   0  0  0  0  0  0  0  0  0  0  0  0
  147.4696  138.2444  155.9546 H   0  0  0  0  0  0  0  0  0  0  0  0
  150.0173  139.7429  153.4911 H   0  0  0  0  0  0  0  0  0  0  0  0
  152.2080  138.1251  153.5896 H   0  0  0  0  0  0  0  0  0  0  0  0
  151.4413  136.1481  155.3757 H   0  0  0  0  0  0  0  0  0  0  0  0
  1  2  1  0  0  0  0
  1 21  1  0  0  0  0
  1 22  1  0  0  0  0
  1 23  1  0  0  0  0
  2  3  1  0  0  0  0
  2  4  1  0  0  0  0
  2  5  1  0  0  0  0
  3 24  1  0  0  0  0
  3 25  1  0  0  0  0
  3 26  1  0  0  0  0
  4 27  1  0  0  0  0
  5  6  1  0  0  0  0
  5 28  1  0  0  0  0
  5 29  1  0  0  0  0
  6  7  1  0  0  0  0
  6 30  1  0  0  0  0
  7  8  2  0  0  0  0
  7  9  1  0  0  0  0
  9 10  1  0  0  0  0
  9 31  1  0  0  0  0
 10 15  1  0  0  0  0
 10 11  1  0  0  0  0
 10 32  1  0  0  0  0
 11 12  1  0  0  0  0
 11 33  1  0  0  0  0
 11 34  1  0  0  0  0
 12 13  1  0  0  0  0
 12 35  1  0  0  0  0
 12 36  1  0  0  0  0
 13 14  1  0  0  0  0
 13 37  1  0  0  0  0
 13 38  1  0  0  0  0
 14 15  1  0  0  0  0
 14 39  1  0  0  0  0
 14 40  1  0  0  0  0
 15 16  1  0  0  0  0
 15 41  1  0  0  0  0
 16 20  1  0  0  0  0
 16 17  1  0  0  0  0
 17 18  2  0  0  0  0
 17 42  1  0  0  0  0
 18 19  1  0  0  0  0
 18 43  1  0  0  0  0
 19 20  2  0  0  0  0
 19 44  1  0  0  0  0
M  END
> <s_m_source_file>
AV-unprocessed.smi

> <i_m_source_file_index>
895

> <i_lp_mmshare_version>
43012

> <i_f3d_flags>
0

> <s_epik_input>
W0NIM11DKFtDSDNdKShbT0hdKVtDSDJdW05IXUMoPU8pW05IXVtDQEBIXTFbQ0gyXVtDSDJdW0NIMl1bQ0gyXVtDQEhdMW4yW2NIXVtjSF1bY0hdbjI=

> <s_epik_cmdline>
J2VwaWtfcHl0aG9uJywgJy1waCcsICc3LjAnLCAnLXRuJywgJzgnLCAnLW1hJywgJzIwMCcsICctbWV0YWxfYmluZGluZycsICctaW1hZScsICc8aW5maWxlLm1hZT4nLCAnLW9tYWUnLCAnPG91dGZpbGUubWFlPic=

> <r_lp_tautomer_probability>
1

> <r_epik_Ionization_Penalty>
0.000440451

> <r_epik_Ionization_Penalty_Charging>
0

> <r_epik_Ionization_Penalty_Neutral>
0.000440451

> <r_epik_State_Penalty>
-0

> <r_epik_Charging_Adjusted_Penalty>
0

> <i_epik_Tot_Q>
0

> <i_epik_Tot_abs_Q>
0

> <r_epik_Metal_State_Penalty>
-0

> <b_epik_Metal_Only>
0

> <s_lp_Force_Field>
OPLS_2005

> <r_lp_Energy>
14.0773

> <b_lp_Chiralities_Consistent>
1

> <s_lp_Variant>
AV-unprocessed.smi:895-3

> <Gold.Version>
5.8.1

> <Gold.Id.Protein>
6NUR|6NUR_protein|mol2

> <Gold.PLP.Fitness>
42.3197

> <Gold.PLP.PLP>
-30.6254

> <Gold.PLP.part.hbond>
-3.0000

> <Gold.PLP.part.metal>
0.0000

> <Gold.PLP.part.buried>
-4.3068

> <Gold.PLP.part.nonpolar>
-22.9710

> <Gold.PLP.part.repulsive>
0.2131

> <Gold.PLP.ligand.clash>
0.0000

> <Gold.PLP.ligand.torsion>
0.1922

> <Gold.PLP.Chemscore.Hbond>
2.9920

> <Gold.PLP.Chemscore.CHOScore>
1.0000

> <Gold.PLP.Chemscore.Metal>
0.0000

> <Gold.Chemscore.Hbonds>
donor molecule, donor type, donor heavy atom, donor atom, acceptor molecule, acceptor atom, score
      L1  H     4    27       P1  7921  1.00
      L1  H     6    30       P1  7948  0.99
      L1  H     9    31       P1  7948  1.00
      L1  C    17    42       P1  7957  0.99

> <Gold.PLP.Chemscore.Internal.Correction>
0.1026

> <Gold.Rescore>
     Score         DG    S(hbond)    S(metal)    S(lipo)     H(rot)  DE(clash)    DE(int)     intcor
     18.56     -18.79       2.93        0.00      77.97       2.19       0.10       0.12       ----

> <Gold.Chemscore.Fitness>
18.5646

> <Gold.Chemscore.DG>
-18.7923

> <Gold.Chemscore.ZeroCoef>
-5.4800

> <Gold.Chemscore.Hbond>
2.9346

> <Gold.Chemscore.Metal>
0.0000

> <Gold.Chemscore.Lipo>
77.9669

> <Gold.Chemscore.Internal_Hbond>
0.0000

> <Gold.Chemscore.DEClash>
0.1036

> <Gold.Chemscore.DEInternal>
0.1240

> <Gold.Chemscore.Rot>
2.1919

> <Gold.Chemscore.Internal.Correction>
   9.000000E+99

> <Gold.Chemscore.Hbonds>
donor molecule, donor type, donor heavy atom, donor atom, acceptor molecule, acceptor atom, score
      L1  H     4    27       P1  7921  0.98
      L1  H     6    30       P1  7948  0.91
      L1  H     9    31       P1  7948  0.99

> <Gold.Chemscore.Hbond.Weighted>
-9.8015

> <Gold.Chemscore.Metal.Weighted>
-0.0000

> <Gold.Chemscore.Lipo.Weighted>
-9.1221

> <Gold.Chemscore.Internal_Hbond.Weighted>
0.0000

> <Gold.Chemscore.DEClash.Weighted>
0.1036

> <Gold.Chemscore.DEInternal.Weighted>
0.1240

> <Gold.Chemscore.Rot.Weighted>
5.6113

> <Gold.Chemscore.Internal.Correction.Weighted>
   9.000000E+99

> <Gold.Protein.RotatedTorsions>
[ 6907 6896 6895 6894 ] final  -43.30 input  -60.11 | X-H torsion
[ 7974 7965 7964 7962 ] final   29.43 input  175.53 | X-H torsion
[ 8008 7997 7996 7995 ] final  -70.66 input   59.86 | X-H torsion
[ 10167 10162 10161 10158 ] final  119.71 input  -65.29 | X-H torsion
[ 10718 10713 10712 10709 ] final  114.65 input   66.30 | X-H torsion
[ 10763 10752 10751 10750 ] final  -64.75 input  -60.55 | X-H torsion
[ 11005 11000 10999 10996 ] final  -58.96 input  -57.11 | X-H torsion

> <Gold.Protein.ActiveResidues>
 VAL166  LYS551  ARG553  GLY616  TRP617  ASP618  TYR619  PRO620  LYS621  CYS622 
 ASP623  PHE694  ASN695  SER759  ASP760  ASP761  ALA762  ILE779  LEU786  VAL792 
 PHE793  MET794  SER795  GLU796  ALA797  LYS798  CYS799  TRP800  GLU811  SER814 

> <Gold.Protein.RotatedAtoms>
  150.9455  134.8860  159.7638 H   0  0  0  0  0  0  0  0  0  0  0  0  # atno 6907 bound_to 6896
  152.5098  134.3881  159.9384 H   0  0  0  0  0  0  0  0  0  0  0  0  # atno 6908 bound_to 6896
  151.3899  133.3752  159.2754 H   0  0  0  0  0  0  0  0  0  0  0  0  # atno 6909 bound_to 6896
  146.1672  139.6923  142.8993 H   0  0  0  0  0  0  0  0  0  0  0  0  # atno 7974 bound_to 7965
  154.5029  140.0830  156.7834 H   0  0  0  0  0  0  0  0  0  0  0  0  # atno 8008 bound_to 7997
  155.3962  140.3435  155.4236 H   0  0  0  0  0  0  0  0  0  0  0  0  # atno 8009 bound_to 7997
  156.1479  140.1549  156.8805 H   0  0  0  0  0  0  0  0  0  0  0  0  # atno 8010 bound_to 7997
  139.6029  144.7062  151.3021 H   0  0  0  0  0  0  0  0  0  0  0  0  # atno 10167 bound_to 10162
  157.6268  131.1001  150.7217 H   0  0  0  0  0  0  0  0  0  0  0  0  # atno 10718 bound_to 10713
  154.3348  135.6169  153.5568 H   0  0  0  0  0  0  0  0  0  0  0  0  # atno 10763 bound_to 10752
  152.9808  135.5755  154.4920 H   0  0  0  0  0  0  0  0  0  0  0  0  # atno 10764 bound_to 10752
  154.4613  135.2856  155.1687 H   0  0  0  0  0  0  0  0  0  0  0  0  # atno 10765 bound_to 10752
  141.1229  133.6614  156.4999 H   0  0  0  0  0  0  0  0  0  0  0  0  # atno 11005 bound_to 11000
  145.4437  141.0424  143.2843 LP  0  0  0  0  0  0  0  0  0  0  0  0  # atno 17320 bound_to 7965
  144.8109  139.5964  143.7030 LP  0  0  0  0  0  0  0  0  0  0  0  0  # atno 17321 bound_to 7965
  140.7263  143.6994  150.7857 LP  0  0  0  0  0  0  0  0  0  0  0  0  # atno 17342 bound_to 10162
  140.0574  143.5189  152.2644 LP  0  0  0  0  0  0  0  0  0  0  0  0  # atno 17343 bound_to 10162
  156.7563  130.4784  149.5446 LP  0  0  0  0  0  0  0  0  0  0  0  0  # atno 17370 bound_to 10713
  156.1446  130.6268  151.0514 LP  0  0  0  0  0  0  0  0  0  0  0  0  # atno 17371 bound_to 10713
  140.4454  134.6977  157.5013 LP  0  0  0  0  0  0  0  0  0  0  0  0  # atno 17394 bound_to 11000
  140.0201  134.6560  155.9252 LP  0  0  0  0  0  0  0  0  0  0  0  0  # atno 17395 bound_to 11000

$$$$
