AV-unprocessed.smi:3208|AV-procd|sdf|12265|dock4
  -GOLD-   2272018103D 1   1.00000     0.00000
 Structure written by MMmdl.
 29 29  0  0  0  0  0  0  0  0  2 V2000
  152.9901  138.3771  155.1481 C   0  0  0  0  0  0  0  0  0  0  0  0
  151.9756  138.3312  154.2716 C   0  0  0  0  0  0  0  0  0  0  0  0
  150.5191  138.1863  154.6529 C   0  0  0  0  0  0  0  0  0  0  0  0
  150.2052  139.0524  155.7357 O   0  0  0  0  0  0  0  0  0  0  0  0
  150.1174  140.4368  155.4038 C   0  0  1  0  0  0  0  0  0  0  0  0
  148.9467  140.6018  154.4253 C   0  0  0  0  0  0  0  0  0  0  0  0
  149.8865  141.2906  156.6698 C   0  0  0  0  0  0  0  0  0  0  0  0
  148.8558  141.9535  156.7829 O   0  0  0  0  0  0  0  0  0  0  0  0
  150.9500  141.3268  157.5581 N   0  0  0  0  0  0  0  0  0  0  0  0
  151.2261  142.4268  158.2034 C   0  0  0  0  0  0  0  0  0  0  0  0
  150.5294  143.6305  157.9833 N   0  0  0  0  0  0  0  0  0  0  0  0
  150.8106  144.7948  158.6657 C   0  0  0  0  0  0  0  0  0  0  0  0
  151.7807  144.8505  159.5800 C   0  0  0  0  0  0  0  0  0  0  0  0
  152.5539  143.6565  159.8556 C   0  0  0  0  0  0  0  0  0  0  0  0
  152.3132  142.4443  159.1978 C   0  0  0  0  0  0  0  0  0  0  0  0
  153.0049  141.4355  159.4678 O   0  5  0  0  0  0  0  0  0  0  0  0
  152.8162  138.3102  156.2123 H   0  0  0  0  0  0  0  0  0  0  0  0
  154.0107  138.4823  154.8105 H   0  0  0  0  0  0  0  0  0  0  0  0
  152.1868  138.4002  153.2145 H   0  0  0  0  0  0  0  0  0  0  0  0
  149.8945  138.4011  153.7851 H   0  0  0  0  0  0  0  0  0  0  0  0
  150.3404  137.1490  154.9386 H   0  0  0  0  0  0  0  0  0  0  0  0
  151.0319  140.7389  154.8908 H   0  0  0  0  0  0  0  0  0  0  0  0
  148.8372  141.6401  154.1099 H   0  0  0  0  0  0  0  0  0  0  0  0
  148.0040  140.2859  154.8735 H   0  0  0  0  0  0  0  0  0  0  0  0
  149.1043  140.0016  153.5290 H   0  0  0  0  0  0  0  0  0  0  0  0
  150.1896  145.6373  158.3998 H   0  0  0  0  0  0  0  0  0  0  0  0
  151.9879  145.7709  160.1057 H   0  0  0  0  0  0  0  0  0  0  0  0
  153.3400  143.7160  160.5946 H   0  0  0  0  0  0  0  0  0  0  0  0
  149.7858  143.6821  157.3038 H   0  0  0  0  0  0  0  0  0  0  0  0
  1  2  2  0  0  0  0
  1 17  1  0  0  0  0
  1 18  1  0  0  0  0
  2  3  1  0  0  0  0
  2 19  1  0  0  0  0
  3  4  1  0  0  0  0
  3 20  1  0  0  0  0
  3 21  1  0  0  0  0
  4  5  1  0  0  0  0
  5  6  1  0  0  0  0
  5  7  1  0  0  0  0
  5 22  1  0  0  0  0
  6 23  1  0  0  0  0
  6 24  1  0  0  0  0
  6 25  1  0  0  0  0
  7  8  2  0  0  0  0
  7  9  1  0  0  0  0
  9 10  2  0  0  0  0
 10 15  1  0  0  0  0
 10 11  1  0  0  0  0
 11 29  1  0  0  0  0
 11 12  1  0  0  0  0
 12 26  1  0  0  0  0
 12 13  2  0  0  0  0
 13 27  1  0  0  0  0
 13 14  1  0  0  0  0
 14 15  2  0  0  0  0
 14 28  1  0  0  0  0
 15 16  1  0  0  0  0
M  CHG  1  16  -1
M  END
> <s_m_source_file>
AV-unprocessed.smi

> <i_m_source_file_index>
3208

> <i_lp_mmshare_version>
43012

> <i_f3d_flags>
0

> <s_epik_input>
W0NIMl09W0NIXVtDSDJdT1tDQEhdKFtDSDNdKUMoPU8pW05IXWMxbltjSF1bY0hdW2NIXWMxW09IXQ==

> <s_epik_cmdline>
J2VwaWtfcHl0aG9uJywgJy1waCcsICc3LjAnLCAnLXRuJywgJzgnLCAnLW1hJywgJzIwMCcsICctbWV0YWxfYmluZGluZycsICctaW1hZScsICc8aW5maWxlLm1hZT4nLCAnLW9tYWUnLCAnPG91dGZpbGUubWFlPic=

> <r_epik_Ionization_Penalty>
0.613767

> <r_epik_Ionization_Penalty_Charging>
0.613767

> <r_epik_Ionization_Penalty_Neutral>
1.14324e-13

> <r_epik_State_Penalty>
1.22258

> <r_epik_Charging_Adjusted_Penalty>
1.83635

> <i_epik_Tot_Q>
-1

> <i_epik_Tot_abs_Q>
1

> <r_epik_Metal_State_Penalty>
1.18528

> <b_epik_Metal_Only>
0

> <s_lp_Force_Field>
OPLS_2005

> <r_lp_Energy>
40.4661

> <b_lp_Chiralities_Consistent>
1

> <s_lp_Variant>
AV-unprocessed.smi:3208-6

> <Gold.Version>
5.8.1

> <Gold.Id.Protein>
6NUR|6NUR_protein|mol2

> <Gold.PLP.Fitness>
38.8652

> <Gold.PLP.PLP>
-33.8510

> <Gold.PLP.part.hbond>
-1.0000

> <Gold.PLP.part.metal>
0.0000

> <Gold.PLP.part.buried>
-5.8492

> <Gold.PLP.part.nonpolar>
-29.5362

> <Gold.PLP.part.repulsive>
1.7578

> <Gold.PLP.ligand.clash>
0.0000

> <Gold.PLP.ligand.torsion>
0.4387

> <Gold.PLP.Chemscore.Hbond>
0.9760

> <Gold.PLP.Chemscore.CHOScore>
0.9702

> <Gold.PLP.Chemscore.Metal>
0.0000

> <Gold.Chemscore.Hbonds>
donor molecule, donor type, donor heavy atom, donor atom, acceptor molecule, acceptor atom, score
      L1  H    11    29       P1  8028  0.73
      L1  C    12    26       P1  8029  0.95

> <Gold.PLP.Chemscore.Internal.Correction>
0.0530

> <Gold.Rescore>
     Score         DG    S(hbond)    S(metal)    S(lipo)     H(rot)  DE(clash)    DE(int)     intcor
     13.00     -14.52       0.93        0.00      86.96       1.65       1.18       0.34       ----

> <Gold.Chemscore.Fitness>
13.0041

> <Gold.Chemscore.DG>
-14.5159

> <Gold.Chemscore.ZeroCoef>
-5.4800

> <Gold.Chemscore.Hbond>
0.9263

> <Gold.Chemscore.Metal>
0.0000

> <Gold.Chemscore.Lipo>
86.9601

> <Gold.Chemscore.Internal_Hbond>
0.0000

> <Gold.Chemscore.DEClash>
1.1766

> <Gold.Chemscore.DEInternal>
0.3353

> <Gold.Chemscore.Rot>
1.6533

> <Gold.Chemscore.Internal.Correction>
   9.000000E+99

> <Gold.Chemscore.Hbonds>
donor molecule, donor type, donor heavy atom, donor atom, acceptor molecule, acceptor atom, score
      L1  H    11    29       P1  8028  0.59

> <Gold.Chemscore.Hbond.Weighted>
-3.0940

> <Gold.Chemscore.Metal.Weighted>
-0.0000

> <Gold.Chemscore.Lipo.Weighted>
-10.1743

> <Gold.Chemscore.Internal_Hbond.Weighted>
0.0000

> <Gold.Chemscore.DEClash.Weighted>
1.1766

> <Gold.Chemscore.DEInternal.Weighted>
0.3353

> <Gold.Chemscore.Rot.Weighted>
4.2324

> <Gold.Chemscore.Internal.Correction.Weighted>
   9.000000E+99

> <Gold.Protein.RotatedTorsions>
[ 6907 6896 6895 6894 ] final  136.33 input  -60.11 | X-H torsion
[ 7974 7965 7964 7962 ] final -155.19 input  175.53 | X-H torsion
[ 8008 7997 7996 7995 ] final  -35.35 input   59.86 | X-H torsion
[ 10167 10162 10161 10158 ] final  107.77 input  -65.29 | X-H torsion
[ 10718 10713 10712 10709 ] final  140.73 input   66.30 | X-H torsion
[ 10763 10752 10751 10750 ] final  154.07 input  -60.55 | X-H torsion
[ 11005 11000 10999 10996 ] final   96.12 input  -57.11 | X-H torsion

> <Gold.Protein.ActiveResidues>
 VAL166  LYS551  ARG553  GLY616  TRP617  ASP618  TYR619  PRO620  LYS621  CYS622 
 ASP623  PHE694  ASN695  SER759  ASP760  ASP761  ALA762  ILE779  LEU786  VAL792 
 PHE793  MET794  SER795  GLU796  ALA797  LYS798  CYS799  TRP800  GLU811  SER814 

> <Gold.Protein.RotatedAtoms>
  152.2905  133.5557  159.5554 H   0  0  0  0  0  0  0  0  0  0  0  0  # atno 6907 bound_to 6896
  150.7233  134.0435  159.3783 H   0  0  0  0  0  0  0  0  0  0  0  0  # atno 6908 bound_to 6896
  151.8341  135.0612  160.0491 H   0  0  0  0  0  0  0  0  0  0  0  0  # atno 6909 bound_to 6896
  144.7652  140.4284  143.5947 H   0  0  0  0  0  0  0  0  0  0  0  0  # atno 7974 bound_to 7965
  154.4098  140.1659  156.2197 H   0  0  0  0  0  0  0  0  0  0  0  0  # atno 8008 bound_to 7997
  155.9374  140.3410  155.6276 H   0  0  0  0  0  0  0  0  0  0  0  0  # atno 8009 bound_to 7997
  155.7031  140.0747  157.2393 H   0  0  0  0  0  0  0  0  0  0  0  0  # atno 8010 bound_to 7997
  139.6900  144.7109  151.1365 H   0  0  0  0  0  0  0  0  0  0  0  0  # atno 10167 bound_to 10162
  157.4000  131.1015  151.0561 H   0  0  0  0  0  0  0  0  0  0  0  0  # atno 10718 bound_to 10713
  154.1465  135.2817  155.3147 H   0  0  0  0  0  0  0  0  0  0  0  0  # atno 10763 bound_to 10752
  154.6249  135.5455  153.7619 H   0  0  0  0  0  0  0  0  0  0  0  0  # atno 10764 bound_to 10752
  153.0234  135.6448  154.1610 H   0  0  0  0  0  0  0  0  0  0  0  0  # atno 10765 bound_to 10752
  139.8784  134.8934  156.4111 H   0  0  0  0  0  0  0  0  0  0  0  0  # atno 11005 bound_to 11000
  145.6492  139.1562  143.2871 LP  0  0  0  0  0  0  0  0  0  0  0  0  # atno 17320 bound_to 7965
  146.1753  140.6582  142.9214 LP  0  0  0  0  0  0  0  0  0  0  0  0  # atno 17321 bound_to 7965
  140.7679  143.5573  150.9138 LP  0  0  0  0  0  0  0  0  0  0  0  0  # atno 17342 bound_to 10162
  139.9250  143.6561  152.3089 LP  0  0  0  0  0  0  0  0  0  0  0  0  # atno 17343 bound_to 10162
  157.1564  130.6206  149.5597 LP  0  0  0  0  0  0  0  0  0  0  0  0  # atno 17370 bound_to 10713
  155.9820  130.4832  150.6861 LP  0  0  0  0  0  0  0  0  0  0  0  0  # atno 17371 bound_to 10713
  140.9199  133.7652  155.9894 LP  0  0  0  0  0  0  0  0  0  0  0  0  # atno 17394 bound_to 11000
  140.8451  134.3021  157.5298 LP  0  0  0  0  0  0  0  0  0  0  0  0  # atno 17395 bound_to 11000

$$$$
