AV-unprocessed.smi:761|AV-procd|sdf|3631|dock2
  -GOLD-   22720 1 23D 1   1.00000     0.00000
 Structure written by MMmdl.
 35 36  0  0  0  0  0  0  0  0  3 V2000
  145.1471  138.2018  153.3599 O   0  0  0  0  0  0  0  0  0  0  0  0
  146.1514  137.7637  152.7989 C   0  0  0  0  0  0  0  0  0  0  0  0
  146.1603  136.6226  152.0947 N   0  0  0  0  0  0  0  0  0  0  0  0
  144.9944  135.7733  151.8781 C   0  0  0  0  0  0  0  0  0  0  0  0
  144.7357  135.5378  150.3782 C   0  0  0  0  0  0  0  0  0  0  0  0
  143.8311  134.3884  150.1442 N   0  3  0  0  0  0  0  0  0  0  0  0
  143.8123  133.3751  151.2388 C   0  0  0  0  0  0  0  0  0  0  0  0
  143.7379  132.0692  150.4998 C   0  0  0  0  0  0  0  0  0  0  0  0
  143.8709  132.2440  149.1899 C   0  0  0  0  0  0  0  0  0  0  0  0
  144.0570  133.6945  148.8447 C   0  0  0  0  0  0  0  0  0  0  0  0
  147.3678  138.3357  152.8229 N   0  0  0  0  0  0  0  0  0  0  0  0
  147.7596  139.5560  153.4385 C   0  0  0  0  0  0  0  0  0  0  0  0
  146.8362  140.6250  153.4185 C   0  0  0  0  0  0  0  0  0  0  0  0
  147.1749  141.8483  154.0319 C   0  0  0  0  0  0  0  0  0  0  0  0
  148.3721  141.9866  154.6408 N   0  3  0  0  0  0  0  0  0  0  0  0
  149.2810  140.9900  154.6988 C   0  0  0  0  0  0  0  0  0  0  0  0
  148.9985  139.7437  154.1033 C   0  0  0  0  0  0  0  0  0  0  0  0
  147.0273  136.3266  151.6695 H   0  0  0  0  0  0  0  0  0  0  0  0
  145.1307  134.8288  152.4076 H   0  0  0  0  0  0  0  0  0  0  0  0
  144.1310  136.2600  152.3324 H   0  0  0  0  0  0  0  0  0  0  0  0
  144.2788  136.4332  149.9541 H   0  0  0  0  0  0  0  0  0  0  0  0
  145.6703  135.3764  149.8383 H   0  0  0  0  0  0  0  0  0  0  0  0
  144.7205  133.3996  151.8430 H   0  0  0  0  0  0  0  0  0  0  0  0
  142.9472  133.5173  151.8871 H   0  0  0  0  0  0  0  0  0  0  0  0
  143.6129  131.1202  151.0007 H   0  0  0  0  0  0  0  0  0  0  0  0
  143.8722  131.4611  148.4458 H   0  0  0  0  0  0  0  0  0  0  0  0
  143.3368  134.0244  148.0957 H   0  0  0  0  0  0  0  0  0  0  0  0
  145.0675  133.8494  148.4637 H   0  0  0  0  0  0  0  0  0  0  0  0
  148.1129  137.8118  152.3878 H   0  0  0  0  0  0  0  0  0  0  0  0
  145.8765  140.5147  152.9342 H   0  0  0  0  0  0  0  0  0  0  0  0
  146.5276  142.7128  154.0559 H   0  0  0  0  0  0  0  0  0  0  0  0
  150.1990  141.2144  155.2224 H   0  0  0  0  0  0  0  0  0  0  0  0
  149.7316  138.9555  154.1810 H   0  0  0  0  0  0  0  0  0  0  0  0
  142.8923  134.7573  150.0907 H   0  0  0  0  0  0  0  0  0  0  0  0
  148.5976  142.8797  155.0801 H   0  0  0  0  0  0  0  0  0  0  0  0
  1  2  2  0  0  0  0
  2  3  1  0  0  0  0
  2 11  1  0  0  0  0
  3  4  1  0  0  0  0
  3 18  1  0  0  0  0
  4  5  1  0  0  0  0
  4 19  1  0  0  0  0
  4 20  1  0  0  0  0
  5  6  1  0  0  0  0
  5 21  1  0  0  0  0
  5 22  1  0  0  0  0
  6 10  1  0  0  0  0
  6  7  1  0  0  0  0
  6 34  1  0  0  0  0
  7  8  1  0  0  0  0
  7 23  1  0  0  0  0
  7 24  1  0  0  0  0
  8  9  2  0  0  0  0
  8 25  1  0  0  0  0
  9 10  1  0  0  0  0
  9 26  1  0  0  0  0
 10 27  1  0  0  0  0
 10 28  1  0  0  0  0
 11 12  1  0  0  0  0
 11 29  1  0  0  0  0
 12 17  1  0  0  0  0
 12 13  2  0  0  0  0
 13 14  1  0  0  0  0
 13 30  1  0  0  0  0
 14 15  2  0  0  0  0
 14 31  1  0  0  0  0
 15 16  1  0  0  0  0
 15 35  1  0  0  0  0
 16 17  2  0  0  0  0
 16 32  1  0  0  0  0
 17 33  1  0  0  0  0
M  CHG  1   6   1
M  CHG  1  15   1
M  END
> <s_m_source_file>
AV-unprocessed.smi

> <i_m_source_file_index>
761

> <i_lp_mmshare_version>
43012

> <i_f3d_flags>
0

> <s_epik_input>
W2NIXTFbY0hdbltjSF1bY0hdYzFbTkhdQyg9TylbTkhdW0NIMl1bQ0gyXU4yW0NIMl1bQ0hdPVtDSF1bQ0gyXTI=

> <s_epik_cmdline>
J2VwaWtfcHl0aG9uJywgJy1waCcsICc3LjAnLCAnLXRuJywgJzgnLCAnLW1hJywgJzIwMCcsICctbWV0YWxfYmluZGluZycsICctaW1hZScsICc8aW5maWxlLm1hZT4nLCAnLW9tYWUnLCAnPG91dGZpbGUubWFlPic=

> <r_epik_Ionization_Penalty>
1.1155

> <r_epik_Ionization_Penalty_Charging>
1.11548

> <r_epik_Ionization_Penalty_Neutral>
1.98533e-05

> <r_epik_State_Penalty>
1.13758

> <r_epik_Charging_Adjusted_Penalty>
2.25306

> <i_epik_Tot_Q>
2

> <i_epik_Tot_abs_Q>
2

> <r_epik_Metal_State_Penalty>
1.22141

> <b_epik_Metal_Only>
0

> <s_lp_Force_Field>
OPLS_2005

> <r_lp_Energy>
33.0614

> <b_lp_Chiralities_Consistent>
1

> <s_lp_Variant>
AV-unprocessed.smi:761-2

> <Gold.Version>
5.8.1

> <Gold.Id.Protein>
6NUR|6NUR_protein|mol2

> <Gold.PLP.Fitness>
47.4586

> <Gold.PLP.PLP>
-31.1140

> <Gold.PLP.part.hbond>
-4.0913

> <Gold.PLP.part.metal>
0.0000

> <Gold.PLP.part.buried>
1.5792

> <Gold.PLP.part.nonpolar>
-31.2805

> <Gold.PLP.part.repulsive>
1.7875

> <Gold.PLP.ligand.clash>
0.0305

> <Gold.PLP.ligand.torsion>
0.7710

> <Gold.PLP.Chemscore.Hbond>
5.9586

> <Gold.PLP.Chemscore.CHOScore>
0.0000

> <Gold.PLP.Chemscore.Metal>
0.0000

> <Gold.Chemscore.Hbonds>
donor molecule, donor type, donor heavy atom, donor atom, acceptor molecule, acceptor atom, score
      L1  H     3    18       P1  7948  0.94
      L1  H     6    34       P1 10186  1.89
      L1  H    11    29       P1  7948  1.00
      L1  H    15    35       P1  8028  2.00

> <Gold.PLP.Chemscore.Internal.Correction>
0.0411

> <Gold.Rescore>
     Score         DG    S(hbond)    S(metal)    S(lipo)     H(rot)  DE(clash)    DE(int)     intcor
     19.25     -23.57       3.51        0.00      88.10       1.54       2.36       1.96       ----

> <Gold.Chemscore.Fitness>
19.2461

> <Gold.Chemscore.DG>
-23.5661

> <Gold.Chemscore.ZeroCoef>
-5.4800

> <Gold.Chemscore.Hbond>
3.5117

> <Gold.Chemscore.Metal>
0.0000

> <Gold.Chemscore.Lipo>
88.1002

> <Gold.Chemscore.Internal_Hbond>
0.0000

> <Gold.Chemscore.DEClash>
2.3630

> <Gold.Chemscore.DEInternal>
1.9570

> <Gold.Chemscore.Rot>
1.5432

> <Gold.Chemscore.Internal.Correction>
   9.000000E+99

> <Gold.Chemscore.Hbonds>
donor molecule, donor type, donor heavy atom, donor atom, acceptor molecule, acceptor atom, score
      L1  H     3    18       P1  7948  0.91
      L1  H     6    34       P1 10186  0.50
      L1  H    11    29       P1  7948  0.98
      L1  H    15    35       P1  8028  0.99

> <Gold.Chemscore.Hbond.Weighted>
-11.7289

> <Gold.Chemscore.Metal.Weighted>
-0.0000

> <Gold.Chemscore.Lipo.Weighted>
-10.3077

> <Gold.Chemscore.Internal_Hbond.Weighted>
0.0000

> <Gold.Chemscore.DEClash.Weighted>
2.3630

> <Gold.Chemscore.DEInternal.Weighted>
1.9570

> <Gold.Chemscore.Rot.Weighted>
3.9505

> <Gold.Chemscore.Internal.Correction.Weighted>
   9.000000E+99

> <Gold.Protein.RotatedTorsions>
[ 6907 6896 6895 6894 ] final  -49.90 input  -60.11 | X-H torsion
[ 7974 7965 7964 7962 ] final  138.30 input  175.53 | X-H torsion
[ 8008 7997 7996 7995 ] final  -57.52 input   59.86 | X-H torsion
[ 10167 10162 10161 10158 ] final  -31.64 input  -65.29 | X-H torsion
[ 10718 10713 10712 10709 ] final   -0.73 input   66.30 | X-H torsion
[ 10763 10752 10751 10750 ] final  135.56 input  -60.55 | X-H torsion
[ 11005 11000 10999 10996 ] final  170.96 input  -57.11 | X-H torsion

> <Gold.Protein.ActiveResidues>
 VAL166  LYS551  ARG553  GLY616  TRP617  ASP618  TYR619  PRO620  LYS621  CYS622 
 ASP623  PHE694  ASN695  SER759  ASP760  ASP761  ALA762  ILE779  LEU786  VAL792 
 PHE793  MET794  SER795  GLU796  ALA797  LYS798  CYS799  TRP800  GLU811  SER814 

> <Gold.Protein.RotatedAtoms>
  150.8760  134.8143  159.7189 H   0  0  0  0  0  0  0  0  0  0  0  0  # atno 6907 bound_to 6896
  152.4746  134.4871  159.9693 H   0  0  0  0  0  0  0  0  0  0  0  0  # atno 6908 bound_to 6896
  151.4953  133.3477  159.2895 H   0  0  0  0  0  0  0  0  0  0  0  0  # atno 6909 bound_to 6896
  144.9386  139.4959  143.5583 H   0  0  0  0  0  0  0  0  0  0  0  0  # atno 7974 bound_to 7965
  154.4271  140.1105  156.5810 H   0  0  0  0  0  0  0  0  0  0  0  0  # atno 8008 bound_to 7997
  155.6112  140.3494  155.4604 H   0  0  0  0  0  0  0  0  0  0  0  0  # atno 8009 bound_to 7997
  156.0098  140.1216  157.0455 H   0  0  0  0  0  0  0  0  0  0  0  0  # atno 8010 bound_to 7997
  140.7233  143.3755  151.1697 H   0  0  0  0  0  0  0  0  0  0  0  0  # atno 10167 bound_to 10162
  156.8160  130.5440  149.5703 H   0  0  0  0  0  0  0  0  0  0  0  0  # atno 10718 bound_to 10713
  153.8420  135.3090  155.3427 H   0  0  0  0  0  0  0  0  0  0  0  0  # atno 10763 bound_to 10752
  154.7928  135.4772  154.0096 H   0  0  0  0  0  0  0  0  0  0  0  0  # atno 10764 bound_to 10752
  153.1570  135.6854  153.8890 H   0  0  0  0  0  0  0  0  0  0  0  0  # atno 10765 bound_to 10752
  140.3139  134.7494  157.4012 H   0  0  0  0  0  0  0  0  0  0  0  0  # atno 11005 bound_to 11000
  146.3276  139.8388  142.8894 LP  0  0  0  0  0  0  0  0  0  0  0  0  # atno 17320 bound_to 7965
  145.3028  141.0199  143.3599 LP  0  0  0  0  0  0  0  0  0  0  0  0  # atno 17321 bound_to 7965
  139.7335  143.9036  152.3027 LP  0  0  0  0  0  0  0  0  0  0  0  0  # atno 17342 bound_to 10162
  139.8833  144.7006  150.8853 LP  0  0  0  0  0  0  0  0  0  0  0  0  # atno 17343 bound_to 10162
  156.1016  130.5973  150.9903 LP  0  0  0  0  0  0  0  0  0  0  0  0  # atno 17370 bound_to 10713
  157.6481  131.0901  150.8110 LP  0  0  0  0  0  0  0  0  0  0  0  0  # atno 17371 bound_to 10713
  140.1001  134.5484  155.8361 LP  0  0  0  0  0  0  0  0  0  0  0  0  # atno 17394 bound_to 11000
  141.2102  133.6692  156.6493 LP  0  0  0  0  0  0  0  0  0  0  0  0  # atno 17395 bound_to 11000

$$$$
