AV-unprocessed.smi:2999|AV-procd|sdf|11421|dock10
  -GOLD-   2272016343D 1   1.00000     0.00000
 Structure written by MMmdl.
 38 40  0  0  0  0  0  0  0  0  2 V2000
  146.4936  139.7369  152.7972 O   0  0  0  0  0  0  0  0  0  0  0  0
  147.3527  138.8841  152.5735 C   0  0  0  0  0  0  0  0  0  0  0  0
  147.1435  137.8174  151.7889 N   0  0  0  0  0  0  0  0  0  0  0  0
  145.8881  137.5132  151.1101 C   0  0  0  0  0  0  0  0  0  0  0  0
  145.4602  136.0484  151.3133 C   0  0  2  0  0  0  0  0  0  0  0  0
  144.1795  135.7114  150.5203 C   0  0  0  0  0  0  0  0  0  0  0  0
  143.7158  134.3307  150.7982 N   0  3  1  0  0  0  0  0  0  0  0  0
  144.5090  133.2910  150.1014 C   0  0  0  0  0  0  0  0  0  0  0  0
  143.8041  132.6921  148.9069 C   0  0  0  0  0  0  0  0  0  0  0  0
  143.9074  131.9083  150.1962 C   0  0  0  0  0  0  0  0  0  0  0  0
  143.5915  134.0963  152.2562 C   0  0  0  0  0  0  0  0  0  0  0  0
  144.8819  134.4904  152.9976 C   0  0  0  0  0  0  0  0  0  0  0  0
  145.2063  135.8427  152.6999 O   0  0  0  0  0  0  0  0  0  0  0  0
  148.6010  138.8889  153.0678 N   0  0  0  0  0  0  0  0  0  0  0  0
  149.1950  139.8591  153.9122 C   0  0  0  0  0  0  0  0  0  0  0  0
  150.2986  139.5360  154.5888 N   0  0  0  0  0  0  0  0  0  0  0  0
  150.7635  140.5968  155.3716 C   0  0  0  0  0  0  0  0  0  0  0  0
  149.9967  141.7315  155.2748 C   0  0  0  0  0  0  0  0  0  0  0  0
  148.6479  141.5141  154.1927 S   0  0  0  0  0  0  0  0  0  0  0  0
  147.9039  137.1665  151.6550 H   0  0  0  0  0  0  0  0  0  0  0  0
  145.1194  138.1849  151.4931 H   0  0  0  0  0  0  0  0  0  0  0  0
  145.9897  137.7347  150.0463 H   0  0  0  0  0  0  0  0  0  0  0  0
  146.2707  135.3922  150.9925 H   0  0  0  0  0  0  0  0  0  0  0  0
  143.3828  136.4018  150.8003 H   0  0  0  0  0  0  0  0  0  0  0  0
  144.3413  135.8433  149.4498 H   0  0  0  0  0  0  0  0  0  0  0  0
  145.5898  133.4169  150.0943 H   0  0  0  0  0  0  0  0  0  0  0  0
  142.8250  133.0825  148.6348 H   0  0  0  0  0  0  0  0  0  0  0  0
  144.4212  132.3631  148.0732 H   0  0  0  0  0  0  0  0  0  0  0  0
  144.5923  131.0629  150.2116 H   0  0  0  0  0  0  0  0  0  0  0  0
  142.9981  131.7809  150.7810 H   0  0  0  0  0  0  0  0  0  0  0  0
  142.7617  134.6972  152.6309 H   0  0  0  0  0  0  0  0  0  0  0  0
  143.3342  133.0550  152.4535 H   0  0  0  0  0  0  0  0  0  0  0  0
  144.7382  134.3928  154.0737 H   0  0  0  0  0  0  0  0  0  0  0  0
  145.7117  133.8346  152.7302 H   0  0  0  0  0  0  0  0  0  0  0  0
  149.1948  138.1138  152.8117 H   0  0  0  0  0  0  0  0  0  0  0  0
  151.6522  140.4574  155.9690 H   0  0  0  0  0  0  0  0  0  0  0  0
  150.1427  142.6782  155.7729 H   0  0  0  0  0  0  0  0  0  0  0  0
  142.7839  134.2580  150.4151 H   0  0  0  0  0  0  0  0  0  0  0  0
  1  2  2  0  0  0  0
  2  3  1  0  0  0  0
  2 14  1  0  0  0  0
  3  4  1  0  0  0  0
  3 20  1  0  0  0  0
  4  5  1  0  0  0  0
  4 21  1  0  0  0  0
  4 22  1  0  0  0  0
  5 13  1  0  0  0  0
  5  6  1  0  0  0  0
  5 23  1  0  0  0  0
  6  7  1  0  0  0  0
  6 24  1  0  0  0  0
  6 25  1  0  0  0  0
  7  8  1  0  0  0  0
  7 11  1  0  0  0  0
  7 38  1  0  0  0  0
  8 10  1  0  0  0  0
  8  9  1  0  0  0  0
  8 26  1  0  0  0  0
  9 10  1  0  0  0  0
  9 27  1  0  0  0  0
  9 28  1  0  0  0  0
 10 29  1  0  0  0  0
 10 30  1  0  0  0  0
 11 12  1  0  0  0  0
 11 31  1  0  0  0  0
 11 32  1  0  0  0  0
 12 13  1  0  0  0  0
 12 33  1  0  0  0  0
 12 34  1  0  0  0  0
 14 15  1  0  0  0  0
 14 35  1  0  0  0  0
 15 19  1  0  0  0  0
 15 16  2  0  0  0  0
 16 17  1  0  0  0  0
 17 18  2  0  0  0  0
 17 36  1  0  0  0  0
 18 19  1  0  0  0  0
 18 37  1  0  0  0  0
M  CHG  1   7   1
M  END
> <s_m_source_file>
AV-unprocessed.smi

> <i_m_source_file_index>
2999

> <i_lp_mmshare_version>
43012

> <i_f3d_flags>
0

> <s_epik_input>
czFbY0hdW2NIXW5jMVtOSF1DKD1PKVtOSF1bQ0gyXVtDQEBIXTJbQ0gyXU4oW0NIMl1bQ0gyXU8yKVtDSF0zW0NIMl1bQ0gyXTM=

> <s_epik_cmdline>
J2VwaWtfcHl0aG9uJywgJy1waCcsICc3LjAnLCAnLXRuJywgJzgnLCAnLW1hJywgJzIwMCcsICctbWV0YWxfYmluZGluZycsICctaW1hZScsICc8aW5maWxlLm1hZT4nLCAnLW9tYWUnLCAnPG91dGZpbGUubWFlPic=

> <r_lp_tautomer_probability>
0.999

> <r_epik_Ionization_Penalty>
1.55235

> <r_epik_Ionization_Penalty_Charging>
1.55221

> <r_epik_Ionization_Penalty_Neutral>
0.000139685

> <r_epik_State_Penalty>
1.64652

> <r_epik_Charging_Adjusted_Penalty>
3.19873

> <i_epik_Tot_Q>
1

> <i_epik_Tot_abs_Q>
1

> <r_epik_Metal_State_Penalty>
1.68612

> <b_epik_Metal_Only>
0

> <s_lp_Force_Field>
OPLS_2005

> <r_lp_Energy>
21.4475

> <b_lp_Chiralities_Consistent>
1

> <s_lp_Variant>
AV-unprocessed.smi:2999-5

> <Gold.Version>
5.8.1

> <Gold.Id.Protein>
6NUR|6NUR_protein|mol2

> <Gold.PLP.Fitness>
45.4741

> <Gold.PLP.PLP>
-33.1304

> <Gold.PLP.part.hbond>
-3.5029

> <Gold.PLP.part.metal>
0.0000

> <Gold.PLP.part.buried>
3.5289

> <Gold.PLP.part.nonpolar>
-35.4788

> <Gold.PLP.part.repulsive>
1.9643

> <Gold.PLP.ligand.clash>
0.0000

> <Gold.PLP.ligand.torsion>
0.8408

> <Gold.PLP.Chemscore.Hbond>
3.2827

> <Gold.PLP.Chemscore.CHOScore>
0.9710

> <Gold.PLP.Chemscore.Metal>
0.0000

> <Gold.Chemscore.Hbonds>
donor molecule, donor type, donor heavy atom, donor atom, acceptor molecule, acceptor atom, score
      L1  H     3    20       P1  7948  0.63
      L1  H     7    38       P1 10186  2.00
      L1  H    14    35       P1  7948  0.65
      L1  C    18    37       P1  8028  1.00

> <Gold.PLP.Chemscore.Internal.Correction>
1.2643

> <Gold.Rescore>
     Score         DG    S(hbond)    S(metal)    S(lipo)     H(rot)  DE(clash)    DE(int)     intcor
     14.59     -18.54       2.25        0.00      81.94       1.58       2.54       1.41       ----

> <Gold.Chemscore.Fitness>
14.5885

> <Gold.Chemscore.DG>
-18.5394

> <Gold.Chemscore.ZeroCoef>
-5.4800

> <Gold.Chemscore.Hbond>
2.2503

> <Gold.Chemscore.Metal>
0.0000

> <Gold.Chemscore.Lipo>
81.9386

> <Gold.Chemscore.Internal_Hbond>
0.0000

> <Gold.Chemscore.DEClash>
2.5365

> <Gold.Chemscore.DEInternal>
1.4144

> <Gold.Chemscore.Rot>
1.5795

> <Gold.Chemscore.Internal.Correction>
   9.000000E+99

> <Gold.Chemscore.Hbonds>
donor molecule, donor type, donor heavy atom, donor atom, acceptor molecule, acceptor atom, score
      L1  H     3    20       P1  7948  0.65
      L1  H     7    38       P1 10186  0.77
      L1  H    14    35       P1  7948  0.62

> <Gold.Chemscore.Hbond.Weighted>
-7.5161

> <Gold.Chemscore.Metal.Weighted>
-0.0000

> <Gold.Chemscore.Lipo.Weighted>
-9.5868

> <Gold.Chemscore.Internal_Hbond.Weighted>
0.0000

> <Gold.Chemscore.DEClash.Weighted>
2.5365

> <Gold.Chemscore.DEInternal.Weighted>
1.4144

> <Gold.Chemscore.Rot.Weighted>
4.0434

> <Gold.Chemscore.Internal.Correction.Weighted>
   9.000000E+99

> <Gold.Protein.RotatedTorsions>
[ 6907 6896 6895 6894 ] final -144.09 input  -60.11 | X-H torsion
[ 7974 7965 7964 7962 ] final  -87.39 input  175.53 | X-H torsion
[ 8008 7997 7996 7995 ] final -160.66 input   59.86 | X-H torsion
[ 10167 10162 10161 10158 ] final  -23.32 input  -65.29 | X-H torsion
[ 10718 10713 10712 10709 ] final  178.70 input   66.30 | X-H torsion
[ 10763 10752 10751 10750 ] final  -52.90 input  -60.55 | X-H torsion
[ 11005 11000 10999 10996 ] final -173.09 input  -57.11 | X-H torsion

> <Gold.Protein.ActiveResidues>
 VAL166  LYS551  ARG553  GLY616  TRP617  ASP618  TYR619  PRO620  LYS621  CYS622 
 ASP623  PHE694  ASN695  SER759  ASP760  ASP761  ALA762  ILE779  LEU786  VAL792 
 PHE793  MET794  SER795  GLU796  ALA797  LYS798  CYS799  TRP800  GLU811  SER814 

> <Gold.Protein.RotatedAtoms>
  151.1093  133.5184  159.2606 H   0  0  0  0  0  0  0  0  0  0  0  0  # atno 6907 bound_to 6896
  151.1985  135.0432  159.8872 H   0  0  0  0  0  0  0  0  0  0  0  0  # atno 6908 bound_to 6896
  152.5449  134.0925  159.8336 H   0  0  0  0  0  0  0  0  0  0  0  0  # atno 6909 bound_to 6896
  145.4671  140.9560  143.1937 H   0  0  0  0  0  0  0  0  0  0  0  0  # atno 7974 bound_to 7965
  155.7807  140.0864  157.2060 H   0  0  0  0  0  0  0  0  0  0  0  0  # atno 8008 bound_to 7997
  154.3990  140.1508  156.3107 H   0  0  0  0  0  0  0  0  0  0  0  0  # atno 8009 bound_to 7997
  155.8656  140.3428  155.5788 H   0  0  0  0  0  0  0  0  0  0  0  0  # atno 8010 bound_to 7997
  140.7288  143.4454  151.0595 H   0  0  0  0  0  0  0  0  0  0  0  0  # atno 10167 bound_to 10162
  156.8867  130.9834  151.3055 H   0  0  0  0  0  0  0  0  0  0  0  0  # atno 10718 bound_to 10713
  154.1501  135.6491  153.4961 H   0  0  0  0  0  0  0  0  0  0  0  0  # atno 10763 bound_to 10752
  153.0140  135.5336  154.6817 H   0  0  0  0  0  0  0  0  0  0  0  0  # atno 10764 bound_to 10752
  154.6102  135.2953  155.0412 H   0  0  0  0  0  0  0  0  0  0  0  0  # atno 10765 bound_to 10752
  140.4896  134.5997  157.4950 H   0  0  0  0  0  0  0  0  0  0  0  0  # atno 11005 bound_to 11000
  144.7967  139.6220  143.7089 LP  0  0  0  0  0  0  0  0  0  0  0  0  # atno 17320 bound_to 7965
  146.2418  139.6016  142.9486 LP  0  0  0  0  0  0  0  0  0  0  0  0  # atno 17321 bound_to 7965
  139.8125  143.7931  152.3172 LP  0  0  0  0  0  0  0  0  0  0  0  0  # atno 17342 bound_to 10162
  139.7986  144.7383  150.9856 LP  0  0  0  0  0  0  0  0  0  0  0  0  # atno 17343 bound_to 10162
  157.6108  130.8581  149.8948 LP  0  0  0  0  0  0  0  0  0  0  0  0  # atno 17370 bound_to 10713
  156.0649  130.3694  150.0899 LP  0  0  0  0  0  0  0  0  0  0  0  0  # atno 17371 bound_to 10713
  139.9777  134.7188  155.9918 LP  0  0  0  0  0  0  0  0  0  0  0  0  # atno 17394 bound_to 11000
  141.1490  133.6551  156.3956 LP  0  0  0  0  0  0  0  0  0  0  0  0  # atno 17395 bound_to 11000

$$$$
