AV-unprocessed.smi:1686|AV-procd|sdf|6761|dock2
  -GOLD-   22720 7523D 1   1.00000     0.00000
 Structure written by MMmdl.
 41 43  0  0  0  0  0  0  0  0  1 V2000
  149.1751  135.5250  156.2835 C   0  0  0  0  0  0  0  0  0  0  0  0
  149.6228  134.0946  156.3743 C   0  0  0  0  0  0  0  0  0  0  0  0
  149.9748  133.6022  157.5548 N   0  0  0  0  0  0  0  0  0  0  0  0
  150.3305  132.2666  157.3347 O   0  0  0  0  0  0  0  0  0  0  0  0
  150.1723  132.0274  156.0128 C   0  0  0  0  0  0  0  0  0  0  0  0
  150.4974  130.4921  155.3110 Cl  0  0  0  0  0  0  0  0  0  0  0  0
  149.7328  133.1266  155.3328 C   0  0  0  0  0  0  0  0  0  0  0  0
  149.4307  133.2863  153.8620 C   0  0  0  0  0  0  0  0  0  0  0  0
  147.9215  133.3026  153.5898 C   0  0  0  0  0  0  0  0  0  0  0  0
  147.1979  132.3691  153.9410 O   0  0  0  0  0  0  0  0  0  0  0  0
  147.4606  134.3882  152.9499 N   0  0  0  0  0  0  0  0  0  0  0  0
  146.0714  134.6227  152.5582 C   0  0  1  0  0  0  0  0  0  0  0  0
  145.8329  136.1401  152.4475 C   0  0  0  0  0  0  0  0  0  0  0  0
  145.7740  133.8700  151.2370 C   0  0  1  0  0  0  0  0  0  0  0  0
  145.7796  132.3268  151.3845 C   0  0  0  0  0  0  0  0  0  0  0  0
  144.4211  131.9070  150.7976 C   0  0  2  0  0  0  0  0  0  0  0  0
  144.4213  132.1401  149.2763 C   0  0  0  0  0  0  0  0  0  0  0  0
  144.3502  133.6748  149.1709 C   0  0  0  0  0  0  0  0  0  0  0  0
  144.3622  134.1190  150.6467 C   0  0  1  0  0  0  0  0  0  0  0  0
  143.5176  133.0266  151.2952 C   0  0  0  0  0  0  0  0  0  0  0  0
  148.8025  135.7646  155.2878 H   0  0  0  0  0  0  0  0  0  0  0  0
  149.9967  136.2069  156.5033 H   0  0  0  0  0  0  0  0  0  0  0  0
  148.3720  135.7303  156.9915 H   0  0  0  0  0  0  0  0  0  0  0  0
  149.8653  134.2087  153.4749 H   0  0  0  0  0  0  0  0  0  0  0  0
  149.8736  132.4781  153.2792 H   0  0  0  0  0  0  0  0  0  0  0  0
  148.1271  135.1039  152.6987 H   0  0  0  0  0  0  0  0  0  0  0  0
  145.4139  134.2269  153.3340 H   0  0  0  0  0  0  0  0  0  0  0  0
  144.7920  136.3730  152.2281 H   0  0  0  0  0  0  0  0  0  0  0  0
  146.4457  136.5816  151.6610 H   0  0  0  0  0  0  0  0  0  0  0  0
  146.0797  136.6458  153.3817 H   0  0  0  0  0  0  0  0  0  0  0  0
  146.5291  134.1658  150.5069 H   0  0  0  0  0  0  0  0  0  0  0  0
  146.6188  131.8636  150.8643 H   0  0  0  0  0  0  0  0  0  0  0  0
  145.8337  132.0232  152.4310 H   0  0  0  0  0  0  0  0  0  0  0  0
  144.1123  130.9021  151.0869 H   0  0  0  0  0  0  0  0  0  0  0  0
  145.3110  131.7303  148.7969 H   0  0  0  0  0  0  0  0  0  0  0  0
  143.5478  131.6824  148.8105 H   0  0  0  0  0  0  0  0  0  0  0  0
  145.1791  134.0934  148.5992 H   0  0  0  0  0  0  0  0  0  0  0  0
  143.4234  133.9804  148.6837 H   0  0  0  0  0  0  0  0  0  0  0  0
  143.9790  135.1295  150.7836 H   0  0  0  0  0  0  0  0  0  0  0  0
  142.5021  132.9707  150.8988 H   0  0  0  0  0  0  0  0  0  0  0  0
  143.4718  133.0959  152.3831 H   0  0  0  0  0  0  0  0  0  0  0  0
  1  2  1  0  0  0  0
  1 21  1  0  0  0  0
  1 22  1  0  0  0  0
  1 23  1  0  0  0  0
  2  7  1  0  0  0  0
  2  3  2  0  0  0  0
  3  4  1  0  0  0  0
  4  5  1  0  0  0  0
  5  6  1  0  0  0  0
  5  7  2  0  0  0  0
  7  8  1  0  0  0  0
  8  9  1  0  0  0  0
  8 24  1  0  0  0  0
  8 25  1  0  0  0  0
  9 10  2  0  0  0  0
  9 11  1  0  0  0  0
 11 12  1  0  0  0  0
 11 26  1  0  0  0  0
 12 13  1  0  0  0  0
 12 14  1  0  0  0  0
 12 27  1  0  0  0  0
 13 28  1  0  0  0  0
 13 29  1  0  0  0  0
 13 30  1  0  0  0  0
 14 19  1  0  0  0  0
 14 15  1  0  0  0  0
 14 31  1  0  0  0  0
 15 16  1  0  0  0  0
 15 32  1  0  0  0  0
 15 33  1  0  0  0  0
 16 20  1  0  0  0  0
 16 17  1  0  0  0  0
 16 34  1  0  0  0  0
 17 18  1  0  0  0  0
 17 35  1  0  0  0  0
 17 36  1  0  0  0  0
 18 19  1  0  0  0  0
 18 37  1  0  0  0  0
 18 38  1  0  0  0  0
 19 20  1  0  0  0  0
 19 39  1  0  0  0  0
 20 40  1  0  0  0  0
 20 41  1  0  0  0  0
M  END
> <s_m_source_file>
AV-unprocessed.smi

> <i_m_source_file_index>
1686

> <i_lp_mmshare_version>
43012

> <i_f3d_flags>
0

> <s_epik_input>
W0NIM11jMW5vYyhDbCljMVtDSDJdQyg9TylbTkhdW0NASF0oW0NIM10pW0NASF0oW0NIMl1bQ0BIXTIzKVtDQEhdKFtDSDJdMylbQ0gyXVtDSDJdMg==

> <s_epik_cmdline>
J2VwaWtfcHl0aG9uJywgJy1waCcsICc3LjAnLCAnLXRuJywgJzgnLCAnLW1hJywgJzIwMCcsICctbWV0YWxfYmluZGluZycsICctaW1hZScsICc8aW5maWxlLm1hZT4nLCAnLW9tYWUnLCAnPG91dGZpbGUubWFlPic=

> <r_lp_tautomer_probability>
1

> <r_epik_Ionization_Penalty>
2.01576e-08

> <r_epik_Ionization_Penalty_Charging>
0

> <r_epik_Ionization_Penalty_Neutral>
2.01576e-08

> <r_epik_State_Penalty>
-0

> <r_epik_Charging_Adjusted_Penalty>
0

> <i_epik_Tot_Q>
0

> <i_epik_Tot_abs_Q>
0

> <r_epik_Metal_State_Penalty>
-0

> <b_epik_Metal_Only>
0

> <s_lp_Force_Field>
OPLS_2005

> <r_lp_Energy>
46.9137

> <b_lp_Chiralities_Consistent>
1

> <s_lp_Variant>
AV-unprocessed.smi:1686-4

> <Gold.Version>
5.8.1

> <Gold.Id.Protein>
6NUR|6NUR_protein|mol2

> <Gold.PLP.Fitness>
39.2199

> <Gold.PLP.PLP>
-34.3784

> <Gold.PLP.part.hbond>
-2.0000

> <Gold.PLP.part.metal>
0.0000

> <Gold.PLP.part.buried>
-2.2448

> <Gold.PLP.part.nonpolar>
-30.7412

> <Gold.PLP.part.repulsive>
0.0689

> <Gold.PLP.ligand.clash>
0.0000

> <Gold.PLP.ligand.torsion>
0.5841

> <Gold.PLP.Chemscore.Hbond>
1.9913

> <Gold.PLP.Chemscore.CHOScore>
0.0000

> <Gold.PLP.Chemscore.Metal>
0.0000

> <Gold.Chemscore.Hbonds>
donor molecule, donor type, donor heavy atom, donor atom, acceptor molecule, acceptor atom, score
      L1  H    11    26       P1  7948  1.00
      P1  H  6896  6909       L1     3  0.29

> <Gold.PLP.Chemscore.Internal.Correction>
0.0360

> <Gold.Rescore>
     Score         DG    S(hbond)    S(metal)    S(lipo)     H(rot)  DE(clash)    DE(int)     intcor
     16.81     -18.02       1.80        0.00      87.86       1.46       0.54       0.67       ----

> <Gold.Chemscore.Fitness>
16.8119

> <Gold.Chemscore.DG>
-18.0187

> <Gold.Chemscore.ZeroCoef>
-5.4800

> <Gold.Chemscore.Hbond>
1.7992

> <Gold.Chemscore.Metal>
0.0000

> <Gold.Chemscore.Lipo>
87.8581

> <Gold.Chemscore.Internal_Hbond>
0.0000

> <Gold.Chemscore.DEClash>
0.5378

> <Gold.Chemscore.DEInternal>
0.6690

> <Gold.Chemscore.Rot>
1.4648

> <Gold.Chemscore.Internal.Correction>
   9.000000E+99

> <Gold.Chemscore.Hbonds>
donor molecule, donor type, donor heavy atom, donor atom, acceptor molecule, acceptor atom, score
      L1  H    11    26       P1  7948  0.91
      P1  H  6896  6909       L1     3  0.01

> <Gold.Chemscore.Hbond.Weighted>
-6.0093

> <Gold.Chemscore.Metal.Weighted>
-0.0000

> <Gold.Chemscore.Lipo.Weighted>
-10.2794

> <Gold.Chemscore.Internal_Hbond.Weighted>
0.0000

> <Gold.Chemscore.DEClash.Weighted>
0.5378

> <Gold.Chemscore.DEInternal.Weighted>
0.6690

> <Gold.Chemscore.Rot.Weighted>
3.7500

> <Gold.Chemscore.Internal.Correction.Weighted>
   9.000000E+99

> <Gold.Protein.RotatedTorsions>
[ 6907 6896 6895 6894 ] final  -25.78 input  -60.11 | X-H torsion
[ 7974 7965 7964 7962 ] final   58.61 input  175.53 | X-H torsion
[ 8008 7997 7996 7995 ] final   21.75 input   59.86 | X-H torsion
[ 10167 10162 10161 10158 ] final  -21.85 input  -65.29 | X-H torsion
[ 10718 10713 10712 10709 ] final -109.19 input   66.30 | X-H torsion
[ 10763 10752 10751 10750 ] final  169.91 input  -60.55 | X-H torsion
[ 11005 11000 10999 10996 ] final  139.42 input  -57.11 | X-H torsion

> <Gold.Protein.ActiveResidues>
 VAL166  LYS551  ARG553  GLY616  TRP617  ASP618  TYR619  PRO620  LYS621  CYS622 
 ASP623  PHE694  ASN695  SER759  ASP760  ASP761  ALA762  ILE779  LEU786  VAL792 
 PHE793  MET794  SER795  GLU796  ALA797  LYS798  CYS799  TRP800  GLU811  SER814 

> <Gold.Protein.RotatedAtoms>
  151.1703  135.0314  159.8748 H   0  0  0  0  0  0  0  0  0  0  0  0  # atno 6907 bound_to 6896
  152.5449  134.1178  159.8396 H   0  0  0  0  0  0  0  0  0  0  0  0  # atno 6908 bound_to 6896
  151.1284  133.5008  159.2632 H   0  0  0  0  0  0  0  0  0  0  0  0  # atno 6909 bound_to 6896
  145.9163  139.3694  143.0505 H   0  0  0  0  0  0  0  0  0  0  0  0  # atno 7974 bound_to 7965
  154.9553  140.3071  155.5056 H   0  0  0  0  0  0  0  0  0  0  0  0  # atno 8008 bound_to 7997
  156.2983  140.2311  156.4572 H   0  0  0  0  0  0  0  0  0  0  0  0  # atno 8009 bound_to 7997
  154.8016  140.0434  157.1265 H   0  0  0  0  0  0  0  0  0  0  0  0  # atno 8010 bound_to 7997
  140.7284  143.4589  151.0408 H   0  0  0  0  0  0  0  0  0  0  0  0  # atno 10167 bound_to 10162
  156.0524  130.5751  150.8065 H   0  0  0  0  0  0  0  0  0  0  0  0  # atno 10718 bound_to 10713
  154.3900  135.2754  155.2160 H   0  0  0  0  0  0  0  0  0  0  0  0  # atno 10763 bound_to 10752
  154.4231  135.5995  153.6025 H   0  0  0  0  0  0  0  0  0  0  0  0  # atno 10764 bound_to 10752
  152.9832  135.5977  154.4153 H   0  0  0  0  0  0  0  0  0  0  0  0  # atno 10765 bound_to 10752
  140.0253  134.9377  157.0557 H   0  0  0  0  0  0  0  0  0  0  0  0  # atno 11005 bound_to 11000
  145.8607  140.9477  143.0701 LP  0  0  0  0  0  0  0  0  0  0  0  0  # atno 17320 bound_to 7965
  144.6748  140.0527  143.7478 LP  0  0  0  0  0  0  0  0  0  0  0  0  # atno 17321 bound_to 7965
  139.8272  143.7740  152.3179 LP  0  0  0  0  0  0  0  0  0  0  0  0  # atno 17342 bound_to 10162
  139.7843  144.7433  151.0044 LP  0  0  0  0  0  0  0  0  0  0  0  0  # atno 17343 bound_to 10162
  157.5463  131.0942  150.9758 LP  0  0  0  0  0  0  0  0  0  0  0  0  # atno 17370 bound_to 10713
  157.0029  130.5607  149.5313 LP  0  0  0  0  0  0  0  0  0  0  0  0  # atno 17371 bound_to 10713
  140.4316  134.1774  155.7168 LP  0  0  0  0  0  0  0  0  0  0  0  0  # atno 17394 bound_to 11000
  141.1799  133.8436  157.1294 LP  0  0  0  0  0  0  0  0  0  0  0  0  # atno 17395 bound_to 11000

$$$$
