AV-unprocessed.smi:3270|AV-procd|sdf|12512|dock9
  -GOLD-   2272018423D 1   1.00000     0.00000
 Structure written by MMmdl.
 38 39  0  0  0  0  0  0  0  0  1 V2000
  147.8374  140.1501  153.0936 C   0  0  0  0  0  0  0  0  0  0  0  0
  148.2887  141.4008  153.8763 C   0  0  2  0  0  0  0  0  0  0  0  0
  149.4697  141.1181  154.8186 C   0  0  0  0  0  0  0  0  0  0  0  0
  150.1132  140.0721  154.7247 O   0  0  0  0  0  0  0  0  0  0  0  0
  149.7438  142.0668  155.7283 N   0  0  0  0  0  0  0  0  0  0  0  0
  150.8031  141.9907  156.7267 C   0  0  0  0  0  0  0  0  0  0  0  0
  150.2323  142.0197  158.1572 C   0  0  0  0  0  0  0  0  0  0  0  0
  151.1847  141.6646  159.2081 N   0  0  0  0  0  0  0  0  0  0  0  0
  151.9372  140.4674  158.8474 C   0  0  0  0  0  0  0  0  0  0  0  0
  152.9489  140.0717  159.9368 C   0  0  0  0  0  0  0  0  0  0  0  0
  153.8283  141.1626  160.1883 O   0  0  0  0  0  0  0  0  0  0  0  0
  153.1380  142.3410  160.5903 C   0  0  0  0  0  0  0  0  0  0  0  0
  152.1243  142.7440  159.5048 C   0  0  0  0  0  0  0  0  0  0  0  0
  147.1923  142.0201  154.6125 N   0  0  0  0  0  0  0  0  0  0  0  0
  146.0915  142.6767  154.1000 C   0  0  0  0  0  0  0  0  0  0  0  0
  145.3528  143.1283  155.1556 C   0  0  0  0  0  0  0  0  0  0  0  0
  146.0966  142.7074  156.2923 C   0  0  0  0  0  0  0  0  0  0  0  0
  147.1991  142.0538  155.9657 N   0  0  0  0  0  0  0  0  0  0  0  0
  148.6588  139.7361  152.5080 H   0  0  0  0  0  0  0  0  0  0  0  0
  147.0342  140.3965  152.3988 H   0  0  0  0  0  0  0  0  0  0  0  0
  147.4726  139.3609  153.7527 H   0  0  0  0  0  0  0  0  0  0  0  0
  148.6305  142.1302  153.1400 H   0  0  0  0  0  0  0  0  0  0  0  0
  149.1681  142.8960  155.7374 H   0  0  0  0  0  0  0  0  0  0  0  0
  151.3486  141.0655  156.5453 H   0  0  0  0  0  0  0  0  0  0  0  0
  151.5133  142.8065  156.5816 H   0  0  0  0  0  0  0  0  0  0  0  0
  149.8651  143.0285  158.3500 H   0  0  0  0  0  0  0  0  0  0  0  0
  149.3592  141.3681  158.2159 H   0  0  0  0  0  0  0  0  0  0  0  0
  151.2512  139.6369  158.6769 H   0  0  0  0  0  0  0  0  0  0  0  0
  152.4670  140.6320  157.9078 H   0  0  0  0  0  0  0  0  0  0  0  0
  152.4355  139.7885  160.8568 H   0  0  0  0  0  0  0  0  0  0  0  0
  153.5331  139.2089  159.6169 H   0  0  0  0  0  0  0  0  0  0  0  0
  152.6349  142.1684  161.5431 H   0  0  0  0  0  0  0  0  0  0  0  0
  153.8608  143.1411  160.7501 H   0  0  0  0  0  0  0  0  0  0  0  0
  152.6604  143.0282  158.5979 H   0  0  0  0  0  0  0  0  0  0  0  0
  151.5893  143.6304  159.8434 H   0  0  0  0  0  0  0  0  0  0  0  0
  145.9271  142.7675  153.0365 H   0  0  0  0  0  0  0  0  0  0  0  0
  144.4249  143.6797  155.1212 H   0  0  0  0  0  0  0  0  0  0  0  0
  145.8723  142.8603  157.3375 H   0  0  0  0  0  0  0  0  0  0  0  0
  1  2  1  0  0  0  0
  1 19  1  0  0  0  0
  1 20  1  0  0  0  0
  1 21  1  0  0  0  0
  2  3  1  0  0  0  0
  2 14  1  0  0  0  0
  2 22  1  0  0  0  0
  3  4  2  0  0  0  0
  3  5  1  0  0  0  0
  5  6  1  0  0  0  0
  5 23  1  0  0  0  0
  6  7  1  0  0  0  0
  6 24  1  0  0  0  0
  6 25  1  0  0  0  0
  7  8  1  0  0  0  0
  7 26  1  0  0  0  0
  7 27  1  0  0  0  0
  8 13  1  0  0  0  0
  8  9  1  0  0  0  0
  9 10  1  0  0  0  0
  9 28  1  0  0  0  0
  9 29  1  0  0  0  0
 10 11  1  0  0  0  0
 10 30  1  0  0  0  0
 10 31  1  0  0  0  0
 11 12  1  0  0  0  0
 12 13  1  0  0  0  0
 12 32  1  0  0  0  0
 12 33  1  0  0  0  0
 13 34  1  0  0  0  0
 13 35  1  0  0  0  0
 14 18  1  0  0  0  0
 14 15  1  0  0  0  0
 15 16  2  0  0  0  0
 15 36  1  0  0  0  0
 16 17  1  0  0  0  0
 16 37  1  0  0  0  0
 17 18  2  0  0  0  0
 17 38  1  0  0  0  0
M  END
> <s_m_source_file>
AV-unprocessed.smi

> <i_m_source_file_index>
3270

> <i_lp_mmshare_version>
43012

> <i_f3d_flags>
0

> <s_epik_input>
bjFbY0hdW2NIXVtjSF1uMVtDQEhdKFtDSDNdKUMoPU8pW05IXVtDSDJdW0NIMl1OMltDSDJdW0NIMl1PW0NIMl1bQ0gyXTI=

> <s_epik_cmdline>
J2VwaWtfcHl0aG9uJywgJy1waCcsICc3LjAnLCAnLXRuJywgJzgnLCAnLW1hJywgJzIwMCcsICctbWV0YWxfYmluZGluZycsICctaW1hZScsICc8aW5maWxlLm1hZT4nLCAnLW9tYWUnLCAnPG91dGZpbGUubWFlPic=

> <r_lp_tautomer_probability>
1

> <r_epik_Ionization_Penalty>
0.203323

> <r_epik_Ionization_Penalty_Charging>
0

> <r_epik_Ionization_Penalty_Neutral>
0.203323

> <r_epik_State_Penalty>
0.193192

> <r_epik_Charging_Adjusted_Penalty>
0.193192

> <i_epik_Tot_Q>
0

> <i_epik_Tot_abs_Q>
0

> <r_epik_Metal_State_Penalty>
0.193187

> <b_epik_Metal_Only>
0

> <s_lp_Force_Field>
OPLS_2005

> <r_lp_Energy>
25.3297

> <b_lp_Chiralities_Consistent>
1

> <s_lp_Variant>
AV-unprocessed.smi:3270-1

> <Gold.Version>
5.8.1

> <Gold.Id.Protein>
6NUR|6NUR_protein|mol2

> <Gold.PLP.Fitness>
41.1626

> <Gold.PLP.PLP>
-36.6195

> <Gold.PLP.part.hbond>
-2.0000

> <Gold.PLP.part.metal>
0.0000

> <Gold.PLP.part.buried>
-1.3263

> <Gold.PLP.part.nonpolar>
-33.6255

> <Gold.PLP.part.repulsive>
0.3870

> <Gold.PLP.ligand.clash>
0.0000

> <Gold.PLP.ligand.torsion>
0.7865

> <Gold.PLP.Chemscore.Hbond>
2.0000

> <Gold.PLP.Chemscore.CHOScore>
0.0000

> <Gold.PLP.Chemscore.Metal>
0.0000

> <Gold.Chemscore.Hbonds>
donor molecule, donor type, donor heavy atom, donor atom, acceptor molecule, acceptor atom, score
      L1  H     5    23       P1  8028  1.00
      P1  H  7989  7998       L1     4  0.61

> <Gold.PLP.Chemscore.Internal.Correction>
0.1162

> <Gold.Rescore>
     Score         DG    S(hbond)    S(metal)    S(lipo)     H(rot)  DE(clash)    DE(int)     intcor
     11.85     -14.75       1.52        0.00      75.75       1.83       0.22       2.68       ----

> <Gold.Chemscore.Fitness>
11.8475

> <Gold.Chemscore.DG>
-14.7518

> <Gold.Chemscore.ZeroCoef>
-5.4800

> <Gold.Chemscore.Hbond>
1.5243

> <Gold.Chemscore.Metal>
0.0000

> <Gold.Chemscore.Lipo>
75.7506

> <Gold.Chemscore.Internal_Hbond>
0.0000

> <Gold.Chemscore.DEClash>
0.2241

> <Gold.Chemscore.DEInternal>
2.6802

> <Gold.Chemscore.Rot>
1.8290

> <Gold.Chemscore.Internal.Correction>
   9.000000E+99

> <Gold.Chemscore.Hbonds>
donor molecule, donor type, donor heavy atom, donor atom, acceptor molecule, acceptor atom, score
      L1  H     5    23       P1  8028  0.98
      P1  H  7989  7998       L1     4  0.07

> <Gold.Chemscore.Hbond.Weighted>
-5.0912

> <Gold.Chemscore.Metal.Weighted>
-0.0000

> <Gold.Chemscore.Lipo.Weighted>
-8.8628

> <Gold.Chemscore.Internal_Hbond.Weighted>
0.0000

> <Gold.Chemscore.DEClash.Weighted>
0.2241

> <Gold.Chemscore.DEInternal.Weighted>
2.6802

> <Gold.Chemscore.Rot.Weighted>
4.6821

> <Gold.Chemscore.Internal.Correction.Weighted>
   9.000000E+99

> <Gold.Protein.RotatedTorsions>
[ 6907 6896 6895 6894 ] final -178.56 input  -60.11 | X-H torsion
[ 7974 7965 7964 7962 ] final  161.48 input  175.53 | X-H torsion
[ 8008 7997 7996 7995 ] final  -87.28 input   59.86 | X-H torsion
[ 10167 10162 10161 10158 ] final  -99.57 input  -65.29 | X-H torsion
[ 10718 10713 10712 10709 ] final   36.19 input   66.30 | X-H torsion
[ 10763 10752 10751 10750 ] final  -91.58 input  -60.55 | X-H torsion
[ 11005 11000 10999 10996 ] final    3.68 input  -57.11 | X-H torsion

> <Gold.Protein.ActiveResidues>
 VAL166  LYS551  ARG553  GLY616  TRP617  ASP618  TYR619  PRO620  LYS621  CYS622 
 ASP623  PHE694  ASN695  SER759  ASP760  ASP761  ALA762  ILE779  LEU786  VAL792 
 PHE793  MET794  SER795  GLU796  ALA797  LYS798  CYS799  TRP800  GLU811  SER814 

> <Gold.Protein.RotatedAtoms>
  151.6393  133.3327  159.3126 H   0  0  0  0  0  0  0  0  0  0  0  0  # atno 6907 bound_to 6896
  150.8016  134.7118  159.6617 H   0  0  0  0  0  0  0  0  0  0  0  0  # atno 6908 bound_to 6896
  152.4109  134.6130  160.0082 H   0  0  0  0  0  0  0  0  0  0  0  0  # atno 6909 bound_to 6896
  144.7684  139.7903  143.6306 H   0  0  0  0  0  0  0  0  0  0  0  0  # atno 7974 bound_to 7965
  154.6614  140.0568  157.0066 H   0  0  0  0  0  0  0  0  0  0  0  0  # atno 8008 bound_to 7997
  155.1223  140.3248  155.4475 H   0  0  0  0  0  0  0  0  0  0  0  0  # atno 8009 bound_to 7997
  156.2619  140.1995  156.6345 H   0  0  0  0  0  0  0  0  0  0  0  0  # atno 8010 bound_to 7997
  140.2610  143.3407  152.0625 H   0  0  0  0  0  0  0  0  0  0  0  0  # atno 10167 bound_to 10162
  157.3318  130.7502  149.6852 H   0  0  0  0  0  0  0  0  0  0  0  0  # atno 10718 bound_to 10713
  154.6775  135.5262  153.8219 H   0  0  0  0  0  0  0  0  0  0  0  0  # atno 10763 bound_to 10752
  153.0542  135.6544  154.0628 H   0  0  0  0  0  0  0  0  0  0  0  0  # atno 10764 bound_to 10752
  154.0519  135.2968  155.3319 H   0  0  0  0  0  0  0  0  0  0  0  0  # atno 10765 bound_to 10752
  140.5905  133.9929  155.8086 H   0  0  0  0  0  0  0  0  0  0  0  0  # atno 11005 bound_to 11000
  146.1810  139.5003  142.9866 LP  0  0  0  0  0  0  0  0  0  0  0  0  # atno 17320 bound_to 7965
  145.6399  141.0286  143.1817 LP  0  0  0  0  0  0  0  0  0  0  0  0  # atno 17321 bound_to 7965
  139.5017  144.6718  151.6223 LP  0  0  0  0  0  0  0  0  0  0  0  0  # atno 17342 bound_to 10162
  140.5966  143.9686  150.6358 LP  0  0  0  0  0  0  0  0  0  0  0  0  # atno 17343 bound_to 10162
  155.9696  130.4193  150.4368 LP  0  0  0  0  0  0  0  0  0  0  0  0  # atno 17370 bound_to 10713
  157.2401  131.0523  151.2441 LP  0  0  0  0  0  0  0  0  0  0  0  0  # atno 17371 bound_to 10713
  141.0938  133.9875  157.3193 LP  0  0  0  0  0  0  0  0  0  0  0  0  # atno 17394 bound_to 11000
  139.9276  135.0201  156.8290 LP  0  0  0  0  0  0  0  0  0  0  0  0  # atno 17395 bound_to 11000

$$$$
