#       Name:                AV-unprocessed.smi:2649
#       Creating user name   scv26
#       Creation time:       Fri Mar 27 14:30:17 2020


#       File generated by GOLD software.
#

@<TRIPOS>MOLECULE
AV-unprocessed.smi:2649
    41    42     1
SMALL
NO_CHARGES


@<TRIPOS>ATOM
      1 ****        -3.7363   1.4142  -1.5615 C.3            1 S1                 0.0000
      2 ****        -4.0989   0.5742  -3.1276 S.3            1 S1                 0.0000
      3 ****        -3.1077  -0.9401  -2.9493 C.3            1 S1                 0.0000
      4 ****        -1.6240  -0.6155  -2.8770 C.ar           1 S1                 0.0000
      5 ****        -1.0811  -0.6603  -1.6400 N.ar           1 S1                 0.0000
      6 ****         0.2335  -0.3762  -1.4731 C.ar           1 S1                 0.0000
      7 ****         0.8878  -0.3961  -0.2131 N.am           1 S1                 0.0000
      8 ****         0.3565  -0.6407   1.0005 C.2            1 S1                 0.0000
      9 ****        -0.8328  -0.8932   1.1987 O.2            1 S1                 0.0000
     10 ****         1.3441  -0.6121   2.1767 C.3            1 S1                 0.0000
     11 ****         0.6491  -0.4510   3.5489 C.3            1 S1                 0.0000
     12 ****         1.6355  -0.4023   4.5717 O.3            1 S1                 0.0000
     13 ****         2.5264   0.6879   4.3809 C.3            1 S1                 0.0000
     14 ****         3.2266   0.5284   3.0215 C.3            1 S1                 0.0000
     15 ****         2.2435   0.4795   1.9957 O.3            1 S1                 0.0000
     16 ****         1.0539  -0.0400  -2.5720 C.ar           1 S1                 0.0000
     17 ****         0.4961   0.0015  -3.8640 C.ar           1 S1                 0.0000
     18 ****        -0.8700  -0.2917  -4.0279 C.ar           1 S1                 0.0000
     19 ****        -1.5742  -0.2505  -5.6057 Cl             1 S1                 0.0000
     20 ****        -4.3392   2.3181  -1.4747 H              1 S1                 0.0000
     21 ****        -2.6859   1.6996  -1.5093 H              1 S1                 0.0000
     22 ****        -3.9644   0.7635  -0.7173 H              1 S1                 0.0000
     23 ****        -3.4280  -1.4729  -2.0529 H              1 S1                 0.0000
     24 ****        -3.3029  -1.6013  -3.7936 H              1 S1                 0.0000
     25 ****         1.8768  -0.1934  -0.2312 H              1 S1                 0.0000
     26 ****         1.9053  -1.5481   2.1570 H              1 S1                 0.0000
     27 ****         0.0353   0.4513   3.5797 H              1 S1                 0.0000
     28 ****        -0.0101  -1.2963   3.7499 H              1 S1                 0.0000
     29 ****         1.9834   1.6330   4.4320 H              1 S1                 0.0000
     30 ****         3.2600   0.6940   5.1871 H              1 S1                 0.0000
     31 ****         3.8927   1.3713   2.8369 H              1 S1                 0.0000
     32 ****         3.8379  -0.3752   3.0017 H              1 S1                 0.0000
     33 ****         2.1015   0.1840  -2.4317 H              1 S1                 0.0000
     34 ****         1.1098   0.2549  -4.7159 H              1 S1                 0.0000
     35 ****        -1.6468  -0.9019  -0.8516 LP             1 S1                 0.0000
     36 ****        -1.4717  -0.9263   0.4301 LP             1 S1                 0.0000
     37 ****        -1.1593  -1.0650   2.1281 LP             1 S1                 0.0000
     38 ****         2.1577  -1.2550   4.5609 LP             1 S1                 0.0000
     39 ****         1.1816  -0.3005   5.4569 LP             1 S1                 0.0000
     40 ****         1.7227   1.3332   2.0053 LP             1 S1                 0.0000
     41 ****         2.7017   0.3786   1.1126 LP             1 S1                 0.0000
@<TRIPOS>BOND
    1    1    2 1     
    2    1   20 1     
    3    1   21 1     
    4    1   22 1     
    5    2    3 1     
    6    3    4 1     
    7    3   23 1     
    8    3   24 1     
    9    4   18 ar    
   10    4    5 ar    
   11    5    6 ar    
   12    6    7 1     
   13    6   16 ar    
   14    7    8 am    
   15    7   25 1     
   16    8    9 2     
   17    8   10 1     
   18   10   15 1     
   19   10   11 1     
   20   10   26 1     
   21   11   12 1     
   22   11   27 1     
   23   11   28 1     
   24   12   13 1     
   25   13   14 1     
   26   13   29 1     
   27   13   30 1     
   28   14   15 1     
   29   14   31 1     
   30   14   32 1     
   31   16   17 ar    
   32   16   33 1     
   33   17   18 ar    
   34   17   34 1     
   35   18   19 1     
   36    5   35 1     
   37    9   36 1     
   38    9   37 1     
   39   12   38 1     
   40   12   39 1     
   41   15   40 1     
   42   15   41 1     
@<TRIPOS>SUBSTRUCTURE
      1 S1             1
@<TRIPOS>SET
LONE_PAIRS      STATIC     ATOMS    <user>   **** ""
7 35 36 37 38 39 40 41
DONOR_HYDROGENS      STATIC     ATOMS    <user>   **** ""
1 25
ATOM$BLUE        STATIC     ATOMS    COLORGROUP SYSTEM
7 35 36 37 38 39 40 41
ATOM$RED        STATIC     ATOMS    COLORGROUP SYSTEM
1 25
