AV-unprocessed.smi:1809|AV-procd|sdf|7331|dock4
  -GOLD-   22720 8583D 1   1.00000     0.00000
 Structure written by MMmdl.
 38 40  0  0  0  0  0  0  0  0  2 V2000
  146.7392  134.1572  162.1304 C   0  0  0  0  0  0  0  0  0  0  0  0
  147.3569  135.2649  161.3477 C   0  0  0  0  0  0  0  0  0  0  0  0
  147.3239  136.5385  161.7474 N   0  0  0  0  0  0  0  0  0  0  0  0
  147.9662  137.3834  160.8540 N   0  0  0  0  0  0  0  0  0  0  0  0
  148.4864  136.7378  159.8004 C   0  0  0  0  0  0  0  0  0  0  0  0
  149.1461  137.3751  158.8190 N   0  5  0  0  0  0  0  0  0  0  0  0
  150.4031  137.8270  159.0316 C   0  0  0  0  0  0  0  0  0  0  0  0
  151.3124  137.2190  159.6011 O   0  0  0  0  0  0  0  0  0  0  0  0
  150.6227  139.0589  158.5541 N   0  0  0  0  0  0  0  0  0  0  0  0
  151.8830  139.7830  158.6515 C   0  0  0  0  0  0  0  0  0  0  0  0
  152.1843  140.5353  157.3409 C   0  0  2  0  0  0  0  0  0  0  0  0
  150.9756  141.3548  156.8291 C   0  0  0  0  0  0  0  0  0  0  0  0
  149.9746  140.4825  156.2434 N   0  0  0  0  0  0  0  0  0  0  0  0
  148.8293  141.1206  155.6374 C   0  0  0  0  0  0  0  0  0  0  0  0
  148.1929  140.0179  154.7735 C   0  0  0  0  0  0  0  0  0  0  0  0
  149.3286  138.9928  154.5597 C   0  0  0  0  0  0  0  0  0  0  0  0
  150.5383  139.6902  155.1848 C   0  0  2  0  0  0  0  0  0  0  0  0
  151.6711  138.8011  155.7148 C   0  0  0  0  0  0  0  0  0  0  0  0
  152.6578  139.6441  156.3177 O   0  0  0  0  0  0  0  0  0  0  0  0
  148.1930  134.9989  159.8272 S   0  0  0  0  0  0  0  0  0  0  0  0
  147.4248  133.8260  162.9105 H   0  0  0  0  0  0  0  0  0  0  0  0
  146.5159  133.3129  161.4782 H   0  0  0  0  0  0  0  0  0  0  0  0
  145.8117  134.4925  162.5954 H   0  0  0  0  0  0  0  0  0  0  0  0
  149.8554  139.5300  158.0978 H   0  0  0  0  0  0  0  0  0  0  0  0
  151.8464  140.4677  159.4994 H   0  0  0  0  0  0  0  0  0  0  0  0
  152.6839  139.0714  158.8565 H   0  0  0  0  0  0  0  0  0  0  0  0
  152.9954  141.2346  157.5468 H   0  0  0  0  0  0  0  0  0  0  0  0
  150.5392  141.9393  157.6396 H   0  0  0  0  0  0  0  0  0  0  0  0
  151.3198  142.0691  156.0798 H   0  0  0  0  0  0  0  0  0  0  0  0
  148.1441  141.5154  156.3880 H   0  0  0  0  0  0  0  0  0  0  0  0
  149.1512  141.9482  155.0032 H   0  0  0  0  0  0  0  0  0  0  0  0
  147.3542  139.5513  155.2915 H   0  0  0  0  0  0  0  0  0  0  0  0
  147.8230  140.4221  153.8308 H   0  0  0  0  0  0  0  0  0  0  0  0
  149.1020  138.0654  155.0874 H   0  0  0  0  0  0  0  0  0  0  0  0
  149.4895  138.7549  153.5080 H   0  0  0  0  0  0  0  0  0  0  0  0
  150.9599  140.3591  154.4314 H   0  0  0  0  0  0  0  0  0  0  0  0
  151.2993  138.0734  156.4367 H   0  0  0  0  0  0  0  0  0  0  0  0
  152.1301  138.2387  154.9016 H   0  0  0  0  0  0  0  0  0  0  0  0
  1  2  1  0  0  0  0
  1 21  1  0  0  0  0
  1 22  1  0  0  0  0
  1 23  1  0  0  0  0
  2 20  1  0  0  0  0
  2  3  2  0  0  0  0
  3  4  1  0  0  0  0
  4  5  2  0  0  0  0
  5  6  1  0  0  0  0
  5 20  1  0  0  0  0
  6  7  1  0  0  0  0
  7  8  2  0  0  0  0
  7  9  1  0  0  0  0
  9 10  1  0  0  0  0
  9 24  1  0  0  0  0
 10 11  1  0  0  0  0
 10 25  1  0  0  0  0
 10 26  1  0  0  0  0
 11 19  1  0  0  0  0
 11 12  1  0  0  0  0
 11 27  1  0  0  0  0
 12 13  1  0  0  0  0
 12 28  1  0  0  0  0
 12 29  1  0  0  0  0
 13 17  1  0  0  0  0
 13 14  1  0  0  0  0
 14 15  1  0  0  0  0
 14 30  1  0  0  0  0
 14 31  1  0  0  0  0
 15 16  1  0  0  0  0
 15 32  1  0  0  0  0
 15 33  1  0  0  0  0
 16 17  1  0  0  0  0
 16 34  1  0  0  0  0
 16 35  1  0  0  0  0
 17 18  1  0  0  0  0
 17 36  1  0  0  0  0
 18 19  1  0  0  0  0
 18 37  1  0  0  0  0
 18 38  1  0  0  0  0
M  CHG  1   6  -1
M  END
> <s_m_source_file>
AV-unprocessed.smi

> <i_m_source_file_index>
1809

> <i_lp_mmshare_version>
43012

> <i_f3d_flags>
0

> <s_epik_input>
W0NIM11jMW5uYyhzMSlbTkhdQyg9TylbTkhdW0NIMl1bQ0BIXShbQ0gyXTIpT1tDSDJdW0NAQEhdKE4yMylbQ0gyXVtDSDJdW0NIMl0z

> <s_epik_cmdline>
J2VwaWtfcHl0aG9uJywgJy1waCcsICc3LjAnLCAnLXRuJywgJzgnLCAnLW1hJywgJzIwMCcsICctbWV0YWxfYmluZGluZycsICctaW1hZScsICc8aW5maWxlLm1hZT4nLCAnLW9tYWUnLCAnPG91dGZpbGUubWFlPic=

> <r_lp_tautomer_probability>
1

> <r_epik_Ionization_Penalty>
4.48809

> <r_epik_Ionization_Penalty_Charging>
3.27284

> <r_epik_Ionization_Penalty_Neutral>
1.21525

> <r_epik_State_Penalty>
4.69427

> <r_epik_Charging_Adjusted_Penalty>
7.96711

> <i_epik_Tot_Q>
-1

> <i_epik_Tot_abs_Q>
1

> <r_epik_Metal_State_Penalty>
1.91976

> <b_epik_Metal_Only>
1

> <s_lp_Force_Field>
OPLS_2005

> <r_lp_Energy>
48.824

> <b_lp_Chiralities_Consistent>
1

> <s_lp_Variant>
AV-unprocessed.smi:1809-23

> <Gold.Version>
5.8.1

> <Gold.Id.Protein>
6NUR|6NUR_protein|mol2

> <Gold.PLP.Fitness>
38.6713

> <Gold.PLP.PLP>
-30.4257

> <Gold.PLP.part.hbond>
-4.0000

> <Gold.PLP.part.metal>
0.0000

> <Gold.PLP.part.buried>
-4.5861

> <Gold.PLP.part.nonpolar>
-21.4771

> <Gold.PLP.part.repulsive>
0.1732

> <Gold.PLP.ligand.clash>
0.0000

> <Gold.PLP.ligand.torsion>
1.2855

> <Gold.PLP.Chemscore.Hbond>
3.6000

> <Gold.PLP.Chemscore.CHOScore>
0.0000

> <Gold.PLP.Chemscore.Metal>
0.0000

> <Gold.Chemscore.Hbonds>
donor molecule, donor type, donor heavy atom, donor atom, acceptor molecule, acceptor atom, score
      P1  H  6896  6908       L1     8  0.83
      P1  H  6931  6943       L1     4  0.78
      P1  H  6934  6947       L1     4  0.72
      P1  H  7997  8010       L1    19  1.00

> <Gold.PLP.Chemscore.Internal.Correction>
0.0167

> <Gold.Rescore>
     Score         DG    S(hbond)    S(metal)    S(lipo)     H(rot)  DE(clash)    DE(int)     intcor
     18.18     -20.88       3.40        0.00      63.23       1.31       0.01       2.69       ----

> <Gold.Chemscore.Fitness>
18.1820

> <Gold.Chemscore.DG>
-20.8823

> <Gold.Chemscore.ZeroCoef>
-5.4800

> <Gold.Chemscore.Hbond>
3.3970

> <Gold.Chemscore.Metal>
0.0000

> <Gold.Chemscore.Lipo>
63.2256

> <Gold.Chemscore.Internal_Hbond>
0.0000

> <Gold.Chemscore.DEClash>
0.0147

> <Gold.Chemscore.DEInternal>
2.6856

> <Gold.Chemscore.Rot>
1.3051

> <Gold.Chemscore.Internal.Correction>
   9.000000E+99

> <Gold.Chemscore.Hbonds>
donor molecule, donor type, donor heavy atom, donor atom, acceptor molecule, acceptor atom, score
      P1  H  6896  6908       L1     8  0.82
      P1  H  6931  6943       L1     4  0.26
      P1  H  6934  6947       L1     4  0.50
      P1  H  7997  8010       L1    19  0.26

> <Gold.Chemscore.Hbond.Weighted>
-11.3461

> <Gold.Chemscore.Metal.Weighted>
-0.0000

> <Gold.Chemscore.Lipo.Weighted>
-7.3974

> <Gold.Chemscore.Internal_Hbond.Weighted>
0.0000

> <Gold.Chemscore.DEClash.Weighted>
0.0147

> <Gold.Chemscore.DEInternal.Weighted>
2.6856

> <Gold.Chemscore.Rot.Weighted>
3.3412

> <Gold.Chemscore.Internal.Correction.Weighted>
   9.000000E+99

> <Gold.Protein.RotatedTorsions>
[ 6907 6896 6895 6894 ] final -137.05 input  -60.11 | X-H torsion
[ 7974 7965 7964 7962 ] final  104.25 input  175.53 | X-H torsion
[ 8008 7997 7996 7995 ] final   84.97 input   59.86 | X-H torsion
[ 10167 10162 10161 10158 ] final  -45.36 input  -65.29 | X-H torsion
[ 10718 10713 10712 10709 ] final -129.45 input   66.30 | X-H torsion
[ 10763 10752 10751 10750 ] final   85.80 input  -60.55 | X-H torsion
[ 11005 11000 10999 10996 ] final  -11.48 input  -57.11 | X-H torsion

> <Gold.Protein.ActiveResidues>
 VAL166  LYS551  ARG553  GLY616  TRP617  ASP618  TYR619  PRO620  LYS621  CYS622 
 ASP623  PHE694  ASN695  SER759  ASP760  ASP761  ALA762  ILE779  LEU786  VAL792 
 PHE793  MET794  SER795  GLU796  ALA797  LYS798  CYS799  TRP800  GLU811  SER814 

> <Gold.Protein.RotatedAtoms>
  151.0176  133.5907  159.2674 H   0  0  0  0  0  0  0  0  0  0  0  0  # atno 6907 bound_to 6896
  151.3035  135.0774  159.9257 H   0  0  0  0  0  0  0  0  0  0  0  0  # atno 6908 bound_to 6896
  152.5315  133.9853  159.7880 H   0  0  0  0  0  0  0  0  0  0  0  0  # atno 6909 bound_to 6896
  145.3353  139.2476  143.3639 H   0  0  0  0  0  0  0  0  0  0  0  0  # atno 7974 bound_to 7965
  155.9439  140.3406  155.6351 H   0  0  0  0  0  0  0  0  0  0  0  0  # atno 8008 bound_to 7997
  155.7004  140.0759  157.2431 H   0  0  0  0  0  0  0  0  0  0  0  0  # atno 8009 bound_to 7997
  154.4108  140.1641  156.2172 H   0  0  0  0  0  0  0  0  0  0  0  0  # atno 8010 bound_to 7997
  140.6861  143.2883  151.3628 H   0  0  0  0  0  0  0  0  0  0  0  0  # atno 10167 bound_to 10162
  156.2048  130.6881  151.0582 H   0  0  0  0  0  0  0  0  0  0  0  0  # atno 10718 bound_to 10713
  153.1510  135.4604  154.9636 H   0  0  0  0  0  0  0  0  0  0  0  0  # atno 10763 bound_to 10752
  154.7824  135.3193  154.7962 H   0  0  0  0  0  0  0  0  0  0  0  0  # atno 10764 bound_to 10752
  153.8468  135.6925  153.4851 H   0  0  0  0  0  0  0  0  0  0  0  0  # atno 10765 bound_to 10752
  140.7557  133.8556  155.9082 H   0  0  0  0  0  0  0  0  0  0  0  0  # atno 11005 bound_to 11000
  146.3029  140.3939  142.8697 LP  0  0  0  0  0  0  0  0  0  0  0  0  # atno 17320 bound_to 7965
  144.8832  140.7428  143.5973 LP  0  0  0  0  0  0  0  0  0  0  0  0  # atno 17321 bound_to 7965
  139.6221  144.0887  152.2400 LP  0  0  0  0  0  0  0  0  0  0  0  0  # atno 17342 bound_to 10162
  140.0335  144.6063  150.7469 LP  0  0  0  0  0  0  0  0  0  0  0  0  # atno 17343 bound_to 10162
  157.7006  131.0777  150.6831 LP  0  0  0  0  0  0  0  0  0  0  0  0  # atno 17370 bound_to 10713
  156.6890  130.4589  149.5605 LP  0  0  0  0  0  0  0  0  0  0  0  0  # atno 17371 bound_to 10713
  140.9709  134.1532  157.4576 LP  0  0  0  0  0  0  0  0  0  0  0  0  # atno 17394 bound_to 11000
  139.8779  134.9978  156.5867 LP  0  0  0  0  0  0  0  0  0  0  0  0  # atno 17395 bound_to 11000

$$$$
