AV-unprocessed.smi:2446|AV-procd|sdf|9646|dock3
  -GOLD-   2272013283D 1   1.00000     0.00000
 Structure written by MMmdl.
 40 41  0  0  0  0  0  0  0  0  2 V2000
  150.3457  139.0172  154.3217 C   0  0  0  0  0  0  0  0  0  0  0  0
  149.2249  140.0408  154.2545 C   0  0  0  0  0  0  0  0  0  0  0  0
  149.4702  141.3684  154.6679 C   0  0  0  0  0  0  0  0  0  0  0  0
  148.4836  142.2877  154.6168 N   0  3  0  0  0  0  0  0  0  0  0  0
  147.2384  141.9983  154.1858 C   0  0  0  0  0  0  0  0  0  0  0  0
  146.9279  140.6917  153.7597 C   0  0  0  0  0  0  0  0  0  0  0  0
  147.9346  139.6923  153.7784 C   0  0  0  0  0  0  0  0  0  0  0  0
  147.7041  138.3452  153.3810 N   0  0  0  0  0  0  0  0  0  0  0  0
  146.5897  137.5977  153.5041 C   0  0  0  0  0  0  0  0  0  0  0  0
  145.5482  137.9748  154.0362 O   0  0  0  0  0  0  0  0  0  0  0  0
  146.6918  136.3662  152.9705 N   0  0  0  0  0  0  0  0  0  0  0  0
  145.6822  135.3054  152.9279 C   0  0  1  0  0  0  0  0  0  0  0  0
  144.3926  135.8496  152.2876 C   0  0  0  0  0  0  0  0  0  0  0  0
  143.3236  134.7529  152.1673 C   0  0  0  0  0  0  0  0  0  0  0  0
  143.8536  133.5382  151.3890 C   0  0  0  0  0  0  0  0  0  0  0  0
  145.1409  132.9737  152.0260 C   0  0  1  0  0  0  0  0  0  0  0  0
  145.6734  131.7413  151.2665 C   0  0  0  0  0  0  0  0  0  0  0  0
  145.9026  132.0347  149.9862 F   0  0  0  0  0  0  0  0  0  0  0  0
  146.8095  131.3205  151.8227 F   0  0  0  0  0  0  0  0  0  0  0  0
  144.7869  130.7477  151.3294 F   0  0  0  0  0  0  0  0  0  0  0  0
  146.2053  134.0854  152.1400 C   0  0  0  0  0  0  0  0  0  0  0  0
  151.2556  139.4531  154.7352 H   0  0  0  0  0  0  0  0  0  0  0  0
  150.5764  138.6387  153.3255 H   0  0  0  0  0  0  0  0  0  0  0  0
  150.0590  138.1756  154.9531 H   0  0  0  0  0  0  0  0  0  0  0  0
  150.4217  141.7219  155.0381 H   0  0  0  0  0  0  0  0  0  0  0  0
  146.5298  142.8136  154.1999 H   0  0  0  0  0  0  0  0  0  0  0  0
  145.9191  140.4816  153.4398 H   0  0  0  0  0  0  0  0  0  0  0  0
  148.4561  137.9178  152.8605 H   0  0  0  0  0  0  0  0  0  0  0  0
  147.5823  136.1343  152.5541 H   0  0  0  0  0  0  0  0  0  0  0  0
  145.4368  134.9953  153.9454 H   0  0  0  0  0  0  0  0  0  0  0  0
  144.0019  136.6785  152.8791 H   0  0  0  0  0  0  0  0  0  0  0  0
  144.6102  136.2518  151.2970 H   0  0  0  0  0  0  0  0  0  0  0  0
  143.0073  134.4396  153.1629 H   0  0  0  0  0  0  0  0  0  0  0  0
  142.4373  135.1519  151.6731 H   0  0  0  0  0  0  0  0  0  0  0  0
  143.0827  132.7681  151.3538 H   0  0  0  0  0  0  0  0  0  0  0  0
  144.0472  133.8268  150.3551 H   0  0  0  0  0  0  0  0  0  0  0  0
  144.8936  132.6480  153.0378 H   0  0  0  0  0  0  0  0  0  0  0  0
  146.5138  134.3996  151.1418 H   0  0  0  0  0  0  0  0  0  0  0  0
  147.0979  133.6871  152.6221 H   0  0  0  0  0  0  0  0  0  0  0  0
  148.6861  143.2401  154.9219 H   0  0  0  0  0  0  0  0  0  0  0  0
  1  2  1  0  0  0  0
  1 22  1  0  0  0  0
  1 23  1  0  0  0  0
  1 24  1  0  0  0  0
  2  7  1  0  0  0  0
  2  3  2  0  0  0  0
  3  4  1  0  0  0  0
  3 25  1  0  0  0  0
  4  5  2  0  0  0  0
  4 40  1  0  0  0  0
  5  6  1  0  0  0  0
  5 26  1  0  0  0  0
  6  7  2  0  0  0  0
  6 27  1  0  0  0  0
  7  8  1  0  0  0  0
  8  9  1  0  0  0  0
  8 28  1  0  0  0  0
  9 10  2  0  0  0  0
  9 11  1  0  0  0  0
 11 12  1  0  0  0  0
 11 29  1  0  0  0  0
 12 21  1  0  0  0  0
 12 13  1  0  0  0  0
 12 30  1  0  0  0  0
 13 14  1  0  0  0  0
 13 31  1  0  0  0  0
 13 32  1  0  0  0  0
 14 15  1  0  0  0  0
 14 33  1  0  0  0  0
 14 34  1  0  0  0  0
 15 16  1  0  0  0  0
 15 35  1  0  0  0  0
 15 36  1  0  0  0  0
 16 17  1  0  0  0  0
 16 21  1  0  0  0  0
 16 37  1  0  0  0  0
 17 18  1  0  0  0  0
 17 19  1  0  0  0  0
 17 20  1  0  0  0  0
 21 38  1  0  0  0  0
 21 39  1  0  0  0  0
M  CHG  1   4   1
M  END
> <s_m_source_file>
AV-unprocessed.smi

> <i_m_source_file_index>
2446

> <i_lp_mmshare_version>
43012

> <i_f3d_flags>
0

> <s_epik_input>
W0NIM11jMVtjSF1uW2NIXVtjSF1jMVtOSF1DKD1PKVtOSF1bQ0BASF0yW0NIMl1bQ0gyXVtDSDJdW0NAQEhdKEMoRikoRilGKVtDSDJdMg==

> <s_epik_cmdline>
J2VwaWtfcHl0aG9uJywgJy1waCcsICc3LjAnLCAnLXRuJywgJzgnLCAnLW1hJywgJzIwMCcsICctbWV0YWxfYmluZGluZycsICctaW1hZScsICc8aW5maWxlLm1hZT4nLCAnLW9tYWUnLCAnPG91dGZpbGUubWFlPic=

> <r_epik_Ionization_Penalty>
0.736582

> <r_epik_Ionization_Penalty_Charging>
0.736562

> <r_epik_Ionization_Penalty_Neutral>
1.98379e-05

> <r_epik_State_Penalty>
0.762314

> <r_epik_Charging_Adjusted_Penalty>
1.49888

> <i_epik_Tot_Q>
1

> <i_epik_Tot_abs_Q>
1

> <r_epik_Metal_State_Penalty>
0.914579

> <b_epik_Metal_Only>
0

> <s_lp_Force_Field>
OPLS_2005

> <r_lp_Energy>
31.4788

> <b_lp_Chiralities_Consistent>
1

> <s_lp_Variant>
AV-unprocessed.smi:2446-6

> <Gold.Version>
5.8.1

> <Gold.Id.Protein>
6NUR|6NUR_protein|mol2

> <Gold.PLP.Fitness>
48.6033

> <Gold.PLP.PLP>
-37.4953

> <Gold.PLP.part.hbond>
-3.0000

> <Gold.PLP.part.metal>
0.0000

> <Gold.PLP.part.buried>
-2.2631

> <Gold.PLP.part.nonpolar>
-33.6261

> <Gold.PLP.part.repulsive>
0.4390

> <Gold.PLP.ligand.clash>
0.0000

> <Gold.PLP.ligand.torsion>
0.3003

> <Gold.PLP.Chemscore.Hbond>
3.8960

> <Gold.PLP.Chemscore.CHOScore>
0.0000

> <Gold.PLP.Chemscore.Metal>
0.0000

> <Gold.Chemscore.Hbonds>
donor molecule, donor type, donor heavy atom, donor atom, acceptor molecule, acceptor atom, score
      L1  H     4    40       P1  8028  2.00
      L1  H     8    28       P1  7948  0.86
      L1  H    11    29       P1  7948  1.00

> <Gold.PLP.Chemscore.Internal.Correction>
0.0206

> <Gold.Rescore>
     Score         DG    S(hbond)    S(metal)    S(lipo)     H(rot)  DE(clash)    DE(int)     intcor
     20.14     -21.56       2.90        0.00      76.45       1.00       0.15       1.27       ----

> <Gold.Chemscore.Fitness>
20.1376

> <Gold.Chemscore.DG>
-21.5563

> <Gold.Chemscore.ZeroCoef>
-5.4800

> <Gold.Chemscore.Hbond>
2.9016

> <Gold.Chemscore.Metal>
0.0000

> <Gold.Chemscore.Lipo>
76.4513

> <Gold.Chemscore.Internal_Hbond>
0.0000

> <Gold.Chemscore.DEClash>
0.1503

> <Gold.Chemscore.DEInternal>
1.2684

> <Gold.Chemscore.Rot>
1.0000

> <Gold.Chemscore.Internal.Correction>
   9.000000E+99

> <Gold.Chemscore.Hbonds>
donor molecule, donor type, donor heavy atom, donor atom, acceptor molecule, acceptor atom, score
      L1  H     4    40       P1  8028  1.00
      L1  H     8    28       P1  7948  0.82
      L1  H    11    29       P1  7948  0.93

> <Gold.Chemscore.Hbond.Weighted>
-9.6915

> <Gold.Chemscore.Metal.Weighted>
-0.0000

> <Gold.Chemscore.Lipo.Weighted>
-8.9448

> <Gold.Chemscore.Internal_Hbond.Weighted>
0.0000

> <Gold.Chemscore.DEClash.Weighted>
0.1503

> <Gold.Chemscore.DEInternal.Weighted>
1.2684

> <Gold.Chemscore.Rot.Weighted>
2.5600

> <Gold.Chemscore.Internal.Correction.Weighted>
   9.000000E+99

> <Gold.Protein.RotatedTorsions>
[ 6907 6896 6895 6894 ] final  106.46 input  -60.11 | X-H torsion
[ 7974 7965 7964 7962 ] final  115.79 input  175.53 | X-H torsion
[ 8008 7997 7996 7995 ] final  144.49 input   59.86 | X-H torsion
[ 10167 10162 10161 10158 ] final   -9.26 input  -65.29 | X-H torsion
[ 10718 10713 10712 10709 ] final  158.90 input   66.30 | X-H torsion
[ 10763 10752 10751 10750 ] final -115.78 input  -60.55 | X-H torsion
[ 11005 11000 10999 10996 ] final  -15.74 input  -57.11 | X-H torsion

> <Gold.Protein.ActiveResidues>
 VAL166  LYS551  ARG553  GLY616  TRP617  ASP618  TYR619  PRO620  LYS621  CYS622 
 ASP623  PHE694  ASN695  SER759  ASP760  ASP761  ALA762  ILE779  LEU786  VAL792 
 PHE793  MET794  SER795  GLU796  ALA797  LYS798  CYS799  TRP800  GLU811  SER814 

> <Gold.Protein.RotatedAtoms>
  152.5193  133.9377  159.7611 H   0  0  0  0  0  0  0  0  0  0  0  0  # atno 6907 bound_to 6896
  150.9714  133.6332  159.2744 H   0  0  0  0  0  0  0  0  0  0  0  0  # atno 6908 bound_to 6896
  151.3542  135.0896  159.9466 H   0  0  0  0  0  0  0  0  0  0  0  0  # atno 6909 bound_to 6896
  145.1876  139.3017  143.4385 H   0  0  0  0  0  0  0  0  0  0  0  0  # atno 7974 bound_to 7965
  156.2907  140.2234  156.5062 H   0  0  0  0  0  0  0  0  0  0  0  0  # atno 8008 bound_to 7997
  154.7648  140.0471  157.1024 H   0  0  0  0  0  0  0  0  0  0  0  0  # atno 8009 bound_to 7997
  154.9947  140.3094  155.4895 H   0  0  0  0  0  0  0  0  0  0  0  0  # atno 8010 bound_to 7997
  140.7082  143.5877  150.8925 H   0  0  0  0  0  0  0  0  0  0  0  0  # atno 10167 bound_to 10162
  157.1715  131.0611  151.2180 H   0  0  0  0  0  0  0  0  0  0  0  0  # atno 10718 bound_to 10713
  154.8494  135.4369  154.1718 H   0  0  0  0  0  0  0  0  0  0  0  0  # atno 10763 bound_to 10752
  153.2829  135.6955  153.7373 H   0  0  0  0  0  0  0  0  0  0  0  0  # atno 10764 bound_to 10752
  153.6570  135.3441  155.3091 H   0  0  0  0  0  0  0  0  0  0  0  0  # atno 10765 bound_to 10752
  140.7997  133.8224  155.9458 H   0  0  0  0  0  0  0  0  0  0  0  0  # atno 11005 bound_to 11000
  146.3442  140.2077  142.8590 LP  0  0  0  0  0  0  0  0  0  0  0  0  # atno 17320 bound_to 7965
  145.0073  140.8684  143.5245 LP  0  0  0  0  0  0  0  0  0  0  0  0  # atno 17321 bound_to 7965
  139.9603  143.6171  152.3004 LP  0  0  0  0  0  0  0  0  0  0  0  0  # atno 17342 bound_to 10162
  139.6721  144.7660  151.1763 LP  0  0  0  0  0  0  0  0  0  0  0  0  # atno 17343 bound_to 10162
  157.4038  130.7348  149.6787 LP  0  0  0  0  0  0  0  0  0  0  0  0  # atno 17370 bound_to 10713
  155.9737  130.4113  150.3977 LP  0  0  0  0  0  0  0  0  0  0  0  0  # atno 17371 bound_to 10713
  140.9307  134.2025  157.4865 LP  0  0  0  0  0  0  0  0  0  0  0  0  # atno 17394 bound_to 11000
  139.8723  134.9831  156.5186 LP  0  0  0  0  0  0  0  0  0  0  0  0  # atno 17395 bound_to 11000

$$$$
