AV-unprocessed.smi:2217|AV-procd|sdf|8972|dock3
  -GOLD-   2272012183D 1   1.00000     0.00000
 Structure written by MMmdl.
 45 48  0  0  0  0  0  0  0  0  1 V2000
  145.4989  132.9569  151.1922 C   0  0  0  0  0  0  0  0  0  0  0  0
  144.8166  134.2315  151.6422 C   0  0  0  0  0  0  0  0  0  0  0  0
  145.2575  135.4919  151.1975 C   0  0  0  0  0  0  0  0  0  0  0  0
  144.5818  136.6435  151.6448 C   0  0  0  0  0  0  0  0  0  0  0  0
  143.4850  136.5136  152.5269 C   0  0  0  0  0  0  0  0  0  0  0  0
  142.8783  137.7493  152.9004 N   0  0  0  0  0  0  0  0  0  0  0  0
  141.7896  138.0196  153.6521 C   0  0  0  0  0  0  0  0  0  0  0  0
  141.1253  137.1153  154.1556 O   0  0  0  0  0  0  0  0  0  0  0  0
  141.4848  139.3168  153.8114 N   0  0  0  0  0  0  0  0  0  0  0  0
  140.3750  139.8208  154.6112 C   0  0  2  0  0  0  0  0  0  0  0  0
  139.4911  140.8048  153.8286 C   0  0  1  0  0  0  0  0  0  0  0  0
  138.0670  140.4398  153.5109 C   0  0  0  0  0  0  0  0  0  0  0  0
  137.2846  141.0958  154.6519 C   0  0  0  0  0  0  0  0  0  0  0  0
  138.2425  141.2665  155.6944 O   0  0  0  0  0  0  0  0  0  0  0  0
  139.4716  141.6587  155.0877 C   0  0  1  0  0  0  0  0  0  0  0  0
  140.7530  140.9586  155.5890 C   0  0  0  0  0  0  0  0  0  0  0  0
  142.0523  141.7408  155.3754 C   0  0  0  0  0  0  0  0  0  0  0  0
  142.2608  142.5834  156.6338 C   0  0  0  0  0  0  0  0  0  0  0  0
  141.5674  141.8088  157.7584 C   0  0  0  0  0  0  0  0  0  0  0  0
  140.8421  140.6408  157.0797 C   0  0  0  0  0  0  0  0  0  0  0  0
  143.0684  135.2917  152.9470 N   0  0  0  0  0  0  0  0  0  0  0  0
  143.7151  134.1877  152.5178 C   0  0  0  0  0  0  0  0  0  0  0  0
  146.4287  133.1714  150.6643 H   0  0  0  0  0  0  0  0  0  0  0  0
  144.8457  132.3971  150.5227 H   0  0  0  0  0  0  0  0  0  0  0  0
  145.7331  132.3273  152.0510 H   0  0  0  0  0  0  0  0  0  0  0  0
  146.0973  135.5799  150.5239 H   0  0  0  0  0  0  0  0  0  0  0  0
  144.9071  137.6178  151.3095 H   0  0  0  0  0  0  0  0  0  0  0  0
  143.3170  138.5645  152.4976 H   0  0  0  0  0  0  0  0  0  0  0  0
  142.0786  140.0009  153.3635 H   0  0  0  0  0  0  0  0  0  0  0  0
  139.7841  139.0410  155.0973 H   0  0  0  0  0  0  0  0  0  0  0  0
  140.0286  141.3004  153.0176 H   0  0  0  0  0  0  0  0  0  0  0  0
  137.7452  140.8110  152.5376 H   0  0  0  0  0  0  0  0  0  0  0  0
  137.9314  139.3577  153.5195 H   0  0  0  0  0  0  0  0  0  0  0  0
  136.9127  142.0753  154.3475 H   0  0  0  0  0  0  0  0  0  0  0  0
  136.4360  140.4956  154.9804 H   0  0  0  0  0  0  0  0  0  0  0  0
  139.5463  142.7311  154.9021 H   0  0  0  0  0  0  0  0  0  0  0  0
  142.8978  141.0604  155.2692 H   0  0  0  0  0  0  0  0  0  0  0  0
  142.0287  142.3599  154.4780 H   0  0  0  0  0  0  0  0  0  0  0  0
  143.3175  142.7584  156.8384 H   0  0  0  0  0  0  0  0  0  0  0  0
  141.7831  143.5562  156.5109 H   0  0  0  0  0  0  0  0  0  0  0  0
  142.2826  141.4451  158.4969 H   0  0  0  0  0  0  0  0  0  0  0  0
  140.8585  142.4547  158.2776 H   0  0  0  0  0  0  0  0  0  0  0  0
  139.8655  140.4668  157.5317 H   0  0  0  0  0  0  0  0  0  0  0  0
  141.4173  139.7257  157.2257 H   0  0  0  0  0  0  0  0  0  0  0  0
  143.3400  133.2429  152.8834 H   0  0  0  0  0  0  0  0  0  0  0  0
  1  2  1  0  0  0  0
  1 23  1  0  0  0  0
  1 24  1  0  0  0  0
  1 25  1  0  0  0  0
  2 22  1  0  0  0  0
  2  3  2  0  0  0  0
  3  4  1  0  0  0  0
  3 26  1  0  0  0  0
  4  5  2  0  0  0  0
  4 27  1  0  0  0  0
  5  6  1  0  0  0  0
  5 21  1  0  0  0  0
  6  7  1  0  0  0  0
  6 28  1  0  0  0  0
  7  8  2  0  0  0  0
  7  9  1  0  0  0  0
  9 10  1  0  0  0  0
  9 29  1  0  0  0  0
 10 16  1  0  0  0  0
 10 11  1  0  0  0  0
 10 30  1  0  0  0  0
 11 15  1  0  0  0  0
 11 12  1  0  0  0  0
 11 31  1  0  0  0  0
 12 13  1  0  0  0  0
 12 32  1  0  0  0  0
 12 33  1  0  0  0  0
 13 14  1  0  0  0  0
 13 34  1  0  0  0  0
 13 35  1  0  0  0  0
 14 15  1  0  0  0  0
 15 16  1  0  0  0  0
 15 36  1  0  0  0  0
 16 20  1  0  0  0  0
 16 17  1  0  0  0  0
 17 18  1  0  0  0  0
 17 37  1  0  0  0  0
 17 38  1  0  0  0  0
 18 19  1  0  0  0  0
 18 39  1  0  0  0  0
 18 40  1  0  0  0  0
 19 20  1  0  0  0  0
 19 41  1  0  0  0  0
 19 42  1  0  0  0  0
 20 43  1  0  0  0  0
 20 44  1  0  0  0  0
 21 22  2  0  0  0  0
 22 45  1  0  0  0  0
M  END
> <s_m_source_file>
AV-unprocessed.smi

> <i_m_source_file_index>
2217

> <i_lp_mmshare_version>
43012

> <i_f3d_flags>
0

> <s_epik_input>
W0NIM11jMVtjSF1bY0hdYyhuW2NIXTEpW05IXUMoPU8pW05IXVtDQEBIXTJbQ0BASF0oW0NIMl1bQ0gyXU8zKVtDQEhdM0MyNFtDSDJdW0NIMl1bQ0gyXVtDSDJdNA==

> <s_epik_cmdline>
J2VwaWtfcHl0aG9uJywgJy1waCcsICc3LjAnLCAnLXRuJywgJzgnLCAnLW1hJywgJzIwMCcsICctbWV0YWxfYmluZGluZycsICctaW1hZScsICc8aW5maWxlLm1hZT4nLCAnLW9tYWUnLCAnPG91dGZpbGUubWFlPic=

> <r_lp_tautomer_probability>
1

> <r_epik_Ionization_Penalty>
6.14796e-05

> <r_epik_Ionization_Penalty_Charging>
0

> <r_epik_Ionization_Penalty_Neutral>
6.14796e-05

> <r_epik_State_Penalty>
-0

> <r_epik_Charging_Adjusted_Penalty>
0

> <i_epik_Tot_Q>
0

> <i_epik_Tot_abs_Q>
0

> <r_epik_Metal_State_Penalty>
-0

> <b_epik_Metal_Only>
0

> <s_lp_Force_Field>
OPLS_2005

> <r_lp_Energy>
58.5561

> <b_lp_Chiralities_Consistent>
1

> <s_lp_Variant>
AV-unprocessed.smi:2217-5

> <Gold.Version>
5.8.1

> <Gold.Id.Protein>
6NUR|6NUR_protein|mol2

> <Gold.PLP.Fitness>
34.4085

> <Gold.PLP.PLP>
-25.4164

> <Gold.PLP.part.hbond>
-2.6206

> <Gold.PLP.part.metal>
0.0000

> <Gold.PLP.part.buried>
-1.0895

> <Gold.PLP.part.nonpolar>
-22.3623

> <Gold.PLP.part.repulsive>
0.2796

> <Gold.PLP.ligand.clash>
0.0000

> <Gold.PLP.ligand.torsion>
0.0960

> <Gold.PLP.Chemscore.Hbond>
2.0000

> <Gold.PLP.Chemscore.CHOScore>
1.0000

> <Gold.PLP.Chemscore.Metal>
0.0000

> <Gold.Chemscore.Hbonds>
donor molecule, donor type, donor heavy atom, donor atom, acceptor molecule, acceptor atom, score
      L1  H     6    28       P1 10175  1.00
      L1  H     9    29       P1 10175  1.00
      L1  C    22    45       P1 10957  1.00

> <Gold.PLP.Chemscore.Internal.Correction>
0.1842

> <Gold.Rescore>
     Score         DG    S(hbond)    S(metal)    S(lipo)     H(rot)  DE(clash)    DE(int)     intcor
     13.33     -14.67       1.81        0.00      48.80       1.00       0.02       1.32       ----

> <Gold.Chemscore.Fitness>
13.3266

> <Gold.Chemscore.DG>
-14.6651

> <Gold.Chemscore.ZeroCoef>
-5.4800

> <Gold.Chemscore.Hbond>
1.8072

> <Gold.Chemscore.Metal>
0.0000

> <Gold.Chemscore.Lipo>
48.7962

> <Gold.Chemscore.Internal_Hbond>
0.0000

> <Gold.Chemscore.DEClash>
0.0222

> <Gold.Chemscore.DEInternal>
1.3163

> <Gold.Chemscore.Rot>
1.0000

> <Gold.Chemscore.Internal.Correction>
   9.000000E+99

> <Gold.Chemscore.Hbonds>
donor molecule, donor type, donor heavy atom, donor atom, acceptor molecule, acceptor atom, score
      L1  H     6    28       P1 10175  0.95
      L1  H     9    29       P1 10175  0.58

> <Gold.Chemscore.Hbond.Weighted>
-6.0360

> <Gold.Chemscore.Metal.Weighted>
-0.0000

> <Gold.Chemscore.Lipo.Weighted>
-5.7092

> <Gold.Chemscore.Internal_Hbond.Weighted>
0.0000

> <Gold.Chemscore.DEClash.Weighted>
0.0222

> <Gold.Chemscore.DEInternal.Weighted>
1.3163

> <Gold.Chemscore.Rot.Weighted>
2.5600

> <Gold.Chemscore.Internal.Correction.Weighted>
   9.000000E+99

> <Gold.Protein.RotatedTorsions>
[ 6907 6896 6895 6894 ] final   42.01 input  -60.11 | X-H torsion
[ 7974 7965 7964 7962 ] final   41.66 input  175.53 | X-H torsion
[ 8008 7997 7996 7995 ] final  -62.15 input   59.86 | X-H torsion
[ 10167 10162 10161 10158 ] final   92.01 input  -65.29 | X-H torsion
[ 10718 10713 10712 10709 ] final  172.70 input   66.30 | X-H torsion
[ 10763 10752 10751 10750 ] final  100.88 input  -60.55 | X-H torsion
[ 11005 11000 10999 10996 ] final   -4.59 input  -57.11 | X-H torsion

> <Gold.Protein.ActiveResidues>
 VAL166  LYS551  ARG553  GLY616  TRP617  ASP618  TYR619  PRO620  LYS621  CYS622 
 ASP623  PHE694  ASN695  SER759  ASP760  ASP761  ALA762  ILE779  LEU786  VAL792 
 PHE793  MET794  SER795  GLU796  ALA797  LYS798  CYS799  TRP800  GLU811  SER814 

> <Gold.Protein.RotatedAtoms>
  152.2025  134.8575  160.0506 H   0  0  0  0  0  0  0  0  0  0  0  0  # atno 6907 bound_to 6896
  151.9423  133.3636  159.3978 H   0  0  0  0  0  0  0  0  0  0  0  0  # atno 6908 bound_to 6896
  150.6958  134.4350  159.5310 H   0  0  0  0  0  0  0  0  0  0  0  0  # atno 6909 bound_to 6896
  146.0805  139.5390  142.9540 H   0  0  0  0  0  0  0  0  0  0  0  0  # atno 7974 bound_to 7965
  154.4485  140.1002  156.6543 H   0  0  0  0  0  0  0  0  0  0  0  0  # atno 8008 bound_to 7997
  155.5363  140.3482  155.4418 H   0  0  0  0  0  0  0  0  0  0  0  0  # atno 8009 bound_to 7997
  156.0628  140.1330  156.9910 H   0  0  0  0  0  0  0  0  0  0  0  0  # atno 8010 bound_to 7997
  139.8318  144.6683  150.9390 H   0  0  0  0  0  0  0  0  0  0  0  0  # atno 10167 bound_to 10162
  156.9751  131.0102  151.2895 H   0  0  0  0  0  0  0  0  0  0  0  0  # atno 10718 bound_to 10713
  153.3196  135.4063  155.1405 H   0  0  0  0  0  0  0  0  0  0  0  0  # atno 10763 bound_to 10752
  154.8597  135.3584  154.5614 H   0  0  0  0  0  0  0  0  0  0  0  0  # atno 10764 bound_to 10752
  153.6047  135.7070  153.5429 H   0  0  0  0  0  0  0  0  0  0  0  0  # atno 10765 bound_to 10752
  140.6820  133.9145  155.8561 H   0  0  0  0  0  0  0  0  0  0  0  0  # atno 11005 bound_to 11000
  145.6226  141.0319  143.1906 LP  0  0  0  0  0  0  0  0  0  0  0  0  # atno 17320 bound_to 7965
  144.7290  139.7784  143.7354 LP  0  0  0  0  0  0  0  0  0  0  0  0  # atno 17321 bound_to 7965
  140.7806  143.3994  151.1175 LP  0  0  0  0  0  0  0  0  0  0  0  0  # atno 17342 bound_to 10162
  139.7647  143.8583  152.3108 LP  0  0  0  0  0  0  0  0  0  0  0  0  # atno 17343 bound_to 10162
  157.5565  130.8217  149.8211 LP  0  0  0  0  0  0  0  0  0  0  0  0  # atno 17370 bound_to 10713
  156.0267  130.3777  150.1804 LP  0  0  0  0  0  0  0  0  0  0  0  0  # atno 17371 bound_to 10713
  141.0310  134.0756  157.4014 LP  0  0  0  0  0  0  0  0  0  0  0  0  # atno 17394 bound_to 11000
  139.8949  135.0138  156.6974 LP  0  0  0  0  0  0  0  0  0  0  0  0  # atno 17395 bound_to 11000

$$$$
