AV-unprocessed.smi:276|AV-procd|sdf|2073|dock3
  -GOLD-   2262021333D 1   1.00000     0.00000
 Structure written by MMmdl.
 57 61  0  0  0  0  0  0  0  0  1 V2000
  143.9937  136.1414  151.8450 C   0  0  0  0  0  0  0  0  0  0  0  0
  144.3871  135.0939  150.9761 O   0  0  0  0  0  0  0  0  0  0  0  0
  145.4466  134.3138  151.5072 C   0  0  1  0  0  0  0  0  0  0  0  0
  145.2576  133.8943  152.9701 C   0  0  0  0  0  0  0  0  0  0  0  0
  145.8036  132.5016  152.5978 C   0  0  2  0  0  0  0  0  0  0  0  0
  147.2530  132.4102  152.8277 N   0  0  0  0  0  0  0  0  0  0  0  0
  147.8463  133.4805  153.6228 C   0  0  0  0  0  0  0  0  0  0  0  0
  147.7007  131.2150  153.2717 C   0  0  0  0  0  0  0  0  0  0  0  0
  148.3589  131.2058  154.4573 N   0  0  0  0  0  0  0  0  0  0  0  0
  148.8536  130.0612  154.9377 C   0  0  0  0  0  0  0  0  0  0  0  0
  148.8035  128.8397  154.4019 N   0  0  0  0  0  0  0  0  0  0  0  0
  148.1268  128.8443  153.2175 C   0  0  0  0  0  0  0  0  0  0  0  0
  147.5350  129.9757  152.5893 C   0  0  0  0  0  0  0  0  0  0  0  0
  146.9200  129.5905  151.4039 N   0  0  0  0  0  0  0  0  0  0  0  0
  147.1527  128.3092  151.3252 C   0  0  0  0  0  0  0  0  0  0  0  0
  147.8952  127.7844  152.3587 N   0  0  0  0  0  0  0  0  0  0  0  0
  148.3146  126.4030  152.5105 C   0  0  0  0  0  0  0  0  0  0  0  0
  149.6823  126.0950  151.8574 C   0  0  2  0  0  0  0  0  0  0  0  0
  149.9263  127.1676  150.9701 O   0  0  0  0  0  0  0  0  0  0  0  0
  149.7500  124.7906  151.0275 C   0  0  2  0  0  0  0  0  0  0  0  0
  148.7805  124.6864  149.8435 C   0  0  0  0  0  0  0  0  0  0  0  0
  148.5078  123.1969  149.7012 C   0  0  0  0  0  0  0  0  0  0  0  0
  149.1142  122.5901  150.9646 C   0  0  0  0  0  0  0  0  0  0  0  0
  149.3094  123.7007  151.8257 O   0  0  0  0  0  0  0  0  0  0  0  0
  145.3666  132.8211  151.1408 C   0  0  0  0  0  0  0  0  0  0  0  0
  144.0486  132.2326  150.6039 C   0  0  0  0  0  0  0  0  0  0  0  0
  144.6474  132.3145  149.1974 C   0  0  0  0  0  0  0  0  0  0  0  0
  146.0279  132.2827  149.8566 C   0  0  0  0  0  0  0  0  0  0  0  0
  143.1856  136.7119  151.3876 H   0  0  0  0  0  0  0  0  0  0  0  0
  144.8217  136.8248  152.0368 H   0  0  0  0  0  0  0  0  0  0  0  0
  143.6329  135.7528  152.7980 H   0  0  0  0  0  0  0  0  0  0  0  0
  146.4374  134.7275  151.3077 H   0  0  0  0  0  0  0  0  0  0  0  0
  145.8432  134.4779  153.6798 H   0  0  0  0  0  0  0  0  0  0  0  0
  144.2069  133.8619  153.2637 H   0  0  0  0  0  0  0  0  0  0  0  0
  145.2281  131.6999  153.0611 H   0  0  0  0  0  0  0  0  0  0  0  0
  148.8722  133.2497  153.9145 H   0  0  0  0  0  0  0  0  0  0  0  0
  147.2665  133.6511  154.5304 H   0  0  0  0  0  0  0  0  0  0  0  0
  147.8760  134.4111  153.0573 H   0  0  0  0  0  0  0  0  0  0  0  0
  149.3704  130.1366  155.8832 H   0  0  0  0  0  0  0  0  0  0  0  0
  146.8009  127.7113  150.4970 H   0  0  0  0  0  0  0  0  0  0  0  0
  148.3351  126.1485  153.5709 H   0  0  0  0  0  0  0  0  0  0  0  0
  147.5382  125.7831  152.0597 H   0  0  0  0  0  0  0  0  0  0  0  0
  150.4654  126.0964  152.6164 H   0  0  0  0  0  0  0  0  0  0  0  0
  150.6452  127.6792  151.3086 H   0  0  0  0  0  0  0  0  0  0  0  0
  150.7696  124.6022  150.6846 H   0  0  0  0  0  0  0  0  0  0  0  0
  147.8445  125.1988  150.0686 H   0  0  0  0  0  0  0  0  0  0  0  0
  149.1913  125.1152  148.9301 H   0  0  0  0  0  0  0  0  0  0  0  0
  147.4352  123.0089  149.6485 H   0  0  0  0  0  0  0  0  0  0  0  0
  148.9683  122.7803  148.8049 H   0  0  0  0  0  0  0  0  0  0  0  0
  148.4706  121.8388  151.4224 H   0  0  0  0  0  0  0  0  0  0  0  0
  150.0785  122.1285  150.7466 H   0  0  0  0  0  0  0  0  0  0  0  0
  143.8866  131.2033  150.9289 H   0  0  0  0  0  0  0  0  0  0  0  0
  143.1593  132.8435  150.7608 H   0  0  0  0  0  0  0  0  0  0  0  0
  144.4254  131.4625  148.5549 H   0  0  0  0  0  0  0  0  0  0  0  0
  144.4368  133.2633  148.7013 H   0  0  0  0  0  0  0  0  0  0  0  0
  146.7663  132.9458  149.4057 H   0  0  0  0  0  0  0  0  0  0  0  0
  146.3990  131.2619  149.9382 H   0  0  0  0  0  0  0  0  0  0  0  0
  1  2  1  0  0  0  0
  1 29  1  0  0  0  0
  1 30  1  0  0  0  0
  1 31  1  0  0  0  0
  2  3  1  0  0  0  0
  3 25  1  0  0  0  0
  3  4  1  0  0  0  0
  3 32  1  0  0  0  0
  4  5  1  0  0  0  0
  4 33  1  0  0  0  0
  4 34  1  0  0  0  0
  5  6  1  0  0  0  0
  5 25  1  0  0  0  0
  5 35  1  0  0  0  0
  6  7  1  0  0  0  0
  6  8  1  0  0  0  0
  7 36  1  0  0  0  0
  7 37  1  0  0  0  0
  7 38  1  0  0  0  0
  8 13  1  0  0  0  0
  8  9  2  0  0  0  0
  9 10  1  0  0  0  0
 10 11  2  0  0  0  0
 10 39  1  0  0  0  0
 11 12  1  0  0  0  0
 12 16  1  0  0  0  0
 12 13  2  0  0  0  0
 13 14  1  0  0  0  0
 14 15  2  0  0  0  0
 15 16  1  0  0  0  0
 15 40  1  0  0  0  0
 16 17  1  0  0  0  0
 17 18  1  0  0  0  0
 17 41  1  0  0  0  0
 17 42  1  0  0  0  0
 18 19  1  0  0  0  0
 18 20  1  0  0  0  0
 18 43  1  0  0  0  0
 19 44  1  0  0  0  0
 20 24  1  0  0  0  0
 20 21  1  0  0  0  0
 20 45  1  0  0  0  0
 21 22  1  0  0  0  0
 21 46  1  0  0  0  0
 21 47  1  0  0  0  0
 22 23  1  0  0  0  0
 22 48  1  0  0  0  0
 22 49  1  0  0  0  0
 23 24  1  0  0  0  0
 23 50  1  0  0  0  0
 23 51  1  0  0  0  0
 25 28  1  0  0  0  0
 25 26  1  0  0  0  0
 26 27  1  0  0  0  0
 26 52  1  0  0  0  0
 26 53  1  0  0  0  0
 27 28  1  0  0  0  0
 27 54  1  0  0  0  0
 27 55  1  0  0  0  0
 28 56  1  0  0  0  0
 28 57  1  0  0  0  0
M  END
> <s_m_source_file>
AV-unprocessed.smi

> <i_m_source_file_index>
276

> <i_lp_mmshare_version>
43012

> <i_f3d_flags>
0

> <s_epik_input>
W0NIMl0xW0NIMl1bQ0gyXUMxMltDQEhdKE9bQ0gzXSlbQ0gyXVtDQEhdMk4oW0NIM10pYyhuW2NIXW4zKWMoYzM0KW5bY0hdbjRbQ0gyXVtDQEhdKFtPSF0pW0NAQEhdNVtDSDJdW0NIMl1bQ0gyXU81

> <s_epik_cmdline>
J2VwaWtfcHl0aG9uJywgJy1waCcsICc3LjAnLCAnLXRuJywgJzgnLCAnLW1hJywgJzIwMCcsICctbWV0YWxfYmluZGluZycsICctaW1hZScsICc8aW5maWxlLm1hZT4nLCAnLW9tYWUnLCAnPG91dGZpbGUubWFlPic=

> <r_lp_tautomer_probability>
1

> <r_epik_Ionization_Penalty>
0.00204117

> <r_epik_Ionization_Penalty_Charging>
0

> <r_epik_Ionization_Penalty_Neutral>
0.00204117

> <r_epik_State_Penalty>
0.00127401

> <r_epik_Charging_Adjusted_Penalty>
0.00127401

> <i_epik_Tot_Q>
0

> <i_epik_Tot_abs_Q>
0

> <r_epik_Metal_State_Penalty>
-0

> <b_epik_Metal_Only>
0

> <s_lp_Force_Field>
OPLS_2005

> <r_lp_Energy>
57.8978

> <b_lp_Chiralities_Consistent>
1

> <s_lp_Variant>
AV-unprocessed.smi:276-4

> <Gold.Version>
5.8.1

> <Gold.Id.Protein>
6NUR|6NUR_protein|mol2

> <Gold.PLP.Fitness>
40.4229

> <Gold.PLP.PLP>
-44.7401

> <Gold.PLP.part.hbond>
-1.0000

> <Gold.PLP.part.metal>
0.0000

> <Gold.PLP.part.buried>
-7.1875

> <Gold.PLP.part.nonpolar>
-37.7666

> <Gold.PLP.part.repulsive>
1.7472

> <Gold.PLP.ligand.clash>
2.6778

> <Gold.PLP.ligand.torsion>
2.7457

> <Gold.PLP.Chemscore.Hbond>
1.0000

> <Gold.PLP.Chemscore.CHOScore>
0.0000

> <Gold.PLP.Chemscore.Metal>
0.0000

> <Gold.Chemscore.Hbonds>
donor molecule, donor type, donor heavy atom, donor atom, acceptor molecule, acceptor atom, score
      L1  H    19    44       P1 10737  0.69

> <Gold.PLP.Chemscore.Internal.Correction>
0.8520

> <Gold.Rescore>
     Score         DG    S(hbond)    S(metal)    S(lipo)     H(rot)  DE(clash)    DE(int)     intcor
     11.10     -14.40       0.97        0.00     107.83       2.72       0.46       2.83       ----

> <Gold.Chemscore.Fitness>
11.0966

> <Gold.Chemscore.DG>
-14.3958

> <Gold.Chemscore.ZeroCoef>
-5.4800

> <Gold.Chemscore.Hbond>
0.9747

> <Gold.Chemscore.Metal>
0.0000

> <Gold.Chemscore.Lipo>
107.8308

> <Gold.Chemscore.Internal_Hbond>
0.0000

> <Gold.Chemscore.DEClash>
0.4642

> <Gold.Chemscore.DEInternal>
2.8349

> <Gold.Chemscore.Rot>
2.7172

> <Gold.Chemscore.Internal.Correction>
   9.000000E+99

> <Gold.Chemscore.Hbonds>
donor molecule, donor type, donor heavy atom, donor atom, acceptor molecule, acceptor atom, score
      L1  H    19    44       P1 10737  0.58

> <Gold.Chemscore.Hbond.Weighted>
-3.2556

> <Gold.Chemscore.Metal.Weighted>
-0.0000

> <Gold.Chemscore.Lipo.Weighted>
-12.6162

> <Gold.Chemscore.Internal_Hbond.Weighted>
0.0000

> <Gold.Chemscore.DEClash.Weighted>
0.4642

> <Gold.Chemscore.DEInternal.Weighted>
2.8349

> <Gold.Chemscore.Rot.Weighted>
6.9560

> <Gold.Chemscore.Internal.Correction.Weighted>
   9.000000E+99

> <Gold.Protein.RotatedTorsions>
[ 6907 6896 6895 6894 ] final -152.95 input  -60.11 | X-H torsion
[ 7974 7965 7964 7962 ] final   51.27 input  175.53 | X-H torsion
[ 8008 7997 7996 7995 ] final   55.71 input   59.86 | X-H torsion
[ 10167 10162 10161 10158 ] final  101.03 input  -65.29 | X-H torsion
[ 10718 10713 10712 10709 ] final  119.54 input   66.30 | X-H torsion
[ 10763 10752 10751 10750 ] final   42.84 input  -60.55 | X-H torsion
[ 11005 11000 10999 10996 ] final  -21.49 input  -57.11 | X-H torsion

> <Gold.Protein.ActiveResidues>
 VAL166  LYS551  ARG553  GLY616  TRP617  ASP618  TYR619  PRO620  LYS621  CYS622 
 ASP623  PHE694  ASN695  SER759  ASP760  ASP761  ALA762  ILE779  LEU786  VAL792 
 PHE793  MET794  SER795  GLU796  ALA797  LYS798  CYS799  TRP800  GLU811  SER814 

> <Gold.Protein.RotatedAtoms>
  151.2353  133.4428  159.2605 H   0  0  0  0  0  0  0  0  0  0  0  0  # atno 6907 bound_to 6896
  151.0756  134.9826  159.8341 H   0  0  0  0  0  0  0  0  0  0  0  0  # atno 6908 bound_to 6896
  152.5418  134.2295  159.8872 H   0  0  0  0  0  0  0  0  0  0  0  0  # atno 6909 bound_to 6896
  145.9929  139.4358  143.0062 H   0  0  0  0  0  0  0  0  0  0  0  0  # atno 7974 bound_to 7965
  155.5055  140.3475  155.4379 H   0  0  0  0  0  0  0  0  0  0  0  0  # atno 8008 bound_to 7997
  156.0885  140.1404  156.9650 H   0  0  0  0  0  0  0  0  0  0  0  0  # atno 8009 bound_to 7997
  154.4621  140.0931  156.6897 H   0  0  0  0  0  0  0  0  0  0  0  0  # atno 8010 bound_to 7997
  139.7474  144.6994  151.0483 H   0  0  0  0  0  0  0  0  0  0  0  0  # atno 10167 bound_to 10162
  157.5954  131.1058  150.7911 H   0  0  0  0  0  0  0  0  0  0  0  0  # atno 10718 bound_to 10713
  152.9874  135.6119  154.3014 H   0  0  0  0  0  0  0  0  0  0  0  0  # atno 10763 bound_to 10752
  154.2734  135.2779  155.2730 H   0  0  0  0  0  0  0  0  0  0  0  0  # atno 10764 bound_to 10752
  154.5102  135.5843  153.6655 H   0  0  0  0  0  0  0  0  0  0  0  0  # atno 10765 bound_to 10752
  140.8567  133.7818  156.0027 H   0  0  0  0  0  0  0  0  0  0  0  0  # atno 11005 bound_to 11000
  145.7602  140.9938  143.1204 LP  0  0  0  0  0  0  0  0  0  0  0  0  # atno 17320 bound_to 7965
  144.6894  139.9321  143.7472 LP  0  0  0  0  0  0  0  0  0  0  0  0  # atno 17321 bound_to 7965
  140.7794  143.4850  150.9967 LP  0  0  0  0  0  0  0  0  0  0  0  0  # atno 17342 bound_to 10162
  139.8538  143.7403  152.3177 LP  0  0  0  0  0  0  0  0  0  0  0  0  # atno 17343 bound_to 10162
  156.8323  130.5020  149.5330 LP  0  0  0  0  0  0  0  0  0  0  0  0  # atno 17370 bound_to 10713
  156.1016  130.5973  150.9903 LP  0  0  0  0  0  0  0  0  0  0  0  0  # atno 17371 bound_to 10713
  140.8730  134.2704  157.5182 LP  0  0  0  0  0  0  0  0  0  0  0  0  # atno 17394 bound_to 11000
  139.8705  134.9576  156.4276 LP  0  0  0  0  0  0  0  0  0  0  0  0  # atno 17395 bound_to 11000

$$$$
