AV-unprocessed.smi:1564|AV-procd|sdf|6293|dock3
  -GOLD-   22720 6493D 1   1.00000     0.00000
 Structure written by MMmdl.
 43 44  0  0  0  0  0  0  0  0  2 V2000
  152.5398  140.4406  158.2942 C   0  0  0  0  0  0  0  0  0  0  0  0
  152.4067  140.4495  156.8769 O   0  0  0  0  0  0  0  0  0  0  0  0
  151.7271  139.4097  156.2762 C   0  0  0  0  0  0  0  0  0  0  0  0
  151.5370  138.2183  157.0039 C   0  0  0  0  0  0  0  0  0  0  0  0
  150.8429  137.1531  156.3988 C   0  0  0  0  0  0  0  0  0  0  0  0
  150.3522  137.3170  155.0813 C   0  0  0  0  0  0  0  0  0  0  0  0
  149.6554  136.3132  154.3554 N   0  0  0  0  0  0  0  0  0  0  0  0
  149.3117  135.0776  154.7572 C   0  0  0  0  0  0  0  0  0  0  0  0
  149.5175  134.6078  155.8760 O   0  0  0  0  0  0  0  0  0  0  0  0
  148.6831  134.4057  153.7822 N   0  0  0  0  0  0  0  0  0  0  0  0
  148.1832  133.0401  153.9029 C   0  0  2  0  0  0  0  0  0  0  0  0
  149.2719  131.9915  154.0687 C   0  0  0  0  0  0  0  0  0  0  0  0
  148.5140  130.7129  153.7088 C   0  0  0  0  0  0  0  0  0  0  0  0
  147.5705  131.0815  152.6229 N   0  3  1  0  0  0  0  0  0  0  0  0
  146.2920  130.3147  152.5858 C   0  0  0  0  0  0  0  0  0  0  0  0
  146.5348  128.8025  152.4062 C   0  0  0  0  0  0  0  0  0  0  0  0
  145.3791  130.8131  151.4483 C   0  0  0  0  0  0  0  0  0  0  0  0
  147.4314  132.5607  152.6546 C   0  0  0  0  0  0  0  0  0  0  0  0
  150.6092  138.5433  154.4341 C   0  0  0  0  0  0  0  0  0  0  0  0
  151.2722  139.5687  155.0087 N   0  0  0  0  0  0  0  0  0  0  0  0
  153.0995  141.3211  158.6092 H   0  0  0  0  0  0  0  0  0  0  0  0
  153.0866  139.5610  158.6375 H   0  0  0  0  0  0  0  0  0  0  0  0
  151.5675  140.4735  158.7879 H   0  0  0  0  0  0  0  0  0  0  0  0
  151.9206  138.1211  158.0089 H   0  0  0  0  0  0  0  0  0  0  0  0
  150.7157  136.2342  156.9494 H   0  0  0  0  0  0  0  0  0  0  0  0
  149.3404  136.5870  153.4361 H   0  0  0  0  0  0  0  0  0  0  0  0
  148.5511  134.8664  152.8934 H   0  0  0  0  0  0  0  0  0  0  0  0
  147.5169  132.9792  154.7664 H   0  0  0  0  0  0  0  0  0  0  0  0
  150.0846  132.1621  153.3609 H   0  0  0  0  0  0  0  0  0  0  0  0
  149.6914  131.9660  155.0751 H   0  0  0  0  0  0  0  0  0  0  0  0
  149.1800  129.9042  153.4068 H   0  0  0  0  0  0  0  0  0  0  0  0
  147.9563  130.3812  154.5864 H   0  0  0  0  0  0  0  0  0  0  0  0
  145.7779  130.4651  153.5367 H   0  0  0  0  0  0  0  0  0  0  0  0
  145.5901  128.2636  152.3250 H   0  0  0  0  0  0  0  0  0  0  0  0
  147.0710  128.3654  153.2484 H   0  0  0  0  0  0  0  0  0  0  0  0
  147.1079  128.5973  151.5012 H   0  0  0  0  0  0  0  0  0  0  0  0
  144.4553  130.2353  151.4094 H   0  0  0  0  0  0  0  0  0  0  0  0
  145.8685  130.7150  150.4785 H   0  0  0  0  0  0  0  0  0  0  0  0
  145.0906  131.8565  151.5690 H   0  0  0  0  0  0  0  0  0  0  0  0
  146.3947  132.8963  152.6856 H   0  0  0  0  0  0  0  0  0  0  0  0
  147.8824  132.9620  151.7460 H   0  0  0  0  0  0  0  0  0  0  0  0
  150.2675  138.7115  153.4230 H   0  0  0  0  0  0  0  0  0  0  0  0
  148.0497  130.8723  151.7587 H   0  0  0  0  0  0  0  0  0  0  0  0
  1  2  1  0  0  0  0
  1 21  1  0  0  0  0
  1 22  1  0  0  0  0
  1 23  1  0  0  0  0
  2  3  1  0  0  0  0
  3 20  1  0  0  0  0
  3  4  2  0  0  0  0
  4  5  1  0  0  0  0
  4 24  1  0  0  0  0
  5  6  2  0  0  0  0
  5 25  1  0  0  0  0
  6  7  1  0  0  0  0
  6 19  1  0  0  0  0
  7  8  1  0  0  0  0
  7 26  1  0  0  0  0
  8  9  2  0  0  0  0
  8 10  1  0  0  0  0
 10 11  1  0  0  0  0
 10 27  1  0  0  0  0
 11 18  1  0  0  0  0
 11 12  1  0  0  0  0
 11 28  1  0  0  0  0
 12 13  1  0  0  0  0
 12 29  1  0  0  0  0
 12 30  1  0  0  0  0
 13 14  1  0  0  0  0
 13 31  1  0  0  0  0
 13 32  1  0  0  0  0
 14 15  1  0  0  0  0
 14 18  1  0  0  0  0
 14 43  1  0  0  0  0
 15 16  1  0  0  0  0
 15 17  1  0  0  0  0
 15 33  1  0  0  0  0
 16 34  1  0  0  0  0
 16 35  1  0  0  0  0
 16 36  1  0  0  0  0
 17 37  1  0  0  0  0
 17 38  1  0  0  0  0
 17 39  1  0  0  0  0
 18 40  1  0  0  0  0
 18 41  1  0  0  0  0
 19 20  2  0  0  0  0
 19 42  1  0  0  0  0
M  CHG  1  14   1
M  END
> <s_m_source_file>
AV-unprocessed.smi

> <i_m_source_file_index>
1564

> <i_lp_mmshare_version>
43012

> <i_f3d_flags>
0

> <s_epik_input>
W0NIM11PYzFbY0hdW2NIXWMoW2NIXW4xKVtOSF1DKD1PKVtOSF1bQ0BASF0yW0NIMl1bQ0gyXU4oW0NIMl0yKVtDSF0oW0NIM10pW0NIM10=

> <s_epik_cmdline>
J2VwaWtfcHl0aG9uJywgJy1waCcsICc3LjAnLCAnLXRuJywgJzgnLCAnLW1hJywgJzIwMCcsICctbWV0YWxfYmluZGluZycsICctaW1hZScsICc8aW5maWxlLm1hZT4nLCAnLW9tYWUnLCAnPG91dGZpbGUubWFlPic=

> <r_lp_tautomer_probability>
1

> <r_epik_Ionization_Penalty>
0.000679474

> <r_epik_Ionization_Penalty_Charging>
0.000606352

> <r_epik_Ionization_Penalty_Neutral>
7.31222e-05

> <r_epik_State_Penalty>
0.000382168

> <r_epik_Charging_Adjusted_Penalty>
0.00098852

> <i_epik_Tot_Q>
1

> <i_epik_Tot_abs_Q>
1

> <r_epik_Metal_State_Penalty>
-0

> <b_epik_Metal_Only>
0

> <s_lp_Force_Field>
OPLS_2005

> <r_lp_Energy>
34.2158

> <b_lp_Chiralities_Consistent>
1

> <s_lp_Variant>
AV-unprocessed.smi:1564-1

> <Gold.Version>
5.8.1

> <Gold.Id.Protein>
6NUR|6NUR_protein|mol2

> <Gold.PLP.Fitness>
46.7220

> <Gold.PLP.PLP>
-31.0903

> <Gold.PLP.part.hbond>
-5.4082

> <Gold.PLP.part.metal>
0.0000

> <Gold.PLP.part.buried>
0.6263

> <Gold.PLP.part.nonpolar>
-25.1378

> <Gold.PLP.part.repulsive>
0.1222

> <Gold.PLP.ligand.clash>
0.0000

> <Gold.PLP.ligand.torsion>
0.2972

> <Gold.PLP.Chemscore.Hbond>
4.8164

> <Gold.PLP.Chemscore.CHOScore>
0.5822

> <Gold.PLP.Chemscore.Metal>
0.0000

> <Gold.Chemscore.Hbonds>
donor molecule, donor type, donor heavy atom, donor atom, acceptor molecule, acceptor atom, score
      L1  H     7    26       P1  7948  1.00
      L1  H    10    27       P1  7948  0.96
      L1  H    14    43       P1 10747  1.00
      P1  H  7989  7998       L1    20  1.00
      P1  H  7997  8008       L1     2  0.85
      L1  C    19    42       P1  7957  0.60

> <Gold.PLP.Chemscore.Internal.Correction>
0.0302

> <Gold.Rescore>
     Score         DG    S(hbond)    S(metal)    S(lipo)     H(rot)  DE(clash)    DE(int)     intcor
     18.46     -19.94       2.79        0.00      75.49       1.44       0.05       1.42       ----

> <Gold.Chemscore.Fitness>
18.4614

> <Gold.Chemscore.DG>
-19.9353

> <Gold.Chemscore.ZeroCoef>
-5.4800

> <Gold.Chemscore.Hbond>
2.7908

> <Gold.Chemscore.Metal>
0.0000

> <Gold.Chemscore.Lipo>
75.4859

> <Gold.Chemscore.Internal_Hbond>
0.0000

> <Gold.Chemscore.DEClash>
0.0494

> <Gold.Chemscore.DEInternal>
1.4245

> <Gold.Chemscore.Rot>
1.4445

> <Gold.Chemscore.Internal.Correction>
   9.000000E+99

> <Gold.Chemscore.Hbonds>
donor molecule, donor type, donor heavy atom, donor atom, acceptor molecule, acceptor atom, score
      L1  H     7    26       P1  7948  0.86
      L1  H    10    27       P1  7948  0.37
      L1  H    14    43       P1 10747  1.00
      P1  H  7989  7998       L1    20  0.47
      P1  H  7997  8008       L1     2  0.09

> <Gold.Chemscore.Hbond.Weighted>
-9.3213

> <Gold.Chemscore.Metal.Weighted>
-0.0000

> <Gold.Chemscore.Lipo.Weighted>
-8.8319

> <Gold.Chemscore.Internal_Hbond.Weighted>
0.0000

> <Gold.Chemscore.DEClash.Weighted>
0.0494

> <Gold.Chemscore.DEInternal.Weighted>
1.4245

> <Gold.Chemscore.Rot.Weighted>
3.6979

> <Gold.Chemscore.Internal.Correction.Weighted>
   9.000000E+99

> <Gold.Protein.RotatedTorsions>
[ 6907 6896 6895 6894 ] final   85.96 input  -60.11 | X-H torsion
[ 7974 7965 7964 7962 ] final   87.74 input  175.53 | X-H torsion
[ 8008 7997 7996 7995 ] final  -40.71 input   59.86 | X-H torsion
[ 10167 10162 10161 10158 ] final -141.12 input  -65.29 | X-H torsion
[ 10718 10713 10712 10709 ] final  -55.36 input   66.30 | X-H torsion
[ 10763 10752 10751 10750 ] final  145.96 input  -60.55 | X-H torsion
[ 11005 11000 10999 10996 ] final  106.11 input  -57.11 | X-H torsion

> <Gold.Protein.ActiveResidues>
 VAL166  LYS551  ARG553  GLY616  TRP617  ASP618  TYR619  PRO620  LYS621  CYS622 
 ASP623  PHE694  ASN695  SER759  ASP760  ASP761  ALA762  ILE779  LEU786  VAL792 
 PHE793  MET794  SER795  GLU796  ALA797  LYS798  CYS799  TRP800  GLU811  SER814 

> <Gold.Protein.RotatedAtoms>
  152.5385  134.2505  159.8896 H   0  0  0  0  0  0  0  0  0  0  0  0  # atno 6907 bound_to 6896
  151.2468  133.4364  159.2617 H   0  0  0  0  0  0  0  0  0  0  0  0  # atno 6908 bound_to 6896
  151.0576  134.9729  159.8300 H   0  0  0  0  0  0  0  0  0  0  0  0  # atno 6909 bound_to 6896
  145.5550  139.2299  143.2491 H   0  0  0  0  0  0  0  0  0  0  0  0  # atno 7974 bound_to 7965
  154.4010  140.1518  156.3071 H   0  0  0  0  0  0  0  0  0  0  0  0  # atno 8008 bound_to 7997
  155.8648  140.3451  155.5759 H   0  0  0  0  0  0  0  0  0  0  0  0  # atno 8009 bound_to 7997
  155.7840  140.0847  157.2035 H   0  0  0  0  0  0  0  0  0  0  0  0  # atno 8010 bound_to 7997
  139.8216  143.7567  152.2666 H   0  0  0  0  0  0  0  0  0  0  0  0  # atno 10167 bound_to 10162
  156.1375  130.4156  150.0161 H   0  0  0  0  0  0  0  0  0  0  0  0  # atno 10718 bound_to 10713
  154.0139  135.2912  155.3389 H   0  0  0  0  0  0  0  0  0  0  0  0  # atno 10763 bound_to 10752
  154.7086  135.5159  153.8636 H   0  0  0  0  0  0  0  0  0  0  0  0  # atno 10764 bound_to 10752
  153.0710  135.6648  154.0368 H   0  0  0  0  0  0  0  0  0  0  0  0  # atno 10765 bound_to 10752
  139.8810  134.9358  156.5616 H   0  0  0  0  0  0  0  0  0  0  0  0  # atno 11005 bound_to 11000
  146.1890  140.6374  142.9154 LP  0  0  0  0  0  0  0  0  0  0  0  0  # atno 17320 bound_to 7965
  144.7510  140.5192  143.6801 LP  0  0  0  0  0  0  0  0  0  0  0  0  # atno 17321 bound_to 7965
  139.7746  144.7465  151.0174 LP  0  0  0  0  0  0  0  0  0  0  0  0  # atno 17342 bound_to 10162
  140.7813  143.4607  151.0282 LP  0  0  0  0  0  0  0  0  0  0  0  0  # atno 17343 bound_to 10162
  156.8056  130.9306  151.3645 LP  0  0  0  0  0  0  0  0  0  0  0  0  # atno 17370 bound_to 10713
  157.6545  130.8913  149.9701 LP  0  0  0  0  0  0  0  0  0  0  0  0  # atno 17371 bound_to 10713
  140.8165  133.8388  155.8857 LP  0  0  0  0  0  0  0  0  0  0  0  0  # atno 17394 bound_to 11000
  140.9458  134.1842  157.4764 LP  0  0  0  0  0  0  0  0  0  0  0  0  # atno 17395 bound_to 11000

$$$$
