AV-unprocessed.smi:2787|AV-procd|sdf|10757|dock8
  -GOLD-   2272015193D 1   1.00000     0.00000
 Structure written by MMmdl.
 35 36  0  0  0  0  0  0  0  0  1 V2000
  151.6952  136.8590  154.9681 O   0  0  0  0  0  0  0  0  0  0  0  0
  151.6503  138.1484  154.3937 C   0  0  0  0  0  0  0  0  0  0  0  0
  152.3307  139.1724  155.3139 C   0  0  0  0  0  0  0  0  0  0  0  0
  151.8188  139.1193  156.7641 C   0  0  0  0  0  0  0  0  0  0  0  0
  151.8956  140.4494  157.4587 C   0  0  0  0  0  0  0  0  0  0  0  0
  152.6138  140.5936  158.5739 N   0  0  0  0  0  0  0  0  0  0  0  0
  152.4383  141.9263  158.8859 C   0  0  0  0  0  0  0  0  0  0  0  0
  152.9523  142.6954  159.9545 C   0  0  0  0  0  0  0  0  0  0  0  0
  152.6289  144.0634  160.0691 C   0  0  0  0  0  0  0  0  0  0  0  0
  151.7886  144.6797  159.1195 C   0  0  0  0  0  0  0  0  0  0  0  0
  151.2662  143.9307  158.0475 C   0  0  0  0  0  0  0  0  0  0  0  0
  151.5928  142.5654  157.9371 C   0  0  0  0  0  0  0  0  0  0  0  0
  151.2536  141.5691  157.0258 N   0  0  0  0  0  0  0  0  0  0  0  0
  150.3789  141.7581  155.8728 C   0  0  0  0  0  0  0  0  0  0  0  0
  148.9322  141.2961  156.1399 C   0  0  1  0  0  0  0  0  0  0  0  0
  148.2251  142.3089  156.8271 O   0  0  0  0  0  0  0  0  0  0  0  0
  148.1712  140.9330  154.8502 C   0  0  0  0  0  0  0  0  0  0  0  0
  147.0048  140.3614  155.1506 F   0  0  0  0  0  0  0  0  0  0  0  0
  147.9591  142.0142  154.0992 F   0  0  0  0  0  0  0  0  0  0  0  0
  148.8875  140.0580  154.1442 F   0  0  0  0  0  0  0  0  0  0  0  0
  150.9604  136.7645  155.5549 H   0  0  0  0  0  0  0  0  0  0  0  0
  152.1271  138.1282  153.4132 H   0  0  0  0  0  0  0  0  0  0  0  0
  150.6058  138.4206  154.2392 H   0  0  0  0  0  0  0  0  0  0  0  0
  153.4046  138.9820  155.3115 H   0  0  0  0  0  0  0  0  0  0  0  0
  152.2029  140.1736  154.9025 H   0  0  0  0  0  0  0  0  0  0  0  0
  150.8046  138.7292  156.7787 H   0  0  0  0  0  0  0  0  0  0  0  0
  152.4159  138.4063  157.3339 H   0  0  0  0  0  0  0  0  0  0  0  0
  153.5964  142.2319  160.6869 H   0  0  0  0  0  0  0  0  0  0  0  0
  153.0271  144.6426  160.8893 H   0  0  0  0  0  0  0  0  0  0  0  0
  151.5449  145.7278  159.2148 H   0  0  0  0  0  0  0  0  0  0  0  0
  150.6225  144.4008  157.3191 H   0  0  0  0  0  0  0  0  0  0  0  0
  150.4067  142.7929  155.5383 H   0  0  0  0  0  0  0  0  0  0  0  0
  150.7954  141.1823  155.0458 H   0  0  0  0  0  0  0  0  0  0  0  0
  148.9552  140.4193  156.7883 H   0  0  0  0  0  0  0  0  0  0  0  0
  148.5106  143.1479  156.4995 H   0  0  0  0  0  0  0  0  0  0  0  0
  1  2  1  0  0  0  0
  1 21  1  0  0  0  0
  2  3  1  0  0  0  0
  2 22  1  0  0  0  0
  2 23  1  0  0  0  0
  3  4  1  0  0  0  0
  3 24  1  0  0  0  0
  3 25  1  0  0  0  0
  4  5  1  0  0  0  0
  4 26  1  0  0  0  0
  4 27  1  0  0  0  0
  5 13  1  0  0  0  0
  5  6  2  0  0  0  0
  6  7  1  0  0  0  0
  7 12  2  0  0  0  0
  7  8  1  0  0  0  0
  8  9  2  0  0  0  0
  8 28  1  0  0  0  0
  9 10  1  0  0  0  0
  9 29  1  0  0  0  0
 10 11  2  0  0  0  0
 10 30  1  0  0  0  0
 11 12  1  0  0  0  0
 11 31  1  0  0  0  0
 12 13  1  0  0  0  0
 13 14  1  0  0  0  0
 14 15  1  0  0  0  0
 14 32  1  0  0  0  0
 14 33  1  0  0  0  0
 15 16  1  0  0  0  0
 15 17  1  0  0  0  0
 15 34  1  0  0  0  0
 16 35  1  0  0  0  0
 17 18  1  0  0  0  0
 17 19  1  0  0  0  0
 17 20  1  0  0  0  0
M  END
> <s_m_source_file>
AV-unprocessed.smi

> <i_m_source_file_index>
2787

> <i_lp_mmshare_version>
43012

> <i_f3d_flags>
0

> <s_epik_input>
W09IXVtDSDJdW0NIMl1bQ0gyXWMobjEpbihbQ0gyXVtDQEhdKFtPSF0pQyhGKShGKUYpYyhjMTIpW2NIXVtjSF1bY0hdW2NIXTI=

> <s_epik_cmdline>
J2VwaWtfcHl0aG9uJywgJy1waCcsICc3LjAnLCAnLXRuJywgJzgnLCAnLW1hJywgJzIwMCcsICctbWV0YWxfYmluZGluZycsICctaW1hZScsICc8aW5maWxlLm1hZT4nLCAnLW9tYWUnLCAnPG91dGZpbGUubWFlPic=

> <r_epik_Ionization_Penalty>
0.137914

> <r_epik_Ionization_Penalty_Charging>
0

> <r_epik_Ionization_Penalty_Neutral>
0.137914

> <r_epik_State_Penalty>
0.107668

> <r_epik_Charging_Adjusted_Penalty>
0.107668

> <i_epik_Tot_Q>
0

> <i_epik_Tot_abs_Q>
0

> <r_epik_Metal_State_Penalty>
0.000111872

> <b_epik_Metal_Only>
0

> <s_lp_Force_Field>
OPLS_2005

> <r_lp_Energy>
11.7706

> <b_lp_Chiralities_Consistent>
1

> <s_lp_Variant>
AV-unprocessed.smi:2787-2

> <Gold.Version>
5.8.1

> <Gold.Id.Protein>
6NUR|6NUR_protein|mol2

> <Gold.PLP.Fitness>
49.5509

> <Gold.PLP.PLP>
-45.1426

> <Gold.PLP.part.hbond>
-2.0000

> <Gold.PLP.part.metal>
0.0000

> <Gold.PLP.part.buried>
-3.9862

> <Gold.PLP.part.nonpolar>
-38.5408

> <Gold.PLP.part.repulsive>
0.0000

> <Gold.PLP.ligand.clash>
0.0000

> <Gold.PLP.ligand.torsion>
0.8208

> <Gold.PLP.Chemscore.Hbond>
2.0000

> <Gold.PLP.Chemscore.CHOScore>
0.0000

> <Gold.PLP.Chemscore.Metal>
0.0000

> <Gold.Chemscore.Hbonds>
donor molecule, donor type, donor heavy atom, donor atom, acceptor molecule, acceptor atom, score
      L1  H    16    35       P1  8028  1.00
      P1  H 10752 10763       L1     1  1.00

> <Gold.PLP.Chemscore.Internal.Correction>
0.0499

> <Gold.Rescore>
     Score         DG    S(hbond)    S(metal)    S(lipo)     H(rot)  DE(clash)    DE(int)     intcor
     15.08     -15.93       1.94        0.00     109.05       3.44       0.01       0.85       ----

> <Gold.Chemscore.Fitness>
15.0759

> <Gold.Chemscore.DG>
-15.9338

> <Gold.Chemscore.ZeroCoef>
-5.4800

> <Gold.Chemscore.Hbond>
1.9443

> <Gold.Chemscore.Metal>
0.0000

> <Gold.Chemscore.Lipo>
109.0463

> <Gold.Chemscore.Internal_Hbond>
0.0000

> <Gold.Chemscore.DEClash>
0.0091

> <Gold.Chemscore.DEInternal>
0.8488

> <Gold.Chemscore.Rot>
3.4369

> <Gold.Chemscore.Internal.Correction>
   9.000000E+99

> <Gold.Chemscore.Hbonds>
donor molecule, donor type, donor heavy atom, donor atom, acceptor molecule, acceptor atom, score
      L1  H    16    35       P1  8028  0.74
      P1  H 10752 10763       L1     1  0.98

> <Gold.Chemscore.Hbond.Weighted>
-6.4938

> <Gold.Chemscore.Metal.Weighted>
-0.0000

> <Gold.Chemscore.Lipo.Weighted>
-12.7584

> <Gold.Chemscore.Internal_Hbond.Weighted>
0.0000

> <Gold.Chemscore.DEClash.Weighted>
0.0091

> <Gold.Chemscore.DEInternal.Weighted>
0.8488

> <Gold.Chemscore.Rot.Weighted>
8.7984

> <Gold.Chemscore.Internal.Correction.Weighted>
   9.000000E+99

> <Gold.Protein.RotatedTorsions>
[ 6907 6896 6895 6894 ] final  -50.18 input  -60.11 | X-H torsion
[ 7974 7965 7964 7962 ] final   53.13 input  175.53 | X-H torsion
[ 8008 7997 7996 7995 ] final  -77.59 input   59.86 | X-H torsion
[ 10167 10162 10161 10158 ] final   65.10 input  -65.29 | X-H torsion
[ 10718 10713 10712 10709 ] final   86.45 input   66.30 | X-H torsion
[ 10763 10752 10751 10750 ] final   65.26 input  -60.55 | X-H torsion
[ 11005 11000 10999 10996 ] final  -96.37 input  -57.11 | X-H torsion

> <Gold.Protein.ActiveResidues>
 VAL166  LYS551  ARG553  GLY616  TRP617  ASP618  TYR619  PRO620  LYS621  CYS622 
 ASP623  PHE694  ASN695  SER759  ASP760  ASP761  ALA762  ILE779  LEU786  VAL792 
 PHE793  MET794  SER795  GLU796  ALA797  LYS798  CYS799  TRP800  GLU811  SER814 

> <Gold.Protein.RotatedAtoms>
  150.8732  134.8110  159.7169 H   0  0  0  0  0  0  0  0  0  0  0  0  # atno 6907 bound_to 6896
  152.4729  134.4913  159.9706 H   0  0  0  0  0  0  0  0  0  0  0  0  # atno 6908 bound_to 6896
  151.4999  133.3468  159.2903 H   0  0  0  0  0  0  0  0  0  0  0  0  # atno 6909 bound_to 6896
  145.9743  139.4180  143.0171 H   0  0  0  0  0  0  0  0  0  0  0  0  # atno 7974 bound_to 7965
  154.5610  140.0708  156.8819 H   0  0  0  0  0  0  0  0  0  0  0  0  # atno 8008 bound_to 7997
  155.2811  140.3371  155.4240 H   0  0  0  0  0  0  0  0  0  0  0  0  # atno 8009 bound_to 7997
  156.2042  140.1733  156.7820 H   0  0  0  0  0  0  0  0  0  0  0  0  # atno 8010 bound_to 7997
  140.1150  144.4784  150.6955 H   0  0  0  0  0  0  0  0  0  0  0  0  # atno 10167 bound_to 10162
  157.6929  131.0216  150.2975 H   0  0  0  0  0  0  0  0  0  0  0  0  # atno 10718 bound_to 10713
  153.0089  135.5363  154.6640 H   0  0  0  0  0  0  0  0  0  0  0  0  # atno 10763 bound_to 10752
  154.5841  135.2852  155.0705 H   0  0  0  0  0  0  0  0  0  0  0  0  # atno 10764 bound_to 10752
  154.1822  135.6514  153.5090 H   0  0  0  0  0  0  0  0  0  0  0  0  # atno 10765 bound_to 10752
  141.1413  133.8093  157.0563 H   0  0  0  0  0  0  0  0  0  0  0  0  # atno 11005 bound_to 11000
  145.7861  140.9835  143.1074 LP  0  0  0  0  0  0  0  0  0  0  0  0  # atno 17320 bound_to 7965
  144.6845  139.9624  143.7480 LP  0  0  0  0  0  0  0  0  0  0  0  0  # atno 17321 bound_to 7965
  140.6904  143.2373  151.5146 LP  0  0  0  0  0  0  0  0  0  0  0  0  # atno 17342 bound_to 10162
  139.5599  144.2183  152.1674 LP  0  0  0  0  0  0  0  0  0  0  0  0  # atno 17343 bound_to 10162
  156.3496  130.3829  149.7340 LP  0  0  0  0  0  0  0  0  0  0  0  0  # atno 17370 bound_to 10713
  156.4822  130.8046  151.3060 LP  0  0  0  0  0  0  0  0  0  0  0  0  # atno 17371 bound_to 10713
  140.0600  134.9760  157.1288 LP  0  0  0  0  0  0  0  0  0  0  0  0  # atno 17394 bound_to 11000
  140.3863  134.2233  155.7168 LP  0  0  0  0  0  0  0  0  0  0  0  0  # atno 17395 bound_to 11000

$$$$
