#       Name:                AV-unprocessed.smi:1644
#       Creating user name   scv26
#       Creation time:       Fri Mar 27 07:29:58 2020


#       File generated by GOLD software.
#

@<TRIPOS>MOLECULE
AV-unprocessed.smi:1644
    56    58     1
SMALL
NO_CHARGES


@<TRIPOS>ATOM
      1 ****        -2.7566   6.3555   2.0802 C.3            1 S1                 0.0000
      2 ****        -3.6105   5.2004   1.5456 C.3            1 S1                 0.0000
      3 ****        -2.9308   3.8335   1.7269 C.3            1 S1                 0.0000
      4 ****        -3.7957   2.6520   1.2382 C.3            1 S1                 0.0000
      5 ****        -3.8483   2.5947  -0.2086 N.pl3          1 S1                -1.0000
      6 ****        -3.3597   1.3996  -0.6138 C.2            1 S1                 0.0000
      7 ****        -3.2472   1.0066  -1.7743 O.2            1 S1                 0.0000
      8 ****        -2.9766   0.6519   0.4382 N.am           1 S1                 0.0000
      9 ****        -2.3609  -0.6768   0.3510 C.3            1 S1                 0.0000
     10 ****        -0.8207  -0.5879   0.3424 C.3            1 S1                 0.0000
     11 ****        -0.3912  -0.3386  -0.9818 O.3            1 S1                 0.0000
     12 ****        -0.1691  -1.8946   0.8354 C.3            1 S1                 0.0000
     13 ****         1.2974  -1.8116   0.8958 N.pl3          1 S1                 0.0000
     14 ****         2.0970  -1.3335   1.8869 C.2            1 S1                 0.0000
     15 ****         3.3880  -1.4700   1.4755 N.pl3          1 S1                 1.0000
     16 ****         3.4125  -2.0394   0.2006 C.ar           1 S1                 0.0000
     17 ****         4.4786  -2.3676  -0.6283 C.ar           1 S1                 0.0000
     18 ****         4.1684  -2.9363  -1.8842 C.ar           1 S1                 0.0000
     19 ****         5.3108  -3.3049  -2.8152 C.3            1 S1                 0.0000
     20 ****         2.8217  -3.1587  -2.2720 C.ar           1 S1                 0.0000
     21 ****         2.4993  -3.7664  -3.6265 C.3            1 S1                 0.0000
     22 ****         1.7515  -2.8200  -1.4132 C.ar           1 S1                 0.0000
     23 ****         2.0744  -2.2609  -0.1787 C.ar           1 S1                 0.0000
     24 ****        -3.1783   1.3120   1.5830 C.2            1 S1                 0.0000
     25 ****        -2.9107   0.9364   2.7253 O.2            1 S1                 0.0000
     26 ****        -3.2644   7.3103   1.9420 H              1 S1                 0.0000
     27 ****        -1.7990   6.4095   1.5617 H              1 S1                 0.0000
     28 ****        -2.5559   6.2359   3.1452 H              1 S1                 0.0000
     29 ****        -4.5739   5.2001   2.0566 H              1 S1                 0.0000
     30 ****        -3.8218   5.3710   0.4894 H              1 S1                 0.0000
     31 ****        -1.9671   3.8318   1.2143 H              1 S1                 0.0000
     32 ****        -2.7068   3.7010   2.7864 H              1 S1                 0.0000
     33 ****        -4.7866   2.6990   1.6920 H              1 S1                 0.0000
     34 ****        -2.6887  -1.2552   1.2166 H              1 S1                 0.0000
     35 ****        -2.7282  -1.2312  -0.5147 H              1 S1                 0.0000
     36 ****        -0.4869   0.2322   0.9799 H              1 S1                 0.0000
     37 ****        -0.8328   0.4361  -1.2971 H              1 S1                 0.0000
     38 ****        -0.5131  -2.1196   1.8456 H              1 S1                 0.0000
     39 ****        -0.4607  -2.7447   0.2179 H              1 S1                 0.0000
     40 ****         1.7661  -0.9203   2.8289 H              1 S1                 0.0000
     41 ****         5.5013  -2.1939  -0.3269 H              1 S1                 0.0000
     42 ****         5.3119  -4.3770  -3.0133 H              1 S1                 0.0000
     43 ****         6.2775  -3.0443  -2.3830 H              1 S1                 0.0000
     44 ****         5.2181  -2.7767  -3.7644 H              1 S1                 0.0000
     45 ****         1.4245  -3.8905  -3.7629 H              1 S1                 0.0000
     46 ****         2.9628  -4.7481  -3.7273 H              1 S1                 0.0000
     47 ****         2.8647  -3.1262  -4.4297 H              1 S1                 0.0000
     48 ****         0.7262  -2.9816  -1.7115 H              1 S1                 0.0000
     49 ****         4.1912  -1.1922   2.0249 H              1 S1                 0.0000
     50 ****        -4.1893   3.3185  -0.8084 LP             1 S1                 0.0000
     51 ****        -3.5325   1.5946  -2.5312 LP             1 S1                 0.0000
     52 ****        -2.8706   0.0992  -1.9606 LP             1 S1                 0.0000
     53 ****        -0.6204  -1.1188  -1.5639 LP             1 S1                 0.0000
     54 ****         0.5980  -0.1925  -0.9944 LP             1 S1                 0.0000
     55 ****        -3.1011   1.5327   3.5052 LP             1 S1                 0.0000
     56 ****        -2.5032   0.0352   2.8727 LP             1 S1                 0.0000
@<TRIPOS>BOND
    1    1    2 1     
    2    1   26 1     
    3    1   27 1     
    4    1   28 1     
    5    2    3 1     
    6    2   29 1     
    7    2   30 1     
    8    3    4 1     
    9    3   31 1     
   10    3   32 1     
   11    4   24 1     
   12    4    5 1     
   13    4   33 1     
   14    5    6 1     
   15    6    7 2     
   16    6    8 am    
   17    8    9 1     
   18    8   24 am    
   19    9   10 1     
   20    9   34 1     
   21    9   35 1     
   22   10   11 1     
   23   10   12 1     
   24   10   36 1     
   25   11   37 1     
   26   12   13 1     
   27   12   38 1     
   28   12   39 1     
   29   13   23 1     
   30   13   14 1     
   31   14   15 2     
   32   14   40 1     
   33   15   16 1     
   34   15   49 1     
   35   16   23 ar    
   36   16   17 ar    
   37   17   18 ar    
   38   17   41 1     
   39   18   19 1     
   40   18   20 ar    
   41   19   42 1     
   42   19   43 1     
   43   19   44 1     
   44   20   21 1     
   45   20   22 ar    
   46   21   45 1     
   47   21   46 1     
   48   21   47 1     
   49   22   23 ar    
   50   22   48 1     
   51   24   25 2     
   52    5   50 1     
   53    7   51 1     
   54    7   52 1     
   55   11   53 1     
   56   11   54 1     
   57   25   55 1     
   58   25   56 1     
@<TRIPOS>SUBSTRUCTURE
      1 S1             1
@<TRIPOS>SET
LONE_PAIRS      STATIC     ATOMS    <user>   **** ""
7 50 51 52 53 54 55 56
DONOR_HYDROGENS      STATIC     ATOMS    <user>   **** ""
2 37 49
ATOM$BLUE        STATIC     ATOMS    COLORGROUP SYSTEM
7 50 51 52 53 54 55 56
ATOM$RED        STATIC     ATOMS    COLORGROUP SYSTEM
2 37 49
