AV-unprocessed.smi:845|AV-procd|sdf|3928|dock2
  -GOLD-   22720 1383D 1   1.00000     0.00000
 Structure written by MMmdl.
 43 44  0  0  0  0  0  0  0  0  2 V2000
  151.3577  137.6698  155.2330 C   0  0  0  0  0  0  0  0  0  0  0  0
  150.1632  138.1984  154.4150 C   0  0  0  0  0  0  0  0  0  0  0  0
  150.1554  139.7374  154.4789 C   0  0  0  0  0  0  0  0  0  0  0  0
  148.8135  137.5831  154.8898 C   0  0  1  0  0  0  0  0  0  0  0  0
  148.2583  138.1660  156.2205 C   0  0  0  0  0  0  0  0  0  0  0  0
  148.5046  137.3128  157.3829 N   0  0  0  0  0  0  0  0  0  0  0  0
  147.8666  137.3927  158.5593 C   0  0  0  0  0  0  0  0  0  0  0  0
  146.9962  138.2281  158.8043 O   0  0  0  0  0  0  0  0  0  0  0  0
  148.3088  136.4566  159.4170 N   0  0  0  0  0  0  0  0  0  0  0  0
  147.9039  136.2370  160.7601 C   0  0  0  0  0  0  0  0  0  0  0  0
  147.5709  137.2101  161.6163 N   0  0  0  0  0  0  0  0  0  0  0  0
  147.2166  136.7065  162.8705 C   0  0  0  0  0  0  0  0  0  0  0  0
  147.2881  135.3380  162.9529 C   0  0  0  0  0  0  0  0  0  0  0  0
  147.8064  134.6232  161.4493 S   0  0  0  0  0  0  0  0  0  0  0  0
  147.8031  137.5505  153.7875 N   0  3  0  0  0  0  0  0  0  0  0  0
  146.6369  136.6709  154.0456 C   0  0  0  0  0  0  0  0  0  0  0  0
  145.7917  136.5339  152.7676 C   0  0  0  0  0  0  0  0  0  0  0  0
  145.3883  137.8220  152.3169 O   0  0  0  0  0  0  0  0  0  0  0  0
  146.4987  138.6535  151.9993 C   0  0  0  0  0  0  0  0  0  0  0  0
  147.3582  138.8626  153.2563 C   0  0  0  0  0  0  0  0  0  0  0  0
  151.2419  137.8930  156.2941 H   0  0  0  0  0  0  0  0  0  0  0  0
  152.2915  138.1246  154.9010 H   0  0  0  0  0  0  0  0  0  0  0  0
  151.4785  136.5914  155.1293 H   0  0  0  0  0  0  0  0  0  0  0  0
  150.3370  137.9194  153.3757 H   0  0  0  0  0  0  0  0  0  0  0  0
  149.9556  140.0912  155.4910 H   0  0  0  0  0  0  0  0  0  0  0  0
  149.4035  140.1712  153.8204 H   0  0  0  0  0  0  0  0  0  0  0  0
  151.1175  140.1475  154.1707 H   0  0  0  0  0  0  0  0  0  0  0  0
  149.0368  136.5360  155.1006 H   0  0  0  0  0  0  0  0  0  0  0  0
  148.6170  139.1830  156.3788 H   0  0  0  0  0  0  0  0  0  0  0  0
  147.1755  138.2619  156.1373 H   0  0  0  0  0  0  0  0  0  0  0  0
  149.2027  136.5917  157.2734 H   0  0  0  0  0  0  0  0  0  0  0  0
  149.0192  135.8282  159.0719 H   0  0  0  0  0  0  0  0  0  0  0  0
  146.9255  137.3955  163.6497 H   0  0  0  0  0  0  0  0  0  0  0  0
  147.0685  134.7100  163.8035 H   0  0  0  0  0  0  0  0  0  0  0  0
  146.9712  135.6839  154.3667 H   0  0  0  0  0  0  0  0  0  0  0  0
  146.0245  137.0813  154.8490 H   0  0  0  0  0  0  0  0  0  0  0  0
  146.3520  136.0223  151.9833 H   0  0  0  0  0  0  0  0  0  0  0  0
  144.9035  135.9339  152.9668 H   0  0  0  0  0  0  0  0  0  0  0  0
  147.0856  138.2093  151.1939 H   0  0  0  0  0  0  0  0  0  0  0  0
  146.1291  139.6114  151.6335 H   0  0  0  0  0  0  0  0  0  0  0  0
  146.7641  139.3869  154.0035 H   0  0  0  0  0  0  0  0  0  0  0  0
  148.2144  139.4923  153.0164 H   0  0  0  0  0  0  0  0  0  0  0  0
  148.2895  137.1070  153.0215 H   0  0  0  0  0  0  0  0  0  0  0  0
  1  2  1  0  0  0  0
  1 21  1  0  0  0  0
  1 22  1  0  0  0  0
  1 23  1  0  0  0  0
  2  3  1  0  0  0  0
  2  4  1  0  0  0  0
  2 24  1  0  0  0  0
  3 25  1  0  0  0  0
  3 26  1  0  0  0  0
  3 27  1  0  0  0  0
  4  5  1  0  0  0  0
  4 15  1  0  0  0  0
  4 28  1  0  0  0  0
  5  6  1  0  0  0  0
  5 29  1  0  0  0  0
  5 30  1  0  0  0  0
  6  7  1  0  0  0  0
  6 31  1  0  0  0  0
  7  8  2  0  0  0  0
  7  9  1  0  0  0  0
  9 10  1  0  0  0  0
  9 32  1  0  0  0  0
 10 14  1  0  0  0  0
 10 11  2  0  0  0  0
 11 12  1  0  0  0  0
 12 13  2  0  0  0  0
 12 33  1  0  0  0  0
 13 14  1  0  0  0  0
 13 34  1  0  0  0  0
 15 20  1  0  0  0  0
 15 16  1  0  0  0  0
 15 43  1  0  0  0  0
 16 17  1  0  0  0  0
 16 35  1  0  0  0  0
 16 36  1  0  0  0  0
 17 18  1  0  0  0  0
 17 37  1  0  0  0  0
 17 38  1  0  0  0  0
 18 19  1  0  0  0  0
 19 20  1  0  0  0  0
 19 39  1  0  0  0  0
 19 40  1  0  0  0  0
 20 41  1  0  0  0  0
 20 42  1  0  0  0  0
M  CHG  1  15   1
M  END
> <s_m_source_file>
AV-unprocessed.smi

> <i_m_source_file_index>
845

> <i_lp_mmshare_version>
43012

> <i_f3d_flags>
0

> <s_epik_input>
W0NIMl0xW0NIMl1PW0NIMl1bQ0gyXU4xW0NASF0oW0NIXShbQ0gzXSlbQ0gzXSlbQ0gyXVtOSF1DKD1PKVtOSF1jMm5bY0hdW2NIXXMy

> <s_epik_cmdline>
J2VwaWtfcHl0aG9uJywgJy1waCcsICc3LjAnLCAnLXRuJywgJzgnLCAnLW1hJywgJzIwMCcsICctbWV0YWxfYmluZGluZycsICctaW1hZScsICc8aW5maWxlLm1hZT4nLCAnLW9tYWUnLCAnPG91dGZpbGUubWFlPic=

> <r_lp_tautomer_probability>
0.999

> <r_epik_Ionization_Penalty>
0.398341

> <r_epik_Ionization_Penalty_Charging>
0.398119

> <r_epik_Ionization_Penalty_Neutral>
0.000222117

> <r_epik_State_Penalty>
0.397286

> <r_epik_Charging_Adjusted_Penalty>
0.795404

> <i_epik_Tot_Q>
1

> <i_epik_Tot_abs_Q>
1

> <r_epik_Metal_State_Penalty>
0.407542

> <b_epik_Metal_Only>
0

> <s_lp_Force_Field>
OPLS_2005

> <r_lp_Energy>
31.69

> <b_lp_Chiralities_Consistent>
1

> <s_lp_Variant>
AV-unprocessed.smi:845-2

> <Gold.Version>
5.8.1

> <Gold.Id.Protein>
6NUR|6NUR_protein|mol2

> <Gold.PLP.Fitness>
40.5174

> <Gold.PLP.PLP>
-31.9314

> <Gold.PLP.part.hbond>
-4.0000

> <Gold.PLP.part.metal>
0.0000

> <Gold.PLP.part.buried>
-2.5149

> <Gold.PLP.part.nonpolar>
-27.5021

> <Gold.PLP.part.repulsive>
1.1365

> <Gold.PLP.ligand.clash>
0.0000

> <Gold.PLP.ligand.torsion>
1.4865

> <Gold.PLP.Chemscore.Hbond>
3.7600

> <Gold.PLP.Chemscore.CHOScore>
0.0000

> <Gold.PLP.Chemscore.Metal>
0.0000

> <Gold.Chemscore.Hbonds>
donor molecule, donor type, donor heavy atom, donor atom, acceptor molecule, acceptor atom, score
      L1  H    15    43       P1  7948  2.00
      P1  H  6931  6943       L1    11  0.96
      P1  H  6934  6947       L1    11  0.78

> <Gold.PLP.Chemscore.Internal.Correction>
0.2790

> <Gold.Rescore>
     Score         DG    S(hbond)    S(metal)    S(lipo)     H(rot)  DE(clash)    DE(int)     intcor
     13.94     -16.64       2.13        0.00      73.99       1.80       0.18       2.52       ----

> <Gold.Chemscore.Fitness>
13.9382

> <Gold.Chemscore.DG>
-16.6402

> <Gold.Chemscore.ZeroCoef>
-5.4800

> <Gold.Chemscore.Hbond>
2.1328

> <Gold.Chemscore.Metal>
0.0000

> <Gold.Chemscore.Lipo>
73.9858

> <Gold.Chemscore.Internal_Hbond>
0.0000

> <Gold.Chemscore.DEClash>
0.1784

> <Gold.Chemscore.DEInternal>
2.5236

> <Gold.Chemscore.Rot>
1.8046

> <Gold.Chemscore.Internal.Correction>
   9.000000E+99

> <Gold.Chemscore.Hbonds>
donor molecule, donor type, donor heavy atom, donor atom, acceptor molecule, acceptor atom, score
      L1  H    15    43       P1  7948  0.98
      P1  H  6931  6943       L1    11  0.32
      P1  H  6934  6947       L1    11  0.75

> <Gold.Chemscore.Hbond.Weighted>
-7.1235

> <Gold.Chemscore.Metal.Weighted>
-0.0000

> <Gold.Chemscore.Lipo.Weighted>
-8.6563

> <Gold.Chemscore.Internal_Hbond.Weighted>
0.0000

> <Gold.Chemscore.DEClash.Weighted>
0.1784

> <Gold.Chemscore.DEInternal.Weighted>
2.5236

> <Gold.Chemscore.Rot.Weighted>
4.6197

> <Gold.Chemscore.Internal.Correction.Weighted>
   9.000000E+99

> <Gold.Protein.RotatedTorsions>
[ 6907 6896 6895 6894 ] final   27.54 input  -60.11 | X-H torsion
[ 7974 7965 7964 7962 ] final -175.68 input  175.53 | X-H torsion
[ 8008 7997 7996 7995 ] final  154.20 input   59.86 | X-H torsion
[ 10167 10162 10161 10158 ] final   17.33 input  -65.29 | X-H torsion
[ 10718 10713 10712 10709 ] final  -75.71 input   66.30 | X-H torsion
[ 10763 10752 10751 10750 ] final  175.81 input  -60.55 | X-H torsion
[ 11005 11000 10999 10996 ] final  132.00 input  -57.11 | X-H torsion

> <Gold.Protein.ActiveResidues>
 VAL166  LYS551  ARG553  GLY616  TRP617  ASP618  TYR619  PRO620  LYS621  CYS622 
 ASP623  PHE694  ASN695  SER759  ASP760  ASP761  ALA762  ILE779  LEU786  VAL792 
 PHE793  MET794  SER795  GLU796  ALA797  LYS798  CYS799  TRP800  GLU811  SER814 

> <Gold.Protein.RotatedAtoms>
  152.0038  134.9914  160.0565 H   0  0  0  0  0  0  0  0  0  0  0  0  # atno 6907 bound_to 6896
  152.1494  133.4508  159.4814 H   0  0  0  0  0  0  0  0  0  0  0  0  # atno 6908 bound_to 6896
  150.6874  134.2125  159.4408 H   0  0  0  0  0  0  0  0  0  0  0  0  # atno 6909 bound_to 6896
  144.7127  140.1284  143.6400 H   0  0  0  0  0  0  0  0  0  0  0  0  # atno 7974 bound_to 7965
  156.2543  140.1973  156.6609 H   0  0  0  0  0  0  0  0  0  0  0  0  # atno 8008 bound_to 7997
  154.6465  140.0577  156.9931 H   0  0  0  0  0  0  0  0  0  0  0  0  # atno 8009 bound_to 7997
  155.1483  140.3249  155.4439 H   0  0  0  0  0  0  0  0  0  0  0  0  # atno 8010 bound_to 7997
  140.5734  143.9118  150.6731 H   0  0  0  0  0  0  0  0  0  0  0  0  # atno 10167 bound_to 10162
  156.0198  130.4447  150.3084 H   0  0  0  0  0  0  0  0  0  0  0  0  # atno 10718 bound_to 10713
  154.4726  135.2771  155.1631 H   0  0  0  0  0  0  0  0  0  0  0  0  # atno 10763 bound_to 10752
  154.3374  135.6177  153.5583 H   0  0  0  0  0  0  0  0  0  0  0  0  # atno 10764 bound_to 10752
  152.9866  135.5780  154.5110 H   0  0  0  0  0  0  0  0  0  0  0  0  # atno 10765 bound_to 10752
  139.9764  134.9562  156.9519 H   0  0  0  0  0  0  0  0  0  0  0  0  # atno 11005 bound_to 11000
  145.9308  139.2605  143.1326 LP  0  0  0  0  0  0  0  0  0  0  0  0  # atno 17320 bound_to 7965
  145.9524  140.8898  143.0252 LP  0  0  0  0  0  0  0  0  0  0  0  0  # atno 17321 bound_to 7965
  140.2599  143.3531  152.1331 LP  0  0  0  0  0  0  0  0  0  0  0  0  # atno 17342 bound_to 10162
  139.5129  144.6925  151.5721 LP  0  0  0  0  0  0  0  0  0  0  0  0  # atno 17343 bound_to 10162
  157.1186  131.0240  151.3019 LP  0  0  0  0  0  0  0  0  0  0  0  0  # atno 17370 bound_to 10713
  157.4647  130.7673  149.7268 LP  0  0  0  0  0  0  0  0  0  0  0  0  # atno 17371 bound_to 10713
  140.5187  134.0929  155.7287 LP  0  0  0  0  0  0  0  0  0  0  0  0  # atno 17394 bound_to 11000
  141.1440  133.9088  157.2259 LP  0  0  0  0  0  0  0  0  0  0  0  0  # atno 17395 bound_to 11000

$$$$
