AV-unprocessed.smi:610|AV-procd|sdf|3053|dock4
  -GOLD-   2262023573D 1   1.00000     0.00000
 Structure written by MMmdl.
 39 40  0  0  0  0  0  0  0  0  3 V2000
  149.9996  134.3479  156.1968 C   0  0  0  0  0  0  0  0  0  0  0  0
  148.8744  134.8897  155.3055 C   0  0  2  0  0  0  0  0  0  0  0  0
  148.4782  133.8644  154.2216 C   0  0  0  0  0  0  0  0  0  0  0  0
  147.0604  133.9393  153.8508 N   0  0  0  0  0  0  0  0  0  0  0  0
  146.4423  134.9264  153.1264 C   0  0  0  0  0  0  0  0  0  0  0  0
  145.1214  134.5717  153.0295 C   0  0  0  0  0  0  0  0  0  0  0  0
  144.9870  133.3891  153.7066 N   0  3  0  0  0  0  0  0  0  0  0  0
  146.1657  133.0098  154.2110 C   0  0  0  0  0  0  0  0  0  0  0  0
  149.3154  136.1465  154.7014 N   0  0  0  0  0  0  0  0  0  0  0  0
  149.4647  137.3212  155.3379 C   0  0  0  0  0  0  0  0  0  0  0  0
  149.2457  137.4496  156.5428 O   0  0  0  0  0  0  0  0  0  0  0  0
  149.9481  138.5412  154.5178 C   0  0  0  0  0  0  0  0  0  0  0  0
  149.0154  138.7050  153.3875 N   0  3  0  0  0  0  0  0  0  0  0  0
  150.0833  139.8458  155.3305 C   0  0  0  0  0  0  0  0  0  0  0  0
  151.4325  139.7331  156.0528 C   0  0  0  0  0  0  0  0  0  0  0  0
  152.2900  138.7921  155.1918 C   0  0  0  0  0  0  0  0  0  0  0  0
  151.3951  138.3468  154.0257 C   0  0  0  0  0  0  0  0  0  0  0  0
  149.6979  133.4244  156.6920 H   0  0  0  0  0  0  0  0  0  0  0  0
  150.2654  135.0641  156.9751 H   0  0  0  0  0  0  0  0  0  0  0  0
  150.8991  134.1349  155.6180 H   0  0  0  0  0  0  0  0  0  0  0  0
  148.0136  135.0706  155.9518 H   0  0  0  0  0  0  0  0  0  0  0  0
  149.0844  133.9940  153.3233 H   0  0  0  0  0  0  0  0  0  0  0  0
  148.6584  132.8496  154.5792 H   0  0  0  0  0  0  0  0  0  0  0  0
  146.9759  135.7824  152.7386 H   0  0  0  0  0  0  0  0  0  0  0  0
  144.2889  135.0607  152.5446 H   0  0  0  0  0  0  0  0  0  0  0  0
  146.3562  132.1234  154.7897 H   0  0  0  0  0  0  0  0  0  0  0  0
  149.5211  136.1199  153.7128 H   0  0  0  0  0  0  0  0  0  0  0  0
  148.8385  137.8071  152.9604 H   0  0  0  0  0  0  0  0  0  0  0  0
  149.4176  139.3312  152.7046 H   0  0  0  0  0  0  0  0  0  0  0  0
  150.1233  140.6959  154.6470 H   0  0  0  0  0  0  0  0  0  0  0  0
  149.2577  140.0454  156.0146 H   0  0  0  0  0  0  0  0  0  0  0  0
  151.9000  140.7095  156.1839 H   0  0  0  0  0  0  0  0  0  0  0  0
  151.2939  139.3020  157.0449 H   0  0  0  0  0  0  0  0  0  0  0  0
  153.1939  139.2835  154.8299 H   0  0  0  0  0  0  0  0  0  0  0  0
  152.6029  137.9296  155.7810 H   0  0  0  0  0  0  0  0  0  0  0  0
  151.6238  137.3303  153.7027 H   0  0  0  0  0  0  0  0  0  0  0  0
  151.5826  138.9953  153.1680 H   0  0  0  0  0  0  0  0  0  0  0  0
  148.1469  139.0942  153.7265 H   0  0  0  0  0  0  0  0  0  0  0  0
  144.1200  132.8781  153.8172 H   0  0  0  0  0  0  0  0  0  0  0  0
  1  2  1  0  0  0  0
  1 18  1  0  0  0  0
  1 19  1  0  0  0  0
  1 20  1  0  0  0  0
  2  3  1  0  0  0  0
  2  9  1  0  0  0  0
  2 21  1  0  0  0  0
  3  4  1  0  0  0  0
  3 22  1  0  0  0  0
  3 23  1  0  0  0  0
  4  8  1  0  0  0  0
  4  5  1  0  0  0  0
  5  6  2  0  0  0  0
  5 24  1  0  0  0  0
  6  7  1  0  0  0  0
  6 25  1  0  0  0  0
  7  8  2  0  0  0  0
  7 39  1  0  0  0  0
  8 26  1  0  0  0  0
  9 10  1  0  0  0  0
  9 27  1  0  0  0  0
 10 11  2  0  0  0  0
 10 12  1  0  0  0  0
 12 17  1  0  0  0  0
 12 13  1  0  0  0  0
 12 14  1  0  0  0  0
 13 28  1  0  0  0  0
 13 29  1  0  0  0  0
 13 38  1  0  0  0  0
 14 15  1  0  0  0  0
 14 30  1  0  0  0  0
 14 31  1  0  0  0  0
 15 16  1  0  0  0  0
 15 32  1  0  0  0  0
 15 33  1  0  0  0  0
 16 17  1  0  0  0  0
 16 34  1  0  0  0  0
 16 35  1  0  0  0  0
 17 36  1  0  0  0  0
 17 37  1  0  0  0  0
M  CHG  1   7   1
M  CHG  1  13   1
M  END
> <s_m_source_file>
AV-unprocessed.smi

> <i_m_source_file_index>
610

> <i_lp_mmshare_version>
43012

> <i_f3d_flags>
0

> <s_epik_input>
W2NIXTFuW2NIXVtjSF1uMVtDSDJdW0NAQEhdKFtDSDNdKVtOSF1DKD1PKUMyKFtOSDJdKVtDSDJdW0NIMl1bQ0gyXVtDSDJdMg==

> <s_epik_cmdline>
J2VwaWtfcHl0aG9uJywgJy1waCcsICc3LjAnLCAnLXRuJywgJzgnLCAnLW1hJywgJzIwMCcsICctbWV0YWxfYmluZGluZycsICctaW1hZScsICc8aW5maWxlLm1hZT4nLCAnLW9tYWUnLCAnPG91dGZpbGUubWFlPic=

> <r_lp_tautomer_probability>
1

> <r_epik_Ionization_Penalty>
0.349719

> <r_epik_Ionization_Penalty_Charging>
0.0753376

> <r_epik_Ionization_Penalty_Neutral>
0.274381

> <r_epik_State_Penalty>
0.326418

> <r_epik_Charging_Adjusted_Penalty>
0.401755

> <i_epik_Tot_Q>
2

> <i_epik_Tot_abs_Q>
2

> <r_epik_Metal_State_Penalty>
0.608513

> <b_epik_Metal_Only>
0

> <s_lp_Force_Field>
OPLS_2005

> <r_lp_Energy>
30.886

> <b_lp_Chiralities_Consistent>
1

> <s_lp_Variant>
AV-unprocessed.smi:610-1

> <Gold.Version>
5.8.1

> <Gold.Id.Protein>
6NUR|6NUR_protein|mol2

> <Gold.PLP.Fitness>
45.5709

> <Gold.PLP.PLP>
-25.9743

> <Gold.PLP.part.hbond>
-4.0000

> <Gold.PLP.part.metal>
0.0000

> <Gold.PLP.part.buried>
-3.8865

> <Gold.PLP.part.nonpolar>
-18.6852

> <Gold.PLP.part.repulsive>
0.1061

> <Gold.PLP.ligand.clash>
0.0000

> <Gold.PLP.ligand.torsion>
0.7466

> <Gold.PLP.Chemscore.Hbond>
6.0000

> <Gold.PLP.Chemscore.CHOScore>
1.0000

> <Gold.PLP.Chemscore.Metal>
0.0000

> <Gold.Chemscore.Hbonds>
donor molecule, donor type, donor heavy atom, donor atom, acceptor molecule, acceptor atom, score
      L1  H     7    39       P1 10957  1.82
      L1  H     9    27       P1  7948  1.00
      L1  H    13    28       P1  7948  2.00
      L1  H    13    29       P1  7957  1.00
      L1  C     5    24       P1  7948  1.00

> <Gold.PLP.Chemscore.Internal.Correction>
0.0897

> <Gold.Rescore>
     Score         DG    S(hbond)    S(metal)    S(lipo)     H(rot)  DE(clash)    DE(int)     intcor
     17.30     -19.25       3.71        0.00      56.85       2.06       1.09       0.86       ----

> <Gold.Chemscore.Fitness>
17.3002

> <Gold.Chemscore.DG>
-19.2489

> <Gold.Chemscore.ZeroCoef>
-5.4800

> <Gold.Chemscore.Hbond>
3.7133

> <Gold.Chemscore.Metal>
0.0000

> <Gold.Chemscore.Lipo>
56.8488

> <Gold.Chemscore.Internal_Hbond>
0.0000

> <Gold.Chemscore.DEClash>
1.0919

> <Gold.Chemscore.DEInternal>
0.8568

> <Gold.Chemscore.Rot>
2.0644

> <Gold.Chemscore.Internal.Correction>
   9.000000E+99

> <Gold.Chemscore.Hbonds>
donor molecule, donor type, donor heavy atom, donor atom, acceptor molecule, acceptor atom, score
      L1  H     7    39       P1 10957  0.77
      L1  H     9    27       P1  7948  0.53
      L1  H    13    28       P1  7948  1.00
      L1  H    13    29       P1  7957  0.98

> <Gold.Chemscore.Hbond.Weighted>
-12.4024

> <Gold.Chemscore.Metal.Weighted>
-0.0000

> <Gold.Chemscore.Lipo.Weighted>
-6.6513

> <Gold.Chemscore.Internal_Hbond.Weighted>
0.0000

> <Gold.Chemscore.DEClash.Weighted>
1.0919

> <Gold.Chemscore.DEInternal.Weighted>
0.8568

> <Gold.Chemscore.Rot.Weighted>
5.2848

> <Gold.Chemscore.Internal.Correction.Weighted>
   9.000000E+99

> <Gold.Protein.RotatedTorsions>
[ 6907 6896 6895 6894 ] final   15.81 input  -60.11 | X-H torsion
[ 7974 7965 7964 7962 ] final  143.26 input  175.53 | X-H torsion
[ 8008 7997 7996 7995 ] final   92.37 input   59.86 | X-H torsion
[ 10167 10162 10161 10158 ] final  -24.34 input  -65.29 | X-H torsion
[ 10718 10713 10712 10709 ] final   11.82 input   66.30 | X-H torsion
[ 10763 10752 10751 10750 ] final -114.64 input  -60.55 | X-H torsion
[ 11005 11000 10999 10996 ] final  132.11 input  -57.11 | X-H torsion

> <Gold.Protein.ActiveResidues>
 VAL166  LYS551  ARG553  GLY616  TRP617  ASP618  TYR619  PRO620  LYS621  CYS622 
 ASP623  PHE694  ASN695  SER759  ASP760  ASP761  ALA762  ILE779  LEU786  VAL792 
 PHE793  MET794  SER795  GLU796  ALA797  LYS798  CYS799  TRP800  GLU811  SER814 

> <Gold.Protein.RotatedAtoms>
  151.8239  135.0643  160.0428 H   0  0  0  0  0  0  0  0  0  0  0  0  # atno 6907 bound_to 6896
  152.2930  133.5576  159.5578 H   0  0  0  0  0  0  0  0  0  0  0  0  # atno 6908 bound_to 6896
  150.7238  134.0317  159.3778 H   0  0  0  0  0  0  0  0  0  0  0  0  # atno 6909 bound_to 6896
  144.8936  139.5522  143.5787 H   0  0  0  0  0  0  0  0  0  0  0  0  # atno 7974 bound_to 7965
  156.0346  140.3326  155.7177 H   0  0  0  0  0  0  0  0  0  0  0  0  # atno 8008 bound_to 7997
  155.5834  140.0639  157.2795 H   0  0  0  0  0  0  0  0  0  0  0  0  # atno 8009 bound_to 7997
  154.4367  140.1840  156.0988 H   0  0  0  0  0  0  0  0  0  0  0  0  # atno 8010 bound_to 7997
  140.7288  143.4362  151.0726 H   0  0  0  0  0  0  0  0  0  0  0  0  # atno 10167 bound_to 10162
  157.0011  130.6080  149.5696 H   0  0  0  0  0  0  0  0  0  0  0  0  # atno 10718 bound_to 10713
  154.8448  135.4410  154.1537 H   0  0  0  0  0  0  0  0  0  0  0  0  # atno 10763 bound_to 10752
  153.2691  135.6943  153.7505 H   0  0  0  0  0  0  0  0  0  0  0  0  # atno 10764 bound_to 10752
  153.6752  135.3412  155.3139 H   0  0  0  0  0  0  0  0  0  0  0  0  # atno 10765 bound_to 10752
  139.9770  134.9560  156.9535 H   0  0  0  0  0  0  0  0  0  0  0  0  # atno 11005 bound_to 11000
  146.3068  139.7608  142.9050 LP  0  0  0  0  0  0  0  0  0  0  0  0  # atno 17320 bound_to 7965
  145.3739  141.0347  143.3215 LP  0  0  0  0  0  0  0  0  0  0  0  0  # atno 17321 bound_to 7965
  139.8024  143.8064  152.3164 LP  0  0  0  0  0  0  0  0  0  0  0  0  # atno 17342 bound_to 10162
  139.8086  144.7345  150.9728 LP  0  0  0  0  0  0  0  0  0  0  0  0  # atno 17343 bound_to 10162
  156.0171  130.5265  150.8166 LP  0  0  0  0  0  0  0  0  0  0  0  0  # atno 17370 bound_to 10713
  157.5389  131.0940  150.9854 LP  0  0  0  0  0  0  0  0  0  0  0  0  # atno 17371 bound_to 10713
  140.5173  134.0942  155.7284 LP  0  0  0  0  0  0  0  0  0  0  0  0  # atno 17394 bound_to 11000
  141.1446  133.9077  157.2245 LP  0  0  0  0  0  0  0  0  0  0  0  0  # atno 17395 bound_to 11000

$$$$
