#       Name:                AV-unprocessed.smi:356
#       Creating user name   scv26
#       Creation time:       Thu Mar 26 22:34:44 2020


#       File generated by GOLD software.
#

@<TRIPOS>MOLECULE
AV-unprocessed.smi:356
    47    49     1
SMALL
NO_CHARGES


@<TRIPOS>ATOM
      1 ****        -0.6286   1.8100   2.2188 C.3            1 S1                 0.0000
      2 ****        -0.8877   2.2862   0.8288 C.2            1 S1                 0.0000
      3 ****        -1.1988   3.5609   0.4613 N.pl3          1 S1                 1.0000
      4 ****        -1.3711   3.6242  -0.9222 C.ar           1 S1                 0.0000
      5 ****        -1.6907   4.6950  -1.7512 C.ar           1 S1                 0.0000
      6 ****        -1.7899   4.4195  -3.1307 C.ar           1 S1                 0.0000
      7 ****        -1.5747   3.1214  -3.6374 C.ar           1 S1                 0.0000
      8 ****        -1.2522   2.0434  -2.7868 C.ar           1 S1                 0.0000
      9 ****        -1.1558   2.3236  -1.4237 C.ar           1 S1                 0.0000
     10 ****        -0.8602   1.5324  -0.3069 N.pl3          1 S1                 0.0000
     11 ****        -0.5755   0.0988  -0.4744 C.3            1 S1                 0.0000
     12 ****         0.9353  -0.1992  -0.5643 C.3            1 S1                 0.0000
     13 ****         1.4618   0.3848  -1.7382 O.3            1 S1                 0.0000
     14 ****         1.2440  -1.7093  -0.6075 C.3            1 S1                 0.0000
     15 ****         0.8525  -2.4661   0.5826 N.3            1 S1                 0.0000
     16 ****         1.6336  -2.1046   1.7641 C.3            1 S1                 0.0000
     17 ****         1.2287  -2.9318   2.9967 C.3            1 S1                 0.0000
     18 ****         1.3587  -4.3195   2.7071 O.3            1 S1                 0.0000
     19 ****         0.5738  -4.7221   1.5897 C.3            1 S1                 0.0000
     20 ****         0.9794  -3.9017   0.3530 C.3            1 S1                 0.0000
     21 ****        -0.6334   2.6462   2.9182 H              1 S1                 0.0000
     22 ****         0.3419   1.3170   2.2751 H              1 S1                 0.0000
     23 ****        -1.3977   1.0991   2.5212 H              1 S1                 0.0000
     24 ****        -1.8556   5.6903  -1.3652 H              1 S1                 0.0000
     25 ****        -2.0352   5.2200  -3.8139 H              1 S1                 0.0000
     26 ****        -1.6579   2.9486  -4.7005 H              1 S1                 0.0000
     27 ****        -1.0866   1.0547  -3.1877 H              1 S1                 0.0000
     28 ****        -1.0048  -0.4091   0.3898 H              1 S1                 0.0000
     29 ****        -1.1115  -0.2828  -1.3434 H              1 S1                 0.0000
     30 ****         1.4528   0.2673   0.2731 H              1 S1                 0.0000
     31 ****         1.0666  -0.0364  -2.4860 H              1 S1                 0.0000
     32 ****         0.7372  -2.1301  -1.4773 H              1 S1                 0.0000
     33 ****         2.3108  -1.8535  -0.7876 H              1 S1                 0.0000
     34 ****         2.6963  -2.2514   1.5646 H              1 S1                 0.0000
     35 ****         1.5011  -1.0497   1.9997 H              1 S1                 0.0000
     36 ****         1.8658  -2.6834   3.8456 H              1 S1                 0.0000
     37 ****         0.2019  -2.7089   3.2904 H              1 S1                 0.0000
     38 ****         0.7318  -5.7853   1.4083 H              1 S1                 0.0000
     39 ****        -0.4860  -4.5884   1.8123 H              1 S1                 0.0000
     40 ****         0.3578  -4.1977  -0.4927 H              1 S1                 0.0000
     41 ****         2.0085  -4.1438   0.0832 H              1 S1                 0.0000
     42 ****        -1.2861   4.3309   1.1121 H              1 S1                 0.0000
     43 ****         2.4532   0.2562  -1.7635 LP             1 S1                 0.0000
     44 ****         1.2521   1.3625  -1.7518 LP             1 S1                 0.0000
     45 ****        -0.1035  -2.2301   0.7570 LP             1 S1                 0.0000
     46 ****         1.0673  -4.8424   3.5082 LP             1 S1                 0.0000
     47 ****         2.3193  -4.5171   2.5115 LP             1 S1                 0.0000
@<TRIPOS>BOND
    1    1    2 1     
    2    1   21 1     
    3    1   22 1     
    4    1   23 1     
    5    2   10 1     
    6    2    3 2     
    7    3    4 1     
    8    3   42 1     
    9    4    9 ar    
   10    4    5 ar    
   11    5    6 ar    
   12    5   24 1     
   13    6    7 ar    
   14    6   25 1     
   15    7    8 ar    
   16    7   26 1     
   17    8    9 ar    
   18    8   27 1     
   19    9   10 1     
   20   10   11 1     
   21   11   12 1     
   22   11   28 1     
   23   11   29 1     
   24   12   13 1     
   25   12   14 1     
   26   12   30 1     
   27   13   31 1     
   28   14   15 1     
   29   14   32 1     
   30   14   33 1     
   31   15   20 1     
   32   15   16 1     
   33   16   17 1     
   34   16   34 1     
   35   16   35 1     
   36   17   18 1     
   37   17   36 1     
   38   17   37 1     
   39   18   19 1     
   40   19   20 1     
   41   19   38 1     
   42   19   39 1     
   43   20   40 1     
   44   20   41 1     
   45   13   43 1     
   46   13   44 1     
   47   15   45 1     
   48   18   46 1     
   49   18   47 1     
@<TRIPOS>SUBSTRUCTURE
      1 S1             1
@<TRIPOS>SET
LONE_PAIRS      STATIC     ATOMS    <user>   **** ""
5 43 44 45 46 47
DONOR_HYDROGENS      STATIC     ATOMS    <user>   **** ""
2 42 31
ATOM$BLUE        STATIC     ATOMS    COLORGROUP SYSTEM
5 43 44 45 46 47
ATOM$RED        STATIC     ATOMS    COLORGROUP SYSTEM
2 42 31
