AV-unprocessed.smi:3085|AV-procd|sdf|11763|dock4
  -GOLD-   2272017143D 1   1.00000     0.00000
 Structure written by MMmdl.
 26 27  0  0  0  0  0  0  0  0  2 V2000
  153.3937  141.9799  161.0611 C   0  0  0  0  0  0  0  0  0  0  0  0
  154.1244  140.8979  160.2598 C   0  0  0  0  0  0  0  0  0  0  0  0
  153.3188  140.4335  159.0666 C   0  0  0  0  0  0  0  0  0  0  0  0
  152.1735  140.9626  158.6485 N   0  0  0  0  0  0  0  0  0  0  0  0
  151.8411  140.2848  157.5396 C   0  0  0  0  0  0  0  0  0  0  0  0
  150.5823  140.5149  156.7270 C   0  0  1  0  0  0  0  0  0  0  0  0
  150.4083  142.0078  156.3809 C   0  0  0  0  0  0  0  0  0  0  0  0
  149.1942  142.2167  155.5918 N   0  0  0  0  0  0  0  0  0  0  0  0
  149.1881  141.3740  154.3981 C   0  0  0  0  0  0  0  0  0  0  0  0
  149.3878  139.8993  154.7865 C   0  0  0  0  0  0  0  0  0  0  0  0
  150.6013  139.7612  155.5161 O   0  0  0  0  0  0  0  0  0  0  0  0
  152.7536  139.3378  157.2723 N   0  0  0  0  0  0  0  0  0  0  0  0
  153.6651  139.4508  158.2167 N   0  5  0  0  0  0  0  0  0  0  0  0
  153.9898  142.3014  161.9150 H   0  0  0  0  0  0  0  0  0  0  0  0
  152.4396  141.6104  161.4381 H   0  0  0  0  0  0  0  0  0  0  0  0
  153.1936  142.8561  160.4438 H   0  0  0  0  0  0  0  0  0  0  0  0
  155.0850  141.2769  159.9103 H   0  0  0  0  0  0  0  0  0  0  0  0
  154.3372  140.0398  160.8980 H   0  0  0  0  0  0  0  0  0  0  0  0
  149.7407  140.1787  157.3357 H   0  0  0  0  0  0  0  0  0  0  0  0
  150.3634  142.6011  157.2945 H   0  0  0  0  0  0  0  0  0  0  0  0
  151.2777  142.3589  155.8233 H   0  0  0  0  0  0  0  0  0  0  0  0
  149.1316  143.1922  155.3198 H   0  0  0  0  0  0  0  0  0  0  0  0
  148.2494  141.4961  153.8576 H   0  0  0  0  0  0  0  0  0  0  0  0
  149.9845  141.6849  153.7207 H   0  0  0  0  0  0  0  0  0  0  0  0
  148.5472  139.5307  155.3766 H   0  0  0  0  0  0  0  0  0  0  0  0
  149.4435  139.2802  153.8909 H   0  0  0  0  0  0  0  0  0  0  0  0
  1  2  1  0  0  0  0
  1 14  1  0  0  0  0
  1 15  1  0  0  0  0
  1 16  1  0  0  0  0
  2  3  1  0  0  0  0
  2 17  1  0  0  0  0
  2 18  1  0  0  0  0
  3 13  1  0  0  0  0
  3  4  2  0  0  0  0
  4  5  1  0  0  0  0
  5  6  1  0  0  0  0
  5 12  2  0  0  0  0
  6 11  1  0  0  0  0
  6  7  1  0  0  0  0
  6 19  1  0  0  0  0
  7  8  1  0  0  0  0
  7 20  1  0  0  0  0
  7 21  1  0  0  0  0
  8  9  1  0  0  0  0
  8 22  1  0  0  0  0
  9 10  1  0  0  0  0
  9 23  1  0  0  0  0
  9 24  1  0  0  0  0
 10 11  1  0  0  0  0
 10 25  1  0  0  0  0
 10 26  1  0  0  0  0
 12 13  1  0  0  0  0
M  CHG  1  13  -1
M  END
> <s_m_source_file>
AV-unprocessed.smi

> <i_m_source_file_index>
3085

> <i_lp_mmshare_version>
43012

> <i_f3d_flags>
0

> <s_epik_input>
W0NIM11bQ0gyXWMxbmMobltuSF0xKVtDQEBIXTJbQ0gyXVtOSF1bQ0gyXVtDSDJdTzI=

> <s_epik_cmdline>
J2VwaWtfcHl0aG9uJywgJy1waCcsICc3LjAnLCAnLXRuJywgJzgnLCAnLW1hJywgJzIwMCcsICctbWV0YWxfYmluZGluZycsICctaW1hZScsICc8aW5maWxlLm1hZT4nLCAnLW9tYWUnLCAnPG91dGZpbGUubWFlPic=

> <r_lp_tautomer_probability>
0.948284

> <r_epik_Ionization_Penalty>
17.858

> <r_epik_Ionization_Penalty_Charging>
16.2847

> <r_epik_Ionization_Penalty_Neutral>
1.5733

> <r_epik_State_Penalty>
7.01418

> <r_epik_Charging_Adjusted_Penalty>
23.2989

> <i_epik_Tot_Q>
-1

> <i_epik_Tot_abs_Q>
1

> <r_epik_Metal_State_Penalty>
3.17281

> <b_epik_Metal_Only>
1

> <s_lp_Force_Field>
OPLS_2005

> <r_lp_Energy>
10.7333

> <b_lp_Chiralities_Consistent>
1

> <s_lp_Variant>
AV-unprocessed.smi:3085-14

> <Gold.Version>
5.8.1

> <Gold.Id.Protein>
6NUR|6NUR_protein|mol2

> <Gold.PLP.Fitness>
32.1985

> <Gold.PLP.PLP>
-23.9239

> <Gold.PLP.part.hbond>
-3.0000

> <Gold.PLP.part.metal>
0.0000

> <Gold.PLP.part.buried>
-1.2751

> <Gold.PLP.part.nonpolar>
-18.5580

> <Gold.PLP.part.repulsive>
0.0250

> <Gold.PLP.ligand.clash>
0.0000

> <Gold.PLP.ligand.torsion>
0.2013

> <Gold.PLP.Chemscore.Hbond>
2.8880

> <Gold.PLP.Chemscore.CHOScore>
0.0000

> <Gold.PLP.Chemscore.Metal>
0.0000

> <Gold.Chemscore.Hbonds>
donor molecule, donor type, donor heavy atom, donor atom, acceptor molecule, acceptor atom, score
      L1  H     8    22       P1  8028  1.00
      P1  H  7997  8010       L1    13  1.86

> <Gold.PLP.Chemscore.Internal.Correction>
0.0132

> <Gold.Rescore>
     Score         DG    S(hbond)    S(metal)    S(lipo)     H(rot)  DE(clash)    DE(int)     intcor
     11.69     -11.87       1.21        0.00      47.79       1.26       0.03       0.15       ----

> <Gold.Chemscore.Fitness>
11.6910

> <Gold.Chemscore.DG>
-11.8728

> <Gold.Chemscore.ZeroCoef>
-5.4800

> <Gold.Chemscore.Hbond>
1.2079

> <Gold.Chemscore.Metal>
0.0000

> <Gold.Chemscore.Lipo>
47.7928

> <Gold.Chemscore.Internal_Hbond>
0.0000

> <Gold.Chemscore.DEClash>
0.0324

> <Gold.Chemscore.DEInternal>
0.1494

> <Gold.Chemscore.Rot>
1.2630

> <Gold.Chemscore.Internal.Correction>
   9.000000E+99

> <Gold.Chemscore.Hbonds>
donor molecule, donor type, donor heavy atom, donor atom, acceptor molecule, acceptor atom, score
      L1  H     8    22       P1  8028  0.94
      P1  H  7997  8010       L1    13  0.15

> <Gold.Chemscore.Hbond.Weighted>
-4.0343

> <Gold.Chemscore.Metal.Weighted>
-0.0000

> <Gold.Chemscore.Lipo.Weighted>
-5.5918

> <Gold.Chemscore.Internal_Hbond.Weighted>
0.0000

> <Gold.Chemscore.DEClash.Weighted>
0.0324

> <Gold.Chemscore.DEInternal.Weighted>
0.1494

> <Gold.Chemscore.Rot.Weighted>
3.2333

> <Gold.Chemscore.Internal.Correction.Weighted>
   9.000000E+99

> <Gold.Protein.RotatedTorsions>
[ 6907 6896 6895 6894 ] final  -58.38 input  -60.11 | X-H torsion
[ 7974 7965 7964 7962 ] final  110.33 input  175.53 | X-H torsion
[ 8008 7997 7996 7995 ] final    5.65 input   59.86 | X-H torsion
[ 10167 10162 10161 10158 ] final -142.71 input  -65.29 | X-H torsion
[ 10718 10713 10712 10709 ] final   10.82 input   66.30 | X-H torsion
[ 10763 10752 10751 10750 ] final   61.38 input  -60.55 | X-H torsion
[ 11005 11000 10999 10996 ] final -160.28 input  -57.11 | X-H torsion

> <Gold.Protein.ActiveResidues>
 VAL166  LYS551  ARG553  GLY616  TRP617  ASP618  TYR619  PRO620  LYS621  CYS622 
 ASP623  PHE694  ASN695  SER759  ASP760  ASP761  ALA762  ILE779  LEU786  VAL792 
 PHE793  MET794  SER795  GLU796  ALA797  LYS798  CYS799  TRP800  GLU811  SER814 

> <Gold.Protein.RotatedAtoms>
  150.8011  134.7105  159.6600 H   0  0  0  0  0  0  0  0  0  0  0  0  # atno 6907 bound_to 6896
  152.4128  134.6091  160.0030 H   0  0  0  0  0  0  0  0  0  0  0  0  # atno 6908 bound_to 6896
  151.6329  133.3294  159.3149 H   0  0  0  0  0  0  0  0  0  0  0  0  # atno 6909 bound_to 6896
  145.2564  139.2719  143.4040 H   0  0  0  0  0  0  0  0  0  0  0  0  # atno 7974 bound_to 7965
  154.7311  140.2730  155.6455 H   0  0  0  0  0  0  0  0  0  0  0  0  # atno 8008 bound_to 7997
  156.2850  140.2715  156.1936 H   0  0  0  0  0  0  0  0  0  0  0  0  # atno 8009 bound_to 7997
  155.0381  140.0371  157.2489 H   0  0  0  0  0  0  0  0  0  0  0  0  # atno 8010 bound_to 7997
  139.8062  143.7765  152.2661 H   0  0  0  0  0  0  0  0  0  0  0  0  # atno 10167 bound_to 10162
  156.9865  130.6026  149.5681 H   0  0  0  0  0  0  0  0  0  0  0  0  # atno 10718 bound_to 10713
  152.9949  135.5503  154.6024 H   0  0  0  0  0  0  0  0  0  0  0  0  # atno 10763 bound_to 10752
  154.5362  135.2817  155.1138 H   0  0  0  0  0  0  0  0  0  0  0  0  # atno 10764 bound_to 10752
  154.2433  135.6412  153.5267 H   0  0  0  0  0  0  0  0  0  0  0  0  # atno 10765 bound_to 10752
  140.6332  134.4629  157.5230 H   0  0  0  0  0  0  0  0  0  0  0  0  # atno 11005 bound_to 11000
  146.3288  140.2969  142.8618 LP  0  0  0  0  0  0  0  0  0  0  0  0  # atno 17320 bound_to 7965
  144.9457  140.8126  143.5603 LP  0  0  0  0  0  0  0  0  0  0  0  0  # atno 17321 bound_to 7965
  139.7900  144.7414  150.9969 LP  0  0  0  0  0  0  0  0  0  0  0  0  # atno 17342 bound_to 10162
  140.7819  143.4452  151.0493 LP  0  0  0  0  0  0  0  0  0  0  0  0  # atno 17343 bound_to 10162
  156.0224  130.5318  150.8312 LP  0  0  0  0  0  0  0  0  0  0  0  0  # atno 17370 bound_to 10713
  157.5489  131.0943  150.9723 LP  0  0  0  0  0  0  0  0  0  0  0  0  # atno 17371 bound_to 10713
  139.9108  134.8349  156.1536 LP  0  0  0  0  0  0  0  0  0  0  0  0  # atno 17394 bound_to 11000
  141.0660  133.6819  156.2046 LP  0  0  0  0  0  0  0  0  0  0  0  0  # atno 17395 bound_to 11000

$$$$
