AV-unprocessed.smi:2721|AV-procd|sdf|10502|dock3
  -GOLD-   2272014543D 1   1.00000     0.00000
 Structure written by MMmdl.
 29 30  0  0  0  0  0  0  0  0  2 V2000
  139.6771  137.2476  154.1757 C   0  0  0  0  0  0  0  0  0  0  0  0
  140.7604  136.3444  153.8519 N   0  0  0  0  0  0  0  0  0  0  0  0
  142.0852  136.6386  153.6158 C   0  0  0  0  0  0  0  0  0  0  0  0
  142.7338  135.4618  153.3515 C   0  0  0  0  0  0  0  0  0  0  0  0
  144.1910  135.1731  153.0428 C   0  0  1  0  0  0  0  0  0  0  0  0
  144.4686  133.7798  152.8806 O   0  0  0  0  0  0  0  0  0  0  0  0
  144.0192  133.1856  151.6640 C   0  0  0  0  0  0  0  0  0  0  0  0
  144.6362  133.9007  150.4525 C   0  0  0  0  0  0  0  0  0  0  0  0
  144.3358  135.4021  150.4950 C   0  0  0  0  0  0  0  0  0  0  0  0
  144.7734  135.9746  151.8509 C   0  0  1  0  0  0  0  0  0  0  0  0
  144.4744  137.4152  151.9544 N   0  3  0  0  0  0  0  0  0  0  0  0
  141.6916  134.4951  153.4551 C   0  0  0  0  0  0  0  0  0  0  0  0
  140.5175  135.0229  153.7562 N   0  0  0  0  0  0  0  0  0  0  0  0
  144.7750  135.4624  153.9176 H   0  0  0  0  0  0  0  0  0  0  0  0
  145.8595  135.8833  151.8984 H   0  0  0  0  0  0  0  0  0  0  0  0
  140.0298  138.2791  154.1525 H   0  0  0  0  0  0  0  0  0  0  0  0
  139.2974  137.0247  155.1731 H   0  0  0  0  0  0  0  0  0  0  0  0
  138.8702  137.1331  153.4509 H   0  0  0  0  0  0  0  0  0  0  0  0
  142.4445  137.6558  153.6582 H   0  0  0  0  0  0  0  0  0  0  0  0
  144.3188  132.1375  151.6638 H   0  0  0  0  0  0  0  0  0  0  0  0
  142.9320  133.1893  151.6083 H   0  0  0  0  0  0  0  0  0  0  0  0
  145.7159  133.7450  150.4523 H   0  0  0  0  0  0  0  0  0  0  0  0
  144.2589  133.4668  149.5260 H   0  0  0  0  0  0  0  0  0  0  0  0
  144.8617  135.9062  149.6833 H   0  0  0  0  0  0  0  0  0  0  0  0
  143.2741  135.5755  150.3243 H   0  0  0  0  0  0  0  0  0  0  0  0
  144.3949  137.8102  151.0281 H   0  0  0  0  0  0  0  0  0  0  0  0
  145.2173  137.8799  152.4568 H   0  0  0  0  0  0  0  0  0  0  0  0
  141.7567  133.4248  153.3255 H   0  0  0  0  0  0  0  0  0  0  0  0
  143.6029  137.5438  152.4484 H   0  0  0  0  0  0  0  0  0  0  0  0
  1  2  1  0  0  0  0
  1 16  1  0  0  0  0
  1 17  1  0  0  0  0
  1 18  1  0  0  0  0
  2 13  1  0  0  0  0
  2  3  1  0  0  0  0
  3  4  2  0  0  0  0
  3 19  1  0  0  0  0
  4  5  1  0  0  0  0
  4 12  1  0  0  0  0
  5 14  1  0  0  0  0
  5 10  1  0  0  0  0
  5  6  1  0  0  0  0
  6  7  1  0  0  0  0
  7  8  1  0  0  0  0
  7 20  1  0  0  0  0
  7 21  1  0  0  0  0
  8  9  1  0  0  0  0
  8 22  1  0  0  0  0
  8 23  1  0  0  0  0
  9 10  1  0  0  0  0
  9 24  1  0  0  0  0
  9 25  1  0  0  0  0
 10 15  1  0  0  0  0
 10 11  1  0  0  0  0
 11 26  1  0  0  0  0
 11 27  1  0  0  0  0
 11 29  1  0  0  0  0
 12 13  2  0  0  0  0
 12 28  1  0  0  0  0
M  CHG  1  11   1
M  END
> <s_m_source_file>
AV-unprocessed.smi

> <i_m_source_file_index>
2721

> <i_lp_mmshare_version>
43012

> <i_f3d_flags>
0

> <s_epik_input>
W0NIM11uMVtjSF1jKFtjSF1uMSlbQ0BIXTJPW0NIMl1bQ0gyXVtDSDJdW0NAQEhdMltOSDJd

> <s_epik_cmdline>
J2VwaWtfcHl0aG9uJywgJy1waCcsICc3LjAnLCAnLXRuJywgJzgnLCAnLW1hJywgJzIwMCcsICctbWV0YWxfYmluZGluZycsICctaW1hZScsICc8aW5maWxlLm1hZT4nLCAnLW9tYWUnLCAnPG91dGZpbGUubWFlPic=

> <r_lp_tautomer_probability>
1

> <r_epik_Ionization_Penalty>
0.0061467

> <r_epik_Ionization_Penalty_Charging>
0.00611941

> <r_epik_Ionization_Penalty_Neutral>
2.72888e-05

> <r_epik_State_Penalty>
0.00451057

> <r_epik_Charging_Adjusted_Penalty>
0.01063

> <i_epik_Tot_Q>
1

> <i_epik_Tot_abs_Q>
1

> <r_epik_Metal_State_Penalty>
-0

> <b_epik_Metal_Only>
0

> <s_lp_Force_Field>
OPLS_2005

> <r_lp_Energy>
14.6487

> <b_lp_Chiralities_Consistent>
1

> <s_lp_Variant>
AV-unprocessed.smi:2721-3

> <Gold.Version>
5.8.1

> <Gold.Id.Protein>
6NUR|6NUR_protein|mol2

> <Gold.PLP.Fitness>
34.7501

> <Gold.PLP.PLP>
-26.0834

> <Gold.PLP.part.hbond>
-3.5125

> <Gold.PLP.part.metal>
0.0000

> <Gold.PLP.part.buried>
-5.0045

> <Gold.PLP.part.nonpolar>
-18.8413

> <Gold.PLP.part.repulsive>
0.3475

> <Gold.PLP.ligand.clash>
0.0000

> <Gold.PLP.ligand.torsion>
0.0378

> <Gold.PLP.Chemscore.Hbond>
1.8938

> <Gold.PLP.Chemscore.CHOScore>
1.0000

> <Gold.PLP.Chemscore.Metal>
0.0000

> <Gold.Chemscore.Hbonds>
donor molecule, donor type, donor heavy atom, donor atom, acceptor molecule, acceptor atom, score
      L1  H    11    26       P1 10171  1.00
      P1  H 11000 11005       L1    13  0.80
      L1  C    12    28       P1 10957  1.00

> <Gold.PLP.Chemscore.Internal.Correction>
0.0610

> <Gold.Rescore>
     Score         DG    S(hbond)    S(metal)    S(lipo)     H(rot)  DE(clash)    DE(int)     intcor
     13.45     -14.55       1.80        0.00      48.02       1.00       0.08       1.02       ----

> <Gold.Chemscore.Fitness>
13.4480

> <Gold.Chemscore.DG>
-14.5489

> <Gold.Chemscore.ZeroCoef>
-5.4800

> <Gold.Chemscore.Hbond>
1.7994

> <Gold.Chemscore.Metal>
0.0000

> <Gold.Chemscore.Lipo>
48.0232

> <Gold.Chemscore.Internal_Hbond>
0.0000

> <Gold.Chemscore.DEClash>
0.0790

> <Gold.Chemscore.DEInternal>
1.0219

> <Gold.Chemscore.Rot>
1.0000

> <Gold.Chemscore.Internal.Correction>
   9.000000E+99

> <Gold.Chemscore.Hbonds>
donor molecule, donor type, donor heavy atom, donor atom, acceptor molecule, acceptor atom, score
      L1  H    11    26       P1 10171  0.93
      P1  H 11000 11005       L1    13  0.11

> <Gold.Chemscore.Hbond.Weighted>
-6.0102

> <Gold.Chemscore.Metal.Weighted>
-0.0000

> <Gold.Chemscore.Lipo.Weighted>
-5.6187

> <Gold.Chemscore.Internal_Hbond.Weighted>
0.0000

> <Gold.Chemscore.DEClash.Weighted>
0.0790

> <Gold.Chemscore.DEInternal.Weighted>
1.0219

> <Gold.Chemscore.Rot.Weighted>
2.5600

> <Gold.Chemscore.Internal.Correction.Weighted>
   9.000000E+99

> <Gold.Protein.RotatedTorsions>
[ 6907 6896 6895 6894 ] final  124.26 input  -60.11 | X-H torsion
[ 7974 7965 7964 7962 ] final -129.74 input  175.53 | X-H torsion
[ 8008 7997 7996 7995 ] final   83.79 input   59.86 | X-H torsion
[ 10167 10162 10161 10158 ] final   41.69 input  -65.29 | X-H torsion
[ 10718 10713 10712 10709 ] final -119.98 input   66.30 | X-H torsion
[ 10763 10752 10751 10750 ] final -167.42 input  -60.55 | X-H torsion
[ 11005 11000 10999 10996 ] final   28.72 input  -57.11 | X-H torsion

> <Gold.Protein.ActiveResidues>
 VAL166  LYS551  ARG553  GLY616  TRP617  ASP618  TYR619  PRO620  LYS621  CYS622 
 ASP623  PHE694  ASN695  SER759  ASP760  ASP761  ALA762  ILE779  LEU786  VAL792 
 PHE793  MET794  SER795  GLU796  ALA797  LYS798  CYS799  TRP800  GLU811  SER814 

> <Gold.Protein.RotatedAtoms>
  152.4093  133.6938  159.6383 H   0  0  0  0  0  0  0  0  0  0  0  0  # atno 6907 bound_to 6896
  150.7974  133.8653  159.3252 H   0  0  0  0  0  0  0  0  0  0  0  0  # atno 6908 bound_to 6896
  151.6400  135.1015  160.0191 H   0  0  0  0  0  0  0  0  0  0  0  0  # atno 6909 bound_to 6896
  144.9542  140.7378  143.4769 H   0  0  0  0  0  0  0  0  0  0  0  0  # atno 7974 bound_to 7965
  155.9285  140.3416  155.6230 H   0  0  0  0  0  0  0  0  0  0  0  0  # atno 8008 bound_to 7997
  155.7186  140.0781  157.2359 H   0  0  0  0  0  0  0  0  0  0  0  0  # atno 8009 bound_to 7997
  154.4081  140.1609  156.2364 H   0  0  0  0  0  0  0  0  0  0  0  0  # atno 8010 bound_to 7997
  140.3619  144.2218  150.6137 H   0  0  0  0  0  0  0  0  0  0  0  0  # atno 10167 bound_to 10162
  156.1223  130.6332  150.9484 H   0  0  0  0  0  0  0  0  0  0  0  0  # atno 10718 bound_to 10713
  154.6733  135.2943  154.9712 H   0  0  0  0  0  0  0  0  0  0  0  0  # atno 10763 bound_to 10752
  154.0732  135.6615  153.4831 H   0  0  0  0  0  0  0  0  0  0  0  0  # atno 10764 bound_to 10752
  153.0500  135.5180  154.7740 H   0  0  0  0  0  0  0  0  0  0  0  0  # atno 10765 bound_to 10752
  140.3126  134.2632  155.7731 H   0  0  0  0  0  0  0  0  0  0  0  0  # atno 11005 bound_to 11000
  145.2797  139.1923  143.4797 LP  0  0  0  0  0  0  0  0  0  0  0  0  # atno 17320 bound_to 7965
  146.3331  140.2757  142.8608 LP  0  0  0  0  0  0  0  0  0  0  0  0  # atno 17321 bound_to 7965
  140.5119  143.2288  151.8522 LP  0  0  0  0  0  0  0  0  0  0  0  0  # atno 17342 bound_to 10162
  139.4813  144.4940  151.9148 LP  0  0  0  0  0  0  0  0  0  0  0  0  # atno 17343 bound_to 10162
  157.6406  131.0911  150.8259 LP  0  0  0  0  0  0  0  0  0  0  0  0  # atno 17370 bound_to 10713
  156.8354  130.5030  149.5327 LP  0  0  0  0  0  0  0  0  0  0  0  0  # atno 17371 bound_to 10713
  141.2105  133.7718  156.9930 LP  0  0  0  0  0  0  0  0  0  0  0  0  # atno 17394 bound_to 11000
  140.1011  134.9535  157.1924 LP  0  0  0  0  0  0  0  0  0  0  0  0  # atno 17395 bound_to 11000

$$$$
