AV-unprocessed.smi:1958|AV-procd|sdf|7908|dock10
  -GOLD-   2272010 73D 1   1.00000     0.00000
 Structure written by MMmdl.
 48 49  0  0  0  0  0  0  0  0  2 V2000
  153.4709  138.9871  159.6937 C   0  0  0  0  0  0  0  0  0  0  0  0
  154.0669  140.0619  158.9889 O   0  0  0  0  0  0  0  0  0  0  0  0
  154.4426  141.1292  159.8425 C   0  0  0  0  0  0  0  0  0  0  0  0
  153.1775  141.7237  160.4793 C   0  0  0  0  0  0  0  0  0  0  0  0
  152.3786  142.4641  159.4978 N   0  0  0  0  0  0  0  0  0  0  0  0
  151.9789  141.7070  158.4092 N   0  0  0  0  0  0  0  0  0  0  0  0
  151.2715  142.2445  157.4684 C   0  0  0  0  0  0  0  0  0  0  0  0
  150.8245  141.4648  156.2806 C   0  0  0  0  0  0  0  0  0  0  0  0
  151.3537  140.3984  155.9629 O   0  0  0  0  0  0  0  0  0  0  0  0
  149.8076  142.0044  155.5869 N   0  0  0  0  0  0  0  0  0  0  0  0
  149.2029  141.4060  154.4026 C   0  0  0  0  0  0  0  0  0  0  0  0
  147.8106  140.7882  154.7006 C   0  0  2  0  0  0  0  0  0  0  0  0
  147.3408  139.9275  153.5036 C   0  0  0  0  0  0  0  0  0  0  0  0
  146.7687  141.8105  155.0507 N   0  3  0  0  0  0  0  0  0  0  0  0
  146.3268  142.6086  153.8737 C   0  0  0  0  0  0  0  0  0  0  0  0
  145.3142  143.6915  154.2811 C   0  0  0  0  0  0  0  0  0  0  0  0
  144.1973  143.0820  154.9097 O   0  0  0  0  0  0  0  0  0  0  0  0
  144.5778  142.4086  156.0995 C   0  0  0  0  0  0  0  0  0  0  0  0
  145.5747  141.2839  155.7699 C   0  0  0  0  0  0  0  0  0  0  0  0
  150.8846  143.6434  157.5344 C   0  0  0  0  0  0  0  0  0  0  0  0
  151.2882  144.3709  158.5989 C   0  0  0  0  0  0  0  0  0  0  0  0
  152.0941  143.7898  159.6739 C   0  0  0  0  0  0  0  0  0  0  0  0
  152.4848  144.4349  160.6461 O   0  0  0  0  0  0  0  0  0  0  0  0
  153.2036  138.1939  158.9955 H   0  0  0  0  0  0  0  0  0  0  0  0
  152.5613  139.3064  160.2040 H   0  0  0  0  0  0  0  0  0  0  0  0
  154.1582  138.5693  160.4306 H   0  0  0  0  0  0  0  0  0  0  0  0
  155.1233  140.7668  160.6146 H   0  0  0  0  0  0  0  0  0  0  0  0
  154.9697  141.8947  159.2704 H   0  0  0  0  0  0  0  0  0  0  0  0
  152.5796  140.9204  160.9136 H   0  0  0  0  0  0  0  0  0  0  0  0
  153.4480  142.3685  161.3174 H   0  0  0  0  0  0  0  0  0  0  0  0
  149.4273  142.8835  155.9078 H   0  0  0  0  0  0  0  0  0  0  0  0
  149.1279  142.2051  153.6646 H   0  0  0  0  0  0  0  0  0  0  0  0
  149.8709  140.6440  153.9964 H   0  0  0  0  0  0  0  0  0  0  0  0
  147.9320  140.1334  155.5652 H   0  0  0  0  0  0  0  0  0  0  0  0
  148.0768  139.1723  153.2285 H   0  0  0  0  0  0  0  0  0  0  0  0
  147.1628  140.5452  152.6228 H   0  0  0  0  0  0  0  0  0  0  0  0
  146.4253  139.3779  153.7135 H   0  0  0  0  0  0  0  0  0  0  0  0
  147.1691  143.0997  153.3907 H   0  0  0  0  0  0  0  0  0  0  0  0
  145.8780  141.9463  153.1320 H   0  0  0  0  0  0  0  0  0  0  0  0
  145.7711  144.4262  154.9462 H   0  0  0  0  0  0  0  0  0  0  0  0
  144.9691  144.2323  153.3997 H   0  0  0  0  0  0  0  0  0  0  0  0
  145.0089  143.1150  156.8107 H   0  0  0  0  0  0  0  0  0  0  0  0
  143.6858  141.9926  156.5683 H   0  0  0  0  0  0  0  0  0  0  0  0
  145.0890  140.5180  155.1632 H   0  0  0  0  0  0  0  0  0  0  0  0
  145.8608  140.8237  156.7150 H   0  0  0  0  0  0  0  0  0  0  0  0
  150.2906  144.0986  156.7552 H   0  0  0  0  0  0  0  0  0  0  0  0
  151.0088  145.4125  158.6607 H   0  0  0  0  0  0  0  0  0  0  0  0
  147.2106  142.4543  155.6914 H   0  0  0  0  0  0  0  0  0  0  0  0
  1  2  1  0  0  0  0
  1 24  1  0  0  0  0
  1 25  1  0  0  0  0
  1 26  1  0  0  0  0
  2  3  1  0  0  0  0
  3  4  1  0  0  0  0
  3 27  1  0  0  0  0
  3 28  1  0  0  0  0
  4  5  1  0  0  0  0
  4 29  1  0  0  0  0
  4 30  1  0  0  0  0
  5 22  1  0  0  0  0
  5  6  1  0  0  0  0
  6  7  2  0  0  0  0
  7  8  1  0  0  0  0
  7 20  1  0  0  0  0
  8  9  2  0  0  0  0
  8 10  1  0  0  0  0
 10 11  1  0  0  0  0
 10 31  1  0  0  0  0
 11 12  1  0  0  0  0
 11 32  1  0  0  0  0
 11 33  1  0  0  0  0
 12 13  1  0  0  0  0
 12 14  1  0  0  0  0
 12 34  1  0  0  0  0
 13 35  1  0  0  0  0
 13 36  1  0  0  0  0
 13 37  1  0  0  0  0
 14 19  1  0  0  0  0
 14 15  1  0  0  0  0
 14 48  1  0  0  0  0
 15 16  1  0  0  0  0
 15 38  1  0  0  0  0
 15 39  1  0  0  0  0
 16 17  1  0  0  0  0
 16 40  1  0  0  0  0
 16 41  1  0  0  0  0
 17 18  1  0  0  0  0
 18 19  1  0  0  0  0
 18 42  1  0  0  0  0
 18 43  1  0  0  0  0
 19 44  1  0  0  0  0
 19 45  1  0  0  0  0
 20 21  2  0  0  0  0
 20 46  1  0  0  0  0
 21 22  1  0  0  0  0
 21 47  1  0  0  0  0
 22 23  2  0  0  0  0
M  CHG  1  14   1
M  END
> <s_m_source_file>
AV-unprocessed.smi

> <i_m_source_file_index>
1958

> <i_lp_mmshare_version>
43012

> <i_f3d_flags>
0

> <s_epik_input>
W0NIM11PW0NIMl1bQ0gyXW4xbmMoW2NIXVtjSF1jMT1PKUMoPU8pW05IXVtDSDJdW0NASF0oW0NIM10pTjJbQ0gyXVtDSDJdT1tDSDJdW0NIMl0y

> <s_epik_cmdline>
J2VwaWtfcHl0aG9uJywgJy1waCcsICc3LjAnLCAnLXRuJywgJzgnLCAnLW1hJywgJzIwMCcsICctbWV0YWxfYmluZGluZycsICctaW1hZScsICc8aW5maWxlLm1hZT4nLCAnLW9tYWUnLCAnPG91dGZpbGUubWFlPic=

> <r_lp_tautomer_probability>
1

> <r_epik_Ionization_Penalty>
0.724355

> <r_epik_Ionization_Penalty_Charging>
0.724348

> <r_epik_Ionization_Penalty_Neutral>
6.31911e-06

> <r_epik_State_Penalty>
0.749058

> <r_epik_Charging_Adjusted_Penalty>
1.47341

> <i_epik_Tot_Q>
1

> <i_epik_Tot_abs_Q>
1

> <r_epik_Metal_State_Penalty>
0.750821

> <b_epik_Metal_Only>
0

> <s_lp_Force_Field>
OPLS_2005

> <r_lp_Energy>
41.4704

> <b_lp_Chiralities_Consistent>
1

> <s_lp_Variant>
AV-unprocessed.smi:1958-3

> <Gold.Version>
5.8.1

> <Gold.Id.Protein>
6NUR|6NUR_protein|mol2

> <Gold.PLP.Fitness>
48.5888

> <Gold.PLP.PLP>
-43.4398

> <Gold.PLP.part.hbond>
-2.0000

> <Gold.PLP.part.metal>
0.0000

> <Gold.PLP.part.buried>
-2.3174

> <Gold.PLP.part.nonpolar>
-38.5471

> <Gold.PLP.part.repulsive>
0.4727

> <Gold.PLP.ligand.clash>
0.0000

> <Gold.PLP.ligand.torsion>
0.5179

> <Gold.PLP.Chemscore.Hbond>
2.0000

> <Gold.PLP.Chemscore.CHOScore>
0.0000

> <Gold.PLP.Chemscore.Metal>
0.0000

> <Gold.Chemscore.Hbonds>
donor molecule, donor type, donor heavy atom, donor atom, acceptor molecule, acceptor atom, score
      L1  H    10    31       P1  8028  1.00
      P1  H  7997  8010       L1     2  1.00

> <Gold.PLP.Chemscore.Internal.Correction>
0.1848

> <Gold.Rescore>
     Score         DG    S(hbond)    S(metal)    S(lipo)     H(rot)  DE(clash)    DE(int)     intcor
     13.58     -16.73       1.76        0.00      92.22       2.12       1.36       1.79       ----

> <Gold.Chemscore.Fitness>
13.5772

> <Gold.Chemscore.DG>
-16.7253

> <Gold.Chemscore.ZeroCoef>
-5.4800

> <Gold.Chemscore.Hbond>
1.7629

> <Gold.Chemscore.Metal>
0.0000

> <Gold.Chemscore.Lipo>
92.2201

> <Gold.Chemscore.Internal_Hbond>
0.0000

> <Gold.Chemscore.DEClash>
1.3622

> <Gold.Chemscore.DEInternal>
1.7859

> <Gold.Chemscore.Rot>
2.1221

> <Gold.Chemscore.Internal.Correction>
   9.000000E+99

> <Gold.Chemscore.Hbonds>
donor molecule, donor type, donor heavy atom, donor atom, acceptor molecule, acceptor atom, score
      L1  H    10    31       P1  8028  0.96
      P1  H  7997  8010       L1     2  0.87

> <Gold.Chemscore.Hbond.Weighted>
-5.8880

> <Gold.Chemscore.Metal.Weighted>
-0.0000

> <Gold.Chemscore.Lipo.Weighted>
-10.7897

> <Gold.Chemscore.Internal_Hbond.Weighted>
0.0000

> <Gold.Chemscore.DEClash.Weighted>
1.3622

> <Gold.Chemscore.DEInternal.Weighted>
1.7859

> <Gold.Chemscore.Rot.Weighted>
5.4325

> <Gold.Chemscore.Internal.Correction.Weighted>
   9.000000E+99

> <Gold.Protein.RotatedTorsions>
[ 6907 6896 6895 6894 ] final  -55.15 input  -60.11 | X-H torsion
[ 7974 7965 7964 7962 ] final  102.41 input  175.53 | X-H torsion
[ 8008 7997 7996 7995 ] final   13.53 input   59.86 | X-H torsion
[ 10167 10162 10161 10158 ] final  171.22 input  -65.29 | X-H torsion
[ 10718 10713 10712 10709 ] final  130.26 input   66.30 | X-H torsion
[ 10763 10752 10751 10750 ] final  -85.51 input  -60.55 | X-H torsion
[ 11005 11000 10999 10996 ] final   60.79 input  -57.11 | X-H torsion

> <Gold.Protein.ActiveResidues>
 VAL166  LYS551  ARG553  GLY616  TRP617  ASP618  TYR619  PRO620  LYS621  CYS622 
 ASP623  PHE694  ASN695  SER759  ASP760  ASP761  ALA762  ILE779  LEU786  VAL792 
 PHE793  MET794  SER795  GLU796  ALA797  LYS798  CYS799  TRP800  GLU811  SER814 

> <Gold.Protein.RotatedAtoms>
  150.8277  134.7515  159.6826 H   0  0  0  0  0  0  0  0  0  0  0  0  # atno 6907 bound_to 6896
  152.4385  134.5634  159.9910 H   0  0  0  0  0  0  0  0  0  0  0  0  # atno 6908 bound_to 6896
  151.5803  133.3341  159.3043 H   0  0  0  0  0  0  0  0  0  0  0  0  # atno 6909 bound_to 6896
  145.3595  139.2421  143.3514 H   0  0  0  0  0  0  0  0  0  0  0  0  # atno 7974 bound_to 7965
  154.8357  140.2906  155.5692 H   0  0  0  0  0  0  0  0  0  0  0  0  # atno 8008 bound_to 7997
  156.3008  140.2523  156.3222 H   0  0  0  0  0  0  0  0  0  0  0  0  # atno 8009 bound_to 7997
  154.9181  140.0386  157.1972 H   0  0  0  0  0  0  0  0  0  0  0  0  # atno 8010 bound_to 7997
  139.5040  144.3510  151.9923 H   0  0  0  0  0  0  0  0  0  0  0  0  # atno 10167 bound_to 10162
  157.5078  131.1096  150.9336 H   0  0  0  0  0  0  0  0  0  0  0  0  # atno 10718 bound_to 10713
  154.6119  135.5482  153.7482 H   0  0  0  0  0  0  0  0  0  0  0  0  # atno 10763 bound_to 10752
  153.0199  135.6391  154.1566 H   0  0  0  0  0  0  0  0  0  0  0  0  # atno 10764 bound_to 10752
  154.1504  135.2903  155.3117 H   0  0  0  0  0  0  0  0  0  0  0  0  # atno 10765 bound_to 10752
  140.0207  134.6157  155.9644 H   0  0  0  0  0  0  0  0  0  0  0  0  # atno 11005 bound_to 11000
  146.2933  140.4226  142.8731 LP  0  0  0  0  0  0  0  0  0  0  0  0  # atno 17320 bound_to 7965
  144.8657  140.7202  143.6079 LP  0  0  0  0  0  0  0  0  0  0  0  0  # atno 17321 bound_to 7965
  140.2946  144.3715  150.6078 LP  0  0  0  0  0  0  0  0  0  0  0  0  # atno 17342 bound_to 10162
  140.5920  143.2168  151.7235 LP  0  0  0  0  0  0  0  0  0  0  0  0  # atno 17343 bound_to 10162
  156.9986  130.5591  149.5309 LP  0  0  0  0  0  0  0  0  0  0  0  0  # atno 17370 bound_to 10713
  156.0269  130.5363  150.8431 LP  0  0  0  0  0  0  0  0  0  0  0  0  # atno 17371 bound_to 10713
  141.1772  133.6541  156.4874 LP  0  0  0  0  0  0  0  0  0  0  0  0  # atno 17394 bound_to 11000
  140.4392  134.7031  157.4983 LP  0  0  0  0  0  0  0  0  0  0  0  0  # atno 17395 bound_to 11000

$$$$
