#       Name:                AV-unprocessed.smi:2436
#       Creating user name   scv26
#       Creation time:       Fri Mar 27 13:22:39 2020


#       File generated by GOLD software.
#

@<TRIPOS>MOLECULE
AV-unprocessed.smi:2436
    42    43     1
SMALL
NO_CHARGES


@<TRIPOS>ATOM
      1 ****        -2.7242   1.5895  -2.2525 C.3            1 S1                 0.0000
      2 ****        -3.2511   0.8387  -1.0198 C.3            1 S1                 0.0000
      3 ****        -2.6490  -0.5658  -0.8267 C.3            1 S1                 0.0000
      4 ****        -1.1887  -0.4919  -0.7165 N.am           1 S1                 0.0000
      5 ****        -0.4890  -0.0069   0.3219 C.2            1 S1                 0.0000
      6 ****        -1.0089   0.4429   1.3435 O.2            1 S1                 0.0000
      7 ****         0.8335  -0.0803   0.0909 N.am           1 S1                 0.0000
      8 ****         1.8948   0.3285   0.9412 C.ar           1 S1                 0.0000
      9 ****         3.1988   0.1199   0.4385 C.ar           1 S1                 0.0000
     10 ****         4.2816   0.5095   1.2533 C.ar           1 S1                 0.0000
     11 ****         5.5707   0.3205   0.8003 O.3            1 S1                 0.0000
     12 ****         6.6445   0.7144   1.6472 C.3            1 S1                 0.0000
     13 ****         4.0794   1.0653   2.4724 N.ar           1 S1                 0.0000
     14 ****         2.8126   1.2224   2.8579 C.ar           1 S1                 0.0000
     15 ****         1.7228   0.8870   2.1649 N.ar           1 S1                 0.0000
     16 ****        -3.2604  -1.4804   0.2575 C.3            1 S1                 0.0000
     17 ****        -4.1255  -2.1106  -0.8367 C.3            1 S1                 0.0000
     18 ****        -3.0439  -1.6711  -1.8271 C.3            1 S1                 0.0000
     19 ****        -3.2205   2.5545  -2.3548 H              1 S1                 0.0000
     20 ****        -2.9049   1.0278  -3.1688 H              1 S1                 0.0000
     21 ****        -1.6532   1.7800  -2.1801 H              1 S1                 0.0000
     22 ****        -3.0762   1.4494  -0.1337 H              1 S1                 0.0000
     23 ****        -4.3357   0.7655  -1.1044 H              1 S1                 0.0000
     24 ****        -0.6669  -0.8387  -1.5080 H              1 S1                 0.0000
     25 ****         1.1137  -0.4756  -0.7944 H              1 S1                 0.0000
     26 ****         3.3681  -0.3229  -0.5323 H              1 S1                 0.0000
     27 ****         7.5918   0.4942   1.1553 H              1 S1                 0.0000
     28 ****         6.6282   0.1688   2.5918 H              1 S1                 0.0000
     29 ****         6.6189   1.7857   1.8517 H              1 S1                 0.0000
     30 ****         2.6528   1.6655   3.8295 H              1 S1                 0.0000
     31 ****        -2.5539  -2.1927   0.6886 H              1 S1                 0.0000
     32 ****        -3.8219  -0.9584   1.0330 H              1 S1                 0.0000
     33 ****        -4.2569  -3.1895  -0.7506 H              1 S1                 0.0000
     34 ****        -5.0758  -1.5947  -0.9835 H              1 S1                 0.0000
     35 ****        -3.4292  -1.3169  -2.7834 H              1 S1                 0.0000
     36 ****        -2.2763  -2.4350  -1.9672 H              1 S1                 0.0000
     37 ****        -2.0049   0.4602   1.4317 LP             1 S1                 0.0000
     38 ****        -0.4352   0.7909   2.0850 LP             1 S1                 0.0000
     39 ****         5.6632   0.8325  -0.0537 LP             1 S1                 0.0000
     40 ****         5.6805  -0.6563   0.6168 LP             1 S1                 0.0000
     41 ****         4.8431   1.3442   3.0547 LP             1 S1                 0.0000
     42 ****         0.8075   1.0427   2.5365 LP             1 S1                 0.0000
@<TRIPOS>BOND
    1    1    2 1     
    2    1   19 1     
    3    1   20 1     
    4    1   21 1     
    5    2    3 1     
    6    2   22 1     
    7    2   23 1     
    8    3   18 1     
    9    3    4 1     
   10    3   16 1     
   11    4    5 am    
   12    4   24 1     
   13    5    6 2     
   14    5    7 am    
   15    7    8 1     
   16    7   25 1     
   17    8   15 ar    
   18    8    9 ar    
   19    9   10 ar    
   20    9   26 1     
   21   10   11 1     
   22   10   13 ar    
   23   11   12 1     
   24   12   27 1     
   25   12   28 1     
   26   12   29 1     
   27   13   14 ar    
   28   14   15 ar    
   29   14   30 1     
   30   16   17 1     
   31   16   31 1     
   32   16   32 1     
   33   17   18 1     
   34   17   33 1     
   35   17   34 1     
   36   18   35 1     
   37   18   36 1     
   38    6   37 1     
   39    6   38 1     
   40   11   39 1     
   41   11   40 1     
   42   13   41 1     
   43   15   42 1     
@<TRIPOS>SUBSTRUCTURE
      1 S1             1
@<TRIPOS>SET
LONE_PAIRS      STATIC     ATOMS    <user>   **** ""
6 37 38 39 40 41 42
DONOR_HYDROGENS      STATIC     ATOMS    <user>   **** ""
2 24 25
ATOM$BLUE        STATIC     ATOMS    COLORGROUP SYSTEM
6 37 38 39 40 41 42
ATOM$RED        STATIC     ATOMS    COLORGROUP SYSTEM
2 24 25
