AV-unprocessed.smi:3032|AV-procd|sdf|11570|dock2
  -GOLD-   2272016533D 1   1.00000     0.00000
 Structure written by MMmdl.
 36 37  0  0  0  0  0  0  0  0  2 V2000
  151.4479  144.8247  159.4144 C   0  0  0  0  0  0  0  0  0  0  0  0
  152.4956  143.9932  160.1680 C   0  0  1  0  0  0  0  0  0  0  0  0
  152.1603  143.8866  161.6682 C   0  0  0  0  0  0  0  0  0  0  0  0
  153.2051  143.0481  162.4220 C   0  0  0  0  0  0  0  0  0  0  0  0
  153.3585  141.6531  161.7955 C   0  0  0  0  0  0  0  0  0  0  0  0
  153.7106  141.7524  160.2970 C   0  0  1  0  0  0  0  0  0  0  0  0
  153.8461  140.3623  159.6624 C   0  0  0  0  0  0  0  0  0  0  0  0
  154.9249  139.9977  159.1935 O   0  0  0  0  0  0  0  0  0  0  0  0
  152.7449  139.5950  159.6753 N   0  0  0  0  0  0  0  0  0  0  0  0
  152.6780  138.1915  159.2767 C   0  0  0  0  0  0  0  0  0  0  0  0
  153.3019  137.9693  157.8871 C   0  0  0  0  0  0  0  0  0  0  0  0
  152.3893  138.3722  156.7447 C   0  0  0  0  0  0  0  0  0  0  0  0
  152.5547  139.4478  155.9480 N   0  5  0  0  0  0  0  0  0  0  0  0
  151.6126  139.4784  155.0256 N   0  0  0  0  0  0  0  0  0  0  0  0
  150.8727  138.3921  155.2768 C   0  0  0  0  0  0  0  0  0  0  0  0
  151.3241  137.6935  156.3236 N   0  0  0  0  0  0  0  0  0  0  0  0
  152.6496  142.5894  159.5512 C   0  0  0  0  0  0  0  0  0  0  0  0
  150.4611  144.3640  159.4696 H   0  0  0  0  0  0  0  0  0  0  0  0
  151.7105  144.9232  158.3607 H   0  0  0  0  0  0  0  0  0  0  0  0
  151.3708  145.8297  159.8300 H   0  0  0  0  0  0  0  0  0  0  0  0
  153.4526  144.5087  160.0726 H   0  0  0  0  0  0  0  0  0  0  0  0
  152.1027  144.8819  162.1100 H   0  0  0  0  0  0  0  0  0  0  0  0
  151.1749  143.4356  161.7940 H   0  0  0  0  0  0  0  0  0  0  0  0
  154.1665  143.5630  162.4070 H   0  0  0  0  0  0  0  0  0  0  0  0
  152.9203  142.9552  163.4702 H   0  0  0  0  0  0  0  0  0  0  0  0
  154.1321  141.0976  162.3273 H   0  0  0  0  0  0  0  0  0  0  0  0
  152.4300  141.0957  161.9293 H   0  0  0  0  0  0  0  0  0  0  0  0
  154.6706  142.2645  160.2074 H   0  0  0  0  0  0  0  0  0  0  0  0
  151.9088  139.9857  160.0845 H   0  0  0  0  0  0  0  0  0  0  0  0
  153.2071  137.5945  160.0193 H   0  0  0  0  0  0  0  0  0  0  0  0
  151.6481  137.8312  159.2719 H   0  0  0  0  0  0  0  0  0  0  0  0
  154.2279  138.5394  157.8035 H   0  0  0  0  0  0  0  0  0  0  0  0
  153.5738  136.9204  157.7665 H   0  0  0  0  0  0  0  0  0  0  0  0
  150.0050  138.1087  154.6940 H   0  0  0  0  0  0  0  0  0  0  0  0
  151.6864  142.0765  159.5720 H   0  0  0  0  0  0  0  0  0  0  0  0
  152.9247  142.6803  158.4993 H   0  0  0  0  0  0  0  0  0  0  0  0
  1  2  1  0  0  0  0
  1 18  1  0  0  0  0
  1 19  1  0  0  0  0
  1 20  1  0  0  0  0
  2 17  1  0  0  0  0
  2  3  1  0  0  0  0
  2 21  1  0  0  0  0
  3  4  1  0  0  0  0
  3 22  1  0  0  0  0
  3 23  1  0  0  0  0
  4  5  1  0  0  0  0
  4 24  1  0  0  0  0
  4 25  1  0  0  0  0
  5  6  1  0  0  0  0
  5 26  1  0  0  0  0
  5 27  1  0  0  0  0
  6  7  1  0  0  0  0
  6 17  1  0  0  0  0
  6 28  1  0  0  0  0
  7  8  2  0  0  0  0
  7  9  1  0  0  0  0
  9 10  1  0  0  0  0
  9 29  1  0  0  0  0
 10 11  1  0  0  0  0
 10 30  1  0  0  0  0
 10 31  1  0  0  0  0
 11 32  1  0  0  0  0
 11 33  1  0  0  0  0
 11 12  1  0  0  0  0
 12 16  2  0  0  0  0
 12 13  1  0  0  0  0
 13 14  1  0  0  0  0
 14 15  2  0  0  0  0
 15 16  1  0  0  0  0
 15 34  1  0  0  0  0
 17 35  1  0  0  0  0
 17 36  1  0  0  0  0
M  CHG  1  13  -1
M  END
> <s_m_source_file>
AV-unprocessed.smi

> <i_m_source_file_index>
3032

> <i_lp_mmshare_version>
43012

> <i_f3d_flags>
0

> <s_epik_input>
W0NIM11bQ0BASF0xW0NIMl1bQ0gyXVtDSDJdW0NASF0oW0NIMl0xKUMoPU8pW05IXVtDSDJdW0NIMl1jMm5uW2NIXVtuSF0y

> <s_epik_cmdline>
J2VwaWtfcHl0aG9uJywgJy1waCcsICc3LjAnLCAnLXRuJywgJzgnLCAnLW1hJywgJzIwMCcsICctbWV0YWxfYmluZGluZycsICctaW1hZScsICc8aW5maWxlLm1hZT4nLCAnLW9tYWUnLCAnPG91dGZpbGUubWFlPic=

> <r_lp_tautomer_probability>
0.948284

> <r_epik_Ionization_Penalty>
12.042

> <r_epik_Ionization_Penalty_Charging>
12.042

> <r_epik_Ionization_Penalty_Neutral>
4.36781e-08

> <r_epik_State_Penalty>
4.67286

> <r_epik_Charging_Adjusted_Penalty>
16.7149

> <i_epik_Tot_Q>
-1

> <i_epik_Tot_abs_Q>
1

> <r_epik_Metal_State_Penalty>
0.981637

> <b_epik_Metal_Only>
1

> <s_lp_Force_Field>
OPLS_2005

> <r_lp_Energy>
10.6668

> <b_lp_Chiralities_Consistent>
1

> <s_lp_Variant>
AV-unprocessed.smi:3032-14

> <Gold.Version>
5.8.1

> <Gold.Id.Protein>
6NUR|6NUR_protein|mol2

> <Gold.PLP.Fitness>
50.8353

> <Gold.PLP.PLP>
-39.4789

> <Gold.PLP.part.hbond>
-3.0000

> <Gold.PLP.part.metal>
0.0000

> <Gold.PLP.part.buried>
-5.5830

> <Gold.PLP.part.nonpolar>
-29.6781

> <Gold.PLP.part.repulsive>
0.1768

> <Gold.PLP.ligand.clash>
0.0000

> <Gold.PLP.ligand.torsion>
0.2777

> <Gold.PLP.Chemscore.Hbond>
3.9600

> <Gold.PLP.Chemscore.CHOScore>
0.0000

> <Gold.PLP.Chemscore.Metal>
0.0000

> <Gold.Chemscore.Hbonds>
donor molecule, donor type, donor heavy atom, donor atom, acceptor molecule, acceptor atom, score
      P1  H  7989  7998       L1    14  0.93
      P1  H  7997  8008       L1    13  1.81
      P1  H  7997  8010       L1     8  0.99

> <Gold.PLP.Chemscore.Internal.Correction>
0.0318

> <Gold.Rescore>
     Score         DG    S(hbond)    S(metal)    S(lipo)     H(rot)  DE(clash)    DE(int)     intcor
     18.46     -19.96       2.86        0.00      90.68       2.21       0.01       1.49       ----

> <Gold.Chemscore.Fitness>
18.4572

> <Gold.Chemscore.DG>
-19.9606

> <Gold.Chemscore.ZeroCoef>
-5.4800

> <Gold.Chemscore.Hbond>
2.8566

> <Gold.Chemscore.Metal>
0.0000

> <Gold.Chemscore.Lipo>
90.6823

> <Gold.Chemscore.Internal_Hbond>
0.0000

> <Gold.Chemscore.DEClash>
0.0106

> <Gold.Chemscore.DEInternal>
1.4928

> <Gold.Chemscore.Rot>
2.2149

> <Gold.Chemscore.Internal.Correction>
   9.000000E+99

> <Gold.Chemscore.Hbonds>
donor molecule, donor type, donor heavy atom, donor atom, acceptor molecule, acceptor atom, score
      P1  H  7989  7998       L1    14  0.86
      P1  H  7997  8008       L1    13  0.74
      P1  H  7997  8010       L1     8  0.94

> <Gold.Chemscore.Hbond.Weighted>
-9.5410

> <Gold.Chemscore.Metal.Weighted>
-0.0000

> <Gold.Chemscore.Lipo.Weighted>
-10.6098

> <Gold.Chemscore.Internal_Hbond.Weighted>
0.0000

> <Gold.Chemscore.DEClash.Weighted>
0.0106

> <Gold.Chemscore.DEInternal.Weighted>
1.4928

> <Gold.Chemscore.Rot.Weighted>
5.6702

> <Gold.Chemscore.Internal.Correction.Weighted>
   9.000000E+99

> <Gold.Protein.RotatedTorsions>
[ 6907 6896 6895 6894 ] final   17.13 input  -60.11 | X-H torsion
[ 7974 7965 7964 7962 ] final   72.15 input  175.53 | X-H torsion
[ 8008 7997 7996 7995 ] final  -14.00 input   59.86 | X-H torsion
[ 10167 10162 10161 10158 ] final  -86.77 input  -65.29 | X-H torsion
[ 10718 10713 10712 10709 ] final  154.49 input   66.30 | X-H torsion
[ 10763 10752 10751 10750 ] final  167.05 input  -60.55 | X-H torsion
[ 11005 11000 10999 10996 ] final   20.71 input  -57.11 | X-H torsion

> <Gold.Protein.ActiveResidues>
 VAL166  LYS551  ARG553  GLY616  TRP617  ASP618  TYR619  PRO620  LYS621  CYS622 
 ASP623  PHE694  ASN695  SER759  ASP760  ASP761  ALA762  ILE779  LEU786  VAL792 
 PHE793  MET794  SER795  GLU796  ALA797  LYS798  CYS799  TRP800  GLU811  SER814 

> <Gold.Protein.RotatedAtoms>
  151.8448  135.0578  160.0451 H   0  0  0  0  0  0  0  0  0  0  0  0  # atno 6907 bound_to 6896
  152.2781  133.5440  159.5489 H   0  0  0  0  0  0  0  0  0  0  0  0  # atno 6908 bound_to 6896
  150.7178  134.0518  159.3843 H   0  0  0  0  0  0  0  0  0  0  0  0  # atno 6909 bound_to 6896
  145.7570  139.2784  143.1398 H   0  0  0  0  0  0  0  0  0  0  0  0  # atno 7974 bound_to 7965
  154.5246  140.2234  155.8913 H   0  0  0  0  0  0  0  0  0  0  0  0  # atno 8008 bound_to 7997
  156.1699  140.3124  155.8920 H   0  0  0  0  0  0  0  0  0  0  0  0  # atno 8009 bound_to 7997
  155.3579  140.0459  157.3037 H   0  0  0  0  0  0  0  0  0  0  0  0  # atno 8010 bound_to 7997
  140.3909  143.2705  151.9265 H   0  0  0  0  0  0  0  0  0  0  0  0  # atno 10167 bound_to 10162
  157.2310  131.0739  151.1853 H   0  0  0  0  0  0  0  0  0  0  0  0  # atno 10718 bound_to 10713
  154.3481  135.2753  155.2387 H   0  0  0  0  0  0  0  0  0  0  0  0  # atno 10763 bound_to 10752
  154.4628  135.5903  153.6271 H   0  0  0  0  0  0  0  0  0  0  0  0  # atno 10764 bound_to 10752
  152.9852  135.6069  154.3688 H   0  0  0  0  0  0  0  0  0  0  0  0  # atno 10765 bound_to 10752
  140.3996  134.1732  155.7663 H   0  0  0  0  0  0  0  0  0  0  0  0  # atno 11005 bound_to 11000
  146.0301  140.8266  142.9880 LP  0  0  0  0  0  0  0  0  0  0  0  0  # atno 17320 bound_to 7965
  144.6838  140.2756  143.7299 LP  0  0  0  0  0  0  0  0  0  0  0  0  # atno 17321 bound_to 7965
  139.4789  144.5728  151.8060 LP  0  0  0  0  0  0  0  0  0  0  0  0  # atno 17342 bound_to 10162
  140.4840  144.1407  150.5937 LP  0  0  0  0  0  0  0  0  0  0  0  0  # atno 17343 bound_to 10162
  157.3478  130.7066  149.6422 LP  0  0  0  0  0  0  0  0  0  0  0  0  # atno 17370 bound_to 10713
  155.9675  130.4261  150.4684 LP  0  0  0  0  0  0  0  0  0  0  0  0  # atno 17371 bound_to 10713
  141.1861  133.8309  157.1079 LP  0  0  0  0  0  0  0  0  0  0  0  0  # atno 17394 bound_to 11000
  140.0346  134.9884  157.0846 LP  0  0  0  0  0  0  0  0  0  0  0  0  # atno 17395 bound_to 11000

$$$$
