AV-unprocessed.smi:40|AV-procd|sdf|369|dock10
  -GOLD-   2262016213D 1   1.00000     0.00000
 Structure written by MMmdl.
 47 48  0  0  0  0  0  0  0  0  1 V2000
  152.7708  143.6013  161.8108 C   0  0  0  0  0  0  0  0  0  0  0  0
  153.1097  142.5808  160.7189 C   0  0  0  0  0  0  0  0  0  0  0  0
  153.4906  143.2453  159.3882 C   0  0  0  0  0  0  0  0  0  0  0  0
  152.3633  144.1189  158.8223 C   0  0  0  0  0  0  0  0  0  0  0  0
  151.0827  143.3145  158.5506 C   0  0  0  0  0  0  0  0  0  0  0  0
  151.2555  142.4560  157.4316 O   0  0  0  0  0  0  0  0  0  0  0  0
  150.7609  141.1977  157.4393 C   0  0  0  0  0  0  0  0  0  0  0  0
  149.7974  140.8340  158.1130 O   0  0  0  0  0  0  0  0  0  0  0  0
  151.4947  140.3477  156.5240 N   0  0  0  0  0  0  0  0  0  0  0  0
  151.2667  139.0383  156.2849 C   0  0  0  0  0  0  0  0  0  0  0  0
  151.8223  138.1640  157.1034 N   0  0  0  0  0  0  0  0  0  0  0  0
  151.6652  136.8087  156.9864 C   0  0  0  0  0  0  0  0  0  0  0  0
  152.1789  136.0426  157.8004 O   0  0  0  0  0  0  0  0  0  0  0  0
  150.8819  136.3348  155.9081 N   0  0  0  0  0  0  0  0  0  0  0  0
  150.6642  134.8481  155.7596 C   0  0  2  0  0  0  0  0  0  0  0  0
  149.9626  134.6107  154.5709 O   0  0  0  0  0  0  0  0  0  0  0  0
  148.8318  133.7783  154.8114 C   0  0  1  0  0  0  0  0  0  0  0  0
  149.2124  132.3207  154.4939 C   0  0  0  0  0  0  0  0  0  0  0  0
  148.4793  134.0703  156.2737 C   0  0  1  0  0  0  0  0  0  0  0  0
  147.6980  133.0755  156.9073 O   0  0  0  0  0  0  0  0  0  0  0  0
  149.8285  134.3169  156.9369 C   0  0  1  0  0  0  0  0  0  0  0  0
  150.3997  133.1415  157.4820 O   0  0  0  0  0  0  0  0  0  0  0  0
  150.2936  137.2378  155.0350 C   0  0  0  0  0  0  0  0  0  0  0  0
  150.4559  138.5706  155.1742 C   0  0  0  0  0  0  0  0  0  0  0  0
  149.8894  139.4192  154.2985 F   0  0  0  0  0  0  0  0  0  0  0  0
  151.6536  134.3951  155.6773 H   0  0  0  0  0  0  0  0  0  0  0  0
  148.0138  134.0782  154.1554 H   0  0  0  0  0  0  0  0  0  0  0  0
  147.9121  135.0018  156.3014 H   0  0  0  0  0  0  0  0  0  0  0  0
  149.7528  135.0584  157.7337 H   0  0  0  0  0  0  0  0  0  0  0  0
  152.5005  143.1000  162.7404 H   0  0  0  0  0  0  0  0  0  0  0  0
  151.9305  144.2301  161.5153 H   0  0  0  0  0  0  0  0  0  0  0  0
  153.6206  144.2520  162.0189 H   0  0  0  0  0  0  0  0  0  0  0  0
  153.9305  141.9491  161.0606 H   0  0  0  0  0  0  0  0  0  0  0  0
  152.2549  141.9208  160.5670 H   0  0  0  0  0  0  0  0  0  0  0  0
  154.3843  143.8548  159.5293 H   0  0  0  0  0  0  0  0  0  0  0  0
  153.7523  142.4763  158.6603 H   0  0  0  0  0  0  0  0  0  0  0  0
  152.1407  144.9250  159.5224 H   0  0  0  0  0  0  0  0  0  0  0  0
  152.7019  144.5938  157.9008 H   0  0  0  0  0  0  0  0  0  0  0  0
  150.7820  142.7488  159.4337 H   0  0  0  0  0  0  0  0  0  0  0  0
  150.2638  143.9980  158.3254 H   0  0  0  0  0  0  0  0  0  0  0  0
  152.2815  140.7884  156.0704 H   0  0  0  0  0  0  0  0  0  0  0  0
  148.3748  131.6454  154.6697 H   0  0  0  0  0  0  0  0  0  0  0  0
  150.0527  131.9751  155.0952 H   0  0  0  0  0  0  0  0  0  0  0  0
  149.4981  132.2195  153.4466 H   0  0  0  0  0  0  0  0  0  0  0  0
  147.4672  133.3868  157.7695 H   0  0  0  0  0  0  0  0  0  0  0  0
  149.7375  132.4670  157.4976 H   0  0  0  0  0  0  0  0  0  0  0  0
  149.6854  136.8841  154.2153 H   0  0  0  0  0  0  0  0  0  0  0  0
  1  2  1  0  0  0  0
  1 30  1  0  0  0  0
  1 31  1  0  0  0  0
  1 32  1  0  0  0  0
  2  3  1  0  0  0  0
  2 33  1  0  0  0  0
  2 34  1  0  0  0  0
  3  4  1  0  0  0  0
  3 35  1  0  0  0  0
  3 36  1  0  0  0  0
  4  5  1  0  0  0  0
  4 37  1  0  0  0  0
  4 38  1  0  0  0  0
  5  6  1  0  0  0  0
  5 39  1  0  0  0  0
  5 40  1  0  0  0  0
  6  7  1  0  0  0  0
  7  8  2  0  0  0  0
  7  9  1  0  0  0  0
  9 10  1  0  0  0  0
  9 41  1  0  0  0  0
 10 24  1  0  0  0  0
 10 11  2  0  0  0  0
 11 12  1  0  0  0  0
 12 13  2  0  0  0  0
 12 14  1  0  0  0  0
 14 15  1  0  0  0  0
 14 23  1  0  0  0  0
 15 26  1  0  0  0  0
 15 21  1  0  0  0  0
 15 16  1  0  0  0  0
 16 17  1  0  0  0  0
 17 27  1  0  0  0  0
 17 18  1  0  0  0  0
 17 19  1  0  0  0  0
 18 42  1  0  0  0  0
 18 43  1  0  0  0  0
 18 44  1  0  0  0  0
 19 28  1  0  0  0  0
 19 20  1  0  0  0  0
 19 21  1  0  0  0  0
 20 45  1  0  0  0  0
 21 29  1  0  0  0  0
 21 22  1  0  0  0  0
 22 46  1  0  0  0  0
 23 24  2  0  0  0  0
 23 47  1  0  0  0  0
 24 25  1  0  0  0  0
M  END
> <s_m_source_file>
AV-unprocessed.smi

> <i_m_source_file_index>
40

> <i_lp_mmshare_version>
43012

> <i_f3d_flags>
0

> <s_epik_input>
W0NIM11bQ0gyXVtDSDJdW0NIMl1bQ0gyXU9DKD1PKVtOSF1jMW5jKD1PKW4oW2NIXWMxRilbQ0BASF0yT1tDQEhdKFtDSDNdKVtDQEBIXShbT0hdKVtDQEhdMltPSF0=

> <s_epik_cmdline>
J2VwaWtfcHl0aG9uJywgJy1waCcsICc3LjAnLCAnLXRuJywgJzgnLCAnLW1hJywgJzIwMCcsICctbWV0YWxfYmluZGluZycsICctaW1hZScsICc8aW5maWxlLm1hZT4nLCAnLW9tYWUnLCAnPG91dGZpbGUubWFlPic=

> <r_lp_tautomer_probability>
1

> <r_epik_Ionization_Penalty>
2.29506e-06

> <r_epik_Ionization_Penalty_Charging>
8.26867e-09

> <r_epik_Ionization_Penalty_Neutral>
2.2868e-06

> <r_epik_State_Penalty>
-0

> <r_epik_Charging_Adjusted_Penalty>
8.26867e-09

> <i_epik_Tot_Q>
0

> <i_epik_Tot_abs_Q>
0

> <r_epik_Metal_State_Penalty>
-0

> <b_epik_Metal_Only>
0

> <s_epik_Chemistry_Notes>
This compound has an ester and may undergo hydrolysis at high or low pH. This compound contains an acetal/aminal-like group ( X-CH(R)-Y where X, Y are N, S, or O) that may be acid/base labile, releasing an aldehyde.

> <s_lp_Force_Field>
OPLS_2005

> <r_lp_Energy>
36.9864

> <b_lp_Chiralities_Consistent>
1

> <s_lp_Variant>
AV-unprocessed.smi:40-3

> <Gold.Version>
5.8.1

> <Gold.Id.Protein>
6NUR|6NUR_protein|mol2

> <Gold.PLP.Fitness>
43.7933

> <Gold.PLP.PLP>
-40.6833

> <Gold.PLP.part.hbond>
-2.0000

> <Gold.PLP.part.metal>
0.0000

> <Gold.PLP.part.buried>
-4.0845

> <Gold.PLP.part.nonpolar>
-34.9308

> <Gold.PLP.part.repulsive>
0.3982

> <Gold.PLP.ligand.clash>
0.0000

> <Gold.PLP.ligand.torsion>
1.4981

> <Gold.PLP.Chemscore.Hbond>
1.0182

> <Gold.PLP.Chemscore.CHOScore>
1.0000

> <Gold.PLP.Chemscore.Metal>
0.0000

> <Gold.Chemscore.Hbonds>
donor molecule, donor type, donor heavy atom, donor atom, acceptor molecule, acceptor atom, score
      P1  H  6896  6907       L1    22  1.00
      L1  C    23    47       P1  7948  1.00

> <Gold.PLP.Chemscore.Internal.Correction>
0.0515

> <Gold.Rescore>
     Score         DG    S(hbond)    S(metal)    S(lipo)     H(rot)  DE(clash)    DE(int)     intcor
      8.05      -9.78       1.02        0.00      88.38       3.70       0.11       1.63       ----

> <Gold.Chemscore.Fitness>
8.0498

> <Gold.Chemscore.DG>
-9.7805

> <Gold.Chemscore.ZeroCoef>
-5.4800

> <Gold.Chemscore.Hbond>
1.0242

> <Gold.Chemscore.Metal>
0.0000

> <Gold.Chemscore.Lipo>
88.3815

> <Gold.Chemscore.Internal_Hbond>
0.0000

> <Gold.Chemscore.DEClash>
0.1053

> <Gold.Chemscore.DEInternal>
1.6254

> <Gold.Chemscore.Rot>
3.6957

> <Gold.Chemscore.Internal.Correction>
   9.000000E+99

> <Gold.Chemscore.Hbonds>
donor molecule, donor type, donor heavy atom, donor atom, acceptor molecule, acceptor atom, score
      P1  H  6896  6907       L1    22  0.56
      P1  H  6896  6908       L1    13  0.01

> <Gold.Chemscore.Hbond.Weighted>
-3.4208

> <Gold.Chemscore.Metal.Weighted>
-0.0000

> <Gold.Chemscore.Lipo.Weighted>
-10.3406

> <Gold.Chemscore.Internal_Hbond.Weighted>
0.0000

> <Gold.Chemscore.DEClash.Weighted>
0.1053

> <Gold.Chemscore.DEInternal.Weighted>
1.6254

> <Gold.Chemscore.Rot.Weighted>
9.4610

> <Gold.Chemscore.Internal.Correction.Weighted>
   9.000000E+99

> <Gold.Protein.RotatedTorsions>
[ 6907 6896 6895 6894 ] final -142.02 input  -60.11 | X-H torsion
[ 7974 7965 7964 7962 ] final  -69.97 input  175.53 | X-H torsion
[ 8008 7997 7996 7995 ] final   -5.22 input   59.86 | X-H torsion
[ 10167 10162 10161 10158 ] final -126.74 input  -65.29 | X-H torsion
[ 10718 10713 10712 10709 ] final  106.06 input   66.30 | X-H torsion
[ 10763 10752 10751 10750 ] final  -30.28 input  -60.55 | X-H torsion
[ 11005 11000 10999 10996 ] final  -16.86 input  -57.11 | X-H torsion

> <Gold.Protein.ActiveResidues>
 VAL166  LYS551  ARG553  GLY616  TRP617  ASP618  TYR619  PRO620  LYS621  CYS622 
 ASP623  PHE694  ASN695  SER759  ASP760  ASP761  ALA762  ILE779  LEU786  VAL792 
 PHE793  MET794  SER795  GLU796  ALA797  LYS798  CYS799  TRP800  GLU811  SER814 

> <Gold.Protein.RotatedAtoms>
  151.0816  133.5386  159.2620 H   0  0  0  0  0  0  0  0  0  0  0  0  # atno 6907 bound_to 6896
  151.2287  135.0545  159.8989 H   0  0  0  0  0  0  0  0  0  0  0  0  # atno 6908 bound_to 6896
  152.5424  134.0608  159.8205 H   0  0  0  0  0  0  0  0  0  0  0  0  # atno 6909 bound_to 6896
  145.6969  140.9131  143.0752 H   0  0  0  0  0  0  0  0  0  0  0  0  # atno 7974 bound_to 7965
  154.6062  140.2464  155.7728 H   0  0  0  0  0  0  0  0  0  0  0  0  # atno 8008 bound_to 7997
  156.2342  140.2956  156.0220 H   0  0  0  0  0  0  0  0  0  0  0  0  # atno 8009 bound_to 7997
  155.2128  140.0398  157.2926 H   0  0  0  0  0  0  0  0  0  0  0  0  # atno 8010 bound_to 7997
  139.9682  143.5875  152.2422 H   0  0  0  0  0  0  0  0  0  0  0  0  # atno 10167 bound_to 10162
  157.6682  131.0842  150.5949 H   0  0  0  0  0  0  0  0  0  0  0  0  # atno 10718 bound_to 10713
  153.7783  135.6907  153.4893 H   0  0  0  0  0  0  0  0  0  0  0  0  # atno 10763 bound_to 10752
  153.1828  135.4500  155.0049 H   0  0  0  0  0  0  0  0  0  0  0  0  # atno 10764 bound_to 10752
  154.8091  135.3370  154.7288 H   0  0  0  0  0  0  0  0  0  0  0  0  # atno 10765 bound_to 10752
  140.8110  133.8141  155.9563 H   0  0  0  0  0  0  0  0  0  0  0  0  # atno 11005 bound_to 11000
  144.6980  139.8896  143.7452 LP  0  0  0  0  0  0  0  0  0  0  0  0  # atno 17320 bound_to 7965
  146.0832  139.3820  143.0451 LP  0  0  0  0  0  0  0  0  0  0  0  0  # atno 17321 bound_to 7965
  139.6501  144.7660  151.2164 LP  0  0  0  0  0  0  0  0  0  0  0  0  # atno 17342 bound_to 10162
  140.7531  143.6174  150.8546 LP  0  0  0  0  0  0  0  0  0  0  0  0  # atno 17343 bound_to 10162
  156.6250  130.4416  149.5808 LP  0  0  0  0  0  0  0  0  0  0  0  0  # atno 17370 bound_to 10713
  156.2326  130.6803  151.1478 LP  0  0  0  0  0  0  0  0  0  0  0  0  # atno 17371 bound_to 10713
  140.9198  134.2156  157.4934 LP  0  0  0  0  0  0  0  0  0  0  0  0  # atno 17394 bound_to 11000
  139.8714  134.9787  156.5008 LP  0  0  0  0  0  0  0  0  0  0  0  0  # atno 17395 bound_to 11000

$$$$
